MODEL 1
REMARK VINA RESULT:     -12.5      0.000      0.000
REMARK SMILES O=C(OCCOCCOC(=O)[C@@H]1CCCC[C@H]1C(=O)Nc1cccc(-c2nnc(-c3ccccc3)o2)c1)c1ccc(-c2c3nc(c(-c4c(F)c(F)c(F)c(F)c4F)c4ccc([nH]4)c(-c4c(F)c(F)c(F)c(F)c4F)c4nc(c(-c5c(F)c(F)c(F)c(F)c5F)c5ccc2[nH]5)C=C4)C=C3)cc1
REMARK SMILES IDX 7 1 6 2 5 3 4 4 3 5 2 6 1 7 38 8 39 9 100 10 40 11 99 12
REMARK SMILES IDX 41 13 42 14 43 15 93 16 44 17 98 18 92 19 94 20 45 21 97 22
REMARK SMILES IDX 91 23 90 24 46 26 78 27 58 28 77 29 59 30 62 31 76 32 95 33
REMARK SMILES IDX 60 34 61 35 75 37 96 38 63 39 47 40 48 41 56 42 49 43 50 44
REMARK SMILES IDX 54 45 57 46 51 47 52 48 55 49 53 50 79 51 80 52 88 53 81 54
REMARK SMILES IDX 82 55 86 56 89 57 83 58 84 59 87 60 85 61 64 62 65 63 73 64
REMARK SMILES IDX 66 65 67 66 71 67 74 68 68 69 69 70 72 71 70 72 8 73 9 74
REMARK SMILES IDX 10 75 11 76 12 77 13 78 17 79 14 80 16 81 15 82 18 83 19 84
REMARK SMILES IDX 20 85 21 87 22 88 37 89 23 90 25 91 24 92 26 93 27 94 36 95
REMARK SMILES IDX 28 96 29 97 30 98 31 99 35 100 32 101 34 102 33 103
REMARK H PARENT 94 25 62 36 20 86
REMARK Flexibility Score: inf
ROOT
ATOM      1  C   UNL A   1      33.004  28.487  27.250  1.00  0.00     0.202 C 
ENDROOT
BRANCH   1   2
ATOM      2  O   UNL A   1      32.028  29.499  26.983  1.00  0.00    -0.374 OA
BRANCH   2   3
ATOM      3  C   UNL A   1      32.460  30.800  26.583  1.00  0.00     0.202 C 
BRANCH   3   4
ATOM      4  C   UNL A   1      31.751  32.068  27.101  1.00  0.00     0.261 C 
BRANCH   4   5
ATOM      5  O   UNL A   1      32.572  33.252  27.109  1.00  0.00    -0.460 OA
BRANCH   5   6
ATOM      6  C   UNL A   1      33.108  33.817  28.226  1.00  0.00     0.338 C 
ATOM      7  O   UNL A   1      32.569  34.779  28.760  1.00  0.00    -0.246 OA
BRANCH   6   8
ATOM      8  C   UNL A   1      34.389  33.297  28.775  1.00  0.00     0.060 A 
ATOM      9  C   UNL A   1      34.453  32.048  29.369  1.00  0.00     0.016 A 
ATOM     10  C   UNL A   1      35.577  34.023  28.662  1.00  0.00     0.016 A 
ATOM     11  C   UNL A   1      35.559  31.585  30.018  1.00  0.00     0.010 A 
ATOM     12  C   UNL A   1      36.770  33.487  29.170  1.00  0.00     0.010 A 
ATOM     13  C   UNL A   1      36.748  32.266  29.860  1.00  0.00    -0.014 A 
BRANCH  13  14
ATOM     14  C   UNL A   1      37.893  31.630  30.520  1.00  0.00     0.031 A 
ATOM     15  C   UNL A   1      38.000  31.751  32.000  1.00  0.00     0.074 A 
ATOM     16  C   UNL A   1      38.629  30.750  29.809  1.00  0.00     0.049 A 
ATOM     17  N   UNL A   1      38.904  31.264  32.800  1.00  0.00    -0.248 NA
ATOM     18  C   UNL A   1      36.931  32.506  32.678  1.00  0.00     0.031 C 
ATOM     19  C   UNL A   1      38.434  30.438  28.383  1.00  0.00     0.029 A 
ATOM     20  N   UNL A   1      39.627  29.899  30.192  1.00  0.00    -0.354 N 
ATOM     21  C   UNL A   1      38.537  31.681  34.069  1.00  0.00     0.074 A 
ATOM     22  C   UNL A   1      37.331  32.467  33.939  1.00  0.00     0.031 C 
ATOM     23  C   UNL A   1      39.253  29.438  28.031  1.00  0.00     0.029 A 
ATOM     24  C   UNL A   1      40.105  29.122  29.164  1.00  0.00     0.049 A 
ATOM     25  H   UNL A   1      39.970  29.848  31.113  1.00  0.00     0.167 HD
ATOM     26  C   UNL A   1      39.172  31.425  35.233  1.00  0.00     0.037 A 
ATOM     27  C   UNL A   1      41.162  28.290  29.141  1.00  0.00     0.037 A 
ATOM     28  C   UNL A   1      40.371  30.635  35.303  1.00  0.00     0.049 A 
ATOM     29  C   UNL A   1      41.930  28.136  30.425  1.00  0.00     0.074 A 
ATOM     30  C   UNL A   1      41.187  30.390  36.389  1.00  0.00     0.029 A 
ATOM     31  N   UNL A   1      40.918  29.952  34.221  1.00  0.00    -0.354 N 
ATOM     32  N   UNL A   1      41.665  28.638  31.610  1.00  0.00    -0.248 NA
ATOM     33  C   UNL A   1      43.146  27.322  30.371  1.00  0.00     0.031 C 
ATOM     34  C   UNL A   1      42.255  29.595  35.952  1.00  0.00     0.029 A 
ATOM     35  C   UNL A   1      42.070  29.293  34.610  1.00  0.00     0.049 A 
ATOM     36  H   UNL A   1      40.540  29.939  33.312  1.00  0.00     0.167 HD
ATOM     37  C   UNL A   1      42.673  28.192  32.447  1.00  0.00     0.074 A 
ATOM     38  C   UNL A   1      43.534  27.349  31.638  1.00  0.00     0.031 C 
ATOM     39  C   UNL A   1      42.886  28.461  33.760  1.00  0.00     0.037 A 
BRANCH  26  40
ATOM     40  C   UNL A   1      38.626  32.079  36.464  1.00  0.00     0.064 A 
ATOM     41  C   UNL A   1      38.977  33.387  36.832  1.00  0.00     0.173 A 
ATOM     42  C   UNL A   1      37.779  31.362  37.321  1.00  0.00     0.173 A 
ATOM     43  F   UNL A   1      39.822  34.100  36.071  1.00  0.00    -0.203 F 
ATOM     44  C   UNL A   1      38.519  33.941  38.025  1.00  0.00     0.198 A 
ATOM     45  C   UNL A   1      37.300  31.930  38.498  1.00  0.00     0.198 A 
ATOM     46  F   UNL A   1      37.431  30.100  37.028  1.00  0.00    -0.203 F 
ATOM     47  F   UNL A   1      38.921  35.167  38.389  1.00  0.00    -0.200 F 
ATOM     48  C   UNL A   1      37.676  33.216  38.852  1.00  0.00     0.200 A 
ATOM     49  F   UNL A   1      36.489  31.223  39.299  1.00  0.00    -0.200 F 
ATOM     50  F   UNL A   1      37.243  33.748  40.004  1.00  0.00    -0.200 F 
ENDBRANCH  26  40
BRANCH  27  51
ATOM     51  C   UNL A   1      41.606  27.651  27.872  1.00  0.00     0.064 A 
ATOM     52  C   UNL A   1      40.967  26.516  27.354  1.00  0.00     0.173 A 
ATOM     53  C   UNL A   1      42.721  28.138  27.168  1.00  0.00     0.173 A 
ATOM     54  F   UNL A   1      39.908  25.994  27.992  1.00  0.00    -0.203 F 
ATOM     55  C   UNL A   1      41.445  25.875  26.210  1.00  0.00     0.198 A 
ATOM     56  C   UNL A   1      43.175  27.521  26.004  1.00  0.00     0.198 A 
ATOM     57  F   UNL A   1      43.380  29.219  27.613  1.00  0.00    -0.203 F 
ATOM     58  F   UNL A   1      40.858  24.750  25.780  1.00  0.00    -0.200 F 
ATOM     59  C   UNL A   1      42.546  26.380  25.535  1.00  0.00     0.200 A 
ATOM     60  F   UNL A   1      44.229  28.025  25.348  1.00  0.00    -0.200 F 
ATOM     61  F   UNL A   1      43.011  25.757  24.443  1.00  0.00    -0.200 F 
ENDBRANCH  27  51
BRANCH  39  62
ATOM     62  C   UNL A   1      44.074  27.798  34.389  1.00  0.00     0.064 A 
ATOM     63  C   UNL A   1      44.001  26.498  34.908  1.00  0.00     0.173 A 
ATOM     64  C   UNL A   1      45.304  28.469  34.448  1.00  0.00     0.173 A 
ATOM     65  F   UNL A   1      42.841  25.826  34.889  1.00  0.00    -0.203 F 
ATOM     66  C   UNL A   1      45.112  25.907  35.502  1.00  0.00     0.198 A 
ATOM     67  C   UNL A   1      46.421  27.860  35.005  1.00  0.00     0.198 A 
ATOM     68  F   UNL A   1      45.422  29.711  33.955  1.00  0.00    -0.203 F 
ATOM     69  F   UNL A   1      45.004  24.690  36.052  1.00  0.00    -0.200 F 
ATOM     70  C   UNL A   1      46.322  26.584  35.542  1.00  0.00     0.200 A 
ATOM     71  F   UNL A   1      47.593  28.507  35.026  1.00  0.00    -0.200 F 
ATOM     72  F   UNL A   1      47.391  26.011  36.108  1.00  0.00    -0.200 F 
ENDBRANCH  39  62
ENDBRANCH  13  14
ENDBRANCH   6   8
ENDBRANCH   5   6
ENDBRANCH   4   5
ENDBRANCH   3   4
ENDBRANCH   2   3
ENDBRANCH   1   2
BRANCH   1  73
ATOM     73  C   UNL A   1      34.035  28.470  26.116  1.00  0.00     0.261 C 
BRANCH  73  74
ATOM     74  O   UNL A   1      33.642  27.456  25.185  1.00  0.00    -0.463 OA
BRANCH  74  75
ATOM     75  C   UNL A   1      33.435  27.900  23.915  1.00  0.00     0.309 C 
ATOM     76  O   UNL A   1      34.234  28.568  23.271  1.00  0.00    -0.252 OA
BRANCH  75  77
ATOM     77  C   UNL A   1      32.178  27.233  23.366  1.00  0.00     0.111 C 
ATOM     78  C   UNL A   1      30.928  27.861  23.998  1.00  0.00     0.016 C 
ATOM     79  C   UNL A   1      32.285  25.704  23.402  1.00  0.00     0.093 C 
ATOM     80  C   UNL A   1      29.671  27.033  23.799  1.00  0.00     0.001 C 
ATOM     81  C   UNL A   1      30.963  24.931  23.469  1.00  0.00     0.014 C 
ATOM     82  C   UNL A   1      29.902  25.624  24.311  1.00  0.00     0.001 C 
BRANCH  79  83
ATOM     83  C   UNL A   1      33.200  25.157  22.283  1.00  0.00     0.228 C 
ATOM     84  O   UNL A   1      33.281  25.797  21.224  1.00  0.00    -0.274 OA
ATOM     85  N   UNL A   1      33.990  24.040  22.353  1.00  0.00    -0.326 N 
ATOM     86  H   UNL A   1      34.349  23.746  21.485  1.00  0.00     0.169 HD
BRANCH  85  87
ATOM     87  C   UNL A   1      34.382  23.238  23.435  1.00  0.00     0.041 A 
ATOM     88  C   UNL A   1      33.541  22.197  23.814  1.00  0.00     0.026 A 
ATOM     89  C   UNL A   1      35.543  23.452  24.172  1.00  0.00     0.040 A 
ATOM     90  C   UNL A   1      33.937  21.305  24.815  1.00  0.00     0.003 A 
ATOM     91  C   UNL A   1      35.989  22.547  25.147  1.00  0.00     0.041 A 
ATOM     92  C   UNL A   1      35.174  21.458  25.452  1.00  0.00     0.014 A 
BRANCH  91  93
ATOM     93  C   UNL A   1      37.354  22.628  25.656  1.00  0.00     0.248 A 
ATOM     94  N   UNL A   1      37.841  23.504  26.508  1.00  0.00    -0.107 NA
ATOM     95  O   UNL A   1      38.248  21.628  25.353  1.00  0.00    -0.416 OA
ATOM     96  N   UNL A   1      39.103  23.073  26.840  1.00  0.00    -0.107 NA
ATOM     97  C   UNL A   1      39.331  21.986  26.133  1.00  0.00     0.248 A 
BRANCH  97  98
ATOM     98  C   UNL A   1      40.501  21.117  26.157  1.00  0.00     0.039 A 
ATOM     99  C   UNL A   1      41.784  21.693  26.146  1.00  0.00     0.014 A 
ATOM    100  C   UNL A   1      40.400  19.719  26.128  1.00  0.00     0.014 A 
ATOM    101  C   UNL A   1      42.934  20.898  26.105  1.00  0.00     0.001 A 
ATOM    102  C   UNL A   1      41.552  18.923  26.070  1.00  0.00     0.001 A 
ATOM    103  C   UNL A   1      42.815  19.512  26.059  1.00  0.00     0.000 A 
ENDBRANCH  97  98
ENDBRANCH  91  93
ENDBRANCH  85  87
ENDBRANCH  79  83
ENDBRANCH  75  77
ENDBRANCH  74  75
ENDBRANCH  73  74
ENDBRANCH   1  73
TORSDOF 18
ENDMDL
MODEL 2
REMARK VINA RESULT:     -12.0      2.161      3.050
REMARK SMILES O=C(OCCOCCOC(=O)[C@@H]1CCCC[C@H]1C(=O)Nc1cccc(-c2nnc(-c3ccccc3)o2)c1)c1ccc(-c2c3nc(c(-c4c(F)c(F)c(F)c(F)c4F)c4ccc([nH]4)c(-c4c(F)c(F)c(F)c(F)c4F)c4nc(c(-c5c(F)c(F)c(F)c(F)c5F)c5ccc2[nH]5)C=C4)C=C3)cc1
REMARK SMILES IDX 7 1 6 2 5 3 4 4 3 5 2 6 1 7 38 8 39 9 100 10 40 11 99 12
REMARK SMILES IDX 41 13 42 14 43 15 93 16 44 17 98 18 92 19 94 20 45 21 97 22
REMARK SMILES IDX 91 23 90 24 46 26 78 27 58 28 77 29 59 30 62 31 76 32 95 33
REMARK SMILES IDX 60 34 61 35 75 37 96 38 63 39 47 40 48 41 56 42 49 43 50 44
REMARK SMILES IDX 54 45 57 46 51 47 52 48 55 49 53 50 79 51 80 52 88 53 81 54
REMARK SMILES IDX 82 55 86 56 89 57 83 58 84 59 87 60 85 61 64 62 65 63 73 64
REMARK SMILES IDX 66 65 67 66 71 67 74 68 68 69 69 70 72 71 70 72 8 73 9 74
REMARK SMILES IDX 10 75 11 76 12 77 13 78 17 79 14 80 16 81 15 82 18 83 19 84
REMARK SMILES IDX 20 85 21 87 22 88 37 89 23 90 25 91 24 92 26 93 27 94 36 95
REMARK SMILES IDX 28 96 29 97 30 98 31 99 35 100 32 101 34 102 33 103
REMARK H PARENT 94 25 62 36 20 86
REMARK Flexibility Score: inf
ROOT
ATOM      1  C   UNL A   1      32.677  26.796  26.426  1.00  0.00     0.202 C 
ENDROOT
BRANCH   1   2
ATOM      2  O   UNL A   1      32.602  27.800  27.442  1.00  0.00    -0.374 OA
BRANCH   2   3
ATOM      3  C   UNL A   1      31.921  29.025  27.168  1.00  0.00     0.202 C 
BRANCH   3   4
ATOM      4  C   UNL A   1      32.525  30.076  26.214  1.00  0.00     0.261 C 
BRANCH   4   5
ATOM      5  O   UNL A   1      33.886  30.442  26.511  1.00  0.00    -0.460 OA
BRANCH   5   6
ATOM      6  C   UNL A   1      34.265  31.262  27.530  1.00  0.00     0.338 C 
ATOM      7  O   UNL A   1      33.558  32.202  27.873  1.00  0.00    -0.246 OA
BRANCH   6   8
ATOM      8  C   UNL A   1      35.574  31.047  28.204  1.00  0.00     0.060 A 
ATOM      9  C   UNL A   1      36.463  32.095  28.379  1.00  0.00     0.016 A 
ATOM     10  C   UNL A   1      35.927  29.802  28.729  1.00  0.00     0.016 A 
ATOM     11  C   UNL A   1      37.730  31.927  28.853  1.00  0.00     0.010 A 
ATOM     12  C   UNL A   1      37.160  29.647  29.380  1.00  0.00     0.010 A 
ATOM     13  C   UNL A   1      38.065  30.718  29.427  1.00  0.00    -0.014 A 
BRANCH  13  14
ATOM     14  C   UNL A   1      39.418  30.677  29.990  1.00  0.00     0.031 A 
ATOM     15  C   UNL A   1      39.629  31.272  31.339  1.00  0.00     0.074 A 
ATOM     16  C   UNL A   1      40.329  29.876  29.400  1.00  0.00     0.049 A 
ATOM     17  N   UNL A   1      40.721  31.339  32.044  1.00  0.00    -0.248 NA
ATOM     18  C   UNL A   1      38.444  31.853  31.996  1.00  0.00     0.031 C 
ATOM     19  C   UNL A   1      40.105  29.100  28.169  1.00  0.00     0.029 A 
ATOM     20  N   UNL A   1      41.589  29.514  29.785  1.00  0.00    -0.354 N 
ATOM     21  C   UNL A   1      40.368  31.999  33.209  1.00  0.00     0.074 A 
ATOM     22  C   UNL A   1      38.962  32.320  33.121  1.00  0.00     0.031 C 
ATOM     23  C   UNL A   1      41.171  28.324  27.931  1.00  0.00     0.029 A 
ATOM     24  C   UNL A   1      42.192  28.633  28.919  1.00  0.00     0.049 A 
ATOM     25  H   UNL A   1      42.022  29.850  30.603  1.00  0.00     0.167 HD
ATOM     26  C   UNL A   1      41.169  32.309  34.252  1.00  0.00     0.037 A 
ATOM     27  C   UNL A   1      43.458  28.181  28.904  1.00  0.00     0.037 A 
ATOM     28  C   UNL A   1      42.564  31.964  34.287  1.00  0.00     0.049 A 
ATOM     29  C   UNL A   1      44.361  28.658  30.007  1.00  0.00     0.074 A 
ATOM     30  C   UNL A   1      43.521  32.312  35.217  1.00  0.00     0.029 A 
ATOM     31  N   UNL A   1      43.194  31.173  33.331  1.00  0.00    -0.354 N 
ATOM     32  N   UNL A   1      44.066  29.399  31.051  1.00  0.00    -0.248 NA
ATOM     33  C   UNL A   1      45.767  28.258  29.927  1.00  0.00     0.031 C 
ATOM     34  C   UNL A   1      44.743  31.769  34.799  1.00  0.00     0.029 A 
ATOM     35  C   UNL A   1      44.534  31.030  33.643  1.00  0.00     0.049 A 
ATOM     36  H   UNL A   1      42.750  30.772  32.548  1.00  0.00     0.167 HD
ATOM     37  C   UNL A   1      45.246  29.546  31.761  1.00  0.00     0.074 A 
ATOM     38  C   UNL A   1      46.251  28.784  31.043  1.00  0.00     0.031 C 
ATOM     39  C   UNL A   1      45.490  30.253  32.892  1.00  0.00     0.037 A 
BRANCH  26  40
ATOM     40  C   UNL A   1      40.564  33.120  35.356  1.00  0.00     0.064 A 
ATOM     41  C   UNL A   1      39.938  32.525  36.461  1.00  0.00     0.173 A 
ATOM     42  C   UNL A   1      40.563  34.520  35.277  1.00  0.00     0.173 A 
ATOM     43  F   UNL A   1      39.869  31.188  36.561  1.00  0.00    -0.203 F 
ATOM     44  C   UNL A   1      39.311  33.302  37.433  1.00  0.00     0.198 A 
ATOM     45  C   UNL A   1      39.962  35.295  36.265  1.00  0.00     0.198 A 
ATOM     46  F   UNL A   1      41.128  35.139  34.230  1.00  0.00    -0.203 F 
ATOM     47  F   UNL A   1      38.661  32.711  38.444  1.00  0.00    -0.200 F 
ATOM     48  C   UNL A   1      39.331  34.685  37.338  1.00  0.00     0.200 A 
ATOM     49  F   UNL A   1      39.978  36.632  36.168  1.00  0.00    -0.200 F 
ATOM     50  F   UNL A   1      38.720  35.431  38.269  1.00  0.00    -0.200 F 
ENDBRANCH  26  40
BRANCH  27  51
ATOM     51  C   UNL A   1      43.958  27.341  27.780  1.00  0.00     0.064 A 
ATOM     52  C   UNL A   1      43.987  25.942  27.859  1.00  0.00     0.173 A 
ATOM     53  C   UNL A   1      44.468  27.930  26.609  1.00  0.00     0.173 A 
ATOM     54  F   UNL A   1      43.530  25.325  28.959  1.00  0.00    -0.203 F 
ATOM     55  C   UNL A   1      44.537  25.171  26.834  1.00  0.00     0.198 A 
ATOM     56  C   UNL A   1      44.981  27.157  25.569  1.00  0.00     0.198 A 
ATOM     57  F   UNL A   1      44.473  29.265  26.472  1.00  0.00    -0.203 F 
ATOM     58  F   UNL A   1      44.617  23.840  26.970  1.00  0.00    -0.200 F 
ATOM     59  C   UNL A   1      45.030  25.779  25.689  1.00  0.00     0.200 A 
ATOM     60  F   UNL A   1      45.441  27.751  24.460  1.00  0.00    -0.200 F 
ATOM     61  F   UNL A   1      45.569  25.038  24.711  1.00  0.00    -0.200 F 
ENDBRANCH  27  51
BRANCH  39  62
ATOM     62  C   UNL A   1      46.889  30.191  33.425  1.00  0.00     0.064 A 
ATOM     63  C   UNL A   1      47.290  29.194  34.325  1.00  0.00     0.173 A 
ATOM     64  C   UNL A   1      47.842  31.131  33.007  1.00  0.00     0.173 A 
ATOM     65  F   UNL A   1      46.407  28.286  34.766  1.00  0.00    -0.203 F 
ATOM     66  C   UNL A   1      48.590  29.164  34.819  1.00  0.00     0.198 A 
ATOM     67  C   UNL A   1      49.150  31.073  33.472  1.00  0.00     0.198 A 
ATOM     68  F   UNL A   1      47.506  32.098  32.139  1.00  0.00    -0.203 F 
ATOM     69  F   UNL A   1      48.935  28.244  35.730  1.00  0.00    -0.200 F 
ATOM     70  C   UNL A   1      49.520  30.097  34.386  1.00  0.00     0.200 A 
ATOM     71  F   UNL A   1      50.053  31.963  33.038  1.00  0.00    -0.200 F 
ATOM     72  F   UNL A   1      50.773  30.062  34.858  1.00  0.00    -0.200 F 
ENDBRANCH  39  62
ENDBRANCH  13  14
ENDBRANCH   6   8
ENDBRANCH   5   6
ENDBRANCH   4   5
ENDBRANCH   3   4
ENDBRANCH   2   3
ENDBRANCH   1   2
BRANCH   1  73
ATOM     73  C   UNL A   1      33.977  26.978  25.634  1.00  0.00     0.261 C 
BRANCH  73  74
ATOM     74  O   UNL A   1      33.730  26.559  24.288  1.00  0.00    -0.463 OA
BRANCH  74  75
ATOM     75  C   UNL A   1      33.307  27.548  23.454  1.00  0.00     0.309 C 
ATOM     76  O   UNL A   1      34.012  28.456  23.035  1.00  0.00    -0.252 OA
BRANCH  75  77
ATOM     77  C   UNL A   1      31.909  27.197  22.955  1.00  0.00     0.111 C 
ATOM     78  C   UNL A   1      30.858  28.037  23.694  1.00  0.00     0.016 C 
ATOM     79  C   UNL A   1      31.685  25.681  22.911  1.00  0.00     0.093 C 
ATOM     80  C   UNL A   1      29.444  27.509  23.537  1.00  0.00     0.001 C 
ATOM     81  C   UNL A   1      30.233  25.204  23.026  1.00  0.00     0.014 C 
ATOM     82  C   UNL A   1      29.391  26.054  23.966  1.00  0.00     0.001 C 
BRANCH  79  83
ATOM     83  C   UNL A   1      32.401  25.020  21.713  1.00  0.00     0.228 C 
ATOM     84  O   UNL A   1      32.568  25.691  20.684  1.00  0.00    -0.274 OA
ATOM     85  N   UNL A   1      32.930  23.756  21.677  1.00  0.00    -0.326 N 
ATOM     86  H   UNL A   1      33.172  23.446  20.775  1.00  0.00     0.169 HD
BRANCH  85  87
ATOM     87  C   UNL A   1      33.189  22.823  22.692  1.00  0.00     0.041 A 
ATOM     88  C   UNL A   1      32.211  21.874  22.971  1.00  0.00     0.026 A 
ATOM     89  C   UNL A   1      34.351  22.819  23.457  1.00  0.00     0.040 A 
ATOM     90  C   UNL A   1      32.465  20.858  23.897  1.00  0.00     0.003 A 
ATOM     91  C   UNL A   1      34.654  21.786  24.356  1.00  0.00     0.041 A 
ATOM     92  C   UNL A   1      33.697  20.793  24.559  1.00  0.00     0.014 A 
BRANCH  91  93
ATOM     93  C   UNL A   1      36.006  21.643  24.885  1.00  0.00     0.248 A 
ATOM     94  N   UNL A   1      36.867  20.680  24.633  1.00  0.00    -0.107 NA
ATOM     95  O   UNL A   1      36.550  22.660  25.634  1.00  0.00    -0.416 OA
ATOM     96  N   UNL A   1      38.063  21.065  25.192  1.00  0.00    -0.107 NA
ATOM     97  C   UNL A   1      37.848  22.216  25.793  1.00  0.00     0.248 A 
BRANCH  97  98
ATOM     98  C   UNL A   1      38.804  23.068  26.490  1.00  0.00     0.039 A 
ATOM     99  C   UNL A   1      40.024  22.518  26.925  1.00  0.00     0.014 A 
ATOM    100  C   UNL A   1      38.531  24.407  26.799  1.00  0.00     0.014 A 
ATOM    101  C   UNL A   1      40.943  23.281  27.651  1.00  0.00     0.001 A 
ATOM    102  C   UNL A   1      39.445  25.168  27.541  1.00  0.00     0.001 A 
ATOM    103  C   UNL A   1      40.649  24.605  27.965  1.00  0.00     0.000 A 
ENDBRANCH  97  98
ENDBRANCH  91  93
ENDBRANCH  85  87
ENDBRANCH  79  83
ENDBRANCH  75  77
ENDBRANCH  74  75
ENDBRANCH  73  74
ENDBRANCH   1  73
TORSDOF 18
ENDMDL
MODEL 3
REMARK VINA RESULT:     -11.9      4.369      9.724
REMARK SMILES O=C(OCCOCCOC(=O)[C@@H]1CCCC[C@H]1C(=O)Nc1cccc(-c2nnc(-c3ccccc3)o2)c1)c1ccc(-c2c3nc(c(-c4c(F)c(F)c(F)c(F)c4F)c4ccc([nH]4)c(-c4c(F)c(F)c(F)c(F)c4F)c4nc(c(-c5c(F)c(F)c(F)c(F)c5F)c5ccc2[nH]5)C=C4)C=C3)cc1
REMARK SMILES IDX 7 1 6 2 5 3 4 4 3 5 2 6 1 7 38 8 39 9 100 10 40 11 99 12
REMARK SMILES IDX 41 13 42 14 43 15 93 16 44 17 98 18 92 19 94 20 45 21 97 22
REMARK SMILES IDX 91 23 90 24 46 26 78 27 58 28 77 29 59 30 62 31 76 32 95 33
REMARK SMILES IDX 60 34 61 35 75 37 96 38 63 39 47 40 48 41 56 42 49 43 50 44
REMARK SMILES IDX 54 45 57 46 51 47 52 48 55 49 53 50 79 51 80 52 88 53 81 54
REMARK SMILES IDX 82 55 86 56 89 57 83 58 84 59 87 60 85 61 64 62 65 63 73 64
REMARK SMILES IDX 66 65 67 66 71 67 74 68 68 69 69 70 72 71 70 72 8 73 9 74
REMARK SMILES IDX 10 75 11 76 12 77 13 78 17 79 14 80 16 81 15 82 18 83 19 84
REMARK SMILES IDX 20 85 21 87 22 88 37 89 23 90 25 91 24 92 26 93 27 94 36 95
REMARK SMILES IDX 28 96 29 97 30 98 31 99 35 100 32 101 34 102 33 103
REMARK H PARENT 94 25 62 36 20 86
REMARK Flexibility Score: inf
ROOT
ATOM      1  C   UNL A   1      38.085  23.371  25.932  1.00  0.00     0.202 C 
ENDROOT
BRANCH   1   2
ATOM      2  O   UNL A   1      38.129  21.983  26.275  1.00  0.00    -0.374 OA
BRANCH   2   3
ATOM      3  C   UNL A   1      38.933  21.094  25.499  1.00  0.00     0.202 C 
BRANCH   3   4
ATOM      4  C   UNL A   1      39.397  19.737  26.067  1.00  0.00     0.261 C 
BRANCH   4   5
ATOM      5  O   UNL A   1      40.646  19.260  25.533  1.00  0.00    -0.460 OA
BRANCH   5   6
ATOM      6  C   UNL A   1      41.865  19.475  26.100  1.00  0.00     0.338 C 
ATOM      7  O   UNL A   1      42.605  18.535  26.367  1.00  0.00    -0.246 OA
BRANCH   6   8
ATOM      8  C   UNL A   1      42.285  20.859  26.450  1.00  0.00     0.060 A 
ATOM      9  C   UNL A   1      42.349  21.847  25.482  1.00  0.00     0.016 A 
ATOM     10  C   UNL A   1      42.574  21.220  27.767  1.00  0.00     0.016 A 
ATOM     11  C   UNL A   1      42.866  23.087  25.715  1.00  0.00     0.010 A 
ATOM     12  C   UNL A   1      42.941  22.543  28.060  1.00  0.00     0.010 A 
ATOM     13  C   UNL A   1      43.096  23.471  27.020  1.00  0.00    -0.014 A 
BRANCH  13  14
ATOM     14  C   UNL A   1      43.559  24.854  27.163  1.00  0.00     0.031 A 
ATOM     15  C   UNL A   1      42.673  25.816  27.876  1.00  0.00     0.074 A 
ATOM     16  C   UNL A   1      44.855  25.123  26.898  1.00  0.00     0.049 A 
ATOM     17  N   UNL A   1      42.872  27.075  28.139  1.00  0.00    -0.248 NA
ATOM     18  C   UNL A   1      41.395  25.283  28.382  1.00  0.00     0.031 C 
ATOM     19  C   UNL A   1      45.833  24.151  26.381  1.00  0.00     0.029 A 
ATOM     20  N   UNL A   1      45.596  26.254  27.094  1.00  0.00    -0.354 N 
ATOM     21  C   UNL A   1      41.734  27.496  28.807  1.00  0.00     0.074 A 
ATOM     22  C   UNL A   1      40.842  26.364  28.907  1.00  0.00     0.031 C 
ATOM     23  C   UNL A   1      47.047  24.717  26.348  1.00  0.00     0.029 A 
ATOM     24  C   UNL A   1      46.913  26.114  26.725  1.00  0.00     0.049 A 
ATOM     25  H   UNL A   1      45.224  27.086  27.465  1.00  0.00     0.167 HD
ATOM     26  C   UNL A   1      41.472  28.732  29.283  1.00  0.00     0.037 A 
ATOM     27  C   UNL A   1      47.882  27.043  26.647  1.00  0.00     0.037 A 
ATOM     28  C   UNL A   1      42.398  29.824  29.155  1.00  0.00     0.049 A 
ATOM     29  C   UNL A   1      47.513  28.442  27.056  1.00  0.00     0.074 A 
ATOM     30  C   UNL A   1      42.224  31.154  29.481  1.00  0.00     0.029 A 
ATOM     31  N   UNL A   1      43.692  29.693  28.659  1.00  0.00    -0.354 N 
ATOM     32  N   UNL A   1      46.386  28.881  27.568  1.00  0.00    -0.248 NA
ATOM     33  C   UNL A   1      48.532  29.476  26.863  1.00  0.00     0.031 C 
ATOM     34  C   UNL A   1      43.398  31.836  29.138  1.00  0.00     0.029 A 
ATOM     35  C   UNL A   1      44.326  30.922  28.658  1.00  0.00     0.049 A 
ATOM     36  H   UNL A   1      44.096  28.849  28.354  1.00  0.00     0.167 HD
ATOM     37  C   UNL A   1      46.562  30.240  27.771  1.00  0.00     0.074 A 
ATOM     38  C   UNL A   1      47.920  30.541  27.358  1.00  0.00     0.031 C 
ATOM     39  C   UNL A   1      45.685  31.163  28.239  1.00  0.00     0.037 A 
BRANCH  26  40
ATOM     40  C   UNL A   1      40.118  28.958  29.882  1.00  0.00     0.064 A 
ATOM     41  C   UNL A   1      39.922  29.052  31.268  1.00  0.00     0.173 A 
ATOM     42  C   UNL A   1      38.988  29.026  29.054  1.00  0.00     0.173 A 
ATOM     43  F   UNL A   1      40.964  28.946  32.107  1.00  0.00    -0.203 F 
ATOM     44  C   UNL A   1      38.642  29.179  31.802  1.00  0.00     0.198 A 
ATOM     45  C   UNL A   1      37.713  29.183  29.590  1.00  0.00     0.198 A 
ATOM     46  F   UNL A   1      39.117  28.918  27.723  1.00  0.00    -0.203 F 
ATOM     47  F   UNL A   1      38.472  29.199  33.131  1.00  0.00    -0.200 F 
ATOM     48  C   UNL A   1      37.541  29.252  30.963  1.00  0.00     0.200 A 
ATOM     49  F   UNL A   1      36.650  29.248  28.776  1.00  0.00    -0.200 F 
ATOM     50  F   UNL A   1      36.309  29.367  31.480  1.00  0.00    -0.200 F 
ENDBRANCH  26  40
BRANCH  27  51
ATOM     51  C   UNL A   1      49.216  26.712  26.073  1.00  0.00     0.064 A 
ATOM     52  C   UNL A   1      50.250  26.191  26.862  1.00  0.00     0.173 A 
ATOM     53  C   UNL A   1      49.502  26.959  24.719  1.00  0.00     0.173 A 
ATOM     54  F   UNL A   1      50.042  25.951  28.166  1.00  0.00    -0.203 F 
ATOM     55  C   UNL A   1      51.521  25.965  26.331  1.00  0.00     0.198 A 
ATOM     56  C   UNL A   1      50.760  26.697  24.180  1.00  0.00     0.198 A 
ATOM     57  F   UNL A   1      48.556  27.462  23.910  1.00  0.00    -0.203 F 
ATOM     58  F   UNL A   1      52.509  25.535  27.127  1.00  0.00    -0.200 F 
ATOM     59  C   UNL A   1      51.773  26.215  24.991  1.00  0.00     0.200 A 
ATOM     60  F   UNL A   1      50.991  26.926  22.880  1.00  0.00    -0.200 F 
ATOM     61  F   UNL A   1      52.997  26.009  24.485  1.00  0.00    -0.200 F 
ENDBRANCH  27  51
BRANCH  39  62
ATOM     62  C   UNL A   1      46.199  32.566  28.358  1.00  0.00     0.064 A 
ATOM     63  C   UNL A   1      46.076  33.485  27.308  1.00  0.00     0.173 A 
ATOM     64  C   UNL A   1      46.801  32.995  29.550  1.00  0.00     0.173 A 
ATOM     65  F   UNL A   1      45.523  33.113  26.144  1.00  0.00    -0.203 F 
ATOM     66  C   UNL A   1      46.574  34.778  27.433  1.00  0.00     0.198 A 
ATOM     67  C   UNL A   1      47.261  34.298  29.685  1.00  0.00     0.198 A 
ATOM     68  F   UNL A   1      46.932  32.151  30.585  1.00  0.00    -0.203 F 
ATOM     69  F   UNL A   1      46.507  35.622  26.395  1.00  0.00    -0.200 F 
ATOM     70  C   UNL A   1      47.158  35.186  28.624  1.00  0.00     0.200 A 
ATOM     71  F   UNL A   1      47.807  34.697  30.842  1.00  0.00    -0.200 F 
ATOM     72  F   UNL A   1      47.631  36.433  28.745  1.00  0.00    -0.200 F 
ENDBRANCH  39  62
ENDBRANCH  13  14
ENDBRANCH   6   8
ENDBRANCH   5   6
ENDBRANCH   4   5
ENDBRANCH   3   4
ENDBRANCH   2   3
ENDBRANCH   1   2
BRANCH   1  73
ATOM     73  C   UNL A   1      36.851  23.635  25.061  1.00  0.00     0.261 C 
BRANCH  73  74
ATOM     74  O   UNL A   1      35.702  23.188  25.787  1.00  0.00    -0.463 OA
BRANCH  74  75
ATOM     75  C   UNL A   1      34.617  24.004  25.692  1.00  0.00     0.309 C 
ATOM     76  O   UNL A   1      34.662  25.227  25.697  1.00  0.00    -0.252 OA
BRANCH  75  77
ATOM     77  C   UNL A   1      33.399  23.154  25.343  1.00  0.00     0.111 C 
ATOM     78  C   UNL A   1      33.746  22.171  24.217  1.00  0.00     0.016 C 
ATOM     79  C   UNL A   1      32.142  24.012  25.159  1.00  0.00     0.093 C 
ATOM     80  C   UNL A   1      32.526  21.552  23.560  1.00  0.00     0.001 C 
ATOM     81  C   UNL A   1      31.048  23.431  24.256  1.00  0.00     0.014 C 
ATOM     82  C   UNL A   1      31.597  22.648  23.072  1.00  0.00     0.001 C 
BRANCH  79  83
ATOM     83  C   UNL A   1      31.561  24.493  26.507  1.00  0.00     0.228 C 
ATOM     84  O   UNL A   1      31.374  23.653  27.400  1.00  0.00    -0.274 OA
ATOM     85  N   UNL A   1      31.269  25.786  26.852  1.00  0.00    -0.326 N 
ATOM     86  H   UNL A   1      30.732  25.873  27.673  1.00  0.00     0.169 HD
BRANCH  85  87
ATOM     87  C   UNL A   1      31.594  27.011  26.248  1.00  0.00     0.041 A 
ATOM     88  C   UNL A   1      30.899  27.376  25.100  1.00  0.00     0.026 A 
ATOM     89  C   UNL A   1      32.596  27.856  26.712  1.00  0.00     0.040 A 
ATOM     90  C   UNL A   1      31.110  28.633  24.524  1.00  0.00     0.003 A 
ATOM     91  C   UNL A   1      32.796  29.141  26.186  1.00  0.00     0.041 A 
ATOM     92  C   UNL A   1      32.028  29.526  25.088  1.00  0.00     0.014 A 
BRANCH  91  93
ATOM     93  C   UNL A   1      33.618  30.111  26.902  1.00  0.00     0.248 A 
ATOM     94  N   UNL A   1      34.927  30.239  26.857  1.00  0.00    -0.107 NA
ATOM     95  O   UNL A   1      33.009  31.114  27.619  1.00  0.00    -0.416 OA
ATOM     96  N   UNL A   1      35.233  31.397  27.532  1.00  0.00    -0.107 NA
ATOM     97  C   UNL A   1      34.097  31.880  27.991  1.00  0.00     0.248 A 
BRANCH  97  98
ATOM     98  C   UNL A   1      33.869  33.118  28.727  1.00  0.00     0.039 A 
ATOM     99  C   UNL A   1      33.114  34.143  28.129  1.00  0.00     0.014 A 
ATOM    100  C   UNL A   1      34.426  33.354  29.992  1.00  0.00     0.014 A 
ATOM    101  C   UNL A   1      32.923  35.370  28.772  1.00  0.00     0.001 A 
ATOM    102  C   UNL A   1      34.247  34.589  30.629  1.00  0.00     0.001 A 
ATOM    103  C   UNL A   1      33.497  35.594  30.020  1.00  0.00     0.000 A 
ENDBRANCH  97  98
ENDBRANCH  91  93
ENDBRANCH  85  87
ENDBRANCH  79  83
ENDBRANCH  75  77
ENDBRANCH  74  75
ENDBRANCH  73  74
ENDBRANCH   1  73
TORSDOF 18
ENDMDL
