MODEL 1
REMARK VINA RESULT:     -13.1      0.000      0.000
REMARK SMILES O=C(CCC(=O)N1N=C(c2ccc(F)cc2)C[C@@H]1c1ccc2nccnc2c1)OCCOCCOC(=O)c1ccc(-c2c3nc(c(-c4c(F)c(F)c(F)c(F)c4F)c4ccc([nH]4)c(-c4c(F)c(F)c(F)c(F)c4F)c4nc(c(-c5c(F)c(F)c(F)c(F)c5F)c5ccc2[nH]5)C=C4)C=C3)cc1
REMARK SMILES IDX 31 1 30 2 29 3 2 4 1 5 3 6 4 7 5 8 6 9 7 10 8 11 18 12 9 13
REMARK SMILES IDX 17 14 19 15 20 16 28 17 21 18 27 19 22 20 26 21 23 22 25 23
REMARK SMILES IDX 24 24 10 25 11 26 16 27 12 28 15 29 13 30 14 31 32 32 33 33
REMARK SMILES IDX 34 34 35 35 36 36 37 37 38 38 39 39 100 40 40 41 99 42 41 43
REMARK SMILES IDX 42 44 43 45 93 46 44 47 98 48 92 49 94 50 45 51 97 52 91 53
REMARK SMILES IDX 90 54 46 56 78 57 58 58 77 59 59 60 62 61 76 62 95 63 60 64
REMARK SMILES IDX 61 65 75 67 96 68 63 69 47 70 48 71 56 72 49 73 50 74 54 75
REMARK SMILES IDX 57 76 51 77 52 78 55 79 53 80 79 81 80 82 88 83 81 84 82 85
REMARK SMILES IDX 86 86 89 87 83 88 84 89 87 90 85 91 64 92 65 93 73 94 66 95
REMARK SMILES IDX 67 96 71 97 74 98 68 99 69 100 72 101 70 102
REMARK H PARENT 94 55 62 66
REMARK Flexibility Score: inf
ROOT
ATOM      1  C   UNL A   1      29.704  30.342  23.608  1.00  0.00     0.202 C 
ENDROOT
BRANCH   1   2
ATOM      2  C   UNL A   1      30.833  29.326  23.687  1.00  0.00     0.261 C 
BRANCH   2   3
ATOM      3  O   UNL A   1      30.310  28.147  24.319  1.00  0.00    -0.463 OA
BRANCH   3   4
ATOM      4  C   UNL A   1      30.218  27.007  23.598  1.00  0.00     0.306 C 
ATOM      5  O   UNL A   1      29.384  26.142  23.842  1.00  0.00    -0.252 OA
BRANCH   4   6
ATOM      6  C   UNL A   1      30.933  27.092  22.290  1.00  0.00     0.132 C 
BRANCH   6   7
ATOM      7  C   UNL A   1      31.416  25.687  21.976  1.00  0.00     0.114 C 
BRANCH   7   8
ATOM      8  C   UNL A   1      32.928  25.568  22.169  1.00  0.00     0.243 C 
ATOM      9  O   UNL A   1      33.693  25.912  21.267  1.00  0.00    -0.273 OA
BRANCH   8  10
ATOM     10  N   UNL A   1      33.356  25.233  23.450  1.00  0.00    -0.225 N 
ATOM     11  N   UNL A   1      33.883  26.335  24.093  1.00  0.00    -0.174 NA
ATOM     12  C   UNL A   1      32.694  24.292  24.400  1.00  0.00     0.147 C 
ATOM     13  C   UNL A   1      33.500  26.290  25.323  1.00  0.00     0.071 C 
ATOM     14  C   UNL A   1      32.760  25.051  25.740  1.00  0.00     0.091 C 
BRANCH  12  15
ATOM     15  C   UNL A   1      33.256  22.846  24.419  1.00  0.00    -0.021 A 
ATOM     16  C   UNL A   1      34.880  22.558  25.151  1.00  0.00     0.008 A 
ATOM     17  C   UNL A   1      32.340  21.428  23.773  1.00  0.00     0.036 A 
ATOM     18  C   UNL A   1      35.579  20.885  25.213  1.00  0.00     0.031 A 
ATOM     19  C   UNL A   1      32.980  19.719  23.871  1.00  0.00     0.089 A 
ATOM     20  C   UNL A   1      34.647  19.427  24.612  1.00  0.00     0.089 A 
ATOM     21  N   UNL A   1      32.313  18.655  23.425  1.00  0.00    -0.253 NA
ATOM     22  N   UNL A   1      35.087  18.167  24.688  1.00  0.00    -0.253 NA
ATOM     23  C   UNL A   1      32.981  17.474  23.550  1.00  0.00     0.132 A 
ATOM     24  C   UNL A   1      34.252  17.250  24.130  1.00  0.00     0.132 A 
ENDBRANCH  12  15
BRANCH  13  25
ATOM     25  C   UNL A   1      33.672  27.459  26.199  1.00  0.00    -0.002 A 
ATOM     26  C   UNL A   1      34.859  28.190  26.170  1.00  0.00     0.013 A 
ATOM     27  C   UNL A   1      32.563  27.933  26.916  1.00  0.00     0.013 A 
ATOM     28  C   UNL A   1      34.957  29.371  26.911  1.00  0.00     0.040 A 
ATOM     29  C   UNL A   1      32.666  29.119  27.649  1.00  0.00     0.040 A 
ATOM     30  C   UNL A   1      33.867  29.819  27.651  1.00  0.00     0.123 A 
ATOM     31  F   UNL A   1      33.976  30.946  28.366  1.00  0.00    -0.207 F 
ENDBRANCH  13  25
ENDBRANCH   8  10
ENDBRANCH   7   8
ENDBRANCH   6   7
ENDBRANCH   4   6
ENDBRANCH   3   4
ENDBRANCH   2   3
ENDBRANCH   1   2
BRANCH   1  32
ATOM     32  O   UNL A   1      29.820  31.325  24.636  1.00  0.00    -0.374 OA
BRANCH  32  33
ATOM     33  C   UNL A   1      31.043  31.321  25.390  1.00  0.00     0.202 C 
BRANCH  33  34
ATOM     34  C   UNL A   1      30.930  31.991  26.746  1.00  0.00     0.261 C 
BRANCH  34  35
ATOM     35  O   UNL A   1      32.246  33.011  27.251  1.00  0.00    -0.460 OA
BRANCH  35  36
ATOM     36  C   UNL A   1      32.866  34.420  28.351  1.00  0.00     0.338 C 
ATOM     37  O   UNL A   1      32.347  35.570  28.465  1.00  0.00    -0.246 OA
BRANCH  36  38
ATOM     38  C   UNL A   1      34.053  34.589  29.287  1.00  0.00     0.060 A 
ATOM     39  C   UNL A   1      35.315  34.716  28.671  1.00  0.00     0.016 A 
ATOM     40  C   UNL A   1      33.955  33.938  30.534  1.00  0.00     0.016 A 
ATOM     41  C   UNL A   1      36.441  34.150  29.262  1.00  0.00     0.010 A 
ATOM     42  C   UNL A   1      35.081  33.387  31.128  1.00  0.00     0.010 A 
ATOM     43  C   UNL A   1      36.311  33.449  30.467  1.00  0.00    -0.014 A 
BRANCH  43  44
ATOM     44  C   UNL A   1      37.472  32.796  31.090  1.00  0.00     0.031 A 
ATOM     45  C   UNL A   1      38.193  31.682  30.405  1.00  0.00     0.074 A 
ATOM     46  C   UNL A   1      37.780  33.179  32.337  1.00  0.00     0.049 A 
ATOM     47  N   UNL A   1      39.144  30.916  30.874  1.00  0.00    -0.248 NA
ATOM     48  C   UNL A   1      37.776  31.358  29.032  1.00  0.00     0.031 C 
ATOM     49  C   UNL A   1      37.061  34.215  33.073  1.00  0.00     0.029 A 
ATOM     50  N   UNL A   1      38.739  32.746  33.205  1.00  0.00    -0.354 N 
ATOM     51  C   UNL A   1      39.407  29.987  29.877  1.00  0.00     0.074 A 
ATOM     52  C   UNL A   1      38.537  30.302  28.764  1.00  0.00     0.031 C 
ATOM     53  C   UNL A   1      37.623  34.362  34.279  1.00  0.00     0.029 A 
ATOM     54  C   UNL A   1      38.714  33.405  34.406  1.00  0.00     0.049 A 
ATOM     55  H   UNL A   1      39.382  32.033  32.990  1.00  0.00     0.167 HD
ATOM     56  C   UNL A   1      40.279  28.951  29.923  1.00  0.00     0.037 A 
ATOM     57  C   UNL A   1      39.482  33.244  35.495  1.00  0.00     0.037 A 
ATOM     58  C   UNL A   1      41.129  28.674  31.053  1.00  0.00     0.049 A 
ATOM     59  C   UNL A   1      40.518  32.165  35.474  1.00  0.00     0.074 A 
ATOM     60  C   UNL A   1      42.064  27.665  31.208  1.00  0.00     0.029 A 
ATOM     61  N   UNL A   1      41.141  29.415  32.229  1.00  0.00    -0.354 N 
ATOM     62  N   UNL A   1      40.771  31.298  34.524  1.00  0.00    -0.248 NA
ATOM     63  C   UNL A   1      41.354  32.021  36.669  1.00  0.00     0.031 C 
ATOM     64  C   UNL A   1      42.620  27.779  32.488  1.00  0.00     0.029 A 
ATOM     65  C   UNL A   1      42.057  28.878  33.120  1.00  0.00     0.049 A 
ATOM     66  H   UNL A   1      40.582  30.206  32.403  1.00  0.00     0.167 HD
ATOM     67  C   UNL A   1      41.774  30.480  35.012  1.00  0.00     0.074 A 
ATOM     68  C   UNL A   1      42.113  30.984  36.331  1.00  0.00     0.031 C 
ATOM     69  C   UNL A   1      42.345  29.396  34.434  1.00  0.00     0.037 A 
BRANCH  56  70
ATOM     70  C   UNL A   1      40.317  28.016  28.751  1.00  0.00     0.064 A 
ATOM     71  C   UNL A   1      39.640  26.786  28.809  1.00  0.00     0.173 A 
ATOM     72  C   UNL A   1      41.050  28.304  27.592  1.00  0.00     0.173 A 
ATOM     73  F   UNL A   1      38.927  26.458  29.897  1.00  0.00    -0.203 F 
ATOM     74  C   UNL A   1      39.700  25.881  27.752  1.00  0.00     0.198 A 
ATOM     75  C   UNL A   1      41.093  27.405  26.527  1.00  0.00     0.198 A 
ATOM     76  F   UNL A   1      41.707  29.469  27.482  1.00  0.00    -0.203 F 
ATOM     77  F   UNL A   1      39.060  24.707  27.839  1.00  0.00    -0.200 F 
ATOM     78  C   UNL A   1      40.422  26.193  26.611  1.00  0.00     0.200 A 
ATOM     79  F   UNL A   1      41.777  27.714  25.418  1.00  0.00    -0.200 F 
ATOM     80  F   UNL A   1      40.471  25.326  25.588  1.00  0.00    -0.200 F 
ENDBRANCH  56  70
BRANCH  57  81
ATOM     81  C   UNL A   1      39.283  34.166  36.637  1.00  0.00     0.064 A 
ATOM     82  C   UNL A   1      39.955  35.396  36.707  1.00  0.00     0.173 A 
ATOM     83  C   UNL A   1      38.557  33.750  37.759  1.00  0.00     0.173 A 
ATOM     84  F   UNL A   1      40.691  35.819  35.669  1.00  0.00    -0.203 F 
ATOM     85  C   UNL A   1      39.940  36.155  37.875  1.00  0.00     0.198 A 
ATOM     86  C   UNL A   1      38.524  34.522  38.919  1.00  0.00     0.198 A 
ATOM     87  F   UNL A   1      37.904  32.579  37.736  1.00  0.00    -0.203 F 
ATOM     88  F   UNL A   1      40.647  37.292  37.941  1.00  0.00    -0.200 F 
ATOM     89  C   UNL A   1      39.227  35.716  38.981  1.00  0.00     0.200 A 
ATOM     90  F   UNL A   1      37.828  34.098  39.983  1.00  0.00    -0.200 F 
ATOM     91  F   UNL A   1      39.228  36.439  40.109  1.00  0.00    -0.200 F 
ENDBRANCH  57  81
BRANCH  69  92
ATOM     92  C   UNL A   1      43.359  28.660  35.249  1.00  0.00     0.064 A 
ATOM     93  C   UNL A   1      42.964  27.715  36.205  1.00  0.00     0.173 A 
ATOM     94  C   UNL A   1      44.726  28.946  35.118  1.00  0.00     0.173 A 
ATOM     95  F   UNL A   1      41.667  27.415  36.362  1.00  0.00    -0.203 F 
ATOM     96  C   UNL A   1      43.906  27.087  37.012  1.00  0.00     0.198 A 
ATOM     97  C   UNL A   1      45.666  28.305  35.917  1.00  0.00     0.198 A 
ATOM     98  F   UNL A   1      45.145  29.835  34.204  1.00  0.00    -0.203 F 
ATOM     99  F   UNL A   1      43.511  26.197  37.933  1.00  0.00    -0.200 F 
ATOM    100  C   UNL A   1      45.254  27.381  36.867  1.00  0.00     0.200 A 
ATOM    101  F   UNL A   1      46.968  28.578  35.767  1.00  0.00    -0.200 F 
ATOM    102  F   UNL A   1      46.161  26.770  37.643  1.00  0.00    -0.200 F 
ENDBRANCH  69  92
ENDBRANCH  43  44
ENDBRANCH  36  38
ENDBRANCH  35  36
ENDBRANCH  34  35
ENDBRANCH  33  34
ENDBRANCH  32  33
ENDBRANCH   1  32
TORSDOF 19
ENDMDL
MODEL 2
REMARK VINA RESULT:     -13.0      0.651      7.031
REMARK SMILES O=C(CCC(=O)N1N=C(c2ccc(F)cc2)C[C@@H]1c1ccc2nccnc2c1)OCCOCCOC(=O)c1ccc(-c2c3nc(c(-c4c(F)c(F)c(F)c(F)c4F)c4ccc([nH]4)c(-c4c(F)c(F)c(F)c(F)c4F)c4nc(c(-c5c(F)c(F)c(F)c(F)c5F)c5ccc2[nH]5)C=C4)C=C3)cc1
REMARK SMILES IDX 31 1 30 2 29 3 2 4 1 5 3 6 4 7 5 8 6 9 7 10 8 11 18 12 9 13
REMARK SMILES IDX 17 14 19 15 20 16 28 17 21 18 27 19 22 20 26 21 23 22 25 23
REMARK SMILES IDX 24 24 10 25 11 26 16 27 12 28 15 29 13 30 14 31 32 32 33 33
REMARK SMILES IDX 34 34 35 35 36 36 37 37 38 38 39 39 100 40 40 41 99 42 41 43
REMARK SMILES IDX 42 44 43 45 93 46 44 47 98 48 92 49 94 50 45 51 97 52 91 53
REMARK SMILES IDX 90 54 46 56 78 57 58 58 77 59 59 60 62 61 76 62 95 63 60 64
REMARK SMILES IDX 61 65 75 67 96 68 63 69 47 70 48 71 56 72 49 73 50 74 54 75
REMARK SMILES IDX 57 76 51 77 52 78 55 79 53 80 79 81 80 82 88 83 81 84 82 85
REMARK SMILES IDX 86 86 89 87 83 88 84 89 87 90 85 91 64 92 65 93 73 94 66 95
REMARK SMILES IDX 67 96 71 97 74 98 68 99 69 100 72 101 70 102
REMARK H PARENT 94 55 62 66
REMARK Flexibility Score: inf
ROOT
ATOM      1  C   UNL A   1      29.740  30.205  23.778  1.00  0.00     0.202 C 
ENDROOT
BRANCH   1   2
ATOM      2  C   UNL A   1      30.960  29.303  23.868  1.00  0.00     0.261 C 
BRANCH   2   3
ATOM      3  O   UNL A   1      30.522  28.031  24.372  1.00  0.00    -0.463 OA
BRANCH   3   4
ATOM      4  C   UNL A   1      30.118  27.086  23.494  1.00  0.00     0.306 C 
ATOM      5  O   UNL A   1      29.055  26.488  23.616  1.00  0.00    -0.252 OA
BRANCH   4   6
ATOM      6  C   UNL A   1      30.872  27.135  22.206  1.00  0.00     0.132 C 
BRANCH   6   7
ATOM      7  C   UNL A   1      31.429  25.740  21.984  1.00  0.00     0.114 C 
BRANCH   7   8
ATOM      8  C   UNL A   1      32.941  25.708  22.203  1.00  0.00     0.243 C 
ATOM      9  O   UNL A   1      33.700  26.121  21.324  1.00  0.00    -0.273 OA
BRANCH   8  10
ATOM     10  N   UNL A   1      33.366  25.368  23.484  1.00  0.00    -0.225 N 
ATOM     11  N   UNL A   1      33.906  26.464  24.126  1.00  0.00    -0.174 NA
ATOM     12  C   UNL A   1      32.695  24.435  24.434  1.00  0.00     0.147 C 
ATOM     13  C   UNL A   1      33.524  26.423  25.357  1.00  0.00     0.071 C 
ATOM     14  C   UNL A   1      32.771  25.193  25.774  1.00  0.00     0.091 C 
BRANCH  12  15
ATOM     15  C   UNL A   1      33.240  22.982  24.451  1.00  0.00    -0.021 A 
ATOM     16  C   UNL A   1      34.842  22.668  25.221  1.00  0.00     0.008 A 
ATOM     17  C   UNL A   1      32.325  21.582  23.768  1.00  0.00     0.036 A 
ATOM     18  C   UNL A   1      35.520  20.987  25.283  1.00  0.00     0.031 A 
ATOM     19  C   UNL A   1      32.943  19.864  23.864  1.00  0.00     0.089 A 
ATOM     20  C   UNL A   1      34.588  19.546  24.644  1.00  0.00     0.089 A 
ATOM     21  N   UNL A   1      32.275  18.812  23.391  1.00  0.00    -0.253 NA
ATOM     22  N   UNL A   1      35.012  18.280  24.718  1.00  0.00    -0.253 NA
ATOM     23  C   UNL A   1      32.927  17.623  23.520  1.00  0.00     0.132 A 
ATOM     24  C   UNL A   1      34.181  17.378  24.130  1.00  0.00     0.132 A 
ENDBRANCH  12  15
BRANCH  13  25
ATOM     25  C   UNL A   1      33.710  27.590  26.233  1.00  0.00    -0.002 A 
ATOM     26  C   UNL A   1      34.907  28.303  26.207  1.00  0.00     0.013 A 
ATOM     27  C   UNL A   1      32.606  28.079  26.947  1.00  0.00     0.013 A 
ATOM     28  C   UNL A   1      35.020  29.483  26.948  1.00  0.00     0.040 A 
ATOM     29  C   UNL A   1      32.724  29.263  27.680  1.00  0.00     0.040 A 
ATOM     30  C   UNL A   1      33.934  29.947  27.685  1.00  0.00     0.123 A 
ATOM     31  F   UNL A   1      34.057  31.072  28.400  1.00  0.00    -0.207 F 
ENDBRANCH  13  25
ENDBRANCH   8  10
ENDBRANCH   7   8
ENDBRANCH   6   7
ENDBRANCH   4   6
ENDBRANCH   3   4
ENDBRANCH   2   3
ENDBRANCH   1   2
BRANCH   1  32
ATOM     32  O   UNL A   1      29.892  31.366  24.592  1.00  0.00    -0.374 OA
BRANCH  32  33
ATOM     33  C   UNL A   1      31.049  31.403  25.444  1.00  0.00     0.202 C 
BRANCH  33  34
ATOM     34  C   UNL A   1      30.870  32.253  26.687  1.00  0.00     0.261 C 
BRANCH  34  35
ATOM     35  O   UNL A   1      32.239  33.179  27.231  1.00  0.00    -0.460 OA
BRANCH  35  36
ATOM     36  C   UNL A   1      32.939  34.486  28.408  1.00  0.00     0.338 C 
ATOM     37  O   UNL A   1      32.471  35.646  28.608  1.00  0.00    -0.246 OA
BRANCH  36  38
ATOM     38  C   UNL A   1      34.149  34.543  29.327  1.00  0.00     0.060 A 
ATOM     39  C   UNL A   1      35.408  34.445  28.699  1.00  0.00     0.016 A 
ATOM     40  C   UNL A   1      33.974  33.998  30.616  1.00  0.00     0.016 A 
ATOM     41  C   UNL A   1      36.448  33.763  29.325  1.00  0.00     0.010 A 
ATOM     42  C   UNL A   1      35.016  33.331  31.242  1.00  0.00     0.010 A 
ATOM     43  C   UNL A   1      36.234  33.170  30.575  1.00  0.00    -0.014 A 
BRANCH  43  44
ATOM     44  C   UNL A   1      37.297  32.399  31.238  1.00  0.00     0.031 A 
ATOM     45  C   UNL A   1      37.737  32.724  32.628  1.00  0.00     0.074 A 
ATOM     46  C   UNL A   1      37.914  31.468  30.497  1.00  0.00     0.049 A 
ATOM     47  N   UNL A   1      38.745  32.230  33.299  1.00  0.00    -0.248 NA
ATOM     48  C   UNL A   1      36.976  33.756  33.348  1.00  0.00     0.031 C 
ATOM     49  C   UNL A   1      37.564  31.163  29.113  1.00  0.00     0.029 A 
ATOM     50  N   UNL A   1      38.955  30.633  30.780  1.00  0.00    -0.354 N 
ATOM     51  C   UNL A   1      38.773  32.924  34.500  1.00  0.00     0.074 A 
ATOM     52  C   UNL A   1      37.663  33.853  34.480  1.00  0.00     0.031 C 
ATOM     53  C   UNL A   1      38.360  30.182  28.670  1.00  0.00     0.029 A 
ATOM     54  C   UNL A   1      39.294  29.822  29.728  1.00  0.00     0.049 A 
ATOM     55  H   UNL A   1      39.416  30.615  31.649  1.00  0.00     0.167 HD
ATOM     56  C   UNL A   1      39.676  32.803  35.503  1.00  0.00     0.037 A 
ATOM     57  C   UNL A   1      40.262  28.898  29.628  1.00  0.00     0.037 A 
ATOM     58  C   UNL A   1      40.768  31.862  35.484  1.00  0.00     0.049 A 
ATOM     59  C   UNL A   1      41.174  28.703  30.797  1.00  0.00     0.074 A 
ATOM     60  C   UNL A   1      41.735  31.635  36.447  1.00  0.00     0.029 A 
ATOM     61  N   UNL A   1      41.036  30.991  34.435  1.00  0.00    -0.354 N 
ATOM     62  N   UNL A   1      41.188  29.352  31.936  1.00  0.00    -0.248 NA
ATOM     63  C   UNL A   1      42.213  27.676  30.668  1.00  0.00     0.031 C 
ATOM     64  C   UNL A   1      42.604  30.647  35.968  1.00  0.00     0.029 A 
ATOM     65  C   UNL A   1      42.161  30.234  34.721  1.00  0.00     0.049 A 
ATOM     66  H   UNL A   1      40.505  30.920  33.609  1.00  0.00     0.167 HD
ATOM     67  C   UNL A   1      42.255  28.840  32.653  1.00  0.00     0.074 A 
ATOM     68  C   UNL A   1      42.838  27.793  31.834  1.00  0.00     0.031 C 
ATOM     69  C   UNL A   1      42.724  29.219  33.866  1.00  0.00     0.037 A 
BRANCH  56  70
ATOM     70  C   UNL A   1      39.558  33.738  36.670  1.00  0.00     0.064 A 
ATOM     71  C   UNL A   1      38.800  33.370  37.794  1.00  0.00     0.173 A 
ATOM     72  C   UNL A   1      40.149  35.009  36.667  1.00  0.00     0.173 A 
ATOM     73  F   UNL A   1      38.210  32.167  37.846  1.00  0.00    -0.203 F 
ATOM     74  C   UNL A   1      38.637  34.242  38.868  1.00  0.00     0.198 A 
ATOM     75  C   UNL A   1      40.000  35.872  37.752  1.00  0.00     0.198 A 
ATOM     76  F   UNL A   1      40.890  35.406  35.621  1.00  0.00    -0.203 F 
ATOM     77  F   UNL A   1      37.895  33.874  39.922  1.00  0.00    -0.200 F 
ATOM     78  C   UNL A   1      39.240  35.490  38.849  1.00  0.00     0.200 A 
ATOM     79  F   UNL A   1      40.597  37.071  37.740  1.00  0.00    -0.200 F 
ATOM     80  F   UNL A   1      39.092  36.324  39.888  1.00  0.00    -0.200 F 
ENDBRANCH  56  70
BRANCH  57  81
ATOM     81  C   UNL A   1      40.347  28.101  28.382  1.00  0.00     0.064 A 
ATOM     82  C   UNL A   1      39.789  26.816  28.298  1.00  0.00     0.173 A 
ATOM     83  C   UNL A   1      41.141  28.543  27.317  1.00  0.00     0.173 A 
ATOM     84  F   UNL A   1      39.049  26.339  29.309  1.00  0.00    -0.203 F 
ATOM     85  C   UNL A   1      40.059  25.988  27.211  1.00  0.00     0.198 A 
ATOM     86  C   UNL A   1      41.391  27.721  26.220  1.00  0.00     0.198 A 
ATOM     87  F   UNL A   1      41.697  29.763  27.359  1.00  0.00    -0.203 F 
ATOM     88  F   UNL A   1      39.572  24.739  27.187  1.00  0.00    -0.200 F 
ATOM     89  C   UNL A   1      40.862  26.440  26.175  1.00  0.00     0.200 A 
ATOM     90  F   UNL A   1      42.162  28.165  25.217  1.00  0.00    -0.200 F 
ATOM     91  F   UNL A   1      41.135  25.635  25.138  1.00  0.00    -0.200 F 
ENDBRANCH  57  81
BRANCH  69  92
ATOM     92  C   UNL A   1      43.955  28.524  34.353  1.00  0.00     0.064 A 
ATOM     93  C   UNL A   1      45.229  28.996  34.011  1.00  0.00     0.173 A 
ATOM     94  C   UNL A   1      43.860  27.347  35.109  1.00  0.00     0.173 A 
ATOM     95  F   UNL A   1      45.362  30.118  33.288  1.00  0.00    -0.203 F 
ATOM     96  C   UNL A   1      46.371  28.306  34.404  1.00  0.00     0.198 A 
ATOM     97  C   UNL A   1      45.005  26.667  35.512  1.00  0.00     0.198 A 
ATOM     98  F   UNL A   1      42.658  26.870  35.467  1.00  0.00    -0.203 F 
ATOM     99  F   UNL A   1      47.581  28.763  34.056  1.00  0.00    -0.200 F 
ATOM    100  C   UNL A   1      46.257  27.144  35.154  1.00  0.00     0.200 A 
ATOM    101  F   UNL A   1      44.896  25.554  36.249  1.00  0.00    -0.200 F 
ATOM    102  F   UNL A   1      47.359  26.483  35.536  1.00  0.00    -0.200 F 
ENDBRANCH  69  92
ENDBRANCH  43  44
ENDBRANCH  36  38
ENDBRANCH  35  36
ENDBRANCH  34  35
ENDBRANCH  33  34
ENDBRANCH  32  33
ENDBRANCH   1  32
TORSDOF 19
ENDMDL
MODEL 3
REMARK VINA RESULT:     -12.7      4.625      9.825
REMARK SMILES O=C(CCC(=O)N1N=C(c2ccc(F)cc2)C[C@@H]1c1ccc2nccnc2c1)OCCOCCOC(=O)c1ccc(-c2c3nc(c(-c4c(F)c(F)c(F)c(F)c4F)c4ccc([nH]4)c(-c4c(F)c(F)c(F)c(F)c4F)c4nc(c(-c5c(F)c(F)c(F)c(F)c5F)c5ccc2[nH]5)C=C4)C=C3)cc1
REMARK SMILES IDX 31 1 30 2 29 3 2 4 1 5 3 6 4 7 5 8 6 9 7 10 8 11 18 12 9 13
REMARK SMILES IDX 17 14 19 15 20 16 28 17 21 18 27 19 22 20 26 21 23 22 25 23
REMARK SMILES IDX 24 24 10 25 11 26 16 27 12 28 15 29 13 30 14 31 32 32 33 33
REMARK SMILES IDX 34 34 35 35 36 36 37 37 38 38 39 39 100 40 40 41 99 42 41 43
REMARK SMILES IDX 42 44 43 45 93 46 44 47 98 48 92 49 94 50 45 51 97 52 91 53
REMARK SMILES IDX 90 54 46 56 78 57 58 58 77 59 59 60 62 61 76 62 95 63 60 64
REMARK SMILES IDX 61 65 75 67 96 68 63 69 47 70 48 71 56 72 49 73 50 74 54 75
REMARK SMILES IDX 57 76 51 77 52 78 55 79 53 80 79 81 80 82 88 83 81 84 82 85
REMARK SMILES IDX 86 86 89 87 83 88 84 89 87 90 85 91 64 92 65 93 73 94 66 95
REMARK SMILES IDX 67 96 71 97 74 98 68 99 69 100 72 101 70 102
REMARK H PARENT 94 55 62 66
REMARK Flexibility Score: inf
ROOT
ATOM      1  C   UNL A   1      34.259  22.816  23.118  1.00  0.00     0.202 C 
ENDROOT
BRANCH   1   2
ATOM      2  C   UNL A   1      33.201  23.359  22.170  1.00  0.00     0.261 C 
BRANCH   2   3
ATOM      3  O   UNL A   1      32.919  24.711  22.565  1.00  0.00    -0.463 OA
BRANCH   3   4
ATOM      4  C   UNL A   1      31.686  25.214  22.336  1.00  0.00     0.306 C 
ATOM      5  O   UNL A   1      30.693  24.817  22.934  1.00  0.00    -0.252 OA
BRANCH   4   6
ATOM      6  C   UNL A   1      31.720  26.518  21.607  1.00  0.00     0.132 C 
BRANCH   6   7
ATOM      7  C   UNL A   1      32.748  27.378  22.321  1.00  0.00     0.114 C 
BRANCH   7   8
ATOM      8  C   UNL A   1      32.072  28.417  23.216  1.00  0.00     0.243 C 
ATOM      9  O   UNL A   1      31.255  29.205  22.736  1.00  0.00    -0.273 OA
BRANCH   8  10
ATOM     10  N   UNL A   1      32.300  28.288  24.583  1.00  0.00    -0.225 N 
ATOM     11  N   UNL A   1      32.916  29.417  25.084  1.00  0.00    -0.174 NA
ATOM     12  C   UNL A   1      31.402  27.646  25.586  1.00  0.00     0.147 C 
ATOM     13  C   UNL A   1      32.398  29.665  26.238  1.00  0.00     0.071 C 
ATOM     14  C   UNL A   1      31.436  28.639  26.765  1.00  0.00     0.091 C 
BRANCH  12  15
ATOM     15  C   UNL A   1      31.731  26.171  25.939  1.00  0.00    -0.021 A 
ATOM     16  C   UNL A   1      30.367  25.005  26.137  1.00  0.00     0.008 A 
ATOM     17  C   UNL A   1      33.420  25.558  26.123  1.00  0.00     0.036 A 
ATOM     18  C   UNL A   1      30.693  23.266  26.536  1.00  0.00     0.031 A 
ATOM     19  C   UNL A   1      33.795  23.801  26.462  1.00  0.00     0.089 A 
ATOM     20  C   UNL A   1      32.398  22.611  26.675  1.00  0.00     0.089 A 
ATOM     21  N   UNL A   1      35.033  23.320  26.577  1.00  0.00    -0.253 NA
ATOM     22  N   UNL A   1      32.697  21.329  26.906  1.00  0.00    -0.253 NA
ATOM     23  C   UNL A   1      35.099  21.992  26.875  1.00  0.00     0.132 A 
ATOM     24  C   UNL A   1      34.028  21.079  27.024  1.00  0.00     0.132 A 
ENDBRANCH  12  15
BRANCH  13  25
ATOM     25  C   UNL A   1      32.649  30.951  26.907  1.00  0.00    -0.002 A 
ATOM     26  C   UNL A   1      33.871  31.188  27.534  1.00  0.00     0.013 A 
ATOM     27  C   UNL A   1      31.722  31.990  26.738  1.00  0.00     0.013 A 
ATOM     28  C   UNL A   1      34.143  32.459  28.050  1.00  0.00     0.040 A 
ATOM     29  C   UNL A   1      32.003  33.260  27.251  1.00  0.00     0.040 A 
ATOM     30  C   UNL A   1      33.205  33.479  27.915  1.00  0.00     0.123 A 
ATOM     31  F   UNL A   1      33.472  34.689  28.423  1.00  0.00    -0.207 F 
ENDBRANCH  13  25
ENDBRANCH   8  10
ENDBRANCH   7   8
ENDBRANCH   6   7
ENDBRANCH   4   6
ENDBRANCH   3   4
ENDBRANCH   2   3
ENDBRANCH   1   2
BRANCH   1  32
ATOM     32  O   UNL A   1      35.413  23.653  23.140  1.00  0.00    -0.374 OA
BRANCH  32  33
ATOM     33  C   UNL A   1      36.684  22.989  23.236  1.00  0.00     0.202 C 
BRANCH  33  34
ATOM     34  C   UNL A   1      36.613  21.616  23.877  1.00  0.00     0.261 C 
BRANCH  34  35
ATOM     35  O   UNL A   1      37.982  21.098  24.819  1.00  0.00    -0.460 OA
BRANCH  35  36
ATOM     36  C   UNL A   1      39.343  21.529  26.061  1.00  0.00     0.338 C 
ATOM     37  O   UNL A   1      40.389  20.855  26.294  1.00  0.00    -0.246 OA
BRANCH  36  38
ATOM     38  C   UNL A   1      39.545  22.658  27.060  1.00  0.00     0.060 A 
ATOM     39  C   UNL A   1      38.954  23.893  26.726  1.00  0.00     0.016 A 
ATOM     40  C   UNL A   1      40.762  22.643  27.771  1.00  0.00     0.016 A 
ATOM     41  C   UNL A   1      39.599  25.085  27.045  1.00  0.00     0.010 A 
ATOM     42  C   UNL A   1      41.396  23.832  28.100  1.00  0.00     0.010 A 
ATOM     43  C   UNL A   1      40.840  25.048  27.692  1.00  0.00    -0.014 A 
BRANCH  43  44
ATOM     44  C   UNL A   1      41.570  26.288  27.996  1.00  0.00     0.031 A 
ATOM     45  C   UNL A   1      40.957  27.363  28.833  1.00  0.00     0.074 A 
ATOM     46  C   UNL A   1      42.762  26.444  27.402  1.00  0.00     0.049 A 
ATOM     47  N   UNL A   1      41.414  28.563  29.079  1.00  0.00    -0.248 NA
ATOM     48  C   UNL A   1      39.652  27.073  29.444  1.00  0.00     0.031 C 
ATOM     49  C   UNL A   1      43.371  25.451  26.521  1.00  0.00     0.029 A 
ATOM     50  N   UNL A   1      43.654  27.476  27.423  1.00  0.00    -0.354 N 
ATOM     51  C   UNL A   1      40.432  29.192  29.832  1.00  0.00     0.074 A 
ATOM     52  C   UNL A   1      39.367  28.231  30.028  1.00  0.00     0.031 C 
ATOM     53  C   UNL A   1      44.557  25.909  26.105  1.00  0.00     0.029 A 
ATOM     54  C   UNL A   1      44.768  27.238  26.662  1.00  0.00     0.049 A 
ATOM     55  H   UNL A   1      43.511  28.306  27.932  1.00  0.00     0.167 HD
ATOM     56  C   UNL A   1      40.427  30.471  30.279  1.00  0.00     0.037 A 
ATOM     57  C   UNL A   1      45.837  28.017  26.430  1.00  0.00     0.037 A 
ATOM     58  C   UNL A   1      41.511  31.396  30.062  1.00  0.00     0.049 A 
ATOM     59  C   UNL A   1      45.858  29.384  27.034  1.00  0.00     0.074 A 
ATOM     60  C   UNL A   1      41.627  32.710  30.482  1.00  0.00     0.029 A 
ATOM     61  N   UNL A   1      42.669  31.098  29.356  1.00  0.00    -0.354 N 
ATOM     62  N   UNL A   1      44.932  29.970  27.756  1.00  0.00    -0.248 NA
ATOM     63  C   UNL A   1      47.043  30.208  26.780  1.00  0.00     0.031 C 
ATOM     64  C   UNL A   1      42.843  33.213  30.005  1.00  0.00     0.029 A 
ATOM     65  C   UNL A   1      43.501  32.205  29.316  1.00  0.00     0.049 A 
ATOM     66  H   UNL A   1      42.871  30.226  28.944  1.00  0.00     0.167 HD
ATOM     67  C   UNL A   1      45.404  31.243  28.020  1.00  0.00     0.074 A 
ATOM     68  C   UNL A   1      46.721  31.330  27.413  1.00  0.00     0.031 C 
ATOM     69  C   UNL A   1      44.793  32.257  28.679  1.00  0.00     0.037 A 
BRANCH  56  70
ATOM     70  C   UNL A   1      39.201  30.959  30.993  1.00  0.00     0.064 A 
ATOM     71  C   UNL A   1      39.059  30.749  32.374  1.00  0.00     0.173 A 
ATOM     72  C   UNL A   1      38.148  31.591  30.316  1.00  0.00     0.173 A 
ATOM     73  F   UNL A   1      40.035  30.145  33.069  1.00  0.00    -0.203 F 
ATOM     74  C   UNL A   1      37.908  31.150  33.049  1.00  0.00     0.198 A 
ATOM     75  C   UNL A   1      37.006  32.009  30.997  1.00  0.00     0.198 A 
ATOM     76  F   UNL A   1      38.237  31.823  28.997  1.00  0.00    -0.203 F 
ATOM     77  F   UNL A   1      37.790  30.923  34.364  1.00  0.00    -0.200 F 
ATOM     78  C   UNL A   1      36.885  31.784  32.361  1.00  0.00     0.200 A 
ATOM     79  F   UNL A   1      36.025  32.636  30.335  1.00  0.00    -0.200 F 
ATOM     80  F   UNL A   1      35.782  32.181  33.012  1.00  0.00    -0.200 F 
ENDBRANCH  56  70
BRANCH  57  81
ATOM     81  C   UNL A   1      46.948  27.462  25.622  1.00  0.00     0.064 A 
ATOM     82  C   UNL A   1      48.025  26.795  26.224  1.00  0.00     0.173 A 
ATOM     83  C   UNL A   1      47.034  27.749  24.255  1.00  0.00     0.173 A 
ATOM     84  F   UNL A   1      48.001  26.529  27.538  1.00  0.00    -0.203 F 
ATOM     85  C   UNL A   1      49.166  26.472  25.493  1.00  0.00     0.198 A 
ATOM     86  C   UNL A   1      48.167  27.405  23.520  1.00  0.00     0.198 A 
ATOM     87  F   UNL A   1      46.028  28.389  23.641  1.00  0.00    -0.203 F 
ATOM     88  F   UNL A   1      50.211  25.898  26.105  1.00  0.00    -0.200 F 
ATOM     89  C   UNL A   1      49.238  26.780  24.143  1.00  0.00     0.200 A 
ATOM     90  F   UNL A   1      48.228  27.697  22.213  1.00  0.00    -0.200 F 
ATOM     91  F   UNL A   1      50.343  26.485  23.445  1.00  0.00    -0.200 F 
ENDBRANCH  57  81
BRANCH  69  92
ATOM     92  C   UNL A   1      45.529  33.557  28.736  1.00  0.00     0.064 A 
ATOM     93  C   UNL A   1      45.375  34.514  27.723  1.00  0.00     0.173 A 
ATOM     94  C   UNL A   1      46.438  33.820  29.771  1.00  0.00     0.173 A 
ATOM     95  F   UNL A   1      44.517  34.298  26.716  1.00  0.00    -0.203 F 
ATOM     96  C   UNL A   1      46.116  35.690  27.741  1.00  0.00     0.198 A 
ATOM     97  C   UNL A   1      47.167  35.004  29.792  1.00  0.00     0.198 A 
ATOM     98  F   UNL A   1      46.604  32.934  30.764  1.00  0.00    -0.203 F 
ATOM     99  F   UNL A   1      45.969  36.587  26.757  1.00  0.00    -0.200 F 
ATOM    100  C   UNL A   1      47.010  35.934  28.774  1.00  0.00     0.200 A 
ATOM    101  F   UNL A   1      48.018  35.246  30.797  1.00  0.00    -0.200 F 
ATOM    102  F   UNL A   1      47.720  37.071  28.792  1.00  0.00    -0.200 F 
ENDBRANCH  69  92
ENDBRANCH  43  44
ENDBRANCH  36  38
ENDBRANCH  35  36
ENDBRANCH  34  35
ENDBRANCH  33  34
ENDBRANCH  32  33
ENDBRANCH   1  32
TORSDOF 19
ENDMDL
