MODEL 1
REMARK VINA RESULT:     -12.2      0.000      0.000
REMARK SMILES C[C@H](NC(=O)c1c(C(=O)OCCOCCOC(=O)c2ccc(-c3c4nc(c(-c5c(F)c(F)c(F)c(F)c5F)c5ccc([nH]5)c(-c5c(F)c(F)c(F)c(F)c5F)c5nc(c(-c6c(F)c(F)c(F)c(F)c6F)c6ccc3[nH]6)C=C5)C=C4)cc2)cnn1C)[C@]12C[C@H]3C[C@H](C[C@H](C3)C1)C2
REMARK SMILES IDX 12 1 11 2 10 3 8 4 9 5 7 6 6 7 84 8 82 9 83 10 85 11 4 12
REMARK SMILES IDX 3 13 5 15 2 16 1 17 86 18 87 19 94 20 95 21 88 22 92 23
REMARK SMILES IDX 90 24 89 25 93 26 91 27 13 28 14 29 15 30 16 31 17 32 18 33
REMARK SMILES IDX 19 34 20 35 81 36 21 37 80 38 22 39 23 40 24 41 74 42 25 43
REMARK SMILES IDX 79 44 73 45 75 46 26 47 78 48 72 49 71 50 27 52 59 53 39 54
REMARK SMILES IDX 58 55 40 56 43 57 57 58 76 59 41 60 42 61 56 63 77 64 44 65
REMARK SMILES IDX 28 66 29 67 37 68 30 69 31 70 35 71 38 72 32 73 33 74 36 75
REMARK SMILES IDX 34 76 60 77 61 78 69 79 62 80 63 81 67 82 70 83 64 84 65 85
REMARK SMILES IDX 68 86 66 87 45 88 46 89 54 90 47 91 48 92 52 93 55 94 49 95
REMARK SMILES IDX 50 96 53 97 51 98
REMARK H PARENT 3 14 75 51 43 62
REMARK Flexibility Score: inf
ROOT
ATOM      1  C   UNL A   1      34.282  32.261  28.028  1.00  0.00     0.202 C 
ENDROOT
BRANCH   1   2
ATOM      2  C   UNL A   1      34.644  30.830  27.632  1.00  0.00     0.261 C 
BRANCH   2   3
ATOM      3  O   UNL A   1      33.452  30.063  27.384  1.00  0.00    -0.460 OA
BRANCH   3   4
ATOM      4  C   UNL A   1      33.559  29.160  26.372  1.00  0.00     0.342 C 
ATOM      5  O   UNL A   1      34.344  28.218  26.366  1.00  0.00    -0.246 OA
BRANCH   4   6
ATOM      6  C   UNL A   1      32.594  29.336  25.306  1.00  0.00     0.111 A 
ATOM      7  C   UNL A   1      32.566  28.896  23.982  1.00  0.00     0.140 A 
ATOM      8  N   UNL A   1      31.297  29.212  23.552  1.00  0.00    -0.262 N 
ATOM      9  C   UNL A   1      31.401  30.081  25.455  1.00  0.00     0.151 A 
ATOM     10  N   UNL A   1      30.641  30.059  24.364  1.00  0.00    -0.180 NA
ATOM     11  C   UNL A   1      30.558  28.630  22.457  1.00  0.00     0.174 C 
BRANCH   7  12
ATOM     12  C   UNL A   1      33.492  28.093  23.231  1.00  0.00     0.270 C 
ATOM     13  N   UNL A   1      33.652  26.765  23.575  1.00  0.00    -0.348 N 
ATOM     14  H   UNL A   1      34.529  26.372  23.364  1.00  0.00     0.164 HD
ATOM     15  O   UNL A   1      34.187  28.545  22.324  1.00  0.00    -0.267 OA
BRANCH  13  16
ATOM     16  C   UNL A   1      32.683  25.859  24.217  1.00  0.00     0.085 C 
ATOM     17  C   UNL A   1      31.583  25.577  23.185  1.00  0.00     0.031 C 
BRANCH  16  18
ATOM     18  C   UNL A   1      33.335  24.551  24.819  1.00  0.00    -0.009 C 
ATOM     19  C   UNL A   1      34.770  24.828  25.364  1.00  0.00     0.012 C 
ATOM     20  C   UNL A   1      33.465  23.473  23.706  1.00  0.00     0.012 C 
ATOM     21  C   UNL A   1      32.510  23.919  25.976  1.00  0.00     0.012 C 
ATOM     22  C   UNL A   1      35.439  23.548  25.889  1.00  0.00    -0.010 C 
ATOM     23  C   UNL A   1      34.145  22.193  24.221  1.00  0.00    -0.010 C 
ATOM     24  C   UNL A   1      33.180  22.631  26.502  1.00  0.00    -0.010 C 
ATOM     25  C   UNL A   1      34.586  22.960  27.024  1.00  0.00     0.007 C 
ATOM     26  C   UNL A   1      35.546  22.532  24.746  1.00  0.00     0.007 C 
ATOM     27  C   UNL A   1      33.301  21.607  25.361  1.00  0.00     0.007 C 
ENDBRANCH  16  18
ENDBRANCH  13  16
ENDBRANCH   7  12
ENDBRANCH   4   6
ENDBRANCH   3   4
ENDBRANCH   2   3
ENDBRANCH   1   2
BRANCH   1  28
ATOM     28  O   UNL A   1      34.033  32.431  29.423  1.00  0.00    -0.374 OA
BRANCH  28  29
ATOM     29  C   UNL A   1      34.415  33.695  29.973  1.00  0.00     0.202 C 
BRANCH  29  30
ATOM     30  C   UNL A   1      34.636  33.670  31.490  1.00  0.00     0.261 C 
BRANCH  30  31
ATOM     31  O   UNL A   1      34.810  32.313  31.946  1.00  0.00    -0.460 OA
BRANCH  31  32
ATOM     32  C   UNL A   1      35.889  32.098  32.735  1.00  0.00     0.338 C 
ATOM     33  O   UNL A   1      35.988  32.327  33.929  1.00  0.00    -0.246 OA
BRANCH  32  34
ATOM     34  C   UNL A   1      36.920  31.356  31.977  1.00  0.00     0.060 A 
ATOM     35  C   UNL A   1      38.103  31.033  32.652  1.00  0.00     0.016 A 
ATOM     36  C   UNL A   1      36.756  31.001  30.634  1.00  0.00     0.016 A 
ATOM     37  C   UNL A   1      39.147  30.405  31.977  1.00  0.00     0.010 A 
ATOM     38  C   UNL A   1      37.809  30.376  29.953  1.00  0.00     0.010 A 
ATOM     39  C   UNL A   1      39.022  30.108  30.613  1.00  0.00    -0.014 A 
BRANCH  39  40
ATOM     40  C   UNL A   1      40.219  29.669  29.856  1.00  0.00     0.031 A 
ATOM     41  C   UNL A   1      41.347  30.644  29.653  1.00  0.00     0.074 A 
ATOM     42  C   UNL A   1      40.331  28.408  29.403  1.00  0.00     0.049 A 
ATOM     43  N   UNL A   1      42.491  30.477  29.039  1.00  0.00    -0.248 NA
ATOM     44  C   UNL A   1      41.160  31.987  30.225  1.00  0.00     0.031 C 
ATOM     45  C   UNL A   1      39.331  27.358  29.572  1.00  0.00     0.029 A 
ATOM     46  N   UNL A   1      41.348  27.799  28.711  1.00  0.00    -0.354 N 
ATOM     47  C   UNL A   1      43.160  31.688  29.154  1.00  0.00     0.074 A 
ATOM     48  C   UNL A   1      42.285  32.592  29.867  1.00  0.00     0.031 C 
ATOM     49  C   UNL A   1      39.785  26.229  29.000  1.00  0.00     0.029 A 
ATOM     50  C   UNL A   1      41.096  26.485  28.406  1.00  0.00     0.049 A 
ATOM     51  H   UNL A   1      42.180  28.261  28.458  1.00  0.00     0.167 HD
ATOM     52  C   UNL A   1      44.400  32.014  28.717  1.00  0.00     0.037 A 
ATOM     53  C   UNL A   1      41.837  25.595  27.716  1.00  0.00     0.037 A 
ATOM     54  C   UNL A   1      45.276  31.120  28.009  1.00  0.00     0.049 A 
ATOM     55  C   UNL A   1      43.181  26.007  27.174  1.00  0.00     0.074 A 
ATOM     56  C   UNL A   1      46.551  31.361  27.530  1.00  0.00     0.029 A 
ATOM     57  N   UNL A   1      44.963  29.812  27.677  1.00  0.00    -0.354 N 
ATOM     58  N   UNL A   1      43.811  27.149  27.298  1.00  0.00    -0.248 NA
ATOM     59  C   UNL A   1      43.918  25.000  26.394  1.00  0.00     0.031 C 
ATOM     60  C   UNL A   1      46.997  30.209  26.873  1.00  0.00     0.029 A 
ATOM     61  C   UNL A   1      46.014  29.238  26.979  1.00  0.00     0.049 A 
ATOM     62  H   UNL A   1      44.120  29.357  27.902  1.00  0.00     0.167 HD
ATOM     63  C   UNL A   1      45.023  26.992  26.639  1.00  0.00     0.074 A 
ATOM     64  C   UNL A   1      45.047  25.640  26.123  1.00  0.00     0.031 C 
ATOM     65  C   UNL A   1      46.027  27.888  26.479  1.00  0.00     0.037 A 
BRANCH  52  66
ATOM     66  C   UNL A   1      44.878  33.410  28.981  1.00  0.00     0.064 A 
ATOM     67  C   UNL A   1      44.610  34.457  28.087  1.00  0.00     0.173 A 
ATOM     68  C   UNL A   1      45.581  33.710  30.157  1.00  0.00     0.173 A 
ATOM     69  F   UNL A   1      43.956  34.216  26.941  1.00  0.00    -0.203 F 
ATOM     70  C   UNL A   1      45.044  35.752  28.354  1.00  0.00     0.198 A 
ATOM     71  C   UNL A   1      45.993  35.010  30.432  1.00  0.00     0.198 A 
ATOM     72  F   UNL A   1      45.860  32.742  31.043  1.00  0.00    -0.203 F 
ATOM     73  F   UNL A   1      44.809  36.732  27.469  1.00  0.00    -0.200 F 
ATOM     74  C   UNL A   1      45.728  36.030  29.528  1.00  0.00     0.200 A 
ATOM     75  F   UNL A   1      46.647  35.278  31.570  1.00  0.00    -0.200 F 
ATOM     76  F   UNL A   1      46.140  37.278  29.787  1.00  0.00    -0.200 F 
ENDBRANCH  52  66
BRANCH  53  77
ATOM     77  C   UNL A   1      41.327  24.218  27.495  1.00  0.00     0.064 A 
ATOM     78  C   UNL A   1      41.960  23.112  28.077  1.00  0.00     0.173 A 
ATOM     79  C   UNL A   1      40.212  23.979  26.679  1.00  0.00     0.173 A 
ATOM     80  F   UNL A   1      43.049  23.289  28.840  1.00  0.00    -0.203 F 
ATOM     81  C   UNL A   1      41.506  21.816  27.840  1.00  0.00     0.198 A 
ATOM     82  C   UNL A   1      39.744  22.686  26.461  1.00  0.00     0.198 A 
ATOM     83  F   UNL A   1      39.577  25.005  26.092  1.00  0.00    -0.203 F 
ATOM     84  F   UNL A   1      42.155  20.773  28.372  1.00  0.00    -0.200 F 
ATOM     85  C   UNL A   1      40.394  21.604  27.036  1.00  0.00     0.200 A 
ATOM     86  F   UNL A   1      38.668  22.485  25.687  1.00  0.00    -0.200 F 
ATOM     87  F   UNL A   1      39.959  20.358  26.808  1.00  0.00    -0.200 F 
ENDBRANCH  53  77
BRANCH  65  88
ATOM     88  C   UNL A   1      47.253  27.429  25.744  1.00  0.00     0.064 A 
ATOM     89  C   UNL A   1      47.387  27.606  24.359  1.00  0.00     0.173 A 
ATOM     90  C   UNL A   1      48.324  26.852  26.442  1.00  0.00     0.173 A 
ATOM     91  F   UNL A   1      46.384  28.142  23.647  1.00  0.00    -0.203 F 
ATOM     92  C   UNL A   1      48.543  27.203  23.696  1.00  0.00     0.198 A 
ATOM     93  C   UNL A   1      49.489  26.473  25.779  1.00  0.00     0.198 A 
ATOM     94  F   UNL A   1      48.248  26.669  27.767  1.00  0.00    -0.203 F 
ATOM     95  F   UNL A   1      48.635  27.347  22.367  1.00  0.00    -0.200 F 
ATOM     96  C   UNL A   1      49.594  26.644  24.406  1.00  0.00     0.200 A 
ATOM     97  F   UNL A   1      50.508  25.943  26.469  1.00  0.00    -0.200 F 
ATOM     98  F   UNL A   1      50.709  26.263  23.767  1.00  0.00    -0.200 F 
ENDBRANCH  65  88
ENDBRANCH  39  40
ENDBRANCH  32  34
ENDBRANCH  31  32
ENDBRANCH  30  31
ENDBRANCH  29  30
ENDBRANCH  28  29
ENDBRANCH   1  28
TORSDOF 17
ENDMDL
MODEL 2
REMARK VINA RESULT:     -11.9      4.495      7.063
REMARK SMILES C[C@H](NC(=O)c1c(C(=O)OCCOCCOC(=O)c2ccc(-c3c4nc(c(-c5c(F)c(F)c(F)c(F)c5F)c5ccc([nH]5)c(-c5c(F)c(F)c(F)c(F)c5F)c5nc(c(-c6c(F)c(F)c(F)c(F)c6F)c6ccc3[nH]6)C=C5)C=C4)cc2)cnn1C)[C@]12C[C@H]3C[C@H](C[C@H](C3)C1)C2
REMARK SMILES IDX 12 1 11 2 10 3 8 4 9 5 7 6 6 7 84 8 82 9 83 10 85 11 4 12
REMARK SMILES IDX 3 13 5 15 2 16 1 17 86 18 87 19 94 20 95 21 88 22 92 23
REMARK SMILES IDX 90 24 89 25 93 26 91 27 13 28 14 29 15 30 16 31 17 32 18 33
REMARK SMILES IDX 19 34 20 35 81 36 21 37 80 38 22 39 23 40 24 41 74 42 25 43
REMARK SMILES IDX 79 44 73 45 75 46 26 47 78 48 72 49 71 50 27 52 59 53 39 54
REMARK SMILES IDX 58 55 40 56 43 57 57 58 76 59 41 60 42 61 56 63 77 64 44 65
REMARK SMILES IDX 28 66 29 67 37 68 30 69 31 70 35 71 38 72 32 73 33 74 36 75
REMARK SMILES IDX 34 76 60 77 61 78 69 79 62 80 63 81 67 82 70 83 64 84 65 85
REMARK SMILES IDX 68 86 66 87 45 88 46 89 54 90 47 91 48 92 52 93 55 94 49 95
REMARK SMILES IDX 50 96 53 97 51 98
REMARK H PARENT 3 14 75 51 43 62
REMARK Flexibility Score: inf
ROOT
ATOM      1  C   UNL A   1      33.211  28.552  25.584  1.00  0.00     0.202 C 
ENDROOT
BRANCH   1   2
ATOM      2  C   UNL A   1      33.768  27.243  26.142  1.00  0.00     0.261 C 
BRANCH   2   3
ATOM      3  O   UNL A   1      34.011  26.308  25.074  1.00  0.00    -0.460 OA
BRANCH   3   4
ATOM      4  C   UNL A   1      34.057  25.005  25.461  1.00  0.00     0.342 C 
ATOM      5  O   UNL A   1      35.072  24.431  25.840  1.00  0.00    -0.246 OA
BRANCH   4   6
ATOM      6  C   UNL A   1      32.771  24.339  25.480  1.00  0.00     0.111 A 
ATOM      7  C   UNL A   1      32.305  23.215  26.163  1.00  0.00     0.140 A 
ATOM      8  N   UNL A   1      30.949  23.216  25.922  1.00  0.00    -0.262 N 
ATOM      9  C   UNL A   1      31.664  24.766  24.710  1.00  0.00     0.151 A 
ATOM     10  N   UNL A   1      30.572  24.041  24.930  1.00  0.00    -0.180 NA
ATOM     11  C   UNL A   1      29.908  22.580  26.693  1.00  0.00     0.174 C 
BRANCH   7  12
ATOM     12  C   UNL A   1      32.952  22.340  27.103  1.00  0.00     0.270 C 
ATOM     13  N   UNL A   1      33.464  21.140  26.651  1.00  0.00    -0.348 N 
ATOM     14  H   UNL A   1      33.507  20.417  27.317  1.00  0.00     0.164 HD
ATOM     15  O   UNL A   1      33.029  22.588  28.303  1.00  0.00    -0.267 OA
BRANCH  13  16
ATOM     16  C   UNL A   1      33.954  20.799  25.304  1.00  0.00     0.085 C 
ATOM     17  C   UNL A   1      35.443  21.166  25.262  1.00  0.00     0.031 C 
BRANCH  16  18
ATOM     18  C   UNL A   1      33.659  19.306  24.876  1.00  0.00    -0.009 C 
ATOM     19  C   UNL A   1      32.903  18.531  25.999  1.00  0.00     0.012 C 
ATOM     20  C   UNL A   1      35.001  18.561  24.626  1.00  0.00     0.012 C 
ATOM     21  C   UNL A   1      32.816  19.184  23.576  1.00  0.00     0.012 C 
ATOM     22  C   UNL A   1      32.672  17.058  25.622  1.00  0.00    -0.010 C 
ATOM     23  C   UNL A   1      34.779  17.084  24.260  1.00  0.00    -0.010 C 
ATOM     24  C   UNL A   1      32.587  17.705  23.195  1.00  0.00    -0.010 C 
ATOM     25  C   UNL A   1      31.842  16.991  24.332  1.00  0.00     0.007 C 
ATOM     26  C   UNL A   1      34.029  16.379  25.398  1.00  0.00     0.007 C 
ATOM     27  C   UNL A   1      33.942  17.011  22.975  1.00  0.00     0.007 C 
ENDBRANCH  16  18
ENDBRANCH  13  16
ENDBRANCH   7  12
ENDBRANCH   4   6
ENDBRANCH   3   4
ENDBRANCH   2   3
ENDBRANCH   1   2
BRANCH   1  28
ATOM     28  O   UNL A   1      32.645  29.410  26.575  1.00  0.00    -0.374 OA
BRANCH  28  29
ATOM     29  C   UNL A   1      31.733  30.401  26.092  1.00  0.00     0.202 C 
BRANCH  29  30
ATOM     30  C   UNL A   1      31.774  31.716  26.877  1.00  0.00     0.261 C 
BRANCH  30  31
ATOM     31  O   UNL A   1      33.036  32.383  26.668  1.00  0.00    -0.460 OA
BRANCH  31  32
ATOM     32  C   UNL A   1      33.530  33.045  27.741  1.00  0.00     0.338 C 
ATOM     33  O   UNL A   1      32.975  33.914  28.392  1.00  0.00    -0.246 OA
BRANCH  32  34
ATOM     34  C   UNL A   1      34.812  32.433  28.155  1.00  0.00     0.060 A 
ATOM     35  C   UNL A   1      34.796  31.070  28.474  1.00  0.00     0.016 A 
ATOM     36  C   UNL A   1      35.998  33.167  28.256  1.00  0.00     0.016 A 
ATOM     37  C   UNL A   1      35.950  30.448  28.948  1.00  0.00     0.010 A 
ATOM     38  C   UNL A   1      37.155  32.543  28.738  1.00  0.00     0.010 A 
ATOM     39  C   UNL A   1      37.126  31.189  29.120  1.00  0.00    -0.014 A 
BRANCH  39  40
ATOM     40  C   UNL A   1      38.264  30.580  29.850  1.00  0.00     0.031 A 
ATOM     41  C   UNL A   1      38.477  30.941  31.294  1.00  0.00     0.074 A 
ATOM     42  C   UNL A   1      39.064  29.675  29.258  1.00  0.00     0.049 A 
ATOM     43  N   UNL A   1      39.393  30.523  32.131  1.00  0.00    -0.248 NA
ATOM     44  C   UNL A   1      37.525  31.902  31.875  1.00  0.00     0.031 C 
ATOM     45  C   UNL A   1      38.938  29.208  27.880  1.00  0.00     0.029 A 
ATOM     46  N   UNL A   1      40.142  28.983  29.752  1.00  0.00    -0.354 N 
ATOM     47  C   UNL A   1      39.126  31.163  33.333  1.00  0.00     0.074 A 
ATOM     48  C   UNL A   1      37.984  32.022  33.113  1.00  0.00     0.031 C 
ATOM     49  C   UNL A   1      39.900  28.301  27.638  1.00  0.00     0.029 A 
ATOM     50  C   UNL A   1      40.724  28.144  28.836  1.00  0.00     0.049 A 
ATOM     51  H   UNL A   1      40.467  29.080  30.677  1.00  0.00     0.167 HD
ATOM     52  C   UNL A   1      39.766  31.035  34.520  1.00  0.00     0.037 A 
ATOM     53  C   UNL A   1      41.806  27.348  28.950  1.00  0.00     0.037 A 
ATOM     54  C   UNL A   1      40.901  30.182  34.746  1.00  0.00     0.049 A 
ATOM     55  C   UNL A   1      42.546  27.282  30.260  1.00  0.00     0.074 A 
ATOM     56  C   UNL A   1      41.614  29.985  35.915  1.00  0.00     0.029 A 
ATOM     57  N   UNL A   1      41.491  29.384  33.778  1.00  0.00    -0.354 N 
ATOM     58  N   UNL A   1      42.279  27.881  31.395  1.00  0.00    -0.248 NA
ATOM     59  C   UNL A   1      43.743  26.426  30.304  1.00  0.00     0.031 C 
ATOM     60  C   UNL A   1      42.660  29.096  35.647  1.00  0.00     0.029 A 
ATOM     61  C   UNL A   1      42.573  28.708  34.319  1.00  0.00     0.049 A 
ATOM     62  H   UNL A   1      41.187  29.309  32.845  1.00  0.00     0.167 HD
ATOM     63  C   UNL A   1      43.252  27.456  32.291  1.00  0.00     0.074 A 
ATOM     64  C   UNL A   1      44.113  26.541  31.572  1.00  0.00     0.031 C 
ATOM     65  C   UNL A   1      43.415  27.793  33.593  1.00  0.00     0.037 A 
BRANCH  52  66
ATOM     66  C   UNL A   1      39.259  31.855  35.667  1.00  0.00     0.064 A 
ATOM     67  C   UNL A   1      38.349  31.332  36.596  1.00  0.00     0.173 A 
ATOM     68  C   UNL A   1      39.717  33.167  35.859  1.00  0.00     0.173 A 
ATOM     69  F   UNL A   1      37.870  30.088  36.445  1.00  0.00    -0.203 F 
ATOM     70  C   UNL A   1      37.902  32.099  37.668  1.00  0.00     0.198 A 
ATOM     71  C   UNL A   1      39.286  33.923  36.945  1.00  0.00     0.198 A 
ATOM     72  F   UNL A   1      40.589  33.712  34.997  1.00  0.00    -0.203 F 
ATOM     73  F   UNL A   1      37.003  31.592  38.525  1.00  0.00    -0.200 F 
ATOM     74  C   UNL A   1      38.375  33.391  37.846  1.00  0.00     0.200 A 
ATOM     75  F   UNL A   1      39.750  35.168  37.120  1.00  0.00    -0.200 F 
ATOM     76  F   UNL A   1      37.949  34.126  38.882  1.00  0.00    -0.200 F 
ENDBRANCH  52  66
BRANCH  53  77
ATOM     77  C   UNL A   1      42.260  26.541  27.789  1.00  0.00     0.064 A 
ATOM     78  C   UNL A   1      41.734  25.265  27.547  1.00  0.00     0.173 A 
ATOM     79  C   UNL A   1      43.243  27.020  26.912  1.00  0.00     0.173 A 
ATOM     80  F   UNL A   1      40.813  24.752  28.377  1.00  0.00    -0.203 F 
ATOM     81  C   UNL A   1      42.186  24.491  26.480  1.00  0.00     0.198 A 
ATOM     82  C   UNL A   1      43.678  26.256  25.832  1.00  0.00     0.198 A 
ATOM     83  F   UNL A   1      43.783  28.233  27.107  1.00  0.00    -0.203 F 
ATOM     84  F   UNL A   1      41.700  23.257  26.297  1.00  0.00    -0.200 F 
ATOM     85  C   UNL A   1      43.154  24.990  25.620  1.00  0.00     0.200 A 
ATOM     86  F   UNL A   1      44.610  26.743  25.001  1.00  0.00    -0.200 F 
ATOM     87  F   UNL A   1      43.589  24.245  24.595  1.00  0.00    -0.200 F 
ENDBRANCH  53  77
BRANCH  65  88
ATOM     88  C   UNL A   1      44.546  27.147  34.339  1.00  0.00     0.064 A 
ATOM     89  C   UNL A   1      44.407  25.885  34.933  1.00  0.00     0.173 A 
ATOM     90  C   UNL A   1      45.798  27.778  34.415  1.00  0.00     0.173 A 
ATOM     91  F   UNL A   1      43.226  25.249  34.898  1.00  0.00    -0.203 F 
ATOM     92  C   UNL A   1      45.475  25.285  35.595  1.00  0.00     0.198 A 
ATOM     93  C   UNL A   1      46.870  27.163  35.056  1.00  0.00     0.198 A 
ATOM     94  F   UNL A   1      45.983  28.982  33.856  1.00  0.00    -0.203 F 
ATOM     95  F   UNL A   1      45.310  24.095  36.189  1.00  0.00    -0.200 F 
ATOM     96  C   UNL A   1      46.706  25.921  35.650  1.00  0.00     0.200 A 
ATOM     97  F   UNL A   1      48.062  27.775  35.099  1.00  0.00    -0.200 F 
ATOM     98  F   UNL A   1      47.735  25.339  36.282  1.00  0.00    -0.200 F 
ENDBRANCH  65  88
ENDBRANCH  39  40
ENDBRANCH  32  34
ENDBRANCH  31  32
ENDBRANCH  30  31
ENDBRANCH  29  30
ENDBRANCH  28  29
ENDBRANCH   1  28
TORSDOF 17
ENDMDL
MODEL 3
REMARK VINA RESULT:     -11.9      4.377      7.304
REMARK SMILES C[C@H](NC(=O)c1c(C(=O)OCCOCCOC(=O)c2ccc(-c3c4nc(c(-c5c(F)c(F)c(F)c(F)c5F)c5ccc([nH]5)c(-c5c(F)c(F)c(F)c(F)c5F)c5nc(c(-c6c(F)c(F)c(F)c(F)c6F)c6ccc3[nH]6)C=C5)C=C4)cc2)cnn1C)[C@]12C[C@H]3C[C@H](C[C@H](C3)C1)C2
REMARK SMILES IDX 12 1 11 2 10 3 8 4 9 5 7 6 6 7 84 8 82 9 83 10 85 11 4 12
REMARK SMILES IDX 3 13 5 15 2 16 1 17 86 18 87 19 94 20 95 21 88 22 92 23
REMARK SMILES IDX 90 24 89 25 93 26 91 27 13 28 14 29 15 30 16 31 17 32 18 33
REMARK SMILES IDX 19 34 20 35 81 36 21 37 80 38 22 39 23 40 24 41 74 42 25 43
REMARK SMILES IDX 79 44 73 45 75 46 26 47 78 48 72 49 71 50 27 52 59 53 39 54
REMARK SMILES IDX 58 55 40 56 43 57 57 58 76 59 41 60 42 61 56 63 77 64 44 65
REMARK SMILES IDX 28 66 29 67 37 68 30 69 31 70 35 71 38 72 32 73 33 74 36 75
REMARK SMILES IDX 34 76 60 77 61 78 69 79 62 80 63 81 67 82 70 83 64 84 65 85
REMARK SMILES IDX 68 86 66 87 45 88 46 89 54 90 47 91 48 92 52 93 55 94 49 95
REMARK SMILES IDX 50 96 53 97 51 98
REMARK H PARENT 3 14 75 51 43 62
REMARK Flexibility Score: inf
ROOT
ATOM      1  C   UNL A   1      33.074  29.275  27.162  1.00  0.00     0.202 C 
ENDROOT
BRANCH   1   2
ATOM      2  C   UNL A   1      31.676  28.665  27.255  1.00  0.00     0.261 C 
BRANCH   2   3
ATOM      3  O   UNL A   1      31.762  27.266  27.584  1.00  0.00    -0.460 OA
BRANCH   3   4
ATOM      4  C   UNL A   1      31.211  26.432  26.661  1.00  0.00     0.342 C 
ATOM      5  O   UNL A   1      30.007  26.242  26.531  1.00  0.00    -0.246 OA
BRANCH   4   6
ATOM      6  C   UNL A   1      32.166  25.827  25.755  1.00  0.00     0.111 A 
ATOM      7  C   UNL A   1      32.068  25.417  24.425  1.00  0.00     0.140 A 
ATOM      8  N   UNL A   1      33.366  25.118  24.072  1.00  0.00    -0.262 N 
ATOM      9  C   UNL A   1      33.493  25.508  26.125  1.00  0.00     0.151 A 
ATOM     10  N   UNL A   1      34.205  25.016  25.116  1.00  0.00    -0.180 NA
ATOM     11  C   UNL A   1      33.938  25.067  22.747  1.00  0.00     0.174 C 
BRANCH   7  12
ATOM     12  C   UNL A   1      30.976  25.476  23.492  1.00  0.00     0.270 C 
ATOM     13  N   UNL A   1      30.348  26.687  23.280  1.00  0.00    -0.348 N 
ATOM     14  H   UNL A   1      29.404  26.635  23.002  1.00  0.00     0.164 HD
ATOM     15  O   UNL A   1      30.540  24.486  22.909  1.00  0.00    -0.267 OA
BRANCH  13  16
ATOM     16  C   UNL A   1      30.902  28.045  23.415  1.00  0.00     0.085 C 
ATOM     17  C   UNL A   1      32.164  28.102  22.546  1.00  0.00     0.031 C 
BRANCH  16  18
ATOM     18  C   UNL A   1      29.863  29.194  23.095  1.00  0.00    -0.009 C 
ATOM     19  C   UNL A   1      28.408  28.638  23.011  1.00  0.00     0.012 C 
ATOM     20  C   UNL A   1      30.194  29.826  21.714  1.00  0.00     0.012 C 
ATOM     21  C   UNL A   1      29.864  30.344  24.140  1.00  0.00     0.012 C 
ATOM     22  C   UNL A   1      27.398  29.733  22.632  1.00  0.00    -0.010 C 
ATOM     23  C   UNL A   1      29.181  30.915  21.322  1.00  0.00    -0.010 C 
ATOM     24  C   UNL A   1      28.852  31.447  23.758  1.00  0.00    -0.010 C 
ATOM     25  C   UNL A   1      27.440  30.847  23.689  1.00  0.00     0.007 C 
ATOM     26  C   UNL A   1      27.773  30.309  21.262  1.00  0.00     0.007 C 
ATOM     27  C   UNL A   1      29.213  32.027  22.380  1.00  0.00     0.007 C 
ENDBRANCH  16  18
ENDBRANCH  13  16
ENDBRANCH   7  12
ENDBRANCH   4   6
ENDBRANCH   3   4
ENDBRANCH   2   3
ENDBRANCH   1   2
BRANCH   1  28
ATOM     28  O   UNL A   1      33.094  30.600  26.633  1.00  0.00    -0.374 OA
BRANCH  28  29
ATOM     29  C   UNL A   1      31.832  31.274  26.595  1.00  0.00     0.202 C 
BRANCH  29  30
ATOM     30  C   UNL A   1      31.852  32.663  27.243  1.00  0.00     0.261 C 
BRANCH  30  31
ATOM     31  O   UNL A   1      33.139  33.285  27.051  1.00  0.00    -0.460 OA
BRANCH  31  32
ATOM     32  C   UNL A   1      33.687  33.842  28.157  1.00  0.00     0.338 C 
ATOM     33  O   UNL A   1      33.208  34.717  28.858  1.00  0.00    -0.246 OA
BRANCH  32  34
ATOM     34  C   UNL A   1      34.913  33.103  28.530  1.00  0.00     0.060 A 
ATOM     35  C   UNL A   1      34.746  31.843  29.120  1.00  0.00     0.016 A 
ATOM     36  C   UNL A   1      36.195  33.625  28.337  1.00  0.00     0.016 A 
ATOM     37  C   UNL A   1      35.853  31.127  29.568  1.00  0.00     0.010 A 
ATOM     38  C   UNL A   1      37.308  32.908  28.794  1.00  0.00     0.010 A 
ATOM     39  C   UNL A   1      37.138  31.671  29.444  1.00  0.00    -0.014 A 
BRANCH  39  40
ATOM     40  C   UNL A   1      38.272  31.017  30.140  1.00  0.00     0.031 A 
ATOM     41  C   UNL A   1      38.527  31.350  31.585  1.00  0.00     0.074 A 
ATOM     42  C   UNL A   1      39.030  30.096  29.519  1.00  0.00     0.049 A 
ATOM     43  N   UNL A   1      39.446  30.891  32.396  1.00  0.00    -0.248 NA
ATOM     44  C   UNL A   1      37.618  32.332  32.199  1.00  0.00     0.031 C 
ATOM     45  C   UNL A   1      38.860  29.652  28.138  1.00  0.00     0.029 A 
ATOM     46  N   UNL A   1      40.096  29.364  29.981  1.00  0.00    -0.354 N 
ATOM     47  C   UNL A   1      39.225  31.522  33.612  1.00  0.00     0.074 A 
ATOM     48  C   UNL A   1      38.106  32.420  33.428  1.00  0.00     0.031 C 
ATOM     49  C   UNL A   1      39.788  28.720  27.863  1.00  0.00     0.029 A 
ATOM     50  C   UNL A   1      40.632  28.520  29.041  1.00  0.00     0.049 A 
ATOM     51  H   UNL A   1      40.443  29.437  30.899  1.00  0.00     0.167 HD
ATOM     52  C   UNL A   1      39.885  31.358  34.783  1.00  0.00     0.037 A 
ATOM     53  C   UNL A   1      41.690  27.688  29.121  1.00  0.00     0.037 A 
ATOM     54  C   UNL A   1      40.997  30.466  34.972  1.00  0.00     0.049 A 
ATOM     55  C   UNL A   1      42.455  27.581  30.413  1.00  0.00     0.074 A 
ATOM     56  C   UNL A   1      41.728  30.230  36.124  1.00  0.00     0.029 A 
ATOM     57  N   UNL A   1      41.541  29.664  33.982  1.00  0.00    -0.354 N 
ATOM     58  N   UNL A   1      42.231  28.172  31.562  1.00  0.00    -0.248 NA
ATOM     59  C   UNL A   1      43.624  26.687  30.419  1.00  0.00     0.031 C 
ATOM     60  C   UNL A   1      42.740  29.313  35.820  1.00  0.00     0.029 A 
ATOM     61  C   UNL A   1      42.613  28.947  34.490  1.00  0.00     0.049 A 
ATOM     62  H   UNL A   1      41.215  29.612  33.054  1.00  0.00     0.167 HD
ATOM     63  C   UNL A   1      43.209  27.704  32.431  1.00  0.00     0.074 A 
ATOM     64  C   UNL A   1      44.025  26.773  31.681  1.00  0.00     0.031 C 
ATOM     65  C   UNL A   1      43.410  28.017  33.734  1.00  0.00     0.037 A 
BRANCH  52  66
ATOM     66  C   UNL A   1      39.429  32.177  35.952  1.00  0.00     0.064 A 
ATOM     67  C   UNL A   1      38.449  31.707  36.838  1.00  0.00     0.173 A 
ATOM     68  C   UNL A   1      40.005  33.430  36.209  1.00  0.00     0.173 A 
ATOM     69  F   UNL A   1      37.858  30.522  36.624  1.00  0.00    -0.203 F 
ATOM     70  C   UNL A   1      38.049  32.470  37.931  1.00  0.00     0.198 A 
ATOM     71  C   UNL A   1      39.619  34.180  37.315  1.00  0.00     0.198 A 
ATOM     72  F   UNL A   1      40.947  33.922  35.390  1.00  0.00    -0.203 F 
ATOM     73  F   UNL A   1      37.084  32.019  38.745  1.00  0.00    -0.200 F 
ATOM     74  C   UNL A   1      38.638  33.702  38.173  1.00  0.00     0.200 A 
ATOM     75  F   UNL A   1      40.195  35.367  37.552  1.00  0.00    -0.200 F 
ATOM     76  F   UNL A   1      38.257  34.434  39.229  1.00  0.00    -0.200 F 
ENDBRANCH  52  66
BRANCH  53  77
ATOM     77  C   UNL A   1      42.093  26.885  27.939  1.00  0.00     0.064 A 
ATOM     78  C   UNL A   1      42.994  27.394  26.993  1.00  0.00     0.173 A 
ATOM     79  C   UNL A   1      41.568  25.603  27.719  1.00  0.00     0.173 A 
ATOM     80  F   UNL A   1      43.498  28.627  27.146  1.00  0.00    -0.203 F 
ATOM     81  C   UNL A   1      43.344  26.656  25.864  1.00  0.00     0.198 A 
ATOM     82  C   UNL A   1      41.937  24.858  26.602  1.00  0.00     0.198 A 
ATOM     83  F   UNL A   1      40.696  25.077  28.591  1.00  0.00    -0.203 F 
ATOM     84  F   UNL A   1      44.173  27.183  24.954  1.00  0.00    -0.200 F 
ATOM     85  C   UNL A   1      42.819  25.386  25.672  1.00  0.00     0.200 A 
ATOM     86  F   UNL A   1      41.431  23.630  26.422  1.00  0.00    -0.200 F 
ATOM     87  F   UNL A   1      43.155  24.679  24.586  1.00  0.00    -0.200 F 
ENDBRANCH  53  77
BRANCH  65  88
ATOM     88  C   UNL A   1      44.535  27.325  34.446  1.00  0.00     0.064 A 
ATOM     89  C   UNL A   1      44.357  26.078  35.062  1.00  0.00     0.173 A 
ATOM     90  C   UNL A   1      45.818  27.894  34.467  1.00  0.00     0.173 A 
ATOM     91  F   UNL A   1      43.147  25.500  35.079  1.00  0.00    -0.203 F 
ATOM     92  C   UNL A   1      45.419  25.435  35.692  1.00  0.00     0.198 A 
ATOM     93  C   UNL A   1      46.883  27.235  35.076  1.00  0.00     0.198 A 
ATOM     94  F   UNL A   1      46.041  29.080  33.885  1.00  0.00    -0.203 F 
ATOM     95  F   UNL A   1      45.219  24.261  36.308  1.00  0.00    -0.200 F 
ATOM     96  C   UNL A   1      46.681  26.010  35.693  1.00  0.00     0.200 A 
ATOM     97  F   UNL A   1      48.104  27.788  35.066  1.00  0.00    -0.200 F 
ATOM     98  F   UNL A   1      47.703  25.385  36.294  1.00  0.00    -0.200 F 
ENDBRANCH  65  88
ENDBRANCH  39  40
ENDBRANCH  32  34
ENDBRANCH  31  32
ENDBRANCH  30  31
ENDBRANCH  29  30
ENDBRANCH  28  29
ENDBRANCH   1  28
TORSDOF 17
ENDMDL
