MODEL 1
REMARK VINA RESULT:     -11.9      0.000      0.000
REMARK SMILES CCCCCNC(=O)Oc1cccc(-c2ccc([C@@H](C)C(=O)OCCOCCOC(=O)c3ccc(-c4c5nc(c(-c6c(F)c(F)c(F)c(F)c6F)c6ccc([nH]6)c(-c6c(F)c(F)c(F)c(F)c6F)c6nc(c(-c7c(F)c(F)c(F)c(F)c7F)c7ccc4[nH]7)C=C6)C=C5)cc3)cc2F)c1
REMARK SMILES IDX 23 1 21 2 22 3 19 4 20 5 18 6 15 7 16 8 96 9 17 10 95 11
REMARK SMILES IDX 97 12 14 13 10 14 11 15 98 16 12 17 13 18 9 19 7 20 6 21
REMARK SMILES IDX 8 23 5 24 4 25 3 26 2 27 1 28 24 29 25 30 26 31 27 32 28 33
REMARK SMILES IDX 29 34 30 35 31 36 32 37 33 38 94 39 34 40 93 41 35 42 36 43
REMARK SMILES IDX 37 44 87 45 38 46 92 47 86 48 88 49 39 50 91 51 85 52 84 53
REMARK SMILES IDX 40 55 72 56 52 57 71 58 53 59 56 60 70 61 89 62 54 63 55 64
REMARK SMILES IDX 69 66 90 67 57 68 41 69 42 70 50 71 43 72 44 73 48 74 51 75
REMARK SMILES IDX 45 76 46 77 49 78 47 79 73 80 74 81 82 82 75 83 76 84 80 85
REMARK SMILES IDX 83 86 77 87 78 88 81 89 79 90 58 91 59 92 67 93 60 94 61 95
REMARK SMILES IDX 65 96 68 97 62 98 63 99 66 100 64 101
REMARK H PARENT 6 22 88 54 56 65
REMARK Flexibility Score: inf
ROOT
ATOM      1  O   UNL A   1      42.800  19.469  25.107  1.00  0.00    -0.463 OA
ENDROOT
BRANCH   1   2
ATOM      2  C   UNL A   1      42.344  19.703  26.364  1.00  0.00     0.313 C 
ATOM      3  O   UNL A   1      42.205  18.836  27.223  1.00  0.00    -0.252 OA
BRANCH   2   4
ATOM      4  C   UNL A   1      41.965  21.151  26.625  1.00  0.00     0.126 C 
ATOM      5  C   UNL A   1      42.445  21.547  28.020  1.00  0.00     0.025 C 
BRANCH   4   6
ATOM      6  C   UNL A   1      40.519  21.577  26.387  1.00  0.00    -0.031 A 
ATOM      7  C   UNL A   1      37.891  22.395  25.606  1.00  0.00     0.018 A 
ATOM      8  C   UNL A   1      38.758  23.265  26.292  1.00  0.00     0.012 A 
ATOM      9  C   UNL A   1      38.350  21.092  25.384  1.00  0.00     0.131 A 
ATOM     10  C   UNL A   1      40.049  22.866  26.674  1.00  0.00     0.005 A 
ATOM     11  C   UNL A   1      39.632  20.685  25.765  1.00  0.00     0.044 A 
ATOM     12  F   UNL A   1      37.580  20.201  24.738  1.00  0.00    -0.206 F 
BRANCH   7  13
ATOM     13  C   UNL A   1      36.600  22.868  25.065  1.00  0.00    -0.012 A 
ATOM     14  C   UNL A   1      34.244  23.416  25.313  1.00  0.00     0.133 A 
ATOM     15  C   UNL A   1      34.118  23.639  23.943  1.00  0.00     0.047 A 
ATOM     16  C   UNL A   1      35.463  23.024  25.876  1.00  0.00     0.056 A 
ATOM     17  C   UNL A   1      35.234  23.496  23.127  1.00  0.00     0.004 A 
ATOM     18  C   UNL A   1      36.460  23.116  23.684  1.00  0.00     0.009 A 
BRANCH  14  19
ATOM     19  O   UNL A   1      33.061  23.476  26.068  1.00  0.00    -0.410 OA
BRANCH  19  20
ATOM     20  C   UNL A   1      32.807  22.454  26.968  1.00  0.00     0.412 C 
ATOM     21  N   UNL A   1      32.257  21.345  26.388  1.00  0.00    -0.321 N 
ATOM     22  H   UNL A   1      32.085  20.578  26.981  1.00  0.00     0.167 HD
ATOM     23  O   UNL A   1      33.019  22.491  28.179  1.00  0.00    -0.224 OA
BRANCH  21  24
ATOM     24  C   UNL A   1      31.900  21.178  24.991  1.00  0.00     0.119 C 
BRANCH  24  25
ATOM     25  C   UNL A   1      32.885  20.278  24.245  1.00  0.00     0.021 C 
BRANCH  25  26
ATOM     26  C   UNL A   1      32.816  18.790  24.612  1.00  0.00     0.002 C 
BRANCH  26  27
ATOM     27  C   UNL A   1      34.105  17.992  24.400  1.00  0.00    -0.003 C 
ATOM     28  C   UNL A   1      34.036  17.024  23.227  1.00  0.00     0.004 C 
ENDBRANCH  26  27
ENDBRANCH  25  26
ENDBRANCH  24  25
ENDBRANCH  21  24
ENDBRANCH  19  20
ENDBRANCH  14  19
ENDBRANCH   7  13
ENDBRANCH   4   6
ENDBRANCH   2   4
ENDBRANCH   1   2
BRANCH   1  29
ATOM     29  C   UNL A   1      44.086  18.831  25.016  1.00  0.00     0.261 C 
BRANCH  29  30
ATOM     30  C   UNL A   1      45.117  19.757  24.367  1.00  0.00     0.202 C 
BRANCH  30  31
ATOM     31  O   UNL A   1      45.842  20.608  25.252  1.00  0.00    -0.374 OA
BRANCH  31  32
ATOM     32  C   UNL A   1      45.388  21.954  25.393  1.00  0.00     0.202 C 
BRANCH  32  33
ATOM     33  C   UNL A   1      44.546  22.520  24.242  1.00  0.00     0.261 C 
BRANCH  33  34
ATOM     34  O   UNL A   1      43.697  23.601  24.665  1.00  0.00    -0.460 OA
BRANCH  34  35
ATOM     35  C   UNL A   1      44.355  24.723  25.043  1.00  0.00     0.338 C 
ATOM     36  O   UNL A   1      45.408  25.150  24.603  1.00  0.00    -0.246 OA
BRANCH  35  37
ATOM     37  C   UNL A   1      43.520  25.512  25.970  1.00  0.00     0.060 A 
ATOM     38  C   UNL A   1      43.824  26.873  26.104  1.00  0.00     0.016 A 
ATOM     39  C   UNL A   1      42.524  24.926  26.754  1.00  0.00     0.016 A 
ATOM     40  C   UNL A   1      43.173  27.644  27.063  1.00  0.00     0.010 A 
ATOM     41  C   UNL A   1      41.875  25.701  27.724  1.00  0.00     0.010 A 
ATOM     42  C   UNL A   1      42.225  27.052  27.908  1.00  0.00    -0.014 A 
BRANCH  42  43
ATOM     43  C   UNL A   1      41.721  27.816  29.077  1.00  0.00     0.031 A 
ATOM     44  C   UNL A   1      42.457  27.717  30.385  1.00  0.00     0.074 A 
ATOM     45  C   UNL A   1      40.654  28.626  28.965  1.00  0.00     0.049 A 
ATOM     46  N   UNL A   1      42.191  28.285  31.534  1.00  0.00    -0.248 NA
ATOM     47  C   UNL A   1      43.655  26.862  30.399  1.00  0.00     0.031 C 
ATOM     48  C   UNL A   1      39.885  28.842  27.741  1.00  0.00     0.029 A 
ATOM     49  N   UNL A   1      40.033  29.417  29.899  1.00  0.00    -0.354 N 
ATOM     50  C   UNL A   1      43.183  27.855  32.406  1.00  0.00     0.074 A 
ATOM     51  C   UNL A   1      44.039  26.956  31.664  1.00  0.00     0.031 C 
ATOM     52  C   UNL A   1      38.886  29.703  28.002  1.00  0.00     0.029 A 
ATOM     53  C   UNL A   1      38.929  30.073  29.416  1.00  0.00     0.049 A 
ATOM     54  H   UNL A   1      40.349  29.504  30.827  1.00  0.00     0.167 HD
ATOM     55  C   UNL A   1      43.369  28.189  33.705  1.00  0.00     0.037 A 
ATOM     56  C   UNL A   1      38.043  30.868  30.050  1.00  0.00     0.037 A 
ATOM     57  C   UNL A   1      42.521  29.087  34.443  1.00  0.00     0.049 A 
ATOM     58  C   UNL A   1      38.233  31.168  31.515  1.00  0.00     0.074 A 
ATOM     59  C   UNL A   1      42.639  29.503  35.759  1.00  0.00     0.029 A 
ATOM     60  N   UNL A   1      41.391  29.706  33.929  1.00  0.00    -0.354 N 
ATOM     61  N   UNL A   1      39.187  30.777  32.325  1.00  0.00    -0.248 NA
ATOM     62  C   UNL A   1      37.223  32.026  32.151  1.00  0.00     0.031 C 
ATOM     63  C   UNL A   1      41.552  30.332  36.055  1.00  0.00     0.029 A 
ATOM     64  C   UNL A   1      40.786  30.477  34.910  1.00  0.00     0.049 A 
ATOM     65  H   UNL A   1      41.066  29.611  33.005  1.00  0.00     0.167 HD
ATOM     66  C   UNL A   1      38.908  31.360  33.554  1.00  0.00     0.074 A 
ATOM     67  C   UNL A   1      37.702  32.142  33.382  1.00  0.00     0.031 C 
ATOM     68  C   UNL A   1      39.590  31.256  34.722  1.00  0.00     0.037 A 
BRANCH  55  69
ATOM     69  C   UNL A   1      44.526  27.557  34.424  1.00  0.00     0.064 A 
ATOM     70  C   UNL A   1      44.396  26.336  35.100  1.00  0.00     0.173 A 
ATOM     71  C   UNL A   1      45.790  28.166  34.403  1.00  0.00     0.173 A 
ATOM     72  F   UNL A   1      43.206  25.720  35.160  1.00  0.00    -0.203 F 
ATOM     73  C   UNL A   1      45.484  25.757  35.750  1.00  0.00     0.198 A 
ATOM     74  C   UNL A   1      46.882  27.571  35.029  1.00  0.00     0.198 A 
ATOM     75  F   UNL A   1      45.970  29.331  33.764  1.00  0.00    -0.203 F 
ATOM     76  F   UNL A   1      45.328  24.611  36.426  1.00  0.00    -0.200 F 
ATOM     77  C   UNL A   1      46.727  26.372  35.708  1.00  0.00     0.200 A 
ATOM     78  F   UNL A   1      48.085  28.159  34.976  1.00  0.00    -0.200 F 
ATOM     79  F   UNL A   1      47.775  25.810  36.326  1.00  0.00    -0.200 F 
ENDBRANCH  55  69
BRANCH  56  80
ATOM     80  C   UNL A   1      36.885  31.427  29.306  1.00  0.00     0.064 A 
ATOM     81  C   UNL A   1      36.810  32.792  28.997  1.00  0.00     0.173 A 
ATOM     82  C   UNL A   1      35.819  30.608  28.905  1.00  0.00     0.173 A 
ATOM     83  F   UNL A   1      37.793  33.620  29.383  1.00  0.00    -0.203 F 
ATOM     84  C   UNL A   1      35.706  33.319  28.331  1.00  0.00     0.198 A 
ATOM     85  C   UNL A   1      34.729  31.132  28.214  1.00  0.00     0.198 A 
ATOM     86  F   UNL A   1      35.839  29.296  29.180  1.00  0.00    -0.203 F 
ATOM     87  F   UNL A   1      35.639  34.636  28.089  1.00  0.00    -0.200 F 
ATOM     88  C   UNL A   1      34.669  32.488  27.934  1.00  0.00     0.200 A 
ATOM     89  F   UNL A   1      33.734  30.322  27.824  1.00  0.00    -0.200 F 
ATOM     90  F   UNL A   1      33.609  32.996  27.291  1.00  0.00    -0.200 F 
ENDBRANCH  56  80
BRANCH  68  91
ATOM     91  C   UNL A   1      39.071  32.035  35.897  1.00  0.00     0.064 A 
ATOM     92  C   UNL A   1      38.211  31.457  36.841  1.00  0.00     0.173 A 
ATOM     93  C   UNL A   1      39.476  33.363  36.103  1.00  0.00     0.173 A 
ATOM     94  F   UNL A   1      37.784  30.195  36.682  1.00  0.00    -0.203 F 
ATOM     95  C   UNL A   1      37.757  32.187  37.937  1.00  0.00     0.198 A 
ATOM     96  C   UNL A   1      39.045  34.080  37.214  1.00  0.00     0.198 A 
ATOM     97  F   UNL A   1      40.305  33.960  35.233  1.00  0.00    -0.203 F 
ATOM     98  F   UNL A   1      36.899  31.630  38.803  1.00  0.00    -0.200 F 
ATOM     99  C   UNL A   1      38.179  33.494  38.126  1.00  0.00     0.200 A 
ATOM    100  F   UNL A   1      39.464  35.340  37.403  1.00  0.00    -0.200 F 
ATOM    101  F   UNL A   1      37.746  34.193  39.185  1.00  0.00    -0.200 F 
ENDBRANCH  68  91
ENDBRANCH  42  43
ENDBRANCH  35  37
ENDBRANCH  34  35
ENDBRANCH  33  34
ENDBRANCH  32  33
ENDBRANCH  31  32
ENDBRANCH  30  31
ENDBRANCH  29  30
ENDBRANCH   1  29
TORSDOF 22
ENDMDL
MODEL 2
REMARK VINA RESULT:     -11.8      0.247      1.537
REMARK SMILES CCCCCNC(=O)Oc1cccc(-c2ccc([C@@H](C)C(=O)OCCOCCOC(=O)c3ccc(-c4c5nc(c(-c6c(F)c(F)c(F)c(F)c6F)c6ccc([nH]6)c(-c6c(F)c(F)c(F)c(F)c6F)c6nc(c(-c7c(F)c(F)c(F)c(F)c7F)c7ccc4[nH]7)C=C6)C=C5)cc3)cc2F)c1
REMARK SMILES IDX 23 1 21 2 22 3 19 4 20 5 18 6 15 7 16 8 96 9 17 10 95 11
REMARK SMILES IDX 97 12 14 13 10 14 11 15 98 16 12 17 13 18 9 19 7 20 6 21
REMARK SMILES IDX 8 23 5 24 4 25 3 26 2 27 1 28 24 29 25 30 26 31 27 32 28 33
REMARK SMILES IDX 29 34 30 35 31 36 32 37 33 38 94 39 34 40 93 41 35 42 36 43
REMARK SMILES IDX 37 44 87 45 38 46 92 47 86 48 88 49 39 50 91 51 85 52 84 53
REMARK SMILES IDX 40 55 72 56 52 57 71 58 53 59 56 60 70 61 89 62 54 63 55 64
REMARK SMILES IDX 69 66 90 67 57 68 41 69 42 70 50 71 43 72 44 73 48 74 51 75
REMARK SMILES IDX 45 76 46 77 49 78 47 79 73 80 74 81 82 82 75 83 76 84 80 85
REMARK SMILES IDX 83 86 77 87 78 88 81 89 79 90 58 91 59 92 67 93 60 94 61 95
REMARK SMILES IDX 65 96 68 97 62 98 63 99 66 100 64 101
REMARK H PARENT 6 22 88 54 56 65
REMARK Flexibility Score: inf
ROOT
ATOM      1  O   UNL A   1      42.600  19.600  25.209  1.00  0.00    -0.463 OA
ENDROOT
BRANCH   1   2
ATOM      2  C   UNL A   1      42.196  19.877  26.476  1.00  0.00     0.313 C 
ATOM      3  O   UNL A   1      42.114  19.044  27.374  1.00  0.00    -0.252 OA
BRANCH   2   4
ATOM      4  C   UNL A   1      41.801  21.328  26.696  1.00  0.00     0.126 C 
ATOM      5  C   UNL A   1      42.270  21.767  28.081  1.00  0.00     0.025 C 
BRANCH   4   6
ATOM      6  C   UNL A   1      40.351  21.732  26.438  1.00  0.00    -0.031 A 
ATOM      7  C   UNL A   1      37.726  22.525  25.626  1.00  0.00     0.018 A 
ATOM      8  C   UNL A   1      38.555  23.383  26.370  1.00  0.00     0.012 A 
ATOM      9  C   UNL A   1      38.220  21.242  25.361  1.00  0.00     0.131 A 
ATOM     10  C   UNL A   1      39.846  22.997  26.768  1.00  0.00     0.005 A 
ATOM     11  C   UNL A   1      39.502  20.847  25.757  1.00  0.00     0.044 A 
ATOM     12  F   UNL A   1      37.487  20.363  24.659  1.00  0.00    -0.206 F 
BRANCH   7  13
ATOM     13  C   UNL A   1      36.438  22.992  25.072  1.00  0.00    -0.012 A 
ATOM     14  C   UNL A   1      34.056  23.438  25.270  1.00  0.00     0.133 A 
ATOM     15  C   UNL A   1      33.970  23.757  23.917  1.00  0.00     0.047 A 
ATOM     16  C   UNL A   1      35.268  23.047  25.849  1.00  0.00     0.056 A 
ATOM     17  C   UNL A   1      35.118  23.714  23.135  1.00  0.00     0.004 A 
ATOM     18  C   UNL A   1      36.337  23.336  23.709  1.00  0.00     0.009 A 
BRANCH  14  19
ATOM     19  O   UNL A   1      32.846  23.401  25.983  1.00  0.00    -0.410 OA
BRANCH  19  20
ATOM     20  C   UNL A   1      32.712  22.466  26.996  1.00  0.00     0.412 C 
ATOM     21  N   UNL A   1      32.519  21.193  26.536  1.00  0.00    -0.321 N 
ATOM     22  H   UNL A   1      32.448  20.486  27.217  1.00  0.00     0.167 HD
ATOM     23  O   UNL A   1      32.738  22.702  28.203  1.00  0.00    -0.224 OA
BRANCH  21  24
ATOM     24  C   UNL A   1      32.410  20.773  25.151  1.00  0.00     0.119 C 
BRANCH  24  25
ATOM     25  C   UNL A   1      33.613  19.946  24.699  1.00  0.00     0.021 C 
BRANCH  25  26
ATOM     26  C   UNL A   1      33.393  18.427  24.691  1.00  0.00     0.002 C 
BRANCH  26  27
ATOM     27  C   UNL A   1      34.566  17.588  24.176  1.00  0.00    -0.003 C 
ATOM     28  C   UNL A   1      34.174  16.594  23.093  1.00  0.00     0.004 C 
ENDBRANCH  26  27
ENDBRANCH  25  26
ENDBRANCH  24  25
ENDBRANCH  21  24
ENDBRANCH  19  20
ENDBRANCH  14  19
ENDBRANCH   7  13
ENDBRANCH   4   6
ENDBRANCH   2   4
ENDBRANCH   1   2
BRANCH   1  29
ATOM     29  C   UNL A   1      43.835  18.873  25.091  1.00  0.00     0.261 C 
BRANCH  29  30
ATOM     30  C   UNL A   1      44.887  19.691  24.338  1.00  0.00     0.202 C 
BRANCH  30  31
ATOM     31  O   UNL A   1      45.798  20.436  25.143  1.00  0.00    -0.374 OA
BRANCH  31  32
ATOM     32  C   UNL A   1      45.492  21.809  25.388  1.00  0.00     0.202 C 
BRANCH  32  33
ATOM     33  C   UNL A   1      44.751  22.557  24.273  1.00  0.00     0.261 C 
BRANCH  33  34
ATOM     34  O   UNL A   1      43.886  23.587  24.786  1.00  0.00    -0.460 OA
BRANCH  34  35
ATOM     35  C   UNL A   1      44.511  24.748  25.093  1.00  0.00     0.338 C 
ATOM     36  O   UNL A   1      45.529  25.198  24.597  1.00  0.00    -0.246 OA
BRANCH  35  37
ATOM     37  C   UNL A   1      43.677  25.542  26.018  1.00  0.00     0.060 A 
ATOM     38  C   UNL A   1      44.009  26.894  26.178  1.00  0.00     0.016 A 
ATOM     39  C   UNL A   1      42.655  24.967  26.776  1.00  0.00     0.016 A 
ATOM     40  C   UNL A   1      43.359  27.665  27.139  1.00  0.00     0.010 A 
ATOM     41  C   UNL A   1      42.006  25.742  27.746  1.00  0.00     0.010 A 
ATOM     42  C   UNL A   1      42.383  27.081  27.957  1.00  0.00    -0.014 A 
BRANCH  42  43
ATOM     43  C   UNL A   1      41.876  27.838  29.129  1.00  0.00     0.031 A 
ATOM     44  C   UNL A   1      42.621  27.749  30.433  1.00  0.00     0.074 A 
ATOM     45  C   UNL A   1      40.798  28.635  29.024  1.00  0.00     0.049 A 
ATOM     46  N   UNL A   1      42.354  28.314  31.584  1.00  0.00    -0.248 NA
ATOM     47  C   UNL A   1      43.830  26.910  30.441  1.00  0.00     0.031 C 
ATOM     48  C   UNL A   1      40.019  28.841  27.804  1.00  0.00     0.029 A 
ATOM     49  N   UNL A   1      40.171  29.417  29.962  1.00  0.00    -0.354 N 
ATOM     50  C   UNL A   1      43.357  27.897  32.450  1.00  0.00     0.074 A 
ATOM     51  C   UNL A   1      44.220  27.008  31.703  1.00  0.00     0.031 C 
ATOM     52  C   UNL A   1      39.010  29.688  28.071  1.00  0.00     0.029 A 
ATOM     53  C   UNL A   1      39.056  30.059  29.485  1.00  0.00     0.049 A 
ATOM     54  H   UNL A   1      40.492  29.508  30.888  1.00  0.00     0.167 HD
ATOM     55  C   UNL A   1      43.546  28.233  33.748  1.00  0.00     0.037 A 
ATOM     56  C   UNL A   1      38.164  30.842  30.124  1.00  0.00     0.037 A 
ATOM     57  C   UNL A   1      42.690  29.120  34.491  1.00  0.00     0.049 A 
ATOM     58  C   UNL A   1      38.358  31.144  31.588  1.00  0.00     0.074 A 
ATOM     59  C   UNL A   1      42.810  29.537  35.806  1.00  0.00     0.029 A 
ATOM     60  N   UNL A   1      41.548  29.724  33.984  1.00  0.00    -0.354 N 
ATOM     61  N   UNL A   1      39.321  30.766  32.392  1.00  0.00    -0.248 NA
ATOM     62  C   UNL A   1      37.340  31.989  32.230  1.00  0.00     0.031 C 
ATOM     63  C   UNL A   1      41.714  30.352  36.108  1.00  0.00     0.029 A 
ATOM     64  C   UNL A   1      40.940  30.486  34.968  1.00  0.00     0.049 A 
ATOM     65  H   UNL A   1      41.220  29.624  33.062  1.00  0.00     0.167 HD
ATOM     66  C   UNL A   1      39.042  31.345  33.623  1.00  0.00     0.074 A 
ATOM     67  C   UNL A   1      37.825  32.111  33.458  1.00  0.00     0.031 C 
ATOM     68  C   UNL A   1      39.732  31.250  34.787  1.00  0.00     0.037 A 
BRANCH  55  69
ATOM     69  C   UNL A   1      44.715  27.616  34.460  1.00  0.00     0.064 A 
ATOM     70  C   UNL A   1      44.625  26.358  35.072  1.00  0.00     0.173 A 
ATOM     71  C   UNL A   1      45.950  28.279  34.497  1.00  0.00     0.173 A 
ATOM     72  F   UNL A   1      43.463  25.689  35.075  1.00  0.00    -0.203 F 
ATOM     73  C   UNL A   1      45.725  25.795  35.716  1.00  0.00     0.198 A 
ATOM     74  C   UNL A   1      47.055  27.701  35.117  1.00  0.00     0.198 A 
ATOM     75  F   UNL A   1      46.091  29.482  33.921  1.00  0.00    -0.203 F 
ATOM     76  F   UNL A   1      45.606  24.610  36.331  1.00  0.00    -0.200 F 
ATOM     77  C   UNL A   1      46.940  26.464  35.732  1.00  0.00     0.200 A 
ATOM     78  F   UNL A   1      48.231  28.343  35.120  1.00  0.00    -0.200 F 
ATOM     79  F   UNL A   1      48.000  25.918  36.345  1.00  0.00    -0.200 F 
ENDBRANCH  55  69
BRANCH  56  80
ATOM     80  C   UNL A   1      36.994  31.386  29.386  1.00  0.00     0.064 A 
ATOM     81  C   UNL A   1      35.922  30.562  29.016  1.00  0.00     0.173 A 
ATOM     82  C   UNL A   1      36.935  32.739  29.021  1.00  0.00     0.173 A 
ATOM     83  F   UNL A   1      35.946  29.256  29.319  1.00  0.00    -0.203 F 
ATOM     84  C   UNL A   1      34.844  31.068  28.292  1.00  0.00     0.198 A 
ATOM     85  C   UNL A   1      35.843  33.249  28.322  1.00  0.00     0.198 A 
ATOM     86  F   UNL A   1      37.937  33.568  29.348  1.00  0.00    -0.203 F 
ATOM     87  F   UNL A   1      33.854  30.249  27.911  1.00  0.00    -0.200 F 
ATOM     88  C   UNL A   1      34.802  32.412  27.952  1.00  0.00     0.200 A 
ATOM     89  F   UNL A   1      35.802  34.550  28.004  1.00  0.00    -0.200 F 
ATOM     90  F   UNL A   1      33.763  32.898  27.259  1.00  0.00    -0.200 F 
ENDBRANCH  56  80
BRANCH  68  91
ATOM     91  C   UNL A   1      39.210  32.022  35.965  1.00  0.00     0.064 A 
ATOM     92  C   UNL A   1      39.584  33.352  36.199  1.00  0.00     0.173 A 
ATOM     93  C   UNL A   1      38.288  31.434  36.846  1.00  0.00     0.173 A 
ATOM     94  F   UNL A   1      40.472  33.955  35.394  1.00  0.00    -0.203 F 
ATOM     95  C   UNL A   1      39.072  34.060  37.285  1.00  0.00     0.198 A 
ATOM     96  C   UNL A   1      37.757  32.152  37.912  1.00  0.00     0.198 A 
ATOM     97  F   UNL A   1      37.891  30.165  36.662  1.00  0.00    -0.203 F 
ATOM     98  F   UNL A   1      39.479  35.315  37.516  1.00  0.00    -0.200 F 
ATOM     99  C   UNL A   1      38.155  33.462  38.135  1.00  0.00     0.200 A 
ATOM    100  F   UNL A   1      36.860  31.577  38.726  1.00  0.00    -0.200 F 
ATOM    101  F   UNL A   1      37.659  34.146  39.176  1.00  0.00    -0.200 F 
ENDBRANCH  68  91
ENDBRANCH  42  43
ENDBRANCH  35  37
ENDBRANCH  34  35
ENDBRANCH  33  34
ENDBRANCH  32  33
ENDBRANCH  31  32
ENDBRANCH  30  31
ENDBRANCH  29  30
ENDBRANCH   1  29
TORSDOF 22
ENDMDL
MODEL 3
REMARK VINA RESULT:     -11.4      1.296      2.499
REMARK SMILES CCCCCNC(=O)Oc1cccc(-c2ccc([C@@H](C)C(=O)OCCOCCOC(=O)c3ccc(-c4c5nc(c(-c6c(F)c(F)c(F)c(F)c6F)c6ccc([nH]6)c(-c6c(F)c(F)c(F)c(F)c6F)c6nc(c(-c7c(F)c(F)c(F)c(F)c7F)c7ccc4[nH]7)C=C6)C=C5)cc3)cc2F)c1
REMARK SMILES IDX 23 1 21 2 22 3 19 4 20 5 18 6 15 7 16 8 96 9 17 10 95 11
REMARK SMILES IDX 97 12 14 13 10 14 11 15 98 16 12 17 13 18 9 19 7 20 6 21
REMARK SMILES IDX 8 23 5 24 4 25 3 26 2 27 1 28 24 29 25 30 26 31 27 32 28 33
REMARK SMILES IDX 29 34 30 35 31 36 32 37 33 38 94 39 34 40 93 41 35 42 36 43
REMARK SMILES IDX 37 44 87 45 38 46 92 47 86 48 88 49 39 50 91 51 85 52 84 53
REMARK SMILES IDX 40 55 72 56 52 57 71 58 53 59 56 60 70 61 89 62 54 63 55 64
REMARK SMILES IDX 69 66 90 67 57 68 41 69 42 70 50 71 43 72 44 73 48 74 51 75
REMARK SMILES IDX 45 76 46 77 49 78 47 79 73 80 74 81 82 82 75 83 76 84 80 85
REMARK SMILES IDX 83 86 77 87 78 88 81 89 79 90 58 91 59 92 67 93 60 94 61 95
REMARK SMILES IDX 65 96 68 97 62 98 63 99 66 100 64 101
REMARK H PARENT 6 22 88 54 56 65
REMARK Flexibility Score: inf
ROOT
ATOM      1  O   UNL A   1      42.783  20.142  25.399  1.00  0.00    -0.463 OA
ENDROOT
BRANCH   1   2
ATOM      2  C   UNL A   1      42.243  20.307  26.634  1.00  0.00     0.313 C 
ATOM      3  O   UNL A   1      42.107  19.406  27.456  1.00  0.00    -0.252 OA
BRANCH   2   4
ATOM      4  C   UNL A   1      41.764  21.722  26.915  1.00  0.00     0.126 C 
ATOM      5  C   UNL A   1      42.162  22.107  28.339  1.00  0.00     0.025 C 
BRANCH   4   6
ATOM      6  C   UNL A   1      40.306  22.066  26.627  1.00  0.00    -0.031 A 
ATOM      7  C   UNL A   1      37.665  22.736  25.755  1.00  0.00     0.018 A 
ATOM      8  C   UNL A   1      38.456  23.652  26.471  1.00  0.00     0.012 A 
ATOM      9  C   UNL A   1      38.204  21.460  25.549  1.00  0.00     0.131 A 
ATOM     10  C   UNL A   1      39.754  23.326  26.898  1.00  0.00     0.005 A 
ATOM     11  C   UNL A   1      39.494  21.126  25.974  1.00  0.00     0.044 A 
ATOM     12  F   UNL A   1      37.509  20.529  24.876  1.00  0.00    -0.206 F 
BRANCH   7  13
ATOM     13  C   UNL A   1      36.369  23.136  25.169  1.00  0.00    -0.012 A 
ATOM     14  C   UNL A   1      34.026  23.757  25.370  1.00  0.00     0.133 A 
ATOM     15  C   UNL A   1      33.873  23.755  23.986  1.00  0.00     0.047 A 
ATOM     16  C   UNL A   1      35.252  23.442  25.965  1.00  0.00     0.056 A 
ATOM     17  C   UNL A   1      34.968  23.461  23.182  1.00  0.00     0.004 A 
ATOM     18  C   UNL A   1      36.201  23.156  23.769  1.00  0.00     0.009 A 
BRANCH  14  19
ATOM     19  O   UNL A   1      32.862  23.961  26.129  1.00  0.00    -0.410 OA
BRANCH  19  20
ATOM     20  C   UNL A   1      31.638  23.775  25.510  1.00  0.00     0.412 C 
ATOM     21  N   UNL A   1      30.985  24.945  25.236  1.00  0.00    -0.321 N 
ATOM     22  H   UNL A   1      30.123  24.869  24.768  1.00  0.00     0.167 HD
ATOM     23  O   UNL A   1      31.130  22.691  25.226  1.00  0.00    -0.224 OA
BRANCH  21  24
ATOM     24  C   UNL A   1      31.430  26.288  25.560  1.00  0.00     0.119 C 
BRANCH  24  25
ATOM     25  C   UNL A   1      31.030  27.306  24.492  1.00  0.00     0.021 C 
BRANCH  25  26
ATOM     26  C   UNL A   1      31.391  28.762  24.813  1.00  0.00     0.002 C 
BRANCH  26  27
ATOM     27  C   UNL A   1      32.857  29.147  24.598  1.00  0.00    -0.003 C 
ATOM     28  C   UNL A   1      33.359  28.873  23.188  1.00  0.00     0.004 C 
ENDBRANCH  26  27
ENDBRANCH  25  26
ENDBRANCH  24  25
ENDBRANCH  21  24
ENDBRANCH  19  20
ENDBRANCH  14  19
ENDBRANCH   7  13
ENDBRANCH   4   6
ENDBRANCH   2   4
ENDBRANCH   1   2
BRANCH   1  29
ATOM     29  C   UNL A   1      43.856  19.188  25.307  1.00  0.00     0.261 C 
BRANCH  29  30
ATOM     30  C   UNL A   1      44.981  19.707  24.410  1.00  0.00     0.202 C 
BRANCH  30  31
ATOM     31  O   UNL A   1      45.958  20.532  25.040  1.00  0.00    -0.374 OA
BRANCH  31  32
ATOM     32  C   UNL A   1      45.611  21.895  25.286  1.00  0.00     0.202 C 
BRANCH  32  33
ATOM     33  C   UNL A   1      44.965  22.661  24.125  1.00  0.00     0.261 C 
BRANCH  33  34
ATOM     34  O   UNL A   1      44.111  23.726  24.579  1.00  0.00    -0.460 OA
BRANCH  34  35
ATOM     35  C   UNL A   1      44.764  24.833  25.003  1.00  0.00     0.338 C 
ATOM     36  O   UNL A   1      45.842  25.253  24.618  1.00  0.00    -0.246 OA
BRANCH  35  37
ATOM     37  C   UNL A   1      43.897  25.620  25.902  1.00  0.00     0.060 A 
ATOM     38  C   UNL A   1      44.216  26.974  26.075  1.00  0.00     0.016 A 
ATOM     39  C   UNL A   1      42.855  25.038  26.626  1.00  0.00     0.016 A 
ATOM     40  C   UNL A   1      43.531  27.739  27.015  1.00  0.00     0.010 A 
ATOM     41  C   UNL A   1      42.171  25.807  27.577  1.00  0.00     0.010 A 
ATOM     42  C   UNL A   1      42.533  27.148  27.802  1.00  0.00    -0.014 A 
BRANCH  42  43
ATOM     43  C   UNL A   1      41.984  27.900  28.958  1.00  0.00     0.031 A 
ATOM     44  C   UNL A   1      42.735  27.884  30.262  1.00  0.00     0.074 A 
ATOM     45  C   UNL A   1      40.861  28.629  28.839  1.00  0.00     0.049 A 
ATOM     46  N   UNL A   1      42.438  28.457  31.400  1.00  0.00    -0.248 NA
ATOM     47  C   UNL A   1      43.991  27.118  30.284  1.00  0.00     0.031 C 
ATOM     48  C   UNL A   1      40.068  28.761  27.617  1.00  0.00     0.029 A 
ATOM     49  N   UNL A   1      40.191  29.394  29.761  1.00  0.00    -0.354 N 
ATOM     50  C   UNL A   1      43.465  28.120  32.272  1.00  0.00     0.074 A 
ATOM     51  C   UNL A   1      44.378  27.268  31.543  1.00  0.00     0.031 C 
ATOM     52  C   UNL A   1      39.012  29.553  27.868  1.00  0.00     0.029 A 
ATOM     53  C   UNL A   1      39.038  29.958  29.273  1.00  0.00     0.049 A 
ATOM     54  H   UNL A   1      40.507  29.524  30.683  1.00  0.00     0.167 HD
ATOM     55  C   UNL A   1      43.636  28.495  33.562  1.00  0.00     0.037 A 
ATOM     56  C   UNL A   1      38.103  30.700  29.898  1.00  0.00     0.037 A 
ATOM     57  C   UNL A   1      42.730  29.347  34.288  1.00  0.00     0.049 A 
ATOM     58  C   UNL A   1      38.281  31.047  31.354  1.00  0.00     0.074 A 
ATOM     59  C   UNL A   1      42.828  29.800  35.592  1.00  0.00     0.029 A 
ATOM     60  N   UNL A   1      41.555  29.871  33.771  1.00  0.00    -0.354 N 
ATOM     61  N   UNL A   1      39.267  30.744  32.163  1.00  0.00    -0.248 NA
ATOM     62  C   UNL A   1      37.217  31.844  31.980  1.00  0.00     0.031 C 
ATOM     63  C   UNL A   1      41.687  30.555  35.880  1.00  0.00     0.029 A 
ATOM     64  C   UNL A   1      40.904  30.618  34.740  1.00  0.00     0.049 A 
ATOM     65  H   UNL A   1      41.230  29.732  32.852  1.00  0.00     0.167 HD
ATOM     66  C   UNL A   1      38.956  31.333  33.382  1.00  0.00     0.074 A 
ATOM     67  C   UNL A   1      37.696  32.022  33.204  1.00  0.00     0.031 C 
ATOM     68  C   UNL A   1      39.653  31.305  34.545  1.00  0.00     0.037 A 
BRANCH  55  69
ATOM     69  C   UNL A   1      44.841  27.965  34.283  1.00  0.00     0.064 A 
ATOM     70  C   UNL A   1      44.864  26.673  34.828  1.00  0.00     0.173 A 
ATOM     71  C   UNL A   1      45.999  28.748  34.398  1.00  0.00     0.173 A 
ATOM     72  F   UNL A   1      43.778  25.889  34.756  1.00  0.00    -0.203 F 
ATOM     73  C   UNL A   1      45.997  26.192  35.482  1.00  0.00     0.198 A 
ATOM     74  C   UNL A   1      47.138  28.255  35.028  1.00  0.00     0.198 A 
ATOM     75  F   UNL A   1      46.030  29.989  33.889  1.00  0.00    -0.203 F 
ATOM     76  F   UNL A   1      45.983  24.971  36.033  1.00  0.00    -0.200 F 
ATOM     77  C   UNL A   1      47.134  26.981  35.576  1.00  0.00     0.200 A 
ATOM     78  F   UNL A   1      48.240  29.013  35.105  1.00  0.00    -0.200 F 
ATOM     79  F   UNL A   1      48.226  26.514  36.198  1.00  0.00    -0.200 F 
ENDBRANCH  55  69
BRANCH  56  80
ATOM     80  C   UNL A   1      36.902  31.158  29.152  1.00  0.00     0.064 A 
ATOM     81  C   UNL A   1      35.887  30.262  28.789  1.00  0.00     0.173 A 
ATOM     82  C   UNL A   1      36.755  32.500  28.770  1.00  0.00     0.173 A 
ATOM     83  F   UNL A   1      35.995  28.964  29.109  1.00  0.00    -0.203 F 
ATOM     84  C   UNL A   1      34.779  30.687  28.059  1.00  0.00     0.198 A 
ATOM     85  C   UNL A   1      35.634  32.929  28.064  1.00  0.00     0.198 A 
ATOM     86  F   UNL A   1      37.699  33.396  29.088  1.00  0.00    -0.203 F 
ATOM     87  F   UNL A   1      33.846  29.801  27.686  1.00  0.00    -0.200 F 
ATOM     88  C   UNL A   1      34.650  32.021  27.702  1.00  0.00     0.200 A 
ATOM     89  F   UNL A   1      35.508  34.221  27.730  1.00  0.00    -0.200 F 
ATOM     90  F   UNL A   1      33.583  32.429  27.002  1.00  0.00    -0.200 F 
ENDBRANCH  56  80
BRANCH  68  91
ATOM     91  C   UNL A   1      39.088  32.070  35.708  1.00  0.00     0.064 A 
ATOM     92  C   UNL A   1      38.260  31.459  36.660  1.00  0.00     0.173 A 
ATOM     93  C   UNL A   1      39.417  33.422  35.894  1.00  0.00     0.173 A 
ATOM     94  F   UNL A   1      37.905  30.173  36.519  1.00  0.00    -0.203 F 
ATOM     95  C   UNL A   1      37.763  32.179  37.744  1.00  0.00     0.198 A 
ATOM     96  C   UNL A   1      38.943  34.131  36.994  1.00  0.00     0.198 A 
ATOM     97  F   UNL A   1      40.212  34.053  35.016  1.00  0.00    -0.203 F 
ATOM     98  F   UNL A   1      36.936  31.587  38.616  1.00  0.00    -0.200 F 
ATOM     99  C   UNL A   1      38.110  33.511  37.913  1.00  0.00     0.200 A 
ATOM    100  F   UNL A   1      39.289  35.415  37.164  1.00  0.00    -0.200 F 
ATOM    101  F   UNL A   1      37.635  34.200  38.961  1.00  0.00    -0.200 F 
ENDBRANCH  68  91
ENDBRANCH  42  43
ENDBRANCH  35  37
ENDBRANCH  34  35
ENDBRANCH  33  34
ENDBRANCH  32  33
ENDBRANCH  31  32
ENDBRANCH  30  31
ENDBRANCH  29  30
ENDBRANCH   1  29
TORSDOF 22
ENDMDL
