MODEL 1
REMARK VINA RESULT:     -12.0      0.000      0.000
REMARK SMILES Cc1ccccc1O[C@@H](C)C(=O)Oc1ccccc1C(=O)OCCOCCOC(=O)c1ccc(-c2c3nc(c(-c4c(F)c(F)c(F)c(F)c4F)c4ccc([nH]4)c(-c4c(F)c(F)c(F)c(F)c4F)c4nc(c(-c5c(F)c(F)c(F)c(F)c5F)c5ccc2[nH]5)C=C4)C=C3)cc1
REMARK SMILES IDX 23 1 22 2 20 3 21 4 19 5 14 6 15 7 16 8 18 9 17 10 13 11
REMARK SMILES IDX 11 12 12 13 9 14 10 15 8 16 7 17 1 18 2 19 3 20 4 21 6 22
REMARK SMILES IDX 5 23 24 24 25 25 26 26 27 27 28 28 29 29 30 30 31 31 32 32
REMARK SMILES IDX 93 33 33 34 92 35 34 36 35 37 36 38 86 39 37 40 91 41 85 42
REMARK SMILES IDX 87 43 38 44 90 45 84 46 83 47 39 49 71 50 51 51 70 52 52 53
REMARK SMILES IDX 55 54 69 55 88 56 53 57 54 58 68 60 89 61 56 62 40 63 41 64
REMARK SMILES IDX 49 65 42 66 43 67 47 68 50 69 44 70 45 71 48 72 46 73 72 74
REMARK SMILES IDX 73 75 81 76 74 77 75 78 79 79 82 80 76 81 77 82 80 83 78 84
REMARK SMILES IDX 57 85 58 86 66 87 59 88 60 89 64 90 67 91 61 92 62 93 65 94
REMARK SMILES IDX 63 95
REMARK H PARENT 87 48 55 59
REMARK Flexibility Score: inf
ROOT
ATOM      1  C   UNL A   1      33.707  28.375  23.612  1.00  0.00     0.261 C 
ENDROOT
BRANCH   1   2
ATOM      2  O   UNL A   1      33.780  26.990  23.231  1.00  0.00    -0.460 OA
BRANCH   2   3
ATOM      3  C   UNL A   1      32.970  26.597  22.205  1.00  0.00     0.342 C 
ATOM      4  O   UNL A   1      33.312  26.073  21.171  1.00  0.00    -0.246 OA
BRANCH   3   5
ATOM      5  C   UNL A   1      31.566  26.766  22.641  1.00  0.00     0.102 A 
ATOM      6  C   UNL A   1      30.963  25.791  23.447  1.00  0.00     0.145 A 
ATOM      7  C   UNL A   1      29.656  25.974  23.907  1.00  0.00     0.048 A 
ATOM      8  C   UNL A   1      28.966  27.148  23.580  1.00  0.00     0.004 A 
ATOM      9  C   UNL A   1      30.860  27.934  22.314  1.00  0.00     0.019 A 
ATOM     10  C   UNL A   1      29.565  28.126  22.787  1.00  0.00     0.001 A 
BRANCH   6  11
ATOM     11  O   UNL A   1      31.623  24.562  23.679  1.00  0.00    -0.423 OA
BRANCH  11  12
ATOM     12  C   UNL A   1      32.347  24.349  24.846  1.00  0.00     0.352 C 
ATOM     13  O   UNL A   1      31.963  24.668  25.969  1.00  0.00    -0.247 OA
BRANCH  12  14
ATOM     14  C   UNL A   1      33.700  23.608  24.581  1.00  0.00     0.280 C 
ATOM     15  C   UNL A   1      33.953  23.033  23.189  1.00  0.00     0.066 C 
BRANCH  14  16
ATOM     16  O   UNL A   1      34.223  22.653  25.492  1.00  0.00    -0.479 OA
BRANCH  16  17
ATOM     17  C   UNL A   1      35.575  22.561  25.621  1.00  0.00     0.123 A 
ATOM     18  C   UNL A   1      35.923  20.083  24.899  1.00  0.00     0.048 C 
ATOM     19  C   UNL A   1      36.375  21.428  25.398  1.00  0.00    -0.009 A 
ATOM     20  C   UNL A   1      37.769  21.574  25.534  1.00  0.00     0.007 A 
ATOM     21  C   UNL A   1      38.352  22.804  25.835  1.00  0.00     0.001 A 
ATOM     22  C   UNL A   1      36.171  23.801  25.895  1.00  0.00     0.047 A 
ATOM     23  C   UNL A   1      37.553  23.925  26.001  1.00  0.00     0.004 A 
ENDBRANCH  16  17
ENDBRANCH  14  16
ENDBRANCH  12  14
ENDBRANCH  11  12
ENDBRANCH   6  11
ENDBRANCH   3   5
ENDBRANCH   2   3
ENDBRANCH   1   2
BRANCH   1  24
ATOM     24  C   UNL A   1      33.274  28.508  25.052  1.00  0.00     0.202 C 
BRANCH  24  25
ATOM     25  O   UNL A   1      32.410  29.636  25.103  1.00  0.00    -0.374 OA
BRANCH  25  26
ATOM     26  C   UNL A   1      32.449  30.397  26.296  1.00  0.00     0.202 C 
BRANCH  26  27
ATOM     27  C   UNL A   1      33.605  30.005  27.225  1.00  0.00     0.261 C 
BRANCH  27  28
ATOM     28  O   UNL A   1      33.956  31.122  28.073  1.00  0.00    -0.460 OA
BRANCH  28  29
ATOM     29  C   UNL A   1      35.255  31.531  28.013  1.00  0.00     0.338 C 
ATOM     30  O   UNL A   1      35.635  32.599  27.566  1.00  0.00    -0.246 OA
BRANCH  29  31
ATOM     31  C   UNL A   1      36.162  30.383  28.314  1.00  0.00     0.060 A 
ATOM     32  C   UNL A   1      36.219  29.830  29.608  1.00  0.00     0.016 A 
ATOM     33  C   UNL A   1      37.169  30.098  27.406  1.00  0.00     0.016 A 
ATOM     34  C   UNL A   1      37.374  29.152  30.043  1.00  0.00     0.010 A 
ATOM     35  C   UNL A   1      38.339  29.563  27.891  1.00  0.00     0.010 A 
ATOM     36  C   UNL A   1      38.484  29.114  29.213  1.00  0.00    -0.014 A 
BRANCH  36  37
ATOM     37  C   UNL A   1      39.860  28.686  29.522  1.00  0.00     0.031 A 
ATOM     38  C   UNL A   1      40.237  27.310  29.084  1.00  0.00     0.074 A 
ATOM     39  C   UNL A   1      40.847  29.572  29.828  1.00  0.00     0.049 A 
ATOM     40  N   UNL A   1      41.426  26.833  29.153  1.00  0.00    -0.248 NA
ATOM     41  C   UNL A   1      39.295  26.337  28.527  1.00  0.00     0.031 C 
ATOM     42  C   UNL A   1      42.285  29.442  29.537  1.00  0.00     0.029 A 
ATOM     43  N   UNL A   1      40.799  30.819  30.483  1.00  0.00    -0.354 N 
ATOM     44  C   UNL A   1      41.485  25.664  28.437  1.00  0.00     0.074 A 
ATOM     45  C   UNL A   1      40.116  25.363  28.117  1.00  0.00     0.031 C 
ATOM     46  C   UNL A   1      42.983  30.323  30.273  1.00  0.00     0.029 A 
ATOM     47  C   UNL A   1      42.032  30.955  31.161  1.00  0.00     0.049 A 
ATOM     48  H   UNL A   1      40.056  31.464  30.471  1.00  0.00     0.167 HD
ATOM     49  C   UNL A   1      42.724  25.163  28.170  1.00  0.00     0.037 A 
ATOM     50  C   UNL A   1      42.098  31.010  32.519  1.00  0.00     0.037 A 
ATOM     51  C   UNL A   1      43.720  25.868  28.984  1.00  0.00     0.049 A 
ATOM     52  C   UNL A   1      42.918  29.866  33.041  1.00  0.00     0.074 A 
ATOM     53  C   UNL A   1      44.675  26.837  28.731  1.00  0.00     0.029 A 
ATOM     54  N   UNL A   1      43.581  25.806  30.369  1.00  0.00    -0.354 N 
ATOM     55  N   UNL A   1      43.096  28.764  32.363  1.00  0.00    -0.248 NA
ATOM     56  C   UNL A   1      43.671  29.886  34.287  1.00  0.00     0.031 C 
ATOM     57  C   UNL A   1      45.071  27.389  29.985  1.00  0.00     0.029 A 
ATOM     58  C   UNL A   1      44.385  26.732  30.996  1.00  0.00     0.049 A 
ATOM     59  H   UNL A   1      42.984  25.180  30.840  1.00  0.00     0.167 HD
ATOM     60  C   UNL A   1      44.009  27.978  33.000  1.00  0.00     0.074 A 
ATOM     61  C   UNL A   1      44.319  28.709  34.214  1.00  0.00     0.031 C 
ATOM     62  C   UNL A   1      44.438  26.802  32.454  1.00  0.00     0.037 A 
BRANCH  49  63
ATOM     63  C   UNL A   1      43.100  24.113  27.145  1.00  0.00     0.064 A 
ATOM     64  C   UNL A   1      42.735  22.762  27.356  1.00  0.00     0.173 A 
ATOM     65  C   UNL A   1      43.876  24.330  25.989  1.00  0.00     0.173 A 
ATOM     66  F   UNL A   1      42.005  22.393  28.418  1.00  0.00    -0.203 F 
ATOM     67  C   UNL A   1      43.118  21.729  26.493  1.00  0.00     0.198 A 
ATOM     68  C   UNL A   1      44.231  23.301  25.109  1.00  0.00     0.198 A 
ATOM     69  F   UNL A   1      44.357  25.531  25.666  1.00  0.00    -0.203 F 
ATOM     70  F   UNL A   1      42.768  20.466  26.771  1.00  0.00    -0.200 F 
ATOM     71  C   UNL A   1      43.860  21.999  25.364  1.00  0.00     0.200 A 
ATOM     72  F   UNL A   1      44.954  23.587  24.015  1.00  0.00    -0.200 F 
ATOM     73  F   UNL A   1      44.226  21.014  24.534  1.00  0.00    -0.200 F 
ENDBRANCH  49  63
BRANCH  50  74
ATOM     74  C   UNL A   1      40.877  31.649  33.088  1.00  0.00     0.064 A 
ATOM     75  C   UNL A   1      40.755  33.038  32.850  1.00  0.00     0.173 A 
ATOM     76  C   UNL A   1      39.692  30.916  33.240  1.00  0.00     0.173 A 
ATOM     77  F   UNL A   1      41.858  33.790  32.710  1.00  0.00    -0.203 F 
ATOM     78  C   UNL A   1      39.520  33.614  32.552  1.00  0.00     0.198 A 
ATOM     79  C   UNL A   1      38.453  31.511  32.975  1.00  0.00     0.198 A 
ATOM     80  F   UNL A   1      39.737  29.596  33.469  1.00  0.00    -0.203 F 
ATOM     81  F   UNL A   1      39.461  34.884  32.127  1.00  0.00    -0.200 F 
ATOM     82  C   UNL A   1      38.377  32.836  32.565  1.00  0.00     0.200 A 
ATOM     83  F   UNL A   1      37.335  30.770  33.001  1.00  0.00    -0.200 F 
ATOM     84  F   UNL A   1      37.217  33.342  32.122  1.00  0.00    -0.200 F 
ENDBRANCH  50  74
BRANCH  62  85
ATOM     85  C   UNL A   1      45.010  25.636  33.229  1.00  0.00     0.064 A 
ATOM     86  C   UNL A   1      46.369  25.277  33.217  1.00  0.00     0.173 A 
ATOM     87  C   UNL A   1      44.215  24.934  34.172  1.00  0.00     0.173 A 
ATOM     88  F   UNL A   1      47.272  25.944  32.488  1.00  0.00    -0.203 F 
ATOM     89  C   UNL A   1      46.874  24.249  34.017  1.00  0.00     0.198 A 
ATOM     90  C   UNL A   1      44.741  23.969  35.027  1.00  0.00     0.198 A 
ATOM     91  F   UNL A   1      42.910  25.188  34.333  1.00  0.00    -0.203 F 
ATOM     92  F   UNL A   1      48.167  23.914  33.918  1.00  0.00    -0.200 F 
ATOM     93  C   UNL A   1      46.066  23.607  34.932  1.00  0.00     0.200 A 
ATOM     94  F   UNL A   1      43.956  23.412  35.961  1.00  0.00    -0.200 F 
ATOM     95  F   UNL A   1      46.568  22.662  35.736  1.00  0.00    -0.200 F 
ENDBRANCH  62  85
ENDBRANCH  36  37
ENDBRANCH  29  31
ENDBRANCH  28  29
ENDBRANCH  27  28
ENDBRANCH  26  27
ENDBRANCH  25  26
ENDBRANCH  24  25
ENDBRANCH   1  24
TORSDOF 19
ENDMDL
MODEL 2
REMARK VINA RESULT:     -11.9      1.310      2.706
REMARK SMILES Cc1ccccc1O[C@@H](C)C(=O)Oc1ccccc1C(=O)OCCOCCOC(=O)c1ccc(-c2c3nc(c(-c4c(F)c(F)c(F)c(F)c4F)c4ccc([nH]4)c(-c4c(F)c(F)c(F)c(F)c4F)c4nc(c(-c5c(F)c(F)c(F)c(F)c5F)c5ccc2[nH]5)C=C4)C=C3)cc1
REMARK SMILES IDX 23 1 22 2 20 3 21 4 19 5 14 6 15 7 16 8 18 9 17 10 13 11
REMARK SMILES IDX 11 12 12 13 9 14 10 15 8 16 7 17 1 18 2 19 3 20 4 21 6 22
REMARK SMILES IDX 5 23 24 24 25 25 26 26 27 27 28 28 29 29 30 30 31 31 32 32
REMARK SMILES IDX 93 33 33 34 92 35 34 36 35 37 36 38 86 39 37 40 91 41 85 42
REMARK SMILES IDX 87 43 38 44 90 45 84 46 83 47 39 49 71 50 51 51 70 52 52 53
REMARK SMILES IDX 55 54 69 55 88 56 53 57 54 58 68 60 89 61 56 62 40 63 41 64
REMARK SMILES IDX 49 65 42 66 43 67 47 68 50 69 44 70 45 71 48 72 46 73 72 74
REMARK SMILES IDX 73 75 81 76 74 77 75 78 79 79 82 80 76 81 77 82 80 83 78 84
REMARK SMILES IDX 57 85 58 86 66 87 59 88 60 89 64 90 67 91 61 92 62 93 65 94
REMARK SMILES IDX 63 95
REMARK H PARENT 87 48 55 59
REMARK Flexibility Score: inf
ROOT
ATOM      1  C   UNL A   1      30.714  29.698  24.261  1.00  0.00     0.261 C 
ENDROOT
BRANCH   1   2
ATOM      2  O   UNL A   1      30.774  28.263  24.345  1.00  0.00    -0.460 OA
BRANCH   2   3
ATOM      3  C   UNL A   1      30.264  27.569  23.285  1.00  0.00     0.342 C 
ATOM      4  O   UNL A   1      29.287  27.855  22.635  1.00  0.00    -0.246 OA
BRANCH   3   5
ATOM      5  C   UNL A   1      31.212  26.483  22.951  1.00  0.00     0.102 A 
ATOM      6  C   UNL A   1      30.991  25.189  23.440  1.00  0.00     0.145 A 
ATOM      7  C   UNL A   1      31.854  24.149  23.081  1.00  0.00     0.048 A 
ATOM      8  C   UNL A   1      32.920  24.404  22.210  1.00  0.00     0.004 A 
ATOM      9  C   UNL A   1      32.289  26.727  22.085  1.00  0.00     0.019 A 
ATOM     10  C   UNL A   1      33.138  25.689  21.712  1.00  0.00     0.001 A 
BRANCH   6  11
ATOM     11  O   UNL A   1      29.982  24.962  24.405  1.00  0.00    -0.423 OA
BRANCH  11  12
ATOM     12  C   UNL A   1      30.267  25.026  25.763  1.00  0.00     0.352 C 
ATOM     13  O   UNL A   1      29.936  25.952  26.500  1.00  0.00    -0.247 OA
BRANCH  12  14
ATOM     14  C   UNL A   1      31.024  23.754  26.273  1.00  0.00     0.280 C 
ATOM     15  C   UNL A   1      30.206  22.620  26.887  1.00  0.00     0.066 C 
BRANCH  14  16
ATOM     16  O   UNL A   1      32.204  23.846  27.057  1.00  0.00    -0.479 OA
BRANCH  16  17
ATOM     17  C   UNL A   1      33.402  23.655  26.441  1.00  0.00     0.123 A 
ATOM     18  C   UNL A   1      33.884  26.086  25.641  1.00  0.00     0.048 C 
ATOM     19  C   UNL A   1      34.176  24.616  25.769  1.00  0.00    -0.009 A 
ATOM     20  C   UNL A   1      35.421  24.210  25.253  1.00  0.00     0.007 A 
ATOM     21  C   UNL A   1      35.903  22.915  25.434  1.00  0.00     0.001 A 
ATOM     22  C   UNL A   1      33.907  22.363  26.644  1.00  0.00     0.047 A 
ATOM     23  C   UNL A   1      35.152  21.992  26.145  1.00  0.00     0.004 A 
ENDBRANCH  16  17
ENDBRANCH  14  16
ENDBRANCH  12  14
ENDBRANCH  11  12
ENDBRANCH   6  11
ENDBRANCH   3   5
ENDBRANCH   2   3
ENDBRANCH   1   2
BRANCH   1  24
ATOM     24  C   UNL A   1      31.477  30.330  25.399  1.00  0.00     0.202 C 
BRANCH  24  25
ATOM     25  O   UNL A   1      31.406  29.412  26.482  1.00  0.00    -0.374 OA
BRANCH  25  26
ATOM     26  C   UNL A   1      32.595  29.237  27.230  1.00  0.00     0.202 C 
BRANCH  26  27
ATOM     27  C   UNL A   1      33.713  30.203  26.822  1.00  0.00     0.261 C 
BRANCH  27  28
ATOM     28  O   UNL A   1      34.060  31.054  27.938  1.00  0.00    -0.460 OA
BRANCH  28  29
ATOM     29  C   UNL A   1      35.353  31.483  27.981  1.00  0.00     0.338 C 
ATOM     30  O   UNL A   1      35.741  32.583  27.630  1.00  0.00    -0.246 OA
BRANCH  29  31
ATOM     31  C   UNL A   1      36.261  30.329  28.258  1.00  0.00     0.060 A 
ATOM     32  C   UNL A   1      36.265  29.701  29.519  1.00  0.00     0.016 A 
ATOM     33  C   UNL A   1      37.313  30.109  27.384  1.00  0.00     0.016 A 
ATOM     34  C   UNL A   1      37.408  29.011  29.968  1.00  0.00     0.010 A 
ATOM     35  C   UNL A   1      38.466  29.558  27.891  1.00  0.00     0.010 A 
ATOM     36  C   UNL A   1      38.556  29.035  29.190  1.00  0.00    -0.014 A 
BRANCH  36  37
ATOM     37  C   UNL A   1      39.921  28.603  29.539  1.00  0.00     0.031 A 
ATOM     38  C   UNL A   1      40.293  27.211  29.151  1.00  0.00     0.074 A 
ATOM     39  C   UNL A   1      40.911  29.490  29.836  1.00  0.00     0.049 A 
ATOM     40  N   UNL A   1      41.475  26.726  29.258  1.00  0.00    -0.248 NA
ATOM     41  C   UNL A   1      39.352  26.230  28.607  1.00  0.00     0.031 C 
ATOM     42  C   UNL A   1      42.353  29.338  29.577  1.00  0.00     0.029 A 
ATOM     43  N   UNL A   1      40.862  30.757  30.450  1.00  0.00    -0.354 N 
ATOM     44  C   UNL A   1      41.537  25.534  28.581  1.00  0.00     0.074 A 
ATOM     45  C   UNL A   1      40.171  25.236  28.245  1.00  0.00     0.031 C 
ATOM     46  C   UNL A   1      43.045  30.234  30.298  1.00  0.00     0.029 A 
ATOM     47  C   UNL A   1      42.084  30.904  31.147  1.00  0.00     0.049 A 
ATOM     48  H   UNL A   1      40.127  31.409  30.404  1.00  0.00     0.167 HD
ATOM     49  C   UNL A   1      42.775  25.014  28.353  1.00  0.00     0.037 A 
ATOM     50  C   UNL A   1      42.126  31.001  32.503  1.00  0.00     0.037 A 
ATOM     51  C   UNL A   1      43.763  25.735  29.164  1.00  0.00     0.049 A 
ATOM     52  C   UNL A   1      42.924  29.867  33.077  1.00  0.00     0.074 A 
ATOM     53  C   UNL A   1      44.732  26.686  28.898  1.00  0.00     0.029 A 
ATOM     54  N   UNL A   1      43.597  25.717  30.547  1.00  0.00    -0.354 N 
ATOM     55  N   UNL A   1      43.104  28.742  32.437  1.00  0.00    -0.248 NA
ATOM     56  C   UNL A   1      43.654  29.919  34.336  1.00  0.00     0.031 C 
ATOM     57  C   UNL A   1      45.110  27.274  30.141  1.00  0.00     0.029 A 
ATOM     58  C   UNL A   1      44.398  26.656  31.160  1.00  0.00     0.049 A 
ATOM     59  H   UNL A   1      42.986  25.112  31.025  1.00  0.00     0.167 HD
ATOM     60  C   UNL A   1      43.997  27.967  33.116  1.00  0.00     0.074 A 
ATOM     61  C   UNL A   1      44.292  28.734  34.312  1.00  0.00     0.031 C 
ATOM     62  C   UNL A   1      44.425  26.771  32.615  1.00  0.00     0.037 A 
BRANCH  49  63
ATOM     63  C   UNL A   1      43.160  23.928  27.369  1.00  0.00     0.064 A 
ATOM     64  C   UNL A   1      43.925  24.255  26.224  1.00  0.00     0.173 A 
ATOM     65  C   UNL A   1      42.757  22.579  27.431  1.00  0.00     0.173 A 
ATOM     66  F   UNL A   1      44.374  25.500  26.016  1.00  0.00    -0.203 F 
ATOM     67  C   UNL A   1      44.248  23.319  25.235  1.00  0.00     0.198 A 
ATOM     68  C   UNL A   1      43.107  21.636  26.458  1.00  0.00     0.198 A 
ATOM     69  F   UNL A   1      41.982  22.109  28.410  1.00  0.00    -0.203 F 
ATOM     70  F   UNL A   1      44.945  23.704  24.157  1.00  0.00    -0.200 F 
ATOM     71  C   UNL A   1      43.845  22.007  25.355  1.00  0.00     0.200 A 
ATOM     72  F   UNL A   1      42.705  20.364  26.595  1.00  0.00    -0.200 F 
ATOM     73  F   UNL A   1      44.155  21.108  24.411  1.00  0.00    -0.200 F 
ENDBRANCH  49  63
BRANCH  50  74
ATOM     74  C   UNL A   1      40.900  31.668  33.029  1.00  0.00     0.064 A 
ATOM     75  C   UNL A   1      40.003  30.824  33.723  1.00  0.00     0.173 A 
ATOM     76  C   UNL A   1      40.924  33.021  33.395  1.00  0.00     0.173 A 
ATOM     77  F   UNL A   1      39.929  29.522  33.404  1.00  0.00    -0.203 F 
ATOM     78  C   UNL A   1      39.342  31.261  34.871  1.00  0.00     0.198 A 
ATOM     79  C   UNL A   1      40.226  33.461  34.526  1.00  0.00     0.198 A 
ATOM     80  F   UNL A   1      41.750  33.875  32.775  1.00  0.00    -0.203 F 
ATOM     81  F   UNL A   1      38.664  30.385  35.627  1.00  0.00    -0.200 F 
ATOM     82  C   UNL A   1      39.496  32.567  35.298  1.00  0.00     0.200 A 
ATOM     83  F   UNL A   1      40.356  34.730  34.941  1.00  0.00    -0.200 F 
ATOM     84  F   UNL A   1      38.997  32.947  36.483  1.00  0.00    -0.200 F 
ENDBRANCH  50  74
BRANCH  62  85
ATOM     85  C   UNL A   1      44.971  25.625  33.437  1.00  0.00     0.064 A 
ATOM     86  C   UNL A   1      44.166  24.704  34.130  1.00  0.00     0.173 A 
ATOM     87  C   UNL A   1      46.353  25.305  33.405  1.00  0.00     0.173 A 
ATOM     88  F   UNL A   1      42.831  24.788  34.128  1.00  0.00    -0.203 F 
ATOM     89  C   UNL A   1      44.704  23.604  34.803  1.00  0.00     0.198 A 
ATOM     90  C   UNL A   1      46.874  24.161  34.007  1.00  0.00     0.198 A 
ATOM     91  F   UNL A   1      47.245  26.061  32.752  1.00  0.00    -0.203 F 
ATOM     92  F   UNL A   1      43.892  22.795  35.495  1.00  0.00    -0.200 F 
ATOM     93  C   UNL A   1      46.053  23.325  34.728  1.00  0.00     0.200 A 
ATOM     94  F   UNL A   1      48.173  23.867  33.857  1.00  0.00    -0.200 F 
ATOM     95  F   UNL A   1      46.555  22.238  35.328  1.00  0.00    -0.200 F 
ENDBRANCH  62  85
ENDBRANCH  36  37
ENDBRANCH  29  31
ENDBRANCH  28  29
ENDBRANCH  27  28
ENDBRANCH  26  27
ENDBRANCH  25  26
ENDBRANCH  24  25
ENDBRANCH   1  24
TORSDOF 19
ENDMDL
MODEL 3
REMARK VINA RESULT:     -11.6      1.225      2.504
REMARK SMILES Cc1ccccc1O[C@@H](C)C(=O)Oc1ccccc1C(=O)OCCOCCOC(=O)c1ccc(-c2c3nc(c(-c4c(F)c(F)c(F)c(F)c4F)c4ccc([nH]4)c(-c4c(F)c(F)c(F)c(F)c4F)c4nc(c(-c5c(F)c(F)c(F)c(F)c5F)c5ccc2[nH]5)C=C4)C=C3)cc1
REMARK SMILES IDX 23 1 22 2 20 3 21 4 19 5 14 6 15 7 16 8 18 9 17 10 13 11
REMARK SMILES IDX 11 12 12 13 9 14 10 15 8 16 7 17 1 18 2 19 3 20 4 21 6 22
REMARK SMILES IDX 5 23 24 24 25 25 26 26 27 27 28 28 29 29 30 30 31 31 32 32
REMARK SMILES IDX 93 33 33 34 92 35 34 36 35 37 36 38 86 39 37 40 91 41 85 42
REMARK SMILES IDX 87 43 38 44 90 45 84 46 83 47 39 49 71 50 51 51 70 52 52 53
REMARK SMILES IDX 55 54 69 55 88 56 53 57 54 58 68 60 89 61 56 62 40 63 41 64
REMARK SMILES IDX 49 65 42 66 43 67 47 68 50 69 44 70 45 71 48 72 46 73 72 74
REMARK SMILES IDX 73 75 81 76 74 77 75 78 79 79 82 80 76 81 77 82 80 83 78 84
REMARK SMILES IDX 57 85 58 86 66 87 59 88 60 89 64 90 67 91 61 92 62 93 65 94
REMARK SMILES IDX 63 95
REMARK H PARENT 87 48 55 59
REMARK Flexibility Score: inf
ROOT
ATOM      1  C   UNL A   1      32.323  29.181  23.376  1.00  0.00     0.261 C 
ENDROOT
BRANCH   1   2
ATOM      2  O   UNL A   1      32.236  27.745  23.365  1.00  0.00    -0.460 OA
BRANCH   2   3
ATOM      3  C   UNL A   1      33.316  27.074  22.867  1.00  0.00     0.342 C 
ATOM      4  O   UNL A   1      33.940  27.344  21.869  1.00  0.00    -0.246 OA
BRANCH   3   5
ATOM      5  C   UNL A   1      33.708  26.044  23.855  1.00  0.00     0.102 A 
ATOM      6  C   UNL A   1      34.141  24.785  23.417  1.00  0.00     0.145 A 
ATOM      7  C   UNL A   1      34.564  23.829  24.344  1.00  0.00     0.048 A 
ATOM      8  C   UNL A   1      34.580  24.147  25.708  1.00  0.00     0.004 A 
ATOM      9  C   UNL A   1      33.721  26.347  25.226  1.00  0.00     0.019 A 
ATOM     10  C   UNL A   1      34.161  25.403  26.148  1.00  0.00     0.001 A 
BRANCH   6  11
ATOM     11  O   UNL A   1      34.016  24.433  22.053  1.00  0.00    -0.423 OA
BRANCH  11  12
ATOM     12  C   UNL A   1      33.243  23.346  21.665  1.00  0.00     0.352 C 
ATOM     13  O   UNL A   1      33.180  22.913  20.516  1.00  0.00    -0.247 OA
BRANCH  12  14
ATOM     14  C   UNL A   1      32.488  22.692  22.870  1.00  0.00     0.280 C 
ATOM     15  C   UNL A   1      32.738  21.216  23.168  1.00  0.00     0.066 C 
BRANCH  14  16
ATOM     16  O   UNL A   1      31.100  22.899  23.087  1.00  0.00    -0.479 OA
BRANCH  16  17
ATOM     17  C   UNL A   1      30.725  23.762  24.071  1.00  0.00     0.123 A 
ATOM     18  C   UNL A   1      31.495  22.416  26.163  1.00  0.00     0.048 C 
ATOM     19  C   UNL A   1      30.852  23.578  25.458  1.00  0.00    -0.009 A 
ATOM     20  C   UNL A   1      30.450  24.634  26.297  1.00  0.00     0.007 A 
ATOM     21  C   UNL A   1      29.983  25.843  25.784  1.00  0.00     0.001 A 
ATOM     22  C   UNL A   1      30.281  24.991  23.562  1.00  0.00     0.047 A 
ATOM     23  C   UNL A   1      29.913  26.029  24.411  1.00  0.00     0.004 A 
ENDBRANCH  16  17
ENDBRANCH  14  16
ENDBRANCH  12  14
ENDBRANCH  11  12
ENDBRANCH   6  11
ENDBRANCH   3   5
ENDBRANCH   2   3
ENDBRANCH   1   2
BRANCH   1  24
ATOM     24  C   UNL A   1      32.867  29.671  24.696  1.00  0.00     0.202 C 
BRANCH  24  25
ATOM     25  O   UNL A   1      31.846  29.434  25.657  1.00  0.00    -0.374 OA
BRANCH  25  26
ATOM     26  C   UNL A   1      32.261  29.404  27.011  1.00  0.00     0.202 C 
BRANCH  26  27
ATOM     27  C   UNL A   1      33.753  29.704  27.192  1.00  0.00     0.261 C 
BRANCH  27  28
ATOM     28  O   UNL A   1      33.922  30.974  27.864  1.00  0.00    -0.460 OA
BRANCH  28  29
ATOM     29  C   UNL A   1      35.204  31.427  27.968  1.00  0.00     0.338 C 
ATOM     30  O   UNL A   1      35.584  32.537  27.643  1.00  0.00    -0.246 OA
BRANCH  29  31
ATOM     31  C   UNL A   1      36.120  30.288  28.275  1.00  0.00     0.060 A 
ATOM     32  C   UNL A   1      36.181  29.741  29.572  1.00  0.00     0.016 A 
ATOM     33  C   UNL A   1      37.131  30.008  27.371  1.00  0.00     0.016 A 
ATOM     34  C   UNL A   1      37.341  29.075  30.012  1.00  0.00     0.010 A 
ATOM     35  C   UNL A   1      38.305  29.485  27.859  1.00  0.00     0.010 A 
ATOM     36  C   UNL A   1      38.453  29.044  29.183  1.00  0.00    -0.014 A 
BRANCH  36  37
ATOM     37  C   UNL A   1      39.831  28.628  29.496  1.00  0.00     0.031 A 
ATOM     38  C   UNL A   1      40.223  27.256  29.060  1.00  0.00     0.074 A 
ATOM     39  C   UNL A   1      40.809  29.524  29.803  1.00  0.00     0.049 A 
ATOM     40  N   UNL A   1      41.416  26.791  29.132  1.00  0.00    -0.248 NA
ATOM     41  C   UNL A   1      39.291  26.274  28.502  1.00  0.00     0.031 C 
ATOM     42  C   UNL A   1      42.249  29.408  29.516  1.00  0.00     0.029 A 
ATOM     43  N   UNL A   1      40.748  30.772  30.457  1.00  0.00    -0.354 N 
ATOM     44  C   UNL A   1      41.488  25.622  28.418  1.00  0.00     0.074 A 
ATOM     45  C   UNL A   1      40.122  25.307  28.095  1.00  0.00     0.031 C 
ATOM     46  C   UNL A   1      42.937  30.296  30.253  1.00  0.00     0.029 A 
ATOM     47  C   UNL A   1      41.978  30.920  31.138  1.00  0.00     0.049 A 
ATOM     48  H   UNL A   1      39.999  31.410  30.443  1.00  0.00     0.167 HD
ATOM     49  C   UNL A   1      42.732  25.132  28.154  1.00  0.00     0.037 A 
ATOM     50  C   UNL A   1      42.041  30.977  32.495  1.00  0.00     0.037 A 
ATOM     51  C   UNL A   1      43.720  25.847  28.970  1.00  0.00     0.049 A 
ATOM     52  C   UNL A   1      42.870  29.842  33.021  1.00  0.00     0.074 A 
ATOM     53  C   UNL A   1      44.666  26.824  28.718  1.00  0.00     0.029 A 
ATOM     54  N   UNL A   1      43.578  25.785  30.355  1.00  0.00    -0.354 N 
ATOM     55  N   UNL A   1      43.060  28.741  32.345  1.00  0.00    -0.248 NA
ATOM     56  C   UNL A   1      43.620  29.870  34.269  1.00  0.00     0.031 C 
ATOM     57  C   UNL A   1      45.054  27.382  29.972  1.00  0.00     0.029 A 
ATOM     58  C   UNL A   1      44.371  26.720  30.983  1.00  0.00     0.049 A 
ATOM     59  H   UNL A   1      42.986  25.154  30.824  1.00  0.00     0.167 HD
ATOM     60  C   UNL A   1      43.979  27.963  32.984  1.00  0.00     0.074 A 
ATOM     61  C   UNL A   1      44.279  28.698  34.199  1.00  0.00     0.031 C 
ATOM     62  C   UNL A   1      44.421  26.791  32.441  1.00  0.00     0.037 A 
BRANCH  49  63
ATOM     63  C   UNL A   1      43.120  24.085  27.131  1.00  0.00     0.064 A 
ATOM     64  C   UNL A   1      42.772  22.730  27.345  1.00  0.00     0.173 A 
ATOM     65  C   UNL A   1      43.893  24.309  25.974  1.00  0.00     0.173 A 
ATOM     66  F   UNL A   1      42.047  22.354  28.407  1.00  0.00    -0.203 F 
ATOM     67  C   UNL A   1      43.167  21.700  26.484  1.00  0.00     0.198 A 
ATOM     68  C   UNL A   1      44.261  23.283  25.096  1.00  0.00     0.198 A 
ATOM     69  F   UNL A   1      44.359  25.515  25.649  1.00  0.00    -0.203 F 
ATOM     70  F   UNL A   1      42.832  20.433  26.764  1.00  0.00    -0.200 F 
ATOM     71  C   UNL A   1      43.906  21.977  25.354  1.00  0.00     0.200 A 
ATOM     72  F   UNL A   1      44.980  23.575  24.002  1.00  0.00    -0.200 F 
ATOM     73  F   UNL A   1      44.283  20.994  24.525  1.00  0.00    -0.200 F 
ENDBRANCH  49  63
BRANCH  50  74
ATOM     74  C   UNL A   1      40.812  31.605  33.061  1.00  0.00     0.064 A 
ATOM     75  C   UNL A   1      40.676  32.991  32.819  1.00  0.00     0.173 A 
ATOM     76  C   UNL A   1      39.634  30.860  33.214  1.00  0.00     0.173 A 
ATOM     77  F   UNL A   1      41.771  33.755  32.678  1.00  0.00    -0.203 F 
ATOM     78  C   UNL A   1      39.435  33.553  32.517  1.00  0.00     0.198 A 
ATOM     79  C   UNL A   1      38.389  31.441  32.947  1.00  0.00     0.198 A 
ATOM     80  F   UNL A   1      39.693  29.541  33.448  1.00  0.00    -0.203 F 
ATOM     81  F   UNL A   1      39.362  34.822  32.087  1.00  0.00    -0.200 F 
ATOM     82  C   UNL A   1      38.300  32.763  32.531  1.00  0.00     0.200 A 
ATOM     83  F   UNL A   1      37.280  30.688  32.974  1.00  0.00    -0.200 F 
ATOM     84  F   UNL A   1      37.136  33.256  32.086  1.00  0.00    -0.200 F 
ENDBRANCH  50  74
BRANCH  62  85
ATOM     85  C   UNL A   1      45.002  25.631  33.218  1.00  0.00     0.064 A 
ATOM     86  C   UNL A   1      46.366  25.294  33.220  1.00  0.00     0.173 A 
ATOM     87  C   UNL A   1      44.207  24.914  34.149  1.00  0.00     0.173 A 
ATOM     88  F   UNL A   1      47.267  25.978  32.505  1.00  0.00    -0.203 F 
ATOM     89  C   UNL A   1      46.878  24.271  34.023  1.00  0.00     0.198 A 
ATOM     90  C   UNL A   1      44.738  23.953  35.007  1.00  0.00     0.198 A 
ATOM     91  F   UNL A   1      42.896  25.146  34.296  1.00  0.00    -0.203 F 
ATOM     92  F   UNL A   1      48.178  23.957  33.937  1.00  0.00    -0.200 F 
ATOM     93  C   UNL A   1      46.070  23.614  34.926  1.00  0.00     0.200 A 
ATOM     94  F   UNL A   1      43.951  23.381  35.930  1.00  0.00    -0.200 F 
ATOM     95  F   UNL A   1      46.577  22.673  35.732  1.00  0.00    -0.200 F 
ENDBRANCH  62  85
ENDBRANCH  36  37
ENDBRANCH  29  31
ENDBRANCH  28  29
ENDBRANCH  27  28
ENDBRANCH  26  27
ENDBRANCH  25  26
ENDBRANCH  24  25
ENDBRANCH   1  24
TORSDOF 19
ENDMDL
