MODEL 1
REMARK VINA RESULT:     -10.1      0.000      0.000
REMARK SMILES O=C(OCCOCCOC(=O)C1CN(c2cnccn2)C1)c1ccc(-c2c3nc(c(-c4c(F)c(F)c(F)c(F)c4F)c4ccc([nH]4)c(-c4c(F)c(F)c(F)c(F)c4F)c4nc(c(-c5c(F)c(F)c(F)c(F)c5F)c5ccc2[nH]5)C=C4)C=C3)cc1
REMARK SMILES IDX 5 1 4 2 3 3 2 4 1 5 22 6 23 7 84 8 24 9 83 10 25 11 26 12
REMARK SMILES IDX 27 13 77 14 28 15 82 16 76 17 78 18 29 19 81 20 75 21 74 22
REMARK SMILES IDX 30 24 62 25 42 26 61 27 43 28 46 29 60 30 79 31 44 32 45 33
REMARK SMILES IDX 59 35 80 36 47 37 31 38 32 39 40 40 33 41 34 42 38 43 41 44
REMARK SMILES IDX 35 45 36 46 39 47 37 48 63 49 64 50 72 51 65 52 66 53 70 54
REMARK SMILES IDX 73 55 67 56 68 57 71 58 69 59 48 60 49 61 57 62 50 63 51 64
REMARK SMILES IDX 55 65 58 66 52 67 53 68 56 69 54 70 6 71 7 72 8 73 9 74
REMARK SMILES IDX 10 75 11 76 12 77 13 78 21 79 14 80 15 81 16 82 20 83 17 84
REMARK SMILES IDX 19 85 18 86
REMARK H PARENT 78 23 46 34
REMARK Flexibility Score: inf
ROOT
ATOM      1  C   UNL A   1      41.006  20.298  26.548  1.00  0.00     0.202 C 
ENDROOT
BRANCH   1   2
ATOM      2  C   UNL A   1      40.431  21.605  27.107  1.00  0.00     0.261 C 
BRANCH   2   3
ATOM      3  O   UNL A   1      39.607  22.265  26.130  1.00  0.00    -0.460 OA
BRANCH   3   4
ATOM      4  C   UNL A   1      38.762  23.303  26.330  1.00  0.00     0.338 C 
ATOM      5  O   UNL A   1      37.607  23.228  25.919  1.00  0.00    -0.246 OA
BRANCH   4   6
ATOM      6  C   UNL A   1      39.185  24.556  27.020  1.00  0.00     0.060 A 
ATOM      7  C   UNL A   1      38.979  24.806  28.377  1.00  0.00     0.016 A 
ATOM      8  C   UNL A   1      39.917  25.495  26.278  1.00  0.00     0.016 A 
ATOM      9  C   UNL A   1      39.403  25.976  28.975  1.00  0.00     0.010 A 
ATOM     10  C   UNL A   1      40.405  26.655  26.885  1.00  0.00     0.010 A 
ATOM     11  C   UNL A   1      40.137  26.894  28.236  1.00  0.00    -0.014 A 
BRANCH  11  12
ATOM     12  C   UNL A   1      40.567  28.114  28.928  1.00  0.00     0.031 A 
ATOM     13  C   UNL A   1      42.006  28.258  29.292  1.00  0.00     0.074 A 
ATOM     14  C   UNL A   1      39.682  29.116  29.080  1.00  0.00     0.049 A 
ATOM     15  N   UNL A   1      42.596  29.214  29.952  1.00  0.00    -0.248 NA
ATOM     16  C   UNL A   1      42.909  27.189  28.832  1.00  0.00     0.031 C 
ATOM     17  C   UNL A   1      38.293  29.089  28.611  1.00  0.00     0.029 A 
ATOM     18  N   UNL A   1      39.821  30.355  29.640  1.00  0.00    -0.354 N 
ATOM     19  C   UNL A   1      43.930  28.844  30.026  1.00  0.00     0.074 A 
ATOM     20  C   UNL A   1      44.072  27.590  29.323  1.00  0.00     0.031 C 
ATOM     21  C   UNL A   1      37.712  30.264  28.896  1.00  0.00     0.029 A 
ATOM     22  C   UNL A   1      38.659  31.087  29.636  1.00  0.00     0.049 A 
ATOM     23  H   UNL A   1      40.670  30.690  30.009  1.00  0.00     0.167 HD
ATOM     24  C   UNL A   1      44.931  29.499  30.655  1.00  0.00     0.037 A 
ATOM     25  C   UNL A   1      38.390  32.267  30.223  1.00  0.00     0.037 A 
ATOM     26  C   UNL A   1      44.742  30.752  31.333  1.00  0.00     0.049 A 
ATOM     27  C   UNL A   1      39.500  32.927  30.996  1.00  0.00     0.074 A 
ATOM     28  C   UNL A   1      45.661  31.503  32.039  1.00  0.00     0.029 A 
ATOM     29  N   UNL A   1      43.533  31.436  31.385  1.00  0.00    -0.354 N 
ATOM     30  N   UNL A   1      40.751  32.550  31.124  1.00  0.00    -0.248 NA
ATOM     31  C   UNL A   1      39.161  34.150  31.731  1.00  0.00     0.031 C 
ATOM     32  C   UNL A   1      44.996  32.618  32.558  1.00  0.00     0.029 A 
ATOM     33  C   UNL A   1      43.672  32.584  32.141  1.00  0.00     0.049 A 
ATOM     34  H   UNL A   1      42.701  31.145  30.948  1.00  0.00     0.167 HD
ATOM     35  C   UNL A   1      41.349  33.483  31.955  1.00  0.00     0.074 A 
ATOM     36  C   UNL A   1      40.329  34.463  32.275  1.00  0.00     0.031 C 
ATOM     37  C   UNL A   1      42.619  33.526  32.427  1.00  0.00     0.037 A 
BRANCH  24  38
ATOM     38  C   UNL A   1      46.266  28.824  30.709  1.00  0.00     0.064 A 
ATOM     39  C   UNL A   1      47.254  29.042  29.740  1.00  0.00     0.173 A 
ATOM     40  C   UNL A   1      46.546  27.920  31.745  1.00  0.00     0.173 A 
ATOM     41  F   UNL A   1      47.023  29.871  28.711  1.00  0.00    -0.203 F 
ATOM     42  C   UNL A   1      48.471  28.364  29.797  1.00  0.00     0.198 A 
ATOM     43  C   UNL A   1      47.769  27.262  31.811  1.00  0.00     0.198 A 
ATOM     44  F   UNL A   1      45.626  27.668  32.688  1.00  0.00    -0.203 F 
ATOM     45  F   UNL A   1      49.386  28.550  28.836  1.00  0.00    -0.200 F 
ATOM     46  C   UNL A   1      48.729  27.480  30.835  1.00  0.00     0.200 A 
ATOM     47  F   UNL A   1      48.015  26.406  32.813  1.00  0.00    -0.200 F 
ATOM     48  F   UNL A   1      49.898  26.825  30.884  1.00  0.00    -0.200 F 
ENDBRANCH  24  38
BRANCH  25  49
ATOM     49  C   UNL A   1      37.015  32.832  30.182  1.00  0.00     0.064 A 
ATOM     50  C   UNL A   1      36.100  32.611  31.219  1.00  0.00     0.173 A 
ATOM     51  C   UNL A   1      36.580  33.601  29.088  1.00  0.00     0.173 A 
ATOM     52  F   UNL A   1      36.454  31.865  32.276  1.00  0.00    -0.203 F 
ATOM     53  C   UNL A   1      34.803  33.121  31.158  1.00  0.00     0.198 A 
ATOM     54  C   UNL A   1      35.295  34.138  29.043  1.00  0.00     0.198 A 
ATOM     55  F   UNL A   1      37.410  33.841  28.062  1.00  0.00    -0.203 F 
ATOM     56  F   UNL A   1      33.934  32.854  32.142  1.00  0.00    -0.200 F 
ATOM     57  C   UNL A   1      34.405  33.889  30.074  1.00  0.00     0.200 A 
ATOM     58  F   UNL A   1      34.922  34.891  28.000  1.00  0.00    -0.200 F 
ATOM     59  F   UNL A   1      33.159  34.381  30.019  1.00  0.00    -0.200 F 
ENDBRANCH  25  49
BRANCH  37  60
ATOM     60  C   UNL A   1      42.960  34.665  33.334  1.00  0.00     0.064 A 
ATOM     61  C   UNL A   1      43.306  35.922  32.819  1.00  0.00     0.173 A 
ATOM     62  C   UNL A   1      42.870  34.517  34.725  1.00  0.00     0.173 A 
ATOM     63  F   UNL A   1      43.420  36.101  31.495  1.00  0.00    -0.203 F 
ATOM     64  C   UNL A   1      43.563  36.991  33.669  1.00  0.00     0.198 A 
ATOM     65  C   UNL A   1      43.102  35.595  35.571  1.00  0.00     0.198 A 
ATOM     66  F   UNL A   1      42.535  33.332  35.259  1.00  0.00    -0.203 F 
ATOM     67  F   UNL A   1      43.923  38.177  33.160  1.00  0.00    -0.200 F 
ATOM     68  C   UNL A   1      43.450  36.830  35.043  1.00  0.00     0.200 A 
ATOM     69  F   UNL A   1      42.982  35.442  36.896  1.00  0.00    -0.200 F 
ATOM     70  F   UNL A   1      43.682  37.866  35.861  1.00  0.00    -0.200 F 
ENDBRANCH  37  60
ENDBRANCH  11  12
ENDBRANCH   4   6
ENDBRANCH   3   4
ENDBRANCH   2   3
ENDBRANCH   1   2
BRANCH   1  71
ATOM     71  O   UNL A   1      42.160  20.395  25.712  1.00  0.00    -0.374 OA
BRANCH  71  72
ATOM     72  C   UNL A   1      43.262  19.542  26.054  1.00  0.00     0.202 C 
BRANCH  72  73
ATOM     73  C   UNL A   1      43.771  18.824  24.802  1.00  0.00     0.261 C 
BRANCH  73  74
ATOM     74  O   UNL A   1      44.557  19.765  24.054  1.00  0.00    -0.463 OA
BRANCH  74  75
ATOM     75  C   UNL A   1      45.785  20.044  24.590  1.00  0.00     0.312 C 
ATOM     76  O   UNL A   1      46.588  19.187  24.923  1.00  0.00    -0.252 OA
BRANCH  75  77
ATOM     77  C   UNL A   1      46.059  21.551  24.618  1.00  0.00     0.138 C 
ATOM     78  C   UNL A   1      45.084  22.487  23.885  1.00  0.00     0.135 C 
ATOM     79  C   UNL A   1      45.735  22.367  25.872  1.00  0.00     0.135 C 
ATOM     80  N   UNL A   1      45.169  23.340  25.009  1.00  0.00    -0.353 N 
BRANCH  80  81
ATOM     81  C   UNL A   1      44.956  24.711  25.071  1.00  0.00     0.147 A 
ATOM     82  C   UNL A   1      43.688  25.244  25.296  1.00  0.00     0.157 A 
ATOM     83  N   UNL A   1      46.025  25.536  24.954  1.00  0.00    -0.236 NA
ATOM     84  N   UNL A   1      43.433  26.572  25.412  1.00  0.00    -0.259 NA
ATOM     85  C   UNL A   1      45.776  26.864  25.034  1.00  0.00     0.133 A 
ATOM     86  C   UNL A   1      44.511  27.370  25.268  1.00  0.00     0.131 A 
ENDBRANCH  80  81
ENDBRANCH  75  77
ENDBRANCH  74  75
ENDBRANCH  73  74
ENDBRANCH  72  73
ENDBRANCH  71  72
ENDBRANCH   1  71
TORSDOF 15
ENDMDL
MODEL 2
REMARK VINA RESULT:     -10.1      4.286     11.590
REMARK SMILES O=C(OCCOCCOC(=O)C1CN(c2cnccn2)C1)c1ccc(-c2c3nc(c(-c4c(F)c(F)c(F)c(F)c4F)c4ccc([nH]4)c(-c4c(F)c(F)c(F)c(F)c4F)c4nc(c(-c5c(F)c(F)c(F)c(F)c5F)c5ccc2[nH]5)C=C4)C=C3)cc1
REMARK SMILES IDX 5 1 4 2 3 3 2 4 1 5 22 6 23 7 84 8 24 9 83 10 25 11 26 12
REMARK SMILES IDX 27 13 77 14 28 15 82 16 76 17 78 18 29 19 81 20 75 21 74 22
REMARK SMILES IDX 30 24 62 25 42 26 61 27 43 28 46 29 60 30 79 31 44 32 45 33
REMARK SMILES IDX 59 35 80 36 47 37 31 38 32 39 40 40 33 41 34 42 38 43 41 44
REMARK SMILES IDX 35 45 36 46 39 47 37 48 63 49 64 50 72 51 65 52 66 53 70 54
REMARK SMILES IDX 73 55 67 56 68 57 71 58 69 59 48 60 49 61 57 62 50 63 51 64
REMARK SMILES IDX 55 65 58 66 52 67 53 68 56 69 54 70 6 71 7 72 8 73 9 74
REMARK SMILES IDX 10 75 11 76 12 77 13 78 21 79 14 80 15 81 16 82 20 83 17 84
REMARK SMILES IDX 19 85 18 86
REMARK H PARENT 78 23 46 34
REMARK Flexibility Score: inf
ROOT
ATOM      1  C   UNL A   1      35.296  33.358  29.190  1.00  0.00     0.202 C 
ENDROOT
BRANCH   1   2
ATOM      2  C   UNL A   1      34.571  32.749  27.985  1.00  0.00     0.261 C 
BRANCH   2   3
ATOM      3  O   UNL A   1      34.182  31.390  28.250  1.00  0.00    -0.460 OA
BRANCH   3   4
ATOM      4  C   UNL A   1      34.746  30.261  27.762  1.00  0.00     0.338 C 
ATOM      5  O   UNL A   1      34.091  29.530  27.024  1.00  0.00    -0.246 OA
BRANCH   4   6
ATOM      6  C   UNL A   1      36.141  29.853  28.101  1.00  0.00     0.060 A 
ATOM      7  C   UNL A   1      37.236  30.047  27.260  1.00  0.00     0.016 A 
ATOM      8  C   UNL A   1      36.374  29.331  29.383  1.00  0.00     0.016 A 
ATOM      9  C   UNL A   1      38.512  29.667  27.626  1.00  0.00     0.010 A 
ATOM     10  C   UNL A   1      37.669  28.998  29.788  1.00  0.00     0.010 A 
ATOM     11  C   UNL A   1      38.736  29.161  28.900  1.00  0.00    -0.014 A 
BRANCH  11  12
ATOM     12  C   UNL A   1      40.114  28.782  29.233  1.00  0.00     0.031 A 
ATOM     13  C   UNL A   1      40.905  29.681  30.121  1.00  0.00     0.074 A 
ATOM     14  C   UNL A   1      40.563  27.574  28.847  1.00  0.00     0.049 A 
ATOM     15  N   UNL A   1      42.149  29.578  30.498  1.00  0.00    -0.248 NA
ATOM     16  C   UNL A   1      40.195  30.846  30.678  1.00  0.00     0.031 C 
ATOM     17  C   UNL A   1      39.778  26.586  28.098  1.00  0.00     0.029 A 
ATOM     18  N   UNL A   1      41.765  26.959  29.052  1.00  0.00    -0.354 N 
ATOM     19  C   UNL A   1      42.385  30.684  31.300  1.00  0.00     0.074 A 
ATOM     20  C   UNL A   1      41.152  31.435  31.379  1.00  0.00     0.031 C 
ATOM     21  C   UNL A   1      40.522  25.485  27.916  1.00  0.00     0.029 A 
ATOM     22  C   UNL A   1      41.852  25.722  28.461  1.00  0.00     0.049 A 
ATOM     23  H   UNL A   1      42.497  27.363  29.573  1.00  0.00     0.167 HD
ATOM     24  C   UNL A   1      43.548  31.038  31.891  1.00  0.00     0.037 A 
ATOM     25  C   UNL A   1      42.916  24.910  28.332  1.00  0.00     0.037 A 
ATOM     26  C   UNL A   1      44.746  30.253  31.792  1.00  0.00     0.049 A 
ATOM     27  C   UNL A   1      44.220  25.375  28.918  1.00  0.00     0.074 A 
ATOM     28  C   UNL A   1      46.000  30.514  32.310  1.00  0.00     0.029 A 
ATOM     29  N   UNL A   1      44.831  29.041  31.117  1.00  0.00    -0.354 N 
ATOM     30  N   UNL A   1      44.467  26.453  29.625  1.00  0.00    -0.248 NA
ATOM     31  C   UNL A   1      45.398  24.538  28.666  1.00  0.00     0.031 C 
ATOM     32  C   UNL A   1      46.854  29.482  31.909  1.00  0.00     0.029 A 
ATOM     33  C   UNL A   1      46.124  28.557  31.175  1.00  0.00     0.049 A 
ATOM     34  H   UNL A   1      44.080  28.593  30.663  1.00  0.00     0.167 HD
ATOM     35  C   UNL A   1      45.824  26.429  29.901  1.00  0.00     0.074 A 
ATOM     36  C   UNL A   1      46.342  25.210  29.309  1.00  0.00     0.031 C 
ATOM     37  C   UNL A   1      46.584  27.333  30.566  1.00  0.00     0.037 A 
BRANCH  24  38
ATOM     38  C   UNL A   1      43.585  32.357  32.599  1.00  0.00     0.064 A 
ATOM     39  C   UNL A   1      43.334  32.476  33.972  1.00  0.00     0.173 A 
ATOM     40  C   UNL A   1      43.855  33.527  31.874  1.00  0.00     0.173 A 
ATOM     41  F   UNL A   1      43.037  31.391  34.703  1.00  0.00    -0.203 F 
ATOM     42  C   UNL A   1      43.335  33.724  34.591  1.00  0.00     0.198 A 
ATOM     43  C   UNL A   1      43.877  34.769  32.499  1.00  0.00     0.198 A 
ATOM     44  F   UNL A   1      44.088  33.466  30.554  1.00  0.00    -0.203 F 
ATOM     45  F   UNL A   1      43.047  33.824  35.897  1.00  0.00    -0.200 F 
ATOM     46  C   UNL A   1      43.612  34.868  33.857  1.00  0.00     0.200 A 
ATOM     47  F   UNL A   1      44.142  35.873  31.786  1.00  0.00    -0.200 F 
ATOM     48  F   UNL A   1      43.606  36.069  34.453  1.00  0.00    -0.200 F 
ENDBRANCH  24  38
BRANCH  25  49
ATOM     49  C   UNL A   1      42.809  23.650  27.548  1.00  0.00     0.064 A 
ATOM     50  C   UNL A   1      43.194  23.588  26.203  1.00  0.00     0.173 A 
ATOM     51  C   UNL A   1      42.302  22.475  28.131  1.00  0.00     0.173 A 
ATOM     52  F   UNL A   1      43.663  24.685  25.590  1.00  0.00    -0.203 F 
ATOM     53  C   UNL A   1      43.064  22.409  25.469  1.00  0.00     0.198 A 
ATOM     54  C   UNL A   1      42.203  21.289  27.406  1.00  0.00     0.198 A 
ATOM     55  F   UNL A   1      41.911  22.475  29.414  1.00  0.00    -0.203 F 
ATOM     56  F   UNL A   1      43.396  22.392  24.170  1.00  0.00    -0.200 F 
ATOM     57  C   UNL A   1      42.575  21.260  26.072  1.00  0.00     0.200 A 
ATOM     58  F   UNL A   1      41.744  20.180  28.000  1.00  0.00    -0.200 F 
ATOM     59  F   UNL A   1      42.453  20.128  25.366  1.00  0.00    -0.200 F 
ENDBRANCH  25  49
BRANCH  37  60
ATOM     60  C   UNL A   1      48.044  27.029  30.680  1.00  0.00     0.064 A 
ATOM     61  C   UNL A   1      48.529  26.171  31.675  1.00  0.00     0.173 A 
ATOM     62  C   UNL A   1      48.952  27.546  29.744  1.00  0.00     0.173 A 
ATOM     63  F   UNL A   1      47.696  25.670  32.599  1.00  0.00    -0.203 F 
ATOM     64  C   UNL A   1      49.879  25.846  31.736  1.00  0.00     0.198 A 
ATOM     65  C   UNL A   1      50.297  27.198  29.793  1.00  0.00     0.198 A 
ATOM     66  F   UNL A   1      48.527  28.367  28.771  1.00  0.00    -0.203 F 
ATOM     67  F   UNL A   1      50.331  25.048  32.713  1.00  0.00    -0.200 F 
ATOM     68  C   UNL A   1      50.760  26.352  30.790  1.00  0.00     0.200 A 
ATOM     69  F   UNL A   1      51.144  27.677  28.873  1.00  0.00    -0.200 F 
ATOM     70  F   UNL A   1      52.059  26.025  30.841  1.00  0.00    -0.200 F 
ENDBRANCH  37  60
ENDBRANCH  11  12
ENDBRANCH   4   6
ENDBRANCH   3   4
ENDBRANCH   2   3
ENDBRANCH   1   2
BRANCH   1  71
ATOM     71  O   UNL A   1      34.777  34.581  29.718  1.00  0.00    -0.374 OA
BRANCH  71  72
ATOM     72  C   UNL A   1      33.489  34.982  29.230  1.00  0.00     0.202 C 
BRANCH  72  73
ATOM     73  C   UNL A   1      32.900  36.059  30.146  1.00  0.00     0.261 C 
BRANCH  73  74
ATOM     74  O   UNL A   1      32.568  35.429  31.393  1.00  0.00    -0.463 OA
BRANCH  74  75
ATOM     75  C   UNL A   1      32.982  36.106  32.508  1.00  0.00     0.312 C 
ATOM     76  O   UNL A   1      32.545  37.198  32.837  1.00  0.00    -0.252 OA
BRANCH  75  77
ATOM     77  C   UNL A   1      33.971  35.280  33.335  1.00  0.00     0.138 C 
ATOM     78  C   UNL A   1      33.940  33.748  33.200  1.00  0.00     0.135 C 
ATOM     79  C   UNL A   1      35.437  35.182  32.904  1.00  0.00     0.135 C 
ATOM     80  N   UNL A   1      35.353  33.792  33.173  1.00  0.00    -0.353 N 
BRANCH  80  81
ATOM     81  C   UNL A   1      36.254  32.798  33.530  1.00  0.00     0.147 A 
ATOM     82  C   UNL A   1      36.533  31.726  32.683  1.00  0.00     0.157 A 
ATOM     83  N   UNL A   1      36.904  32.911  34.714  1.00  0.00    -0.236 NA
ATOM     84  N   UNL A   1      37.439  30.755  32.962  1.00  0.00    -0.259 NA
ATOM     85  C   UNL A   1      37.785  31.928  35.017  1.00  0.00     0.133 A 
ATOM     86  C   UNL A   1      38.053  30.880  34.156  1.00  0.00     0.131 A 
ENDBRANCH  80  81
ENDBRANCH  75  77
ENDBRANCH  74  75
ENDBRANCH  73  74
ENDBRANCH  72  73
ENDBRANCH  71  72
ENDBRANCH   1  71
TORSDOF 15
ENDMDL
MODEL 3
REMARK VINA RESULT:     -10.1      3.412      4.975
REMARK SMILES O=C(OCCOCCOC(=O)C1CN(c2cnccn2)C1)c1ccc(-c2c3nc(c(-c4c(F)c(F)c(F)c(F)c4F)c4ccc([nH]4)c(-c4c(F)c(F)c(F)c(F)c4F)c4nc(c(-c5c(F)c(F)c(F)c(F)c5F)c5ccc2[nH]5)C=C4)C=C3)cc1
REMARK SMILES IDX 5 1 4 2 3 3 2 4 1 5 22 6 23 7 84 8 24 9 83 10 25 11 26 12
REMARK SMILES IDX 27 13 77 14 28 15 82 16 76 17 78 18 29 19 81 20 75 21 74 22
REMARK SMILES IDX 30 24 62 25 42 26 61 27 43 28 46 29 60 30 79 31 44 32 45 33
REMARK SMILES IDX 59 35 80 36 47 37 31 38 32 39 40 40 33 41 34 42 38 43 41 44
REMARK SMILES IDX 35 45 36 46 39 47 37 48 63 49 64 50 72 51 65 52 66 53 70 54
REMARK SMILES IDX 73 55 67 56 68 57 71 58 69 59 48 60 49 61 57 62 50 63 51 64
REMARK SMILES IDX 55 65 58 66 52 67 53 68 56 69 54 70 6 71 7 72 8 73 9 74
REMARK SMILES IDX 10 75 11 76 12 77 13 78 21 79 14 80 15 81 16 82 20 83 17 84
REMARK SMILES IDX 19 85 18 86
REMARK H PARENT 78 23 46 34
REMARK Flexibility Score: inf
ROOT
ATOM      1  C   UNL A   1      44.598  22.485  23.837  1.00  0.00     0.202 C 
ENDROOT
BRANCH   1   2
ATOM      2  C   UNL A   1      43.561  23.097  24.788  1.00  0.00     0.261 C 
BRANCH   2   3
ATOM      3  O   UNL A   1      43.481  24.522  24.615  1.00  0.00    -0.460 OA
BRANCH   3   4
ATOM      4  C   UNL A   1      44.215  25.471  25.242  1.00  0.00     0.338 C 
ATOM      5  O   UNL A   1      45.358  25.703  24.855  1.00  0.00    -0.246 OA
BRANCH   4   6
ATOM      6  C   UNL A   1      43.696  26.241  26.408  1.00  0.00     0.060 A 
ATOM      7  C   UNL A   1      43.931  27.601  26.611  1.00  0.00     0.016 A 
ATOM      8  C   UNL A   1      42.842  25.577  27.302  1.00  0.00     0.016 A 
ATOM      9  C   UNL A   1      43.415  28.276  27.699  1.00  0.00     0.010 A 
ATOM     10  C   UNL A   1      42.264  26.262  28.373  1.00  0.00     0.010 A 
ATOM     11  C   UNL A   1      42.562  27.614  28.572  1.00  0.00    -0.014 A 
BRANCH  11  12
ATOM     12  C   UNL A   1      42.038  28.385  29.705  1.00  0.00     0.031 A 
ATOM     13  C   UNL A   1      42.842  28.443  30.960  1.00  0.00     0.074 A 
ATOM     14  C   UNL A   1      40.930  29.126  29.525  1.00  0.00     0.049 A 
ATOM     15  N   UNL A   1      42.551  29.009  32.097  1.00  0.00    -0.248 NA
ATOM     16  C   UNL A   1      44.162  27.791  30.925  1.00  0.00     0.031 C 
ATOM     17  C   UNL A   1      40.180  29.224  28.268  1.00  0.00     0.029 A 
ATOM     18  N   UNL A   1      40.259  29.955  30.379  1.00  0.00    -0.354 N 
ATOM     19  C   UNL A   1      43.630  28.748  32.928  1.00  0.00     0.074 A 
ATOM     20  C   UNL A   1      44.595  27.994  32.160  1.00  0.00     0.031 C 
ATOM     21  C   UNL A   1      39.156  30.075  28.435  1.00  0.00     0.029 A 
ATOM     22  C   UNL A   1      39.133  30.513  29.824  1.00  0.00     0.049 A 
ATOM     23  H   UNL A   1      40.554  30.134  31.301  1.00  0.00     0.167 HD
ATOM     24  C   UNL A   1      43.772  29.095  34.226  1.00  0.00     0.037 A 
ATOM     25  C   UNL A   1      38.168  31.248  30.406  1.00  0.00     0.037 A 
ATOM     26  C   UNL A   1      42.788  29.856  34.944  1.00  0.00     0.049 A 
ATOM     27  C   UNL A   1      38.307  31.539  31.875  1.00  0.00     0.074 A 
ATOM     28  C   UNL A   1      42.789  30.245  36.270  1.00  0.00     0.029 A 
ATOM     29  N   UNL A   1      41.614  30.342  34.381  1.00  0.00    -0.354 N 
ATOM     30  N   UNL A   1      39.297  31.239  32.684  1.00  0.00    -0.248 NA
ATOM     31  C   UNL A   1      37.190  32.235  32.522  1.00  0.00     0.031 C 
ATOM     32  C   UNL A   1      41.593  30.926  36.519  1.00  0.00     0.029 A 
ATOM     33  C   UNL A   1      40.865  30.998  35.339  1.00  0.00     0.049 A 
ATOM     34  H   UNL A   1      41.354  30.234  33.437  1.00  0.00     0.167 HD
ATOM     35  C   UNL A   1      38.925  31.705  33.934  1.00  0.00     0.074 A 
ATOM     36  C   UNL A   1      37.629  32.336  33.769  1.00  0.00     0.031 C 
ATOM     37  C   UNL A   1      39.579  31.610  35.118  1.00  0.00     0.037 A 
BRANCH  24  38
ATOM     38  C   UNL A   1      44.976  28.576  34.948  1.00  0.00     0.064 A 
ATOM     39  C   UNL A   1      44.990  27.323  35.575  1.00  0.00     0.173 A 
ATOM     40  C   UNL A   1      46.131  29.368  35.031  1.00  0.00     0.173 A 
ATOM     41  F   UNL A   1      43.899  26.543  35.553  1.00  0.00    -0.203 F 
ATOM     42  C   UNL A   1      46.114  26.888  36.275  1.00  0.00     0.198 A 
ATOM     43  C   UNL A   1      47.259  28.921  35.712  1.00  0.00     0.198 A 
ATOM     44  F   UNL A   1      46.161  30.580  34.459  1.00  0.00    -0.203 F 
ATOM     45  F   UNL A   1      46.092  25.707  36.908  1.00  0.00    -0.200 F 
ATOM     46  C   UNL A   1      47.248  27.684  36.338  1.00  0.00     0.200 A 
ATOM     47  F   UNL A   1      48.352  29.694  35.773  1.00  0.00    -0.200 F 
ATOM     48  F   UNL A   1      48.326  27.267  37.018  1.00  0.00    -0.200 F 
ENDBRANCH  24  38
BRANCH  25  49
ATOM     49  C   UNL A   1      36.968  31.662  29.630  1.00  0.00     0.064 A 
ATOM     50  C   UNL A   1      36.001  30.734  29.225  1.00  0.00     0.173 A 
ATOM     51  C   UNL A   1      36.771  33.005  29.264  1.00  0.00     0.173 A 
ATOM     52  F   UNL A   1      36.151  29.435  29.527  1.00  0.00    -0.203 F 
ATOM     53  C   UNL A   1      34.893  31.128  28.474  1.00  0.00     0.198 A 
ATOM     54  C   UNL A   1      35.647  33.402  28.542  1.00  0.00     0.198 A 
ATOM     55  F   UNL A   1      37.667  33.938  29.619  1.00  0.00    -0.203 F 
ATOM     56  F   UNL A   1      34.008  30.211  28.060  1.00  0.00    -0.200 F 
ATOM     57  C   UNL A   1      34.714  32.462  28.140  1.00  0.00     0.200 A 
ATOM     58  F   UNL A   1      35.474  34.695  28.235  1.00  0.00    -0.200 F 
ATOM     59  F   UNL A   1      33.648  32.838  27.421  1.00  0.00    -0.200 F 
ENDBRANCH  25  49
BRANCH  37  60
ATOM     60  C   UNL A   1      38.897  32.201  36.310  1.00  0.00     0.064 A 
ATOM     61  C   UNL A   1      38.061  31.425  37.124  1.00  0.00     0.173 A 
ATOM     62  C   UNL A   1      39.138  33.532  36.679  1.00  0.00     0.173 A 
ATOM     63  F   UNL A   1      37.791  30.153  36.797  1.00  0.00    -0.203 F 
ATOM     64  C   UNL A   1      37.480  31.967  38.265  1.00  0.00     0.198 A 
ATOM     65  C   UNL A   1      38.576  34.062  37.834  1.00  0.00     0.198 A 
ATOM     66  F   UNL A   1      39.938  34.307  35.929  1.00  0.00    -0.203 F 
ATOM     67  F   UNL A   1      36.658  31.220  39.015  1.00  0.00    -0.200 F 
ATOM     68  C   UNL A   1      37.745  33.281  38.625  1.00  0.00     0.200 A 
ATOM     69  F   UNL A   1      38.843  35.327  38.187  1.00  0.00    -0.200 F 
ATOM     70  F   UNL A   1      37.197  33.797  39.733  1.00  0.00    -0.200 F 
ENDBRANCH  37  60
ENDBRANCH  11  12
ENDBRANCH   4   6
ENDBRANCH   3   4
ENDBRANCH   2   3
ENDBRANCH   1   2
BRANCH   1  71
ATOM     71  O   UNL A   1      44.591  21.064  23.688  1.00  0.00    -0.374 OA
BRANCH  71  72
ATOM     72  C   UNL A   1      45.060  20.308  24.815  1.00  0.00     0.202 C 
BRANCH  72  73
ATOM     73  C   UNL A   1      44.579  18.859  24.704  1.00  0.00     0.261 C 
BRANCH  73  74
ATOM     74  O   UNL A   1      43.160  18.858  24.924  1.00  0.00    -0.463 OA
BRANCH  74  75
ATOM     75  C   UNL A   1      42.774  18.514  26.192  1.00  0.00     0.312 C 
ATOM     76  O   UNL A   1      43.296  17.618  26.838  1.00  0.00    -0.252 OA
BRANCH  75  77
ATOM     77  C   UNL A   1      41.691  19.454  26.726  1.00  0.00     0.138 C 
ATOM     78  C   UNL A   1      41.757  20.942  26.344  1.00  0.00     0.135 C 
ATOM     79  C   UNL A   1      40.298  19.461  26.089  1.00  0.00     0.135 C 
ATOM     80  N   UNL A   1      40.360  20.878  26.132  1.00  0.00    -0.353 N 
BRANCH  80  81
ATOM     81  C   UNL A   1      39.430  21.907  26.192  1.00  0.00     0.147 A 
ATOM     82  C   UNL A   1      39.648  23.043  26.969  1.00  0.00     0.157 A 
ATOM     83  N   UNL A   1      38.309  21.808  25.436  1.00  0.00    -0.236 NA
ATOM     84  N   UNL A   1      38.795  24.097  27.026  1.00  0.00    -0.259 NA
ATOM     85  C   UNL A   1      37.436  22.840  25.512  1.00  0.00     0.133 A 
ATOM     86  C   UNL A   1      37.677  23.962  26.282  1.00  0.00     0.131 A 
ENDBRANCH  80  81
ENDBRANCH  75  77
ENDBRANCH  74  75
ENDBRANCH  73  74
ENDBRANCH  72  73
ENDBRANCH  71  72
ENDBRANCH   1  71
TORSDOF 15
ENDMDL
