MODEL 1
REMARK VINA RESULT:     -11.6      0.000      0.000
REMARK SMILES O=C(OCCOCCOC(=O)[C@@H]1CN(c2nc(-c3ccccc3)no2)CC[NH2+]1)c1ccc(-c2c3nc(c(-c4c(F)c(F)c(F)c(F)c4F)c4ccc([nH]4)c(-c4c(F)c(F)c(F)c(F)c4F)c4nc(c(-c5c(F)c(F)c(F)c(F)c5F)c5ccc2[nH]5)C=C4)C=C3)cc1
REMARK SMILES IDX 6 1 5 2 4 3 3 4 2 5 1 6 29 7 30 8 91 9 31 10 90 11 32 12
REMARK SMILES IDX 33 13 34 14 84 15 35 16 89 17 83 18 85 19 36 20 88 21 82 22
REMARK SMILES IDX 81 23 37 25 69 26 49 27 68 28 50 29 53 30 67 31 86 32 51 33
REMARK SMILES IDX 52 34 66 36 87 37 54 38 38 39 39 40 47 41 40 42 41 43 45 44
REMARK SMILES IDX 48 45 42 46 43 47 46 48 44 49 70 50 71 51 79 52 72 53 73 54
REMARK SMILES IDX 77 55 80 56 74 57 75 58 78 59 76 60 55 61 56 62 64 63 57 64
REMARK SMILES IDX 58 65 62 66 65 67 59 68 60 69 63 70 61 71 7 72 8 73 9 74
REMARK SMILES IDX 10 75 11 76 12 77 13 78 28 79 14 80 27 81 26 84 15 85 16 86
REMARK SMILES IDX 25 87 17 88 24 89 18 90 19 91 23 92 20 93 22 94 21 95
REMARK H PARENT 85 24 53 35 28 82 28 83
REMARK Flexibility Score: inf
ROOT
ATOM      1  O   UNL A   1      44.133  21.212  24.652  1.00  0.00    -0.374 OA
ENDROOT
BRANCH   1   2
ATOM      2  C   UNL A   1      44.439  22.421  23.949  1.00  0.00     0.202 C 
BRANCH   2   3
ATOM      3  C   UNL A   1      43.923  23.704  24.606  1.00  0.00     0.261 C 
BRANCH   3   4
ATOM      4  O   UNL A   1      45.017  24.435  25.186  1.00  0.00    -0.460 OA
BRANCH   4   5
ATOM      5  C   UNL A   1      45.149  25.767  25.375  1.00  0.00     0.338 C 
ATOM      6  O   UNL A   1      45.905  26.397  24.638  1.00  0.00    -0.246 OA
BRANCH   5   7
ATOM      7  C   UNL A   1      44.414  26.529  26.429  1.00  0.00     0.060 A 
ATOM      8  C   UNL A   1      44.392  27.920  26.546  1.00  0.00     0.016 A 
ATOM      9  C   UNL A   1      43.618  25.778  27.311  1.00  0.00     0.016 A 
ATOM     10  C   UNL A   1      43.687  28.550  27.560  1.00  0.00     0.010 A 
ATOM     11  C   UNL A   1      42.868  26.405  28.309  1.00  0.00     0.010 A 
ATOM     12  C   UNL A   1      42.930  27.794  28.450  1.00  0.00    -0.014 A 
BRANCH  12  13
ATOM     13  C   UNL A   1      42.312  28.483  29.593  1.00  0.00     0.031 A 
ATOM     14  C   UNL A   1      43.081  28.552  30.874  1.00  0.00     0.074 A 
ATOM     15  C   UNL A   1      41.147  29.130  29.428  1.00  0.00     0.049 A 
ATOM     16  N   UNL A   1      42.732  29.060  32.024  1.00  0.00    -0.248 NA
ATOM     17  C   UNL A   1      44.439  27.981  30.852  1.00  0.00     0.031 C 
ATOM     18  C   UNL A   1      40.402  29.212  28.170  1.00  0.00     0.029 A 
ATOM     19  N   UNL A   1      40.400  29.862  30.309  1.00  0.00    -0.354 N 
ATOM     20  C   UNL A   1      43.813  28.845  32.868  1.00  0.00     0.074 A 
ATOM     21  C   UNL A   1      44.831  28.163  32.102  1.00  0.00     0.031 C 
ATOM     22  C   UNL A   1      39.309  29.968  28.359  1.00  0.00     0.029 A 
ATOM     23  C   UNL A   1      39.247  30.365  29.761  1.00  0.00     0.049 A 
ATOM     24  H   UNL A   1      40.665  30.014  31.246  1.00  0.00     0.167 HD
ATOM     25  C   UNL A   1      43.928  29.183  34.172  1.00  0.00     0.037 A 
ATOM     26  C   UNL A   1      38.243  31.039  30.349  1.00  0.00     0.037 A 
ATOM     27  C   UNL A   1      42.889  29.856  34.904  1.00  0.00     0.049 A 
ATOM     28  C   UNL A   1      38.357  31.330  31.821  1.00  0.00     0.074 A 
ATOM     29  C   UNL A   1      42.844  30.187  36.244  1.00  0.00     0.029 A 
ATOM     30  N   UNL A   1      41.701  30.301  34.337  1.00  0.00    -0.354 N 
ATOM     31  N   UNL A   1      39.345  31.058  32.642  1.00  0.00    -0.248 NA
ATOM     32  C   UNL A   1      37.216  32.001  32.455  1.00  0.00     0.031 C 
ATOM     33  C   UNL A   1      41.610  30.799  36.495  1.00  0.00     0.029 A 
ATOM     34  C   UNL A   1      40.907  30.891  35.303  1.00  0.00     0.049 A 
ATOM     35  H   UNL A   1      41.460  30.208  33.387  1.00  0.00     0.167 HD
ATOM     36  C   UNL A   1      38.955  31.533  33.884  1.00  0.00     0.074 A 
ATOM     37  C   UNL A   1      37.643  32.128  33.705  1.00  0.00     0.031 C 
ATOM     38  C   UNL A   1      39.610  31.479  35.071  1.00  0.00     0.037 A 
BRANCH  25  39
ATOM     39  C   UNL A   1      45.178  28.750  34.876  1.00  0.00     0.064 A 
ATOM     40  C   UNL A   1      45.264  27.525  35.557  1.00  0.00     0.173 A 
ATOM     41  C   UNL A   1      46.291  29.604  34.921  1.00  0.00     0.173 A 
ATOM     42  F   UNL A   1      44.216  26.688  35.573  1.00  0.00    -0.203 F 
ATOM     43  C   UNL A   1      46.403  27.188  36.284  1.00  0.00     0.198 A 
ATOM     44  C   UNL A   1      47.438  29.253  35.628  1.00  0.00     0.198 A 
ATOM     45  F   UNL A   1      46.258  30.791  34.297  1.00  0.00    -0.203 F 
ATOM     46  F   UNL A   1      46.437  26.044  36.982  1.00  0.00    -0.200 F 
ATOM     47  C   UNL A   1      47.489  28.051  36.318  1.00  0.00     0.200 A 
ATOM     48  F   UNL A   1      48.486  30.088  35.660  1.00  0.00    -0.200 F 
ATOM     49  F   UNL A   1      48.578  27.733  37.032  1.00  0.00    -0.200 F 
ENDBRANCH  25  39
BRANCH  26  50
ATOM     50  C   UNL A   1      37.049  31.437  29.558  1.00  0.00     0.064 A 
ATOM     51  C   UNL A   1      36.844  32.766  29.164  1.00  0.00     0.173 A 
ATOM     52  C   UNL A   1      36.092  30.489  29.164  1.00  0.00     0.173 A 
ATOM     53  F   UNL A   1      37.716  33.715  29.532  1.00  0.00    -0.203 F 
ATOM     54  C   UNL A   1      35.727  33.131  28.413  1.00  0.00     0.198 A 
ATOM     55  C   UNL A   1      34.991  30.849  28.389  1.00  0.00     0.198 A 
ATOM     56  F   UNL A   1      36.237  29.202  29.515  1.00  0.00    -0.203 F 
ATOM     57  F   UNL A   1      35.537  34.415  28.080  1.00  0.00    -0.200 F 
ATOM     58  C   UNL A   1      34.807  32.171  28.019  1.00  0.00     0.200 A 
ATOM     59  F   UNL A   1      34.114  29.915  28.000  1.00  0.00    -0.200 F 
ATOM     60  F   UNL A   1      33.739  32.522  27.290  1.00  0.00    -0.200 F 
ENDBRANCH  26  50
BRANCH  38  61
ATOM     61  C   UNL A   1      38.929  32.104  36.248  1.00  0.00     0.064 A 
ATOM     62  C   UNL A   1      38.069  31.366  37.072  1.00  0.00     0.173 A 
ATOM     63  C   UNL A   1      39.190  33.440  36.586  1.00  0.00     0.173 A 
ATOM     64  F   UNL A   1      37.780  30.090  36.776  1.00  0.00    -0.203 F 
ATOM     65  C   UNL A   1      37.479  31.951  38.188  1.00  0.00     0.198 A 
ATOM     66  C   UNL A   1      38.618  34.013  37.717  1.00  0.00     0.198 A 
ATOM     67  F   UNL A   1      40.013  34.181  35.828  1.00  0.00    -0.203 F 
ATOM     68  F   UNL A   1      36.631  31.241  38.944  1.00  0.00    -0.200 F 
ATOM     69  C   UNL A   1      37.760  33.271  38.513  1.00  0.00     0.200 A 
ATOM     70  F   UNL A   1      38.901  35.283  38.038  1.00  0.00    -0.200 F 
ATOM     71  F   UNL A   1      37.201  33.828  39.595  1.00  0.00    -0.200 F 
ENDBRANCH  38  61
ENDBRANCH  12  13
ENDBRANCH   5   7
ENDBRANCH   4   5
ENDBRANCH   3   4
ENDBRANCH   2   3
ENDBRANCH   1   2
BRANCH   1  72
ATOM     72  C   UNL A   1      45.160  20.206  24.633  1.00  0.00     0.202 C 
BRANCH  72  73
ATOM     73  C   UNL A   1      44.526  18.820  24.765  1.00  0.00     0.261 C 
BRANCH  73  74
ATOM     74  O   UNL A   1      43.128  19.016  25.001  1.00  0.00    -0.459 OA
BRANCH  74  75
ATOM     75  C   UNL A   1      42.719  18.672  26.258  1.00  0.00     0.366 C 
ATOM     76  O   UNL A   1      43.088  17.677  26.871  1.00  0.00    -0.245 OA
BRANCH  75  77
ATOM     77  C   UNL A   1      41.826  19.773  26.821  1.00  0.00     0.313 C 
ATOM     78  C   UNL A   1      40.738  20.138  25.781  1.00  0.00     0.199 C 
ATOM     79  N   UNL A   1      42.653  20.919  27.302  1.00  0.00    -0.332 N 
ATOM     80  N   UNL A   1      39.988  21.315  26.218  1.00  0.00    -0.312 N 
ATOM     81  C   UNL A   1      41.745  21.976  27.786  1.00  0.00     0.283 C 
ATOM     82  H   UNL A   1      43.223  21.279  26.536  1.00  0.00     0.347 HD
ATOM     83  H   UNL A   1      43.271  20.615  28.055  1.00  0.00     0.347 HD
ATOM     84  C   UNL A   1      40.762  22.453  26.697  1.00  0.00     0.183 C 
BRANCH  80  85
ATOM     85  C   UNL A   1      38.708  21.482  25.835  1.00  0.00     0.324 A 
ATOM     86  N   UNL A   1      37.953  22.550  25.916  1.00  0.00    -0.171 NA
ATOM     87  O   UNL A   1      38.094  20.440  25.196  1.00  0.00    -0.315 OA
ATOM     88  C   UNL A   1      36.824  22.163  25.230  1.00  0.00     0.204 A 
ATOM     89  N   UNL A   1      36.827  20.884  24.828  1.00  0.00    -0.055 NA
BRANCH  88  90
ATOM     90  C   UNL A   1      35.787  23.096  24.832  1.00  0.00     0.023 A 
ATOM     91  C   UNL A   1      35.307  23.116  23.517  1.00  0.00     0.012 A 
ATOM     92  C   UNL A   1      35.327  24.049  25.751  1.00  0.00     0.012 A 
ATOM     93  C   UNL A   1      34.379  24.086  23.126  1.00  0.00     0.001 A 
ATOM     94  C   UNL A   1      34.412  25.027  25.352  1.00  0.00     0.001 A 
ATOM     95  C   UNL A   1      33.940  25.045  24.041  1.00  0.00     0.000 A 
ENDBRANCH  88  90
ENDBRANCH  80  85
ENDBRANCH  75  77
ENDBRANCH  74  75
ENDBRANCH  73  74
ENDBRANCH  72  73
ENDBRANCH   1  72
TORSDOF 16
ENDMDL
MODEL 2
REMARK VINA RESULT:     -11.5      3.719      6.498
REMARK SMILES O=C(OCCOCCOC(=O)[C@@H]1CN(c2nc(-c3ccccc3)no2)CC[NH2+]1)c1ccc(-c2c3nc(c(-c4c(F)c(F)c(F)c(F)c4F)c4ccc([nH]4)c(-c4c(F)c(F)c(F)c(F)c4F)c4nc(c(-c5c(F)c(F)c(F)c(F)c5F)c5ccc2[nH]5)C=C4)C=C3)cc1
REMARK SMILES IDX 6 1 5 2 4 3 3 4 2 5 1 6 29 7 30 8 91 9 31 10 90 11 32 12
REMARK SMILES IDX 33 13 34 14 84 15 35 16 89 17 83 18 85 19 36 20 88 21 82 22
REMARK SMILES IDX 81 23 37 25 69 26 49 27 68 28 50 29 53 30 67 31 86 32 51 33
REMARK SMILES IDX 52 34 66 36 87 37 54 38 38 39 39 40 47 41 40 42 41 43 45 44
REMARK SMILES IDX 48 45 42 46 43 47 46 48 44 49 70 50 71 51 79 52 72 53 73 54
REMARK SMILES IDX 77 55 80 56 74 57 75 58 78 59 76 60 55 61 56 62 64 63 57 64
REMARK SMILES IDX 58 65 62 66 65 67 59 68 60 69 63 70 61 71 7 72 8 73 9 74
REMARK SMILES IDX 10 75 11 76 12 77 13 78 28 79 14 80 27 81 26 84 15 85 16 86
REMARK SMILES IDX 25 87 17 88 24 89 18 90 19 91 23 92 20 93 22 94 21 95
REMARK H PARENT 85 24 53 35 28 82 28 83
REMARK Flexibility Score: inf
ROOT
ATOM      1  O   UNL A   1      42.596  21.141  25.657  1.00  0.00    -0.374 OA
ENDROOT
BRANCH   1   2
ATOM      2  C   UNL A   1      41.888  20.476  26.709  1.00  0.00     0.202 C 
BRANCH   2   3
ATOM      3  C   UNL A   1      40.557  21.121  27.106  1.00  0.00     0.261 C 
BRANCH   3   4
ATOM      4  O   UNL A   1      40.219  22.167  26.178  1.00  0.00    -0.460 OA
BRANCH   4   5
ATOM      5  C   UNL A   1      39.314  23.162  26.306  1.00  0.00     0.338 C 
ATOM      6  O   UNL A   1      38.178  22.988  25.867  1.00  0.00    -0.246 OA
BRANCH   5   7
ATOM      7  C   UNL A   1      39.610  24.468  26.966  1.00  0.00     0.060 A 
ATOM      8  C   UNL A   1      40.222  25.560  26.347  1.00  0.00     0.016 A 
ATOM      9  C   UNL A   1      39.156  24.626  28.286  1.00  0.00     0.016 A 
ATOM     10  C   UNL A   1      40.467  26.739  27.035  1.00  0.00     0.010 A 
ATOM     11  C   UNL A   1      39.357  25.824  28.975  1.00  0.00     0.010 A 
ATOM     12  C   UNL A   1      40.043  26.871  28.354  1.00  0.00    -0.014 A 
BRANCH  12  13
ATOM     13  C   UNL A   1      40.444  28.079  29.092  1.00  0.00     0.031 A 
ATOM     14  C   UNL A   1      41.877  28.213  29.499  1.00  0.00     0.074 A 
ATOM     15  C   UNL A   1      39.559  29.072  29.273  1.00  0.00     0.049 A 
ATOM     16  N   UNL A   1      42.458  29.153  30.192  1.00  0.00    -0.248 NA
ATOM     17  C   UNL A   1      42.785  27.142  29.051  1.00  0.00     0.031 C 
ATOM     18  C   UNL A   1      38.176  29.063  28.791  1.00  0.00     0.029 A 
ATOM     19  N   UNL A   1      39.694  30.288  29.884  1.00  0.00    -0.354 N 
ATOM     20  C   UNL A   1      43.790  28.776  30.286  1.00  0.00     0.074 A 
ATOM     21  C   UNL A   1      43.936  27.522  29.582  1.00  0.00     0.031 C 
ATOM     22  C   UNL A   1      37.595  30.229  29.112  1.00  0.00     0.029 A 
ATOM     23  C   UNL A   1      38.542  31.033  29.877  1.00  0.00     0.049 A 
ATOM     24  H   UNL A   1      40.537  30.598  30.289  1.00  0.00     0.167 HD
ATOM     25  C   UNL A   1      44.794  29.424  30.920  1.00  0.00     0.037 A 
ATOM     26  C   UNL A   1      38.285  32.218  30.459  1.00  0.00     0.037 A 
ATOM     27  C   UNL A   1      44.609  30.666  31.618  1.00  0.00     0.049 A 
ATOM     28  C   UNL A   1      39.396  32.878  31.231  1.00  0.00     0.074 A 
ATOM     29  C   UNL A   1      45.519  31.388  32.366  1.00  0.00     0.029 A 
ATOM     30  N   UNL A   1      43.412  31.372  31.648  1.00  0.00    -0.354 N 
ATOM     31  N   UNL A   1      40.638  32.485  31.389  1.00  0.00    -0.248 NA
ATOM     32  C   UNL A   1      39.070  34.133  31.919  1.00  0.00     0.031 C 
ATOM     33  C   UNL A   1      44.860  32.511  32.880  1.00  0.00     0.029 A 
ATOM     34  C   UNL A   1      43.554  32.514  32.413  1.00  0.00     0.049 A 
ATOM     35  H   UNL A   1      42.583  31.097  31.191  1.00  0.00     0.167 HD
ATOM     36  C   UNL A   1      41.248  33.445  32.182  1.00  0.00     0.074 A 
ATOM     37  C   UNL A   1      40.240  34.452  32.458  1.00  0.00     0.031 C 
ATOM     38  C   UNL A   1      42.520  33.492  32.650  1.00  0.00     0.037 A 
BRANCH  25  39
ATOM     39  C   UNL A   1      46.130  28.745  30.943  1.00  0.00     0.064 A 
ATOM     40  C   UNL A   1      46.431  27.725  31.859  1.00  0.00     0.173 A 
ATOM     41  C   UNL A   1      47.146  29.165  30.072  1.00  0.00     0.173 A 
ATOM     42  F   UNL A   1      45.505  27.310  32.736  1.00  0.00    -0.203 F 
ATOM     43  C   UNL A   1      47.711  27.176  31.924  1.00  0.00     0.198 A 
ATOM     44  C   UNL A   1      48.417  28.597  30.123  1.00  0.00     0.198 A 
ATOM     45  F   UNL A   1      46.914  30.144  29.185  1.00  0.00    -0.203 F 
ATOM     46  F   UNL A   1      47.995  26.251  32.852  1.00  0.00    -0.200 F 
ATOM     47  C   UNL A   1      48.701  27.612  31.056  1.00  0.00     0.200 A 
ATOM     48  F   UNL A   1      49.372  29.019  29.283  1.00  0.00    -0.200 F 
ATOM     49  F   UNL A   1      49.936  27.095  31.131  1.00  0.00    -0.200 F 
ENDBRANCH  25  39
BRANCH  26  50
ATOM     50  C   UNL A   1      36.928  32.815  30.367  1.00  0.00     0.064 A 
ATOM     51  C   UNL A   1      35.984  32.642  31.388  1.00  0.00     0.173 A 
ATOM     52  C   UNL A   1      36.549  33.589  29.258  1.00  0.00     0.173 A 
ATOM     53  F   UNL A   1      36.285  31.895  32.459  1.00  0.00    -0.203 F 
ATOM     54  C   UNL A   1      34.714  33.213  31.300  1.00  0.00     0.198 A 
ATOM     55  C   UNL A   1      35.291  34.183  29.184  1.00  0.00     0.198 A 
ATOM     56  F   UNL A   1      37.413  33.785  28.250  1.00  0.00    -0.203 F 
ATOM     57  F   UNL A   1      33.818  33.003  32.274  1.00  0.00    -0.200 F 
ATOM     58  C   UNL A   1      34.372  33.990  30.203  1.00  0.00     0.200 A 
ATOM     59  F   UNL A   1      34.973  34.944  28.129  1.00  0.00    -0.200 F 
ATOM     60  F   UNL A   1      33.156  34.547  30.125  1.00  0.00    -0.200 F 
ENDBRANCH  26  50
BRANCH  38  61
ATOM     61  C   UNL A   1      42.890  34.683  33.479  1.00  0.00     0.064 A 
ATOM     62  C   UNL A   1      43.284  35.891  32.888  1.00  0.00     0.173 A 
ATOM     63  C   UNL A   1      42.789  34.628  34.877  1.00  0.00     0.173 A 
ATOM     64  F   UNL A   1      43.409  35.981  31.556  1.00  0.00    -0.203 F 
ATOM     65  C   UNL A   1      43.582  37.001  33.672  1.00  0.00     0.198 A 
ATOM     66  C   UNL A   1      43.062  35.748  35.655  1.00  0.00     0.198 A 
ATOM     67  F   UNL A   1      42.408  33.494  35.483  1.00  0.00    -0.203 F 
ATOM     68  F   UNL A   1      43.993  38.137  33.092  1.00  0.00    -0.200 F 
ATOM     69  C   UNL A   1      43.463  36.931  35.053  1.00  0.00     0.200 A 
ATOM     70  F   UNL A   1      42.933  35.683  36.987  1.00  0.00    -0.200 F 
ATOM     71  F   UNL A   1      43.738  38.005  35.804  1.00  0.00    -0.200 F 
ENDBRANCH  38  61
ENDBRANCH  12  13
ENDBRANCH   5   7
ENDBRANCH   4   5
ENDBRANCH   3   4
ENDBRANCH   2   3
ENDBRANCH   1   2
BRANCH   1  72
ATOM     72  C   UNL A   1      43.878  21.683  26.019  1.00  0.00     0.202 C 
BRANCH  72  73
ATOM     73  C   UNL A   1      43.688  22.859  26.978  1.00  0.00     0.261 C 
BRANCH  73  74
ATOM     74  O   UNL A   1      43.322  23.994  26.187  1.00  0.00    -0.459 OA
BRANCH  74  75
ATOM     75  C   UNL A   1      44.363  24.566  25.512  1.00  0.00     0.366 C 
ATOM     76  O   UNL A   1      44.656  24.338  24.344  1.00  0.00    -0.245 OA
BRANCH  75  77
ATOM     77  C   UNL A   1      45.032  25.610  26.400  1.00  0.00     0.313 C 
ATOM     78  C   UNL A   1      45.114  26.958  25.642  1.00  0.00     0.199 C 
ATOM     79  N   UNL A   1      46.335  25.095  26.919  1.00  0.00    -0.332 N 
ATOM     80  N   UNL A   1      45.915  27.921  26.395  1.00  0.00    -0.312 N 
ATOM     81  C   UNL A   1      46.966  26.157  27.725  1.00  0.00     0.283 C 
ATOM     82  H   UNL A   1      46.943  24.848  26.138  1.00  0.00     0.347 HD
ATOM     83  H   UNL A   1      46.181  24.265  27.491  1.00  0.00     0.347 HD
ATOM     84  C   UNL A   1      47.192  27.454  26.920  1.00  0.00     0.183 C 
BRANCH  80  85
ATOM     85  C   UNL A   1      45.678  29.241  26.274  1.00  0.00     0.324 A 
ATOM     86  N   UNL A   1      44.741  29.968  26.829  1.00  0.00    -0.171 NA
ATOM     87  O   UNL A   1      46.563  29.980  25.538  1.00  0.00    -0.315 OA
ATOM     88  C   UNL A   1      45.104  31.244  26.463  1.00  0.00     0.204 A 
ATOM     89  N   UNL A   1      46.157  31.308  25.635  1.00  0.00    -0.055 NA
BRANCH  88  90
ATOM     90  C   UNL A   1      44.507  32.431  27.046  1.00  0.00     0.023 A 
ATOM     91  C   UNL A   1      44.245  32.502  28.419  1.00  0.00     0.012 A 
ATOM     92  C   UNL A   1      44.102  33.481  26.210  1.00  0.00     0.012 A 
ATOM     93  C   UNL A   1      43.580  33.611  28.948  1.00  0.00     0.001 A 
ATOM     94  C   UNL A   1      43.423  34.580  26.739  1.00  0.00     0.001 A 
ATOM     95  C   UNL A   1      43.162  34.644  28.107  1.00  0.00     0.000 A 
ENDBRANCH  88  90
ENDBRANCH  80  85
ENDBRANCH  75  77
ENDBRANCH  74  75
ENDBRANCH  73  74
ENDBRANCH  72  73
ENDBRANCH   1  72
TORSDOF 16
ENDMDL
MODEL 3
REMARK VINA RESULT:     -11.4      5.202     12.146
REMARK SMILES O=C(OCCOCCOC(=O)[C@@H]1CN(c2nc(-c3ccccc3)no2)CC[NH2+]1)c1ccc(-c2c3nc(c(-c4c(F)c(F)c(F)c(F)c4F)c4ccc([nH]4)c(-c4c(F)c(F)c(F)c(F)c4F)c4nc(c(-c5c(F)c(F)c(F)c(F)c5F)c5ccc2[nH]5)C=C4)C=C3)cc1
REMARK SMILES IDX 6 1 5 2 4 3 3 4 2 5 1 6 29 7 30 8 91 9 31 10 90 11 32 12
REMARK SMILES IDX 33 13 34 14 84 15 35 16 89 17 83 18 85 19 36 20 88 21 82 22
REMARK SMILES IDX 81 23 37 25 69 26 49 27 68 28 50 29 53 30 67 31 86 32 51 33
REMARK SMILES IDX 52 34 66 36 87 37 54 38 38 39 39 40 47 41 40 42 41 43 45 44
REMARK SMILES IDX 48 45 42 46 43 47 46 48 44 49 70 50 71 51 79 52 72 53 73 54
REMARK SMILES IDX 77 55 80 56 74 57 75 58 78 59 76 60 55 61 56 62 64 63 57 64
REMARK SMILES IDX 58 65 62 66 65 67 59 68 60 69 63 70 61 71 7 72 8 73 9 74
REMARK SMILES IDX 10 75 11 76 12 77 13 78 28 79 14 80 27 81 26 84 15 85 16 86
REMARK SMILES IDX 25 87 17 88 24 89 18 90 19 91 23 92 20 93 22 94 21 95
REMARK H PARENT 85 24 53 35 28 82 28 83
REMARK Flexibility Score: inf
ROOT
ATOM      1  O   UNL A   1      33.195  34.253  29.743  1.00  0.00    -0.374 OA
ENDROOT
BRANCH   1   2
ATOM      2  C   UNL A   1      34.386  33.475  29.588  1.00  0.00     0.202 C 
BRANCH   2   3
ATOM      3  C   UNL A   1      34.797  33.196  28.139  1.00  0.00     0.261 C 
BRANCH   3   4
ATOM      4  O   UNL A   1      34.061  32.074  27.624  1.00  0.00    -0.460 OA
BRANCH   4   5
ATOM      5  C   UNL A   1      34.354  30.756  27.693  1.00  0.00     0.338 C 
ATOM      6  O   UNL A   1      33.516  29.943  27.306  1.00  0.00    -0.246 OA
BRANCH   5   7
ATOM      7  C   UNL A   1      35.653  30.224  28.204  1.00  0.00     0.060 A 
ATOM      8  C   UNL A   1      35.846  29.655  29.464  1.00  0.00     0.016 A 
ATOM      9  C   UNL A   1      36.733  30.226  27.306  1.00  0.00     0.016 A 
ATOM     10  C   UNL A   1      37.089  29.189  29.865  1.00  0.00     0.010 A 
ATOM     11  C   UNL A   1      37.978  29.718  27.683  1.00  0.00     0.010 A 
ATOM     12  C   UNL A   1      38.162  29.227  28.978  1.00  0.00    -0.014 A 
BRANCH  12  13
ATOM     13  C   UNL A   1      39.491  28.856  29.485  1.00  0.00     0.031 A 
ATOM     14  C   UNL A   1      40.069  29.661  30.605  1.00  0.00     0.074 A 
ATOM     15  C   UNL A   1      40.093  27.748  29.022  1.00  0.00     0.049 A 
ATOM     16  N   UNL A   1      41.234  29.559  31.184  1.00  0.00    -0.248 NA
ATOM     17  C   UNL A   1      39.208  30.721  31.158  1.00  0.00     0.031 C 
ATOM     18  C   UNL A   1      39.530  26.843  28.018  1.00  0.00     0.029 A 
ATOM     19  N   UNL A   1      41.292  27.181  29.352  1.00  0.00    -0.354 N 
ATOM     20  C   UNL A   1      41.256  30.556  32.150  1.00  0.00     0.074 A 
ATOM     21  C   UNL A   1      39.992  31.254  32.081  1.00  0.00     0.031 C 
ATOM     22  C   UNL A   1      40.380  25.823  27.826  1.00  0.00     0.029 A 
ATOM     23  C   UNL A   1      41.570  26.040  28.642  1.00  0.00     0.049 A 
ATOM     24  H   UNL A   1      41.898  27.554  30.033  1.00  0.00     0.167 HD
ATOM     25  C   UNL A   1      42.258  30.861  33.005  1.00  0.00     0.037 A 
ATOM     26  C   UNL A   1      42.682  25.284  28.636  1.00  0.00     0.037 A 
ATOM     27  C   UNL A   1      43.506  30.150  33.038  1.00  0.00     0.049 A 
ATOM     28  C   UNL A   1      43.816  25.693  29.536  1.00  0.00     0.074 A 
ATOM     29  C   UNL A   1      44.631  30.401  33.799  1.00  0.00     0.029 A 
ATOM     30  N   UNL A   1      43.785  29.031  32.262  1.00  0.00    -0.354 N 
ATOM     31  N   UNL A   1      43.871  26.685  30.395  1.00  0.00    -0.248 NA
ATOM     32  C   UNL A   1      45.046  24.897  29.458  1.00  0.00     0.031 C 
ATOM     33  C   UNL A   1      45.605  29.457  33.454  1.00  0.00     0.029 A 
ATOM     34  C   UNL A   1      45.071  28.589  32.513  1.00  0.00     0.049 A 
ATOM     35  H   UNL A   1      43.159  28.615  31.626  1.00  0.00     0.167 HD
ATOM     36  C   UNL A   1      45.132  26.627  30.968  1.00  0.00     0.074 A 
ATOM     37  C   UNL A   1      45.805  25.489  30.371  1.00  0.00     0.031 C 
ATOM     38  C   UNL A   1      45.692  27.442  31.897  1.00  0.00     0.037 A 
BRANCH  25  39
ATOM     39  C   UNL A   1      42.053  32.053  33.891  1.00  0.00     0.064 A 
ATOM     40  C   UNL A   1      41.501  31.940  35.176  1.00  0.00     0.173 A 
ATOM     41  C   UNL A   1      42.361  33.339  33.420  1.00  0.00     0.173 A 
ATOM     42  F   UNL A   1      41.159  30.736  35.660  1.00  0.00    -0.203 F 
ATOM     43  C   UNL A   1      41.232  33.072  35.942  1.00  0.00     0.198 A 
ATOM     44  C   UNL A   1      42.113  34.467  34.199  1.00  0.00     0.198 A 
ATOM     45  F   UNL A   1      42.880  33.504  32.195  1.00  0.00    -0.203 F 
ATOM     46  F   UNL A   1      40.641  32.945  37.139  1.00  0.00    -0.200 F 
ATOM     47  C   UNL A   1      41.539  34.333  35.453  1.00  0.00     0.200 A 
ATOM     48  F   UNL A   1      42.411  35.685  33.725  1.00  0.00    -0.200 F 
ATOM     49  F   UNL A   1      41.264  35.423  36.185  1.00  0.00    -0.200 F 
ENDBRANCH  25  39
BRANCH  26  50
ATOM     50  C   UNL A   1      42.782  24.111  27.728  1.00  0.00     0.064 A 
ATOM     51  C   UNL A   1      43.211  24.250  26.402  1.00  0.00     0.173 A 
ATOM     52  C   UNL A   1      42.464  22.819  28.175  1.00  0.00     0.173 A 
ATOM     53  F   UNL A   1      43.507  25.465  25.917  1.00  0.00    -0.203 F 
ATOM     54  C   UNL A   1      43.312  23.145  25.557  1.00  0.00     0.198 A 
ATOM     55  C   UNL A   1      42.593  21.711  27.339  1.00  0.00     0.198 A 
ATOM     56  F   UNL A   1      42.045  22.628  29.435  1.00  0.00    -0.203 F 
ATOM     57  F   UNL A   1      43.691  23.310  24.283  1.00  0.00    -0.200 F 
ATOM     58  C   UNL A   1      43.011  21.876  26.029  1.00  0.00     0.200 A 
ATOM     59  F   UNL A   1      42.314  20.487  27.806  1.00  0.00    -0.200 F 
ATOM     60  F   UNL A   1      43.119  20.813  25.220  1.00  0.00    -0.200 F 
ENDBRANCH  26  50
BRANCH  38  61
ATOM     61  C   UNL A   1      47.084  27.107  32.338  1.00  0.00     0.064 A 
ATOM     62  C   UNL A   1      47.323  26.192  33.372  1.00  0.00     0.173 A 
ATOM     63  C   UNL A   1      48.186  27.663  31.673  1.00  0.00     0.173 A 
ATOM     64  F   UNL A   1      46.297  25.649  34.043  1.00  0.00    -0.203 F 
ATOM     65  C   UNL A   1      48.623  25.859  33.738  1.00  0.00     0.198 A 
ATOM     66  C   UNL A   1      49.484  27.307  32.025  1.00  0.00     0.198 A 
ATOM     67  F   UNL A   1      48.002  28.537  30.672  1.00  0.00    -0.203 F 
ATOM     68  F   UNL A   1      48.834  25.010  34.754  1.00  0.00    -0.200 F 
ATOM     69  C   UNL A   1      49.701  26.410  33.059  1.00  0.00     0.200 A 
ATOM     70  F   UNL A   1      50.523  27.829  31.360  1.00  0.00    -0.200 F 
ATOM     71  F   UNL A   1      50.952  26.078  33.406  1.00  0.00    -0.200 F 
ENDBRANCH  38  61
ENDBRANCH  12  13
ENDBRANCH   5   7
ENDBRANCH   4   5
ENDBRANCH   3   4
ENDBRANCH   2   3
ENDBRANCH   1   2
BRANCH   1  72
ATOM     72  C   UNL A   1      33.398  35.643  30.050  1.00  0.00     0.202 C 
BRANCH  72  73
ATOM     73  C   UNL A   1      32.660  35.997  31.343  1.00  0.00     0.261 C 
BRANCH  73  74
ATOM     74  O   UNL A   1      33.164  35.134  32.367  1.00  0.00    -0.459 OA
BRANCH  74  75
ATOM     75  C   UNL A   1      34.209  35.655  33.075  1.00  0.00     0.366 C 
ATOM     76  O   UNL A   1      34.207  36.748  33.631  1.00  0.00    -0.245 OA
BRANCH  75  77
ATOM     77  C   UNL A   1      35.329  34.624  33.163  1.00  0.00     0.313 C 
ATOM     78  C   UNL A   1      35.852  34.552  34.618  1.00  0.00     0.199 C 
ATOM     79  N   UNL A   1      36.370  34.898  32.128  1.00  0.00    -0.332 N 
ATOM     80  N   UNL A   1      37.047  33.712  34.691  1.00  0.00    -0.312 N 
ATOM     81  C   UNL A   1      37.454  33.911  32.287  1.00  0.00     0.283 C 
ATOM     82  H   UNL A   1      36.741  35.841  32.253  1.00  0.00     0.347 HD
ATOM     83  H   UNL A   1      35.965  34.827  31.194  1.00  0.00     0.347 HD
ATOM     84  C   UNL A   1      38.085  33.949  33.695  1.00  0.00     0.183 C 
BRANCH  80  85
ATOM     85  C   UNL A   1      37.340  33.048  35.824  1.00  0.00     0.324 A 
ATOM     86  N   UNL A   1      37.323  33.476  37.062  1.00  0.00    -0.171 NA
ATOM     87  O   UNL A   1      37.626  31.714  35.724  1.00  0.00    -0.315 OA
ATOM     88  C   UNL A   1      37.553  32.321  37.776  1.00  0.00     0.204 A 
ATOM     89  N   UNL A   1      37.804  31.241  37.022  1.00  0.00    -0.055 NA
BRANCH  88  90
ATOM     90  C   UNL A   1      37.380  32.236  39.214  1.00  0.00     0.023 A 
ATOM     91  C   UNL A   1      36.438  31.365  39.773  1.00  0.00     0.012 A 
ATOM     92  C   UNL A   1      38.100  33.104  40.047  1.00  0.00     0.012 A 
ATOM     93  C   UNL A   1      36.217  31.367  41.153  1.00  0.00     0.001 A 
ATOM     94  C   UNL A   1      37.864  33.115  41.423  1.00  0.00     0.001 A 
ATOM     95  C   UNL A   1      36.922  32.247  41.974  1.00  0.00     0.000 A 
ENDBRANCH  88  90
ENDBRANCH  80  85
ENDBRANCH  75  77
ENDBRANCH  74  75
ENDBRANCH  73  74
ENDBRANCH  72  73
ENDBRANCH   1  72
TORSDOF 16
ENDMDL
