MODEL 1
REMARK VINA RESULT:     -12.1      0.000      0.000
REMARK SMILES Cc1n[nH]c2c1[C@@]1(C(=O)N([C@@H](C)C(=O)OCCOCCOC(=O)c3ccc(-c4c5nc(c(-c6c(F)c(F)c(F)c(F)c6F)c6ccc([nH]6)c(-c6c(F)c(F)c(F)c(F)c6F)c6nc(c(-c7c(F)c(F)c(F)c(F)c7F)c7ccc4[nH]7)C=C6)C=C5)cc3)c3ccccc31)C(C#N)=C(N)O2
REMARK SMILES IDX 18 1 17 2 16 3 15 4 13 5 14 6 11 7 12 8 10 9 1 10 2 11 3 12
REMARK SMILES IDX 6 13 4 14 5 15 7 16 98 18 8 19 92 20 93 21 96 22 9 23 87 24
REMARK SMILES IDX 91 25 88 26 90 27 89 28 94 29 95 30 97 31 19 34 20 35 21 36
REMARK SMILES IDX 22 37 23 38 24 39 25 40 86 41 26 42 85 43 27 44 28 45 29 46
REMARK SMILES IDX 79 47 30 48 84 49 78 50 80 51 31 52 83 53 77 54 76 55 32 57
REMARK SMILES IDX 64 58 44 59 63 60 45 61 48 62 62 63 81 64 46 65 47 66 61 68
REMARK SMILES IDX 82 69 49 70 33 71 34 72 42 73 35 74 36 75 40 76 43 77 37 78
REMARK SMILES IDX 38 79 41 80 39 81 65 82 66 83 74 84 67 85 68 86 72 87 75 88
REMARK SMILES IDX 69 89 70 90 73 91 71 92 50 93 51 94 59 95 52 96 53 97 57 98
REMARK SMILES IDX 60 99 54 100 55 101 58 102 56 103
REMARK H PARENT 4 17 97 32 97 33 80 56 48 67
REMARK Flexibility Score: inf
ROOT
ATOM      1  O   UNL A   1      33.771  36.004  29.614  1.00  0.00    -0.374 OA
ENDROOT
BRANCH   1   2
ATOM      2  C   UNL A   1      32.802  36.321  30.602  1.00  0.00     0.202 C 
BRANCH   2   3
ATOM      3  C   UNL A   1      33.273  36.992  31.896  1.00  0.00     0.261 C 
BRANCH   3   4
ATOM      4  O   UNL A   1      34.528  36.482  32.358  1.00  0.00    -0.462 OA
BRANCH   4   5
ATOM      5  C   UNL A   1      34.491  35.188  32.746  1.00  0.00     0.329 C 
ATOM      6  O   UNL A   1      33.603  34.695  33.438  1.00  0.00    -0.250 OA
BRANCH   5   7
ATOM      7  C   UNL A   1      35.684  34.353  32.278  1.00  0.00     0.197 C 
ATOM      8  C   UNL A   1      35.118  32.999  31.852  1.00  0.00     0.044 C 
BRANCH   7   9
ATOM      9  N   UNL A   1      36.923  34.224  33.082  1.00  0.00    -0.297 N 
ATOM     10  C   UNL A   1      37.490  30.663  33.007  1.00  0.00     0.069 C 
ATOM     11  C   UNL A   1      38.256  30.807  34.266  1.00  0.00     0.068 A 
ATOM     12  N   UNL A   1      38.613  29.699  34.936  1.00  0.00    -0.177 NA
ATOM     13  C   UNL A   1      38.641  31.984  34.958  1.00  0.00     0.063 A 
ATOM     14  N   UNL A   1      39.152  30.159  36.077  1.00  0.00    -0.246 N 
ATOM     15  C   UNL A   1      39.144  31.513  36.145  1.00  0.00     0.222 A 
ATOM     16  C   UNL A   1      38.511  33.466  34.743  1.00  0.00     0.149 C 
ATOM     17  H   UNL A   1      39.513  29.579  36.785  1.00  0.00     0.193 HD
ATOM     18  O   UNL A   1      39.542  32.201  37.204  1.00  0.00    -0.422 OA
ATOM     19  C   UNL A   1      37.003  33.817  34.433  1.00  0.00     0.248 C 
ATOM     20  C   UNL A   1      39.169  33.774  33.416  1.00  0.00     0.002 A 
ATOM     21  C   UNL A   1      39.150  34.217  35.927  1.00  0.00     0.114 C 
ATOM     22  C   UNL A   1      39.584  33.591  37.059  1.00  0.00     0.208 C 
ATOM     23  O   UNL A   1      36.060  33.681  35.200  1.00  0.00    -0.273 OA
ATOM     24  C   UNL A   1      38.213  34.237  32.501  1.00  0.00     0.050 A 
ATOM     25  C   UNL A   1      40.517  33.701  33.073  1.00  0.00     0.008 A 
ATOM     26  C   UNL A   1      38.592  34.628  31.225  1.00  0.00     0.027 A 
ATOM     27  C   UNL A   1      40.901  34.104  31.796  1.00  0.00     0.001 A 
ATOM     28  C   UNL A   1      39.947  34.566  30.880  1.00  0.00     0.002 A 
BRANCH  21  29
ATOM     29  C   UNL A   1      39.562  35.564  35.758  1.00  0.00     0.102 C 
ATOM     30  N   UNL A   1      39.895  36.684  35.759  1.00  0.00    -0.193 NA
ENDBRANCH  21  29
BRANCH  22  31
ATOM     31  N   UNL A   1      40.171  34.212  38.126  1.00  0.00    -0.369 N 
ATOM     32  H   UNL A   1      40.346  35.180  38.096  1.00  0.00     0.159 HD
ATOM     33  H   UNL A   1      40.419  33.691  38.923  1.00  0.00     0.159 HD
ENDBRANCH  22  31
ENDBRANCH   7   9
ENDBRANCH   5   7
ENDBRANCH   4   5
ENDBRANCH   3   4
ENDBRANCH   2   3
ENDBRANCH   1   2
BRANCH   1  34
ATOM     34  C   UNL A   1      33.699  34.727  28.986  1.00  0.00     0.202 C 
BRANCH  34  35
ATOM     35  C   UNL A   1      34.716  34.332  27.898  1.00  0.00     0.261 C 
BRANCH  35  36
ATOM     36  O   UNL A   1      35.715  33.391  28.336  1.00  0.00    -0.460 OA
BRANCH  36  37
ATOM     37  C   UNL A   1      35.393  32.072  28.196  1.00  0.00     0.338 C 
ATOM     38  O   UNL A   1      34.530  31.587  27.487  1.00  0.00    -0.246 OA
BRANCH  37  39
ATOM     39  C   UNL A   1      36.540  31.293  28.712  1.00  0.00     0.060 A 
ATOM     40  C   UNL A   1      37.660  31.901  29.279  1.00  0.00     0.016 A 
ATOM     41  C   UNL A   1      36.580  29.947  28.309  1.00  0.00     0.016 A 
ATOM     42  C   UNL A   1      38.860  31.188  29.307  1.00  0.00     0.010 A 
ATOM     43  C   UNL A   1      37.787  29.260  28.294  1.00  0.00     0.010 A 
ATOM     44  C   UNL A   1      38.945  29.901  28.729  1.00  0.00    -0.014 A 
BRANCH  44  45
ATOM     45  C   UNL A   1      40.212  29.159  28.803  1.00  0.00     0.031 A 
ATOM     46  C   UNL A   1      40.578  28.885  30.223  1.00  0.00     0.074 A 
ATOM     47  C   UNL A   1      40.939  28.661  27.770  1.00  0.00     0.049 A 
ATOM     48  N   UNL A   1      41.590  29.359  30.870  1.00  0.00    -0.248 NA
ATOM     49  C   UNL A   1      39.615  28.164  31.074  1.00  0.00     0.031 C 
ATOM     50  C   UNL A   1      40.635  28.643  26.337  1.00  0.00     0.029 A 
ATOM     51  N   UNL A   1      42.148  28.006  27.809  1.00  0.00    -0.354 N 
ATOM     52  C   UNL A   1      41.487  28.874  32.172  1.00  0.00     0.074 A 
ATOM     53  C   UNL A   1      40.191  28.260  32.274  1.00  0.00     0.031 C 
ATOM     54  C   UNL A   1      41.506  27.828  25.684  1.00  0.00     0.029 A 
ATOM     55  C   UNL A   1      42.526  27.375  26.614  1.00  0.00     0.049 A 
ATOM     56  H   UNL A   1      42.709  27.981  28.618  1.00  0.00     0.167 HD
ATOM     57  C   UNL A   1      42.572  28.865  32.995  1.00  0.00     0.037 A 
ATOM     58  C   UNL A   1      43.605  26.560  26.412  1.00  0.00     0.037 A 
ATOM     59  C   UNL A   1      43.585  29.759  32.499  1.00  0.00     0.049 A 
ATOM     60  C   UNL A   1      44.580  26.865  27.487  1.00  0.00     0.074 A 
ATOM     61  C   UNL A   1      43.695  31.127  32.360  1.00  0.00     0.029 A 
ATOM     62  N   UNL A   1      44.560  29.218  31.701  1.00  0.00    -0.354 N 
ATOM     63  N   UNL A   1      45.210  28.001  27.577  1.00  0.00    -0.248 NA
ATOM     64  C   UNL A   1      44.456  26.100  28.717  1.00  0.00     0.031 C 
ATOM     65  C   UNL A   1      44.401  31.317  31.135  1.00  0.00     0.029 A 
ATOM     66  C   UNL A   1      44.759  30.062  30.644  1.00  0.00     0.049 A 
ATOM     67  H   UNL A   1      45.034  28.370  31.862  1.00  0.00     0.167 HD
ATOM     68  C   UNL A   1      45.152  28.313  28.924  1.00  0.00     0.074 A 
ATOM     69  C   UNL A   1      44.696  27.087  29.583  1.00  0.00     0.031 C 
ATOM     70  C   UNL A   1      45.187  29.609  29.344  1.00  0.00     0.037 A 
BRANCH  57  71
ATOM     71  C   UNL A   1      42.894  27.781  33.997  1.00  0.00     0.064 A 
ATOM     72  C   UNL A   1      43.303  26.518  33.514  1.00  0.00     0.173 A 
ATOM     73  C   UNL A   1      42.507  27.814  35.352  1.00  0.00     0.173 A 
ATOM     74  F   UNL A   1      43.702  26.365  32.243  1.00  0.00    -0.203 F 
ATOM     75  C   UNL A   1      43.213  25.363  34.294  1.00  0.00     0.198 A 
ATOM     76  C   UNL A   1      42.462  26.665  36.140  1.00  0.00     0.198 A 
ATOM     77  F   UNL A   1      42.057  28.927  35.941  1.00  0.00    -0.203 F 
ATOM     78  F   UNL A   1      43.478  24.169  33.747  1.00  0.00    -0.200 F 
ATOM     79  C   UNL A   1      42.778  25.435  35.603  1.00  0.00     0.200 A 
ATOM     80  F   UNL A   1      42.025  26.752  37.405  1.00  0.00    -0.200 F 
ATOM     81  F   UNL A   1      42.621  24.322  36.331  1.00  0.00    -0.200 F 
ENDBRANCH  57  71
BRANCH  58  82
ATOM     82  C   UNL A   1      43.716  25.279  25.649  1.00  0.00     0.064 A 
ATOM     83  C   UNL A   1      44.910  24.909  24.991  1.00  0.00     0.173 A 
ATOM     84  C   UNL A   1      42.782  24.245  25.845  1.00  0.00     0.173 A 
ATOM     85  F   UNL A   1      45.886  25.810  24.802  1.00  0.00    -0.203 F 
ATOM     86  C   UNL A   1      45.161  23.587  24.589  1.00  0.00     0.198 A 
ATOM     87  C   UNL A   1      43.036  22.927  25.448  1.00  0.00     0.198 A 
ATOM     88  F   UNL A   1      41.648  24.474  26.521  1.00  0.00    -0.203 F 
ATOM     89  F   UNL A   1      46.336  23.265  24.025  1.00  0.00    -0.200 F 
ATOM     90  C   UNL A   1      44.230  22.594  24.834  1.00  0.00     0.200 A 
ATOM     91  F   UNL A   1      42.145  21.966  25.731  1.00  0.00    -0.200 F 
ATOM     92  F   UNL A   1      44.496  21.317  24.522  1.00  0.00    -0.200 F 
ENDBRANCH  58  82
BRANCH  70  93
ATOM     93  C   UNL A   1      45.510  30.672  28.333  1.00  0.00     0.064 A 
ATOM     94  C   UNL A   1      44.557  31.293  27.503  1.00  0.00     0.173 A 
ATOM     95  C   UNL A   1      46.805  31.205  28.339  1.00  0.00     0.173 A 
ATOM     96  F   UNL A   1      43.278  30.896  27.502  1.00  0.00    -0.203 F 
ATOM     97  C   UNL A   1      44.899  32.385  26.705  1.00  0.00     0.198 A 
ATOM     98  C   UNL A   1      47.133  32.316  27.570  1.00  0.00     0.198 A 
ATOM     99  F   UNL A   1      47.738  30.681  29.148  1.00  0.00    -0.203 F 
ATOM    100  F   UNL A   1      43.975  32.966  25.926  1.00  0.00    -0.200 F 
ATOM    101  C   UNL A   1      46.184  32.904  26.750  1.00  0.00     0.200 A 
ATOM    102  F   UNL A   1      48.362  32.843  27.658  1.00  0.00    -0.200 F 
ATOM    103  F   UNL A   1      46.501  33.986  26.026  1.00  0.00    -0.200 F 
ENDBRANCH  70  93
ENDBRANCH  44  45
ENDBRANCH  37  39
ENDBRANCH  36  37
ENDBRANCH  35  36
ENDBRANCH  34  35
ENDBRANCH   1  34
TORSDOF 17
ENDMDL
MODEL 2
REMARK VINA RESULT:     -11.4      5.561     11.593
REMARK SMILES Cc1n[nH]c2c1[C@@]1(C(=O)N([C@@H](C)C(=O)OCCOCCOC(=O)c3ccc(-c4c5nc(c(-c6c(F)c(F)c(F)c(F)c6F)c6ccc([nH]6)c(-c6c(F)c(F)c(F)c(F)c6F)c6nc(c(-c7c(F)c(F)c(F)c(F)c7F)c7ccc4[nH]7)C=C6)C=C5)cc3)c3ccccc31)C(C#N)=C(N)O2
REMARK SMILES IDX 18 1 17 2 16 3 15 4 13 5 14 6 11 7 12 8 10 9 1 10 2 11 3 12
REMARK SMILES IDX 6 13 4 14 5 15 7 16 98 18 8 19 92 20 93 21 96 22 9 23 87 24
REMARK SMILES IDX 91 25 88 26 90 27 89 28 94 29 95 30 97 31 19 34 20 35 21 36
REMARK SMILES IDX 22 37 23 38 24 39 25 40 86 41 26 42 85 43 27 44 28 45 29 46
REMARK SMILES IDX 79 47 30 48 84 49 78 50 80 51 31 52 83 53 77 54 76 55 32 57
REMARK SMILES IDX 64 58 44 59 63 60 45 61 48 62 62 63 81 64 46 65 47 66 61 68
REMARK SMILES IDX 82 69 49 70 33 71 34 72 42 73 35 74 36 75 40 76 43 77 37 78
REMARK SMILES IDX 38 79 41 80 39 81 65 82 66 83 74 84 67 85 68 86 72 87 75 88
REMARK SMILES IDX 69 89 70 90 73 91 71 92 50 93 51 94 59 95 52 96 53 97 57 98
REMARK SMILES IDX 60 99 54 100 55 101 58 102 56 103
REMARK H PARENT 4 17 97 32 97 33 80 56 48 67
REMARK Flexibility Score: inf
ROOT
ATOM      1  O   UNL A   1      39.283  21.847  26.534  1.00  0.00    -0.374 OA
ENDROOT
BRANCH   1   2
ATOM      2  C   UNL A   1      38.124  22.137  25.767  1.00  0.00     0.202 C 
BRANCH   2   3
ATOM      3  C   UNL A   1      37.220  20.975  25.345  1.00  0.00     0.261 C 
BRANCH   3   4
ATOM      4  O   UNL A   1      36.035  21.412  24.671  1.00  0.00    -0.462 OA
BRANCH   4   5
ATOM      5  C   UNL A   1      34.902  21.265  25.392  1.00  0.00     0.329 C 
ATOM      6  O   UNL A   1      34.109  20.334  25.259  1.00  0.00    -0.250 OA
BRANCH   5   7
ATOM      7  C   UNL A   1      34.642  22.388  26.397  1.00  0.00     0.197 C 
ATOM      8  C   UNL A   1      34.015  21.726  27.624  1.00  0.00     0.044 C 
BRANCH   7   9
ATOM      9  N   UNL A   1      33.957  23.646  26.017  1.00  0.00    -0.297 N 
ATOM     10  C   UNL A   1      33.033  22.985  22.594  1.00  0.00     0.069 C 
ATOM     11  C   UNL A   1      33.011  24.447  22.367  1.00  0.00     0.068 A 
ATOM     12  N   UNL A   1      32.910  24.906  21.109  1.00  0.00    -0.177 NA
ATOM     13  C   UNL A   1      33.154  25.507  23.300  1.00  0.00     0.063 A 
ATOM     14  N   UNL A   1      33.062  26.235  21.225  1.00  0.00    -0.246 N 
ATOM     15  C   UNL A   1      33.254  26.624  22.509  1.00  0.00     0.222 A 
ATOM     16  C   UNL A   1      33.325  25.633  24.788  1.00  0.00     0.149 C 
ATOM     17  H   UNL A   1      33.036  26.858  20.464  1.00  0.00     0.193 HD
ATOM     18  O   UNL A   1      33.513  27.872  22.872  1.00  0.00    -0.422 OA
ATOM     19  C   UNL A   1      34.511  24.701  25.256  1.00  0.00     0.248 C 
ATOM     20  C   UNL A   1      32.136  24.947  25.425  1.00  0.00     0.002 A 
ATOM     21  C   UNL A   1      33.444  27.121  25.170  1.00  0.00     0.114 C 
ATOM     22  C   UNL A   1      33.560  28.120  24.247  1.00  0.00     0.208 C 
ATOM     23  O   UNL A   1      35.688  24.824  24.946  1.00  0.00    -0.273 OA
ATOM     24  C   UNL A   1      32.559  23.823  26.148  1.00  0.00     0.050 A 
ATOM     25  C   UNL A   1      30.796  25.328  25.406  1.00  0.00     0.008 A 
ATOM     26  C   UNL A   1      31.646  23.059  26.858  1.00  0.00     0.027 A 
ATOM     27  C   UNL A   1      29.879  24.569  26.128  1.00  0.00     0.001 A 
ATOM     28  C   UNL A   1      30.300  23.444  26.850  1.00  0.00     0.002 A 
BRANCH  21  29
ATOM     29  C   UNL A   1      33.157  27.526  26.499  1.00  0.00     0.102 C 
ATOM     30  N   UNL A   1      32.809  27.926  27.540  1.00  0.00    -0.193 NA
ENDBRANCH  21  29
BRANCH  22  31
ATOM     31  N   UNL A   1      33.651  29.452  24.536  1.00  0.00    -0.369 N 
ATOM     32  H   UNL A   1      33.101  30.102  24.042  1.00  0.00     0.159 HD
ATOM     33  H   UNL A   1      34.267  29.762  25.238  1.00  0.00     0.159 HD
ENDBRANCH  22  31
ENDBRANCH   7   9
ENDBRANCH   5   7
ENDBRANCH   4   5
ENDBRANCH   3   4
ENDBRANCH   2   3
ENDBRANCH   1   2
BRANCH   1  34
ATOM     34  C   UNL A   1      40.107  20.759  26.125  1.00  0.00     0.202 C 
BRANCH  34  35
ATOM     35  C   UNL A   1      41.641  20.890  26.142  1.00  0.00     0.261 C 
BRANCH  35  36
ATOM     36  O   UNL A   1      42.130  22.018  26.893  1.00  0.00    -0.460 OA
BRANCH  36  37
ATOM     37  C   UNL A   1      42.347  23.161  26.178  1.00  0.00     0.338 C 
ATOM     38  O   UNL A   1      42.664  23.257  25.006  1.00  0.00    -0.246 OA
BRANCH  37  39
ATOM     39  C   UNL A   1      41.718  24.265  26.933  1.00  0.00     0.060 A 
ATOM     40  C   UNL A   1      40.736  25.085  26.377  1.00  0.00     0.016 A 
ATOM     41  C   UNL A   1      42.387  24.643  28.110  1.00  0.00     0.016 A 
ATOM     42  C   UNL A   1      40.532  26.349  26.933  1.00  0.00     0.010 A 
ATOM     43  C   UNL A   1      42.215  25.920  28.630  1.00  0.00     0.010 A 
ATOM     44  C   UNL A   1      41.338  26.802  28.003  1.00  0.00    -0.014 A 
BRANCH  44  45
ATOM     45  C   UNL A   1      41.078  28.123  28.593  1.00  0.00     0.031 A 
ATOM     46  C   UNL A   1      42.127  29.100  28.178  1.00  0.00     0.074 A 
ATOM     47  C   UNL A   1      40.000  28.503  29.325  1.00  0.00     0.049 A 
ATOM     48  N   UNL A   1      43.001  29.672  28.938  1.00  0.00    -0.248 NA
ATOM     49  C   UNL A   1      42.359  29.318  26.739  1.00  0.00     0.031 C 
ATOM     50  C   UNL A   1      38.781  27.756  29.650  1.00  0.00     0.029 A 
ATOM     51  N   UNL A   1      39.755  29.715  29.927  1.00  0.00    -0.354 N 
ATOM     52  C   UNL A   1      43.800  30.449  28.103  1.00  0.00     0.074 A 
ATOM     53  C   UNL A   1      43.447  30.090  26.756  1.00  0.00     0.031 C 
ATOM     54  C   UNL A   1      37.852  28.589  30.187  1.00  0.00     0.029 A 
ATOM     55  C   UNL A   1      38.443  29.901  30.387  1.00  0.00     0.049 A 
ATOM     56  H   UNL A   1      40.451  30.404  30.028  1.00  0.00     0.167 HD
ATOM     57  C   UNL A   1      44.555  31.461  28.613  1.00  0.00     0.037 A 
ATOM     58  C   UNL A   1      37.901  31.044  30.906  1.00  0.00     0.037 A 
ATOM     59  C   UNL A   1      44.717  31.299  30.035  1.00  0.00     0.049 A 
ATOM     60  C   UNL A   1      39.031  31.877  31.385  1.00  0.00     0.074 A 
ATOM     61  C   UNL A   1      45.371  30.394  30.844  1.00  0.00     0.029 A 
ATOM     62  N   UNL A   1      43.827  31.956  30.844  1.00  0.00    -0.354 N 
ATOM     63  N   UNL A   1      39.784  31.545  32.394  1.00  0.00    -0.248 NA
ATOM     64  C   UNL A   1      39.613  32.799  30.425  1.00  0.00     0.031 C 
ATOM     65  C   UNL A   1      44.516  30.223  31.972  1.00  0.00     0.029 A 
ATOM     66  C   UNL A   1      43.436  31.095  31.832  1.00  0.00     0.049 A 
ATOM     67  H   UNL A   1      43.522  32.886  30.733  1.00  0.00     0.167 HD
ATOM     68  C   UNL A   1      41.068  31.833  31.965  1.00  0.00     0.074 A 
ATOM     69  C   UNL A   1      40.897  32.631  30.749  1.00  0.00     0.031 C 
ATOM     70  C   UNL A   1      42.140  31.151  32.459  1.00  0.00     0.037 A 
BRANCH  57  71
ATOM     71  C   UNL A   1      44.804  32.787  27.934  1.00  0.00     0.064 A 
ATOM     72  C   UNL A   1      46.099  33.057  27.437  1.00  0.00     0.173 A 
ATOM     73  C   UNL A   1      43.954  33.907  28.046  1.00  0.00     0.173 A 
ATOM     74  F   UNL A   1      46.992  32.070  27.278  1.00  0.00    -0.203 F 
ATOM     75  C   UNL A   1      46.541  34.358  27.190  1.00  0.00     0.198 A 
ATOM     76  C   UNL A   1      44.386  35.200  27.755  1.00  0.00     0.198 A 
ATOM     77  F   UNL A   1      42.714  33.818  28.538  1.00  0.00    -0.203 F 
ATOM     78  F   UNL A   1      47.820  34.574  26.856  1.00  0.00    -0.200 F 
ATOM     79  C   UNL A   1      45.688  35.431  27.363  1.00  0.00     0.200 A 
ATOM     80  F   UNL A   1      43.549  36.231  27.940  1.00  0.00    -0.200 F 
ATOM     81  F   UNL A   1      46.128  36.685  27.198  1.00  0.00    -0.200 F 
ENDBRANCH  57  71
BRANCH  58  82
ATOM     82  C   UNL A   1      36.564  31.671  30.669  1.00  0.00     0.064 A 
ATOM     83  C   UNL A   1      35.730  32.066  31.739  1.00  0.00     0.173 A 
ATOM     84  C   UNL A   1      36.238  32.208  29.411  1.00  0.00     0.173 A 
ATOM     85  F   UNL A   1      35.989  31.650  32.988  1.00  0.00    -0.203 F 
ATOM     86  C   UNL A   1      34.666  32.965  31.562  1.00  0.00     0.198 A 
ATOM     87  C   UNL A   1      35.179  33.108  29.237  1.00  0.00     0.198 A 
ATOM     88  F   UNL A   1      37.006  31.952  28.344  1.00  0.00    -0.203 F 
ATOM     89  F   UNL A   1      33.939  33.366  32.616  1.00  0.00    -0.200 F 
ATOM     90  C   UNL A   1      34.403  33.498  30.313  1.00  0.00     0.200 A 
ATOM     91  F   UNL A   1      34.962  33.651  28.031  1.00  0.00    -0.200 F 
ATOM     92  F   UNL A   1      33.437  34.415  30.152  1.00  0.00    -0.200 F 
ENDBRANCH  58  82
BRANCH  70  93
ATOM     93  C   UNL A   1      41.919  30.239  33.632  1.00  0.00     0.064 A 
ATOM     94  C   UNL A   1      41.560  28.883  33.525  1.00  0.00     0.173 A 
ATOM     95  C   UNL A   1      42.264  30.717  34.902  1.00  0.00     0.173 A 
ATOM     96  F   UNL A   1      41.297  28.330  32.334  1.00  0.00    -0.203 F 
ATOM     97  C   UNL A   1      41.532  28.054  34.647  1.00  0.00     0.198 A 
ATOM     98  C   UNL A   1      42.270  29.879  36.013  1.00  0.00     0.198 A 
ATOM     99  F   UNL A   1      42.661  31.990  35.052  1.00  0.00    -0.203 F 
ATOM    100  F   UNL A   1      41.192  26.762  34.523  1.00  0.00    -0.200 F 
ATOM    101  C   UNL A   1      41.900  28.550  35.888  1.00  0.00     0.200 A 
ATOM    102  F   UNL A   1      42.677  30.354  37.198  1.00  0.00    -0.200 F 
ATOM    103  F   UNL A   1      41.926  27.744  36.958  1.00  0.00    -0.200 F 
ENDBRANCH  70  93
ENDBRANCH  44  45
ENDBRANCH  37  39
ENDBRANCH  36  37
ENDBRANCH  35  36
ENDBRANCH  34  35
ENDBRANCH   1  34
TORSDOF 17
ENDMDL
MODEL 3
REMARK VINA RESULT:     -11.3      4.409      7.440
REMARK SMILES Cc1n[nH]c2c1[C@@]1(C(=O)N([C@@H](C)C(=O)OCCOCCOC(=O)c3ccc(-c4c5nc(c(-c6c(F)c(F)c(F)c(F)c6F)c6ccc([nH]6)c(-c6c(F)c(F)c(F)c(F)c6F)c6nc(c(-c7c(F)c(F)c(F)c(F)c7F)c7ccc4[nH]7)C=C6)C=C5)cc3)c3ccccc31)C(C#N)=C(N)O2
REMARK SMILES IDX 18 1 17 2 16 3 15 4 13 5 14 6 11 7 12 8 10 9 1 10 2 11 3 12
REMARK SMILES IDX 6 13 4 14 5 15 7 16 98 18 8 19 92 20 93 21 96 22 9 23 87 24
REMARK SMILES IDX 91 25 88 26 90 27 89 28 94 29 95 30 97 31 19 34 20 35 21 36
REMARK SMILES IDX 22 37 23 38 24 39 25 40 86 41 26 42 85 43 27 44 28 45 29 46
REMARK SMILES IDX 79 47 30 48 84 49 78 50 80 51 31 52 83 53 77 54 76 55 32 57
REMARK SMILES IDX 64 58 44 59 63 60 45 61 48 62 62 63 81 64 46 65 47 66 61 68
REMARK SMILES IDX 82 69 49 70 33 71 34 72 42 73 35 74 36 75 40 76 43 77 37 78
REMARK SMILES IDX 38 79 41 80 39 81 65 82 66 83 74 84 67 85 68 86 72 87 75 88
REMARK SMILES IDX 69 89 70 90 73 91 71 92 50 93 51 94 59 95 52 96 53 97 57 98
REMARK SMILES IDX 60 99 54 100 55 101 58 102 56 103
REMARK H PARENT 4 17 97 32 97 33 80 56 48 67
REMARK Flexibility Score: inf
ROOT
ATOM      1  O   UNL A   1      31.505  32.465  26.998  1.00  0.00    -0.374 OA
ENDROOT
BRANCH   1   2
ATOM      2  C   UNL A   1      31.039  31.579  25.990  1.00  0.00     0.202 C 
BRANCH   2   3
ATOM      3  C   UNL A   1      31.808  30.276  25.753  1.00  0.00     0.261 C 
BRANCH   3   4
ATOM      4  O   UNL A   1      31.106  29.366  24.900  1.00  0.00    -0.462 OA
BRANCH   4   5
ATOM      5  C   UNL A   1      31.786  29.013  23.787  1.00  0.00     0.329 C 
ATOM      6  O   UNL A   1      31.367  29.159  22.640  1.00  0.00    -0.250 OA
BRANCH   5   7
ATOM      7  C   UNL A   1      33.147  28.368  24.055  1.00  0.00     0.197 C 
ATOM      8  C   UNL A   1      34.066  28.821  22.922  1.00  0.00     0.044 C 
BRANCH   7   9
ATOM      9  N   UNL A   1      33.291  26.925  24.361  1.00  0.00    -0.297 N 
ATOM     10  C   UNL A   1      29.881  25.968  25.044  1.00  0.00     0.069 C 
ATOM     11  C   UNL A   1      30.408  24.846  25.854  1.00  0.00     0.068 A 
ATOM     12  N   UNL A   1      29.556  24.145  26.621  1.00  0.00    -0.177 NA
ATOM     13  C   UNL A   1      31.747  24.404  26.019  1.00  0.00     0.063 A 
ATOM     14  N   UNL A   1      30.346  23.316  27.324  1.00  0.00    -0.246 N 
ATOM     15  C   UNL A   1      31.659  23.473  27.025  1.00  0.00     0.222 A 
ATOM     16  C   UNL A   1      33.095  24.786  25.477  1.00  0.00     0.149 C 
ATOM     17  H   UNL A   1      30.009  22.667  27.982  1.00  0.00     0.193 HD
ATOM     18  O   UNL A   1      32.639  22.833  27.644  1.00  0.00    -0.422 OA
ATOM     19  C   UNL A   1      33.303  26.343  25.650  1.00  0.00     0.248 C 
ATOM     20  C   UNL A   1      33.013  24.660  23.971  1.00  0.00     0.002 A 
ATOM     21  C   UNL A   1      34.177  23.887  26.104  1.00  0.00     0.114 C 
ATOM     22  C   UNL A   1      33.925  23.020  27.127  1.00  0.00     0.208 C 
ATOM     23  O   UNL A   1      33.378  26.945  26.711  1.00  0.00    -0.273 OA
ATOM     24  C   UNL A   1      33.162  25.919  23.374  1.00  0.00     0.050 A 
ATOM     25  C   UNL A   1      32.873  23.509  23.199  1.00  0.00     0.008 A 
ATOM     26  C   UNL A   1      33.167  26.047  21.993  1.00  0.00     0.027 A 
ATOM     27  C   UNL A   1      32.890  23.634  21.812  1.00  0.00     0.001 A 
ATOM     28  C   UNL A   1      33.038  24.892  21.213  1.00  0.00     0.002 A 
BRANCH  21  29
ATOM     29  C   UNL A   1      35.424  23.731  25.445  1.00  0.00     0.102 C 
ATOM     30  N   UNL A   1      36.478  23.735  24.940  1.00  0.00    -0.193 NA
ENDBRANCH  21  29
BRANCH  22  31
ATOM     31  N   UNL A   1      34.846  22.192  27.703  1.00  0.00    -0.369 N 
ATOM     32  H   UNL A   1      35.070  22.292  28.657  1.00  0.00     0.159 HD
ATOM     33  H   UNL A   1      35.287  21.496  27.165  1.00  0.00     0.159 HD
ENDBRANCH  22  31
ENDBRANCH   7   9
ENDBRANCH   5   7
ENDBRANCH   4   5
ENDBRANCH   3   4
ENDBRANCH   2   3
ENDBRANCH   1   2
BRANCH   1  34
ATOM     34  C   UNL A   1      32.848  32.320  27.453  1.00  0.00     0.202 C 
BRANCH  34  35
ATOM     35  C   UNL A   1      33.587  33.509  28.096  1.00  0.00     0.261 C 
BRANCH  35  36
ATOM     36  O   UNL A   1      34.997  33.290  28.295  1.00  0.00    -0.460 OA
BRANCH  36  37
ATOM     37  C   UNL A   1      35.337  32.551  29.391  1.00  0.00     0.338 C 
ATOM     38  O   UNL A   1      34.656  32.321  30.374  1.00  0.00    -0.246 OA
BRANCH  37  39
ATOM     39  C   UNL A   1      36.498  31.720  29.006  1.00  0.00     0.060 A 
ATOM     40  C   UNL A   1      36.367  30.380  28.639  1.00  0.00     0.016 A 
ATOM     41  C   UNL A   1      37.754  32.254  29.340  1.00  0.00     0.016 A 
ATOM     42  C   UNL A   1      37.484  29.550  28.748  1.00  0.00     0.010 A 
ATOM     43  C   UNL A   1      38.850  31.414  29.492  1.00  0.00     0.010 A 
ATOM     44  C   UNL A   1      38.702  30.048  29.264  1.00  0.00    -0.014 A 
BRANCH  44  45
ATOM     45  C   UNL A   1      39.873  29.161  29.334  1.00  0.00     0.031 A 
ATOM     46  C   UNL A   1      40.233  28.876  30.754  1.00  0.00     0.074 A 
ATOM     47  C   UNL A   1      40.515  28.558  28.301  1.00  0.00     0.049 A 
ATOM     48  N   UNL A   1      41.307  29.240  31.371  1.00  0.00    -0.248 NA
ATOM     49  C   UNL A   1      39.208  28.294  31.638  1.00  0.00     0.031 C 
ATOM     50  C   UNL A   1      40.181  28.544  26.874  1.00  0.00     0.029 A 
ATOM     51  N   UNL A   1      41.637  27.763  28.334  1.00  0.00    -0.354 N 
ATOM     52  C   UNL A   1      41.173  28.799  32.686  1.00  0.00     0.074 A 
ATOM     53  C   UNL A   1      39.815  28.346  32.825  1.00  0.00     0.031 C 
ATOM     54  C   UNL A   1      40.935  27.618  26.226  1.00  0.00     0.029 A 
ATOM     55  C   UNL A   1      41.913  27.066  27.148  1.00  0.00     0.049 A 
ATOM     56  H   UNL A   1      42.208  27.689  29.134  1.00  0.00     0.167 HD
ATOM     57  C   UNL A   1      42.265  28.678  33.490  1.00  0.00     0.037 A 
ATOM     58  C   UNL A   1      42.883  26.124  26.948  1.00  0.00     0.037 A 
ATOM     59  C   UNL A   1      43.368  29.434  32.955  1.00  0.00     0.049 A 
ATOM     60  C   UNL A   1      43.909  26.333  27.998  1.00  0.00     0.074 A 
ATOM     61  C   UNL A   1      43.637  30.776  32.781  1.00  0.00     0.029 A 
ATOM     62  N   UNL A   1      44.255  28.763  32.154  1.00  0.00    -0.354 N 
ATOM     63  N   UNL A   1      44.672  27.387  28.049  1.00  0.00    -0.248 NA
ATOM     64  C   UNL A   1      43.719  25.616  29.247  1.00  0.00     0.031 C 
ATOM     65  C   UNL A   1      44.335  30.853  31.540  1.00  0.00     0.029 A 
ATOM     66  C   UNL A   1      44.532  29.554  31.073  1.00  0.00     0.049 A 
ATOM     67  H   UNL A   1      44.628  27.868  32.326  1.00  0.00     0.167 HD
ATOM     68  C   UNL A   1      44.678  27.733  29.389  1.00  0.00     0.074 A 
ATOM     69  C   UNL A   1      44.093  26.586  30.085  1.00  0.00     0.031 C 
ATOM     70  C   UNL A   1      44.876  29.025  29.777  1.00  0.00     0.037 A 
BRANCH  57  71
ATOM     71  C   UNL A   1      42.476  27.586  34.512  1.00  0.00     0.064 A 
ATOM     72  C   UNL A   1      43.035  26.361  34.083  1.00  0.00     0.173 A 
ATOM     73  C   UNL A   1      41.864  27.559  35.782  1.00  0.00     0.173 A 
ATOM     74  F   UNL A   1      43.652  26.266  32.896  1.00  0.00    -0.203 F 
ATOM     75  C   UNL A   1      42.882  25.181  34.814  1.00  0.00     0.198 A 
ATOM     76  C   UNL A   1      41.754  26.387  36.529  1.00  0.00     0.198 A 
ATOM     77  F   UNL A   1      41.256  28.628  36.305  1.00  0.00    -0.203 F 
ATOM     78  F   UNL A   1      43.306  24.019  34.298  1.00  0.00    -0.200 F 
ATOM     79  C   UNL A   1      42.228  25.192  36.030  1.00  0.00     0.200 A 
ATOM     80  F   UNL A   1      41.105  26.414  37.702  1.00  0.00    -0.200 F 
ATOM     81  F   UNL A   1      42.016  24.052  36.700  1.00  0.00    -0.200 F 
ENDBRANCH  57  71
BRANCH  58  82
ATOM     82  C   UNL A   1      42.825  24.822  26.214  1.00  0.00     0.064 A 
ATOM     83  C   UNL A   1      43.741  24.509  25.184  1.00  0.00     0.173 A 
ATOM     84  C   UNL A   1      42.104  23.735  26.740  1.00  0.00     0.173 A 
ATOM     85  F   UNL A   1      44.514  25.468  24.653  1.00  0.00    -0.203 F 
ATOM     86  C   UNL A   1      43.943  23.193  24.740  1.00  0.00     0.198 A 
ATOM     87  C   UNL A   1      42.311  22.421  26.299  1.00  0.00     0.198 A 
ATOM     88  F   UNL A   1      41.262  23.912  27.766  1.00  0.00    -0.203 F 
ATOM     89  F   UNL A   1      44.870  22.930  23.806  1.00  0.00    -0.200 F 
ATOM     90  C   UNL A   1      43.239  22.148  25.311  1.00  0.00     0.200 A 
ATOM     91  F   UNL A   1      41.655  21.413  26.891  1.00  0.00    -0.200 F 
ATOM     92  F   UNL A   1      43.483  20.881  24.945  1.00  0.00    -0.200 F 
ENDBRANCH  58  82
BRANCH  70  93
ATOM     93  C   UNL A   1      45.303  30.020  28.735  1.00  0.00     0.064 A 
ATOM     94  C   UNL A   1      44.413  30.755  27.930  1.00  0.00     0.173 A 
ATOM     95  C   UNL A   1      46.658  30.367  28.684  1.00  0.00     0.173 A 
ATOM     96  F   UNL A   1      43.093  30.540  27.984  1.00  0.00    -0.203 F 
ATOM     97  C   UNL A   1      44.871  31.779  27.100  1.00  0.00     0.198 A 
ATOM     98  C   UNL A   1      47.106  31.412  27.882  1.00  0.00     0.198 A 
ATOM     99  F   UNL A   1      47.541  29.730  29.467  1.00  0.00    -0.203 F 
ATOM    100  F   UNL A   1      44.006  32.473  26.345  1.00  0.00    -0.200 F 
ATOM    101  C   UNL A   1      46.216  32.115  27.087  1.00  0.00     0.200 A 
ATOM    102  F   UNL A   1      48.399  31.764  27.915  1.00  0.00    -0.200 F 
ATOM    103  F   UNL A   1      46.651  33.133  26.332  1.00  0.00    -0.200 F 
ENDBRANCH  70  93
ENDBRANCH  44  45
ENDBRANCH  37  39
ENDBRANCH  36  37
ENDBRANCH  35  36
ENDBRANCH  34  35
ENDBRANCH   1  34
TORSDOF 17
ENDMDL
