MODEL 1
REMARK VINA RESULT:     -11.3      0.000      0.000
REMARK SMILES COCC[C@H](NC(=O)c1ccc(C)cc1F)C(=O)OCCOCCOC(=O)c1ccc(-c2c3nc(c(-c4c(F)c(F)c(F)c(F)c4F)c4ccc([nH]4)c(-c4c(F)c(F)c(F)c(F)c4F)c4nc(c(-c5c(F)c(F)c(F)c(F)c5F)c5ccc2[nH]5)C=C4)C=C3)cc1
REMARK SMILES IDX 21 1 20 2 19 3 17 4 18 5 5 6 4 7 3 8 2 9 1 10 6 11 7 12 8 14
REMARK SMILES IDX 9 15 10 16 15 17 11 18 14 19 16 20 12 21 13 22 22 23 23 24
REMARK SMILES IDX 24 25 25 26 26 27 27 28 28 29 29 30 90 31 30 32 89 33 31 34
REMARK SMILES IDX 32 35 33 36 83 37 34 38 88 39 82 40 84 41 35 42 87 43 81 44
REMARK SMILES IDX 80 45 36 47 68 48 48 49 67 50 49 51 52 52 66 53 85 54 50 55
REMARK SMILES IDX 51 56 65 58 86 59 53 60 37 61 38 62 46 63 39 64 40 65 44 66
REMARK SMILES IDX 47 67 41 68 42 69 45 70 43 71 69 72 70 73 78 74 71 75 72 76
REMARK SMILES IDX 76 77 79 78 73 79 74 80 77 81 75 82 54 83 55 84 63 85 56 86
REMARK SMILES IDX 57 87 61 88 64 89 58 90 59 91 62 92 60 93
REMARK H PARENT 6 13 84 46 52 57
REMARK Flexibility Score: inf
ROOT
ATOM      1  C   UNL A   1      34.235  30.479  27.193  1.00  0.00     0.202 C 
ENDROOT
BRANCH   1   2
ATOM      2  C   UNL A   1      33.814  29.063  27.633  1.00  0.00     0.261 C 
BRANCH   2   3
ATOM      3  O   UNL A   1      34.121  28.017  26.699  1.00  0.00    -0.462 OA
BRANCH   3   4
ATOM      4  C   UNL A   1      33.084  27.736  25.873  1.00  0.00     0.328 C 
ATOM      5  O   UNL A   1      31.938  28.127  26.074  1.00  0.00    -0.250 OA
BRANCH   4   6
ATOM      6  C   UNL A   1      33.452  26.861  24.663  1.00  0.00     0.194 C 
BRANCH   6   7
ATOM      7  C   UNL A   1      33.630  27.821  23.480  1.00  0.00     0.065 C 
BRANCH   7   8
ATOM      8  C   UNL A   1      32.945  27.345  22.192  1.00  0.00     0.162 C 
BRANCH   8   9
ATOM      9  O   UNL A   1      33.665  26.290  21.555  1.00  0.00    -0.385 OA
ATOM     10  C   UNL A   1      32.856  25.373  20.822  1.00  0.00     0.194 C 
ENDBRANCH   8   9
ENDBRANCH   7   8
ENDBRANCH   6   7
BRANCH   6  11
ATOM     11  N   UNL A   1      32.562  25.723  24.371  1.00  0.00    -0.338 N 
ATOM     12  C   UNL A   1      32.860  24.371  24.440  1.00  0.00     0.254 C 
ATOM     13  H   UNL A   1      31.645  25.951  24.095  1.00  0.00     0.164 HD
ATOM     14  O   UNL A   1      31.973  23.529  24.356  1.00  0.00    -0.269 OA
BRANCH  12  15
ATOM     15  C   UNL A   1      34.272  23.952  24.587  1.00  0.00     0.075 A 
ATOM     16  C   UNL A   1      35.077  23.722  23.468  1.00  0.00     0.017 A 
ATOM     17  C   UNL A   1      34.731  23.598  25.854  1.00  0.00     0.136 A 
ATOM     18  C   UNL A   1      36.259  22.987  23.607  1.00  0.00     0.004 A 
ATOM     19  C   UNL A   1      35.920  22.883  25.998  1.00  0.00     0.043 A 
ATOM     20  F   UNL A   1      33.987  23.825  26.946  1.00  0.00    -0.206 F 
ATOM     21  C   UNL A   1      36.660  22.517  24.864  1.00  0.00    -0.048 A 
ATOM     22  C   UNL A   1      37.817  21.569  24.999  1.00  0.00     0.044 C 
ENDBRANCH  12  15
ENDBRANCH   6  11
ENDBRANCH   4   6
ENDBRANCH   3   4
ENDBRANCH   2   3
ENDBRANCH   1   2
BRANCH   1  23
ATOM     23  O   UNL A   1      33.642  31.625  27.786  1.00  0.00    -0.374 OA
BRANCH  23  24
ATOM     24  C   UNL A   1      34.400  32.690  28.353  1.00  0.00     0.202 C 
BRANCH  24  25
ATOM     25  C   UNL A   1      35.493  32.430  29.390  1.00  0.00     0.261 C 
BRANCH  25  26
ATOM     26  O   UNL A   1      36.772  32.351  28.768  1.00  0.00    -0.460 OA
BRANCH  26  27
ATOM     27  C   UNL A   1      37.559  31.407  29.317  1.00  0.00     0.338 C 
ATOM     28  O   UNL A   1      38.425  31.559  30.162  1.00  0.00    -0.246 OA
BRANCH  27  29
ATOM     29  C   UNL A   1      37.189  30.074  28.776  1.00  0.00     0.060 A 
ATOM     30  C   UNL A   1      37.118  29.120  29.809  1.00  0.00     0.016 A 
ATOM     31  C   UNL A   1      37.899  29.835  27.605  1.00  0.00     0.016 A 
ATOM     32  C   UNL A   1      38.181  28.258  29.942  1.00  0.00     0.010 A 
ATOM     33  C   UNL A   1      38.964  28.984  27.732  1.00  0.00     0.010 A 
ATOM     34  C   UNL A   1      39.156  28.320  28.956  1.00  0.00    -0.014 A 
BRANCH  34  35
ATOM     35  C   UNL A   1      40.495  27.839  29.176  1.00  0.00     0.031 A 
ATOM     36  C   UNL A   1      40.834  26.509  28.681  1.00  0.00     0.074 A 
ATOM     37  C   UNL A   1      41.392  28.690  29.716  1.00  0.00     0.049 A 
ATOM     38  N   UNL A   1      41.831  25.814  29.096  1.00  0.00    -0.248 NA
ATOM     39  C   UNL A   1      39.999  25.817  27.705  1.00  0.00     0.031 C 
ATOM     40  C   UNL A   1      42.844  28.596  29.664  1.00  0.00     0.029 A 
ATOM     41  N   UNL A   1      41.137  29.763  30.579  1.00  0.00    -0.354 N 
ATOM     42  C   UNL A   1      41.959  24.752  28.235  1.00  0.00     0.074 A 
ATOM     43  C   UNL A   1      40.741  24.737  27.458  1.00  0.00     0.031 C 
ATOM     44  C   UNL A   1      43.366  29.404  30.601  1.00  0.00     0.029 A 
ATOM     45  C   UNL A   1      42.262  29.898  31.410  1.00  0.00     0.049 A 
ATOM     46  H   UNL A   1      40.324  30.318  30.598  1.00  0.00     0.167 HD
ATOM     47  C   UNL A   1      43.164  24.122  28.159  1.00  0.00     0.037 A 
ATOM     48  C   UNL A   1      42.158  29.686  32.755  1.00  0.00     0.037 A 
ATOM     49  C   UNL A   1      44.102  24.693  29.124  1.00  0.00     0.049 A 
ATOM     50  C   UNL A   1      42.978  28.509  33.231  1.00  0.00     0.074 A 
ATOM     51  C   UNL A   1      45.053  25.694  29.001  1.00  0.00     0.029 A 
ATOM     52  N   UNL A   1      43.867  24.538  30.487  1.00  0.00    -0.354 N 
ATOM     53  N   UNL A   1      43.285  27.481  32.487  1.00  0.00    -0.248 NA
ATOM     54  C   UNL A   1      43.526  28.413  34.579  1.00  0.00     0.031 C 
ATOM     55  C   UNL A   1      45.362  26.170  30.298  1.00  0.00     0.029 A 
ATOM     56  C   UNL A   1      44.614  25.448  31.211  1.00  0.00     0.049 A 
ATOM     57  H   UNL A   1      43.257  23.873  30.880  1.00  0.00     0.167 HD
ATOM     58  C   UNL A   1      44.073  26.620  33.207  1.00  0.00     0.074 A 
ATOM     59  C   UNL A   1      44.192  27.247  34.511  1.00  0.00     0.031 C 
ATOM     60  C   UNL A   1      44.582  25.472  32.665  1.00  0.00     0.037 A 
BRANCH  47  61
ATOM     61  C   UNL A   1      43.565  23.286  26.970  1.00  0.00     0.064 A 
ATOM     62  C   UNL A   1      43.132  21.949  26.853  1.00  0.00     0.173 A 
ATOM     63  C   UNL A   1      44.431  23.721  25.951  1.00  0.00     0.173 A 
ATOM     64  F   UNL A   1      42.227  21.428  27.690  1.00  0.00    -0.203 F 
ATOM     65  C   UNL A   1      43.623  21.086  25.871  1.00  0.00     0.198 A 
ATOM     66  C   UNL A   1      44.965  22.845  25.000  1.00  0.00     0.198 A 
ATOM     67  F   UNL A   1      44.753  25.015  25.821  1.00  0.00    -0.203 F 
ATOM     68  F   UNL A   1      43.182  19.821  25.818  1.00  0.00    -0.200 F 
ATOM     69  C   UNL A   1      44.568  21.524  24.967  1.00  0.00     0.200 A 
ATOM     70  F   UNL A   1      45.869  23.293  24.117  1.00  0.00    -0.200 F 
ATOM     71  F   UNL A   1      45.073  20.684  24.054  1.00  0.00    -0.200 F 
ENDBRANCH  47  61
BRANCH  48  72
ATOM     72  C   UNL A   1      40.843  30.088  33.324  1.00  0.00     0.064 A 
ATOM     73  C   UNL A   1      40.626  31.442  33.641  1.00  0.00     0.173 A 
ATOM     74  C   UNL A   1      39.718  29.257  33.238  1.00  0.00     0.173 A 
ATOM     75  F   UNL A   1      41.669  32.282  33.735  1.00  0.00    -0.203 F 
ATOM     76  C   UNL A   1      39.338  31.960  33.786  1.00  0.00     0.198 A 
ATOM     77  C   UNL A   1      38.430  29.780  33.375  1.00  0.00     0.198 A 
ATOM     78  F   UNL A   1      39.854  27.957  32.938  1.00  0.00    -0.203 F 
ATOM     79  F   UNL A   1      39.164  33.269  34.022  1.00  0.00    -0.200 F 
ATOM     80  C   UNL A   1      38.240  31.131  33.629  1.00  0.00     0.200 A 
ATOM     81  F   UNL A   1      37.363  28.983  33.205  1.00  0.00    -0.200 F 
ATOM     82  F   UNL A   1      36.998  31.635  33.693  1.00  0.00    -0.200 F 
ENDBRANCH  48  72
BRANCH  60  83
ATOM     83  C   UNL A   1      45.232  24.330  33.414  1.00  0.00     0.064 A 
ATOM     84  C   UNL A   1      44.589  23.118  33.714  1.00  0.00     0.173 A 
ATOM     85  C   UNL A   1      46.614  24.373  33.739  1.00  0.00     0.173 A 
ATOM     86  F   UNL A   1      43.326  22.884  33.339  1.00  0.00    -0.203 F 
ATOM     87  C   UNL A   1      45.248  22.069  34.363  1.00  0.00     0.198 A 
ATOM     88  C   UNL A   1      47.284  23.300  34.324  1.00  0.00     0.198 A 
ATOM     89  F   UNL A   1      47.371  25.446  33.471  1.00  0.00    -0.203 F 
ATOM     90  F   UNL A   1      44.571  20.955  34.676  1.00  0.00    -0.200 F 
ATOM     91  C   UNL A   1      46.595  22.156  34.658  1.00  0.00     0.200 A 
ATOM     92  F   UNL A   1      48.604  23.379  34.541  1.00  0.00    -0.200 F 
ATOM     93  F   UNL A   1      47.232  21.130  35.238  1.00  0.00    -0.200 F 
ENDBRANCH  60  83
ENDBRANCH  34  35
ENDBRANCH  27  29
ENDBRANCH  26  27
ENDBRANCH  25  26
ENDBRANCH  24  25
ENDBRANCH  23  24
ENDBRANCH   1  23
TORSDOF 19
ENDMDL
MODEL 2
REMARK VINA RESULT:     -11.1      1.665      3.341
REMARK SMILES COCC[C@H](NC(=O)c1ccc(C)cc1F)C(=O)OCCOCCOC(=O)c1ccc(-c2c3nc(c(-c4c(F)c(F)c(F)c(F)c4F)c4ccc([nH]4)c(-c4c(F)c(F)c(F)c(F)c4F)c4nc(c(-c5c(F)c(F)c(F)c(F)c5F)c5ccc2[nH]5)C=C4)C=C3)cc1
REMARK SMILES IDX 21 1 20 2 19 3 17 4 18 5 5 6 4 7 3 8 2 9 1 10 6 11 7 12 8 14
REMARK SMILES IDX 9 15 10 16 15 17 11 18 14 19 16 20 12 21 13 22 22 23 23 24
REMARK SMILES IDX 24 25 25 26 26 27 27 28 28 29 29 30 90 31 30 32 89 33 31 34
REMARK SMILES IDX 32 35 33 36 83 37 34 38 88 39 82 40 84 41 35 42 87 43 81 44
REMARK SMILES IDX 80 45 36 47 68 48 48 49 67 50 49 51 52 52 66 53 85 54 50 55
REMARK SMILES IDX 51 56 65 58 86 59 53 60 37 61 38 62 46 63 39 64 40 65 44 66
REMARK SMILES IDX 47 67 41 68 42 69 45 70 43 71 69 72 70 73 78 74 71 75 72 76
REMARK SMILES IDX 76 77 79 78 73 79 74 80 77 81 75 82 54 83 55 84 63 85 56 86
REMARK SMILES IDX 57 87 61 88 64 89 58 90 59 91 62 92 60 93
REMARK H PARENT 6 13 84 46 52 57
REMARK Flexibility Score: inf
ROOT
ATOM      1  C   UNL A   1      33.603  30.569  27.638  1.00  0.00     0.202 C 
ENDROOT
BRANCH   1   2
ATOM      2  C   UNL A   1      33.100  29.679  26.484  1.00  0.00     0.261 C 
BRANCH   2   3
ATOM      3  O   UNL A   1      33.877  28.497  26.241  1.00  0.00    -0.462 OA
BRANCH   3   4
ATOM      4  C   UNL A   1      33.604  27.931  25.041  1.00  0.00     0.328 C 
ATOM      5  O   UNL A   1      34.270  28.139  24.032  1.00  0.00    -0.250 OA
BRANCH   4   6
ATOM      6  C   UNL A   1      32.367  27.016  25.035  1.00  0.00     0.194 C 
BRANCH   6   7
ATOM      7  C   UNL A   1      32.494  26.119  26.272  1.00  0.00     0.065 C 
BRANCH   7   8
ATOM      8  C   UNL A   1      31.966  24.695  26.057  1.00  0.00     0.162 C 
BRANCH   8   9
ATOM      9  O   UNL A   1      31.020  24.312  27.054  1.00  0.00    -0.385 OA
ATOM     10  C   UNL A   1      30.483  23.001  26.897  1.00  0.00     0.194 C 
ENDBRANCH   8   9
ENDBRANCH   7   8
ENDBRANCH   6   7
BRANCH   6  11
ATOM     11  N   UNL A   1      32.098  26.272  23.791  1.00  0.00    -0.338 N 
ATOM     12  C   UNL A   1      31.311  26.665  22.719  1.00  0.00     0.254 C 
ATOM     13  H   UNL A   1      32.528  25.391  23.712  1.00  0.00     0.164 HD
ATOM     14  O   UNL A   1      31.327  26.035  21.668  1.00  0.00    -0.269 OA
BRANCH  12  15
ATOM     15  C   UNL A   1      30.427  27.842  22.869  1.00  0.00     0.075 A 
ATOM     16  C   UNL A   1      29.093  27.697  23.261  1.00  0.00     0.017 A 
ATOM     17  C   UNL A   1      30.886  29.079  22.421  1.00  0.00     0.136 A 
ATOM     18  C   UNL A   1      28.191  28.745  23.043  1.00  0.00     0.004 A 
ATOM     19  C   UNL A   1      29.993  30.131  22.221  1.00  0.00     0.043 A 
ATOM     20  F   UNL A   1      32.165  29.249  22.056  1.00  0.00    -0.206 F 
ATOM     21  C   UNL A   1      28.625  29.948  22.472  1.00  0.00    -0.048 A 
ATOM     22  C   UNL A   1      27.640  31.002  22.055  1.00  0.00     0.044 C 
ENDBRANCH  12  15
ENDBRANCH   6  11
ENDBRANCH   4   6
ENDBRANCH   3   4
ENDBRANCH   2   3
ENDBRANCH   1   2
BRANCH   1  23
ATOM     23  O   UNL A   1      33.555  31.985  27.531  1.00  0.00    -0.374 OA
BRANCH  23  24
ATOM     24  C   UNL A   1      34.490  32.846  28.174  1.00  0.00     0.202 C 
BRANCH  24  25
ATOM     25  C   UNL A   1      35.417  32.338  29.279  1.00  0.00     0.261 C 
BRANCH  25  26
ATOM     26  O   UNL A   1      36.779  32.404  28.867  1.00  0.00    -0.460 OA
BRANCH  26  27
ATOM     27  C   UNL A   1      37.538  31.444  29.426  1.00  0.00     0.338 C 
ATOM     28  O   UNL A   1      38.382  31.575  30.296  1.00  0.00    -0.246 OA
BRANCH  27  29
ATOM     29  C   UNL A   1      37.164  30.122  28.861  1.00  0.00     0.060 A 
ATOM     30  C   UNL A   1      37.114  29.144  29.872  1.00  0.00     0.016 A 
ATOM     31  C   UNL A   1      37.856  29.913  27.673  1.00  0.00     0.016 A 
ATOM     32  C   UNL A   1      38.182  28.284  29.968  1.00  0.00     0.010 A 
ATOM     33  C   UNL A   1      38.926  29.064  27.764  1.00  0.00     0.010 A 
ATOM     34  C   UNL A   1      39.141  28.373  28.968  1.00  0.00    -0.014 A 
BRANCH  34  35
ATOM     35  C   UNL A   1      40.485  27.893  29.156  1.00  0.00     0.031 A 
ATOM     36  C   UNL A   1      40.818  26.571  28.637  1.00  0.00     0.074 A 
ATOM     37  C   UNL A   1      41.390  28.740  29.689  1.00  0.00     0.049 A 
ATOM     38  N   UNL A   1      41.824  25.873  29.024  1.00  0.00    -0.248 NA
ATOM     39  C   UNL A   1      39.965  25.889  27.668  1.00  0.00     0.031 C 
ATOM     40  C   UNL A   1      42.841  28.650  29.607  1.00  0.00     0.029 A 
ATOM     41  N   UNL A   1      41.149  29.801  30.571  1.00  0.00    -0.354 N 
ATOM     42  C   UNL A   1      41.939  24.823  28.146  1.00  0.00     0.074 A 
ATOM     43  C   UNL A   1      40.705  24.814  27.393  1.00  0.00     0.031 C 
ATOM     44  C   UNL A   1      43.380  29.448  30.545  1.00  0.00     0.029 A 
ATOM     45  C   UNL A   1      42.290  29.928  31.382  1.00  0.00     0.049 A 
ATOM     46  H   UNL A   1      40.335  30.352  30.613  1.00  0.00     0.167 HD
ATOM     47  C   UNL A   1      43.143  24.198  28.038  1.00  0.00     0.037 A 
ATOM     48  C   UNL A   1      42.213  29.698  32.726  1.00  0.00     0.037 A 
ATOM     49  C   UNL A   1      44.098  24.758  28.992  1.00  0.00     0.049 A 
ATOM     50  C   UNL A   1      43.045  28.517  33.170  1.00  0.00     0.074 A 
ATOM     51  C   UNL A   1      45.044  25.763  28.864  1.00  0.00     0.029 A 
ATOM     52  N   UNL A   1      43.891  24.584  30.357  1.00  0.00    -0.354 N 
ATOM     53  N   UNL A   1      43.340  27.500  32.407  1.00  0.00    -0.248 NA
ATOM     54  C   UNL A   1      43.620  28.405  34.506  1.00  0.00     0.031 C 
ATOM     55  C   UNL A   1      45.377  26.223  30.160  1.00  0.00     0.029 A 
ATOM     56  C   UNL A   1      44.649  25.487  31.079  1.00  0.00     0.049 A 
ATOM     57  H   UNL A   1      43.290  23.912  30.754  1.00  0.00     0.167 HD
ATOM     58  C   UNL A   1      44.145  26.631  33.100  1.00  0.00     0.074 A 
ATOM     59  C   UNL A   1      44.288  27.242  34.410  1.00  0.00     0.031 C 
ATOM     60  C   UNL A   1      44.646  25.492  32.533  1.00  0.00     0.037 A 
BRANCH  47  61
ATOM     61  C   UNL A   1      43.523  23.378  26.831  1.00  0.00     0.064 A 
ATOM     62  C   UNL A   1      43.141  22.024  26.732  1.00  0.00     0.173 A 
ATOM     63  C   UNL A   1      44.322  23.848  25.773  1.00  0.00     0.173 A 
ATOM     64  F   UNL A   1      42.297  21.466  27.609  1.00  0.00    -0.203 F 
ATOM     65  C   UNL A   1      43.621  21.182  25.726  1.00  0.00     0.198 A 
ATOM     66  C   UNL A   1      44.848  22.994  24.797  1.00  0.00     0.198 A 
ATOM     67  F   UNL A   1      44.585  25.154  25.630  1.00  0.00    -0.203 F 
ATOM     68  F   UNL A   1      43.231  19.900  25.692  1.00  0.00    -0.200 F 
ATOM     69  C   UNL A   1      44.504  21.658  24.781  1.00  0.00     0.200 A 
ATOM     70  F   UNL A   1      45.690  23.479  23.874  1.00  0.00    -0.200 F 
ATOM     71  F   UNL A   1      45.000  20.840  23.844  1.00  0.00    -0.200 F 
ENDBRANCH  47  61
BRANCH  48  72
ATOM     72  C   UNL A   1      40.908  30.088  33.325  1.00  0.00     0.064 A 
ATOM     73  C   UNL A   1      40.698  31.436  33.674  1.00  0.00     0.173 A 
ATOM     74  C   UNL A   1      39.781  29.260  33.242  1.00  0.00     0.173 A 
ATOM     75  F   UNL A   1      41.743  32.273  33.767  1.00  0.00    -0.203 F 
ATOM     76  C   UNL A   1      39.414  31.951  33.851  1.00  0.00     0.198 A 
ATOM     77  C   UNL A   1      38.497  29.780  33.412  1.00  0.00     0.198 A 
ATOM     78  F   UNL A   1      39.911  27.966  32.913  1.00  0.00    -0.203 F 
ATOM     79  F   UNL A   1      39.244  33.255  34.118  1.00  0.00    -0.200 F 
ATOM     80  C   UNL A   1      38.312  31.126  33.697  1.00  0.00     0.200 A 
ATOM     81  F   UNL A   1      37.426  28.988  33.245  1.00  0.00    -0.200 F 
ATOM     82  F   UNL A   1      37.071  31.629  33.793  1.00  0.00    -0.200 F 
ENDBRANCH  48  72
BRANCH  60  83
ATOM     83  C   UNL A   1      45.314  24.342  33.254  1.00  0.00     0.064 A 
ATOM     84  C   UNL A   1      46.622  24.386  33.763  1.00  0.00     0.173 A 
ATOM     85  C   UNL A   1      44.578  23.174  33.587  1.00  0.00     0.173 A 
ATOM     86  F   UNL A   1      47.382  25.481  33.647  1.00  0.00    -0.203 F 
ATOM     87  C   UNL A   1      47.179  23.315  34.471  1.00  0.00     0.198 A 
ATOM     88  C   UNL A   1      45.114  22.139  34.351  1.00  0.00     0.198 A 
ATOM     89  F   UNL A   1      43.302  23.009  33.211  1.00  0.00    -0.203 F 
ATOM     90  F   UNL A   1      48.451  23.388  34.885  1.00  0.00    -0.200 F 
ATOM     91  C   UNL A   1      46.423  22.199  34.773  1.00  0.00     0.200 A 
ATOM     92  F   UNL A   1      44.344  21.095  34.690  1.00  0.00    -0.200 F 
ATOM     93  F   UNL A   1      46.947  21.197  35.491  1.00  0.00    -0.200 F 
ENDBRANCH  60  83
ENDBRANCH  34  35
ENDBRANCH  27  29
ENDBRANCH  26  27
ENDBRANCH  25  26
ENDBRANCH  24  25
ENDBRANCH  23  24
ENDBRANCH   1  23
TORSDOF 19
ENDMDL
MODEL 3
REMARK VINA RESULT:     -10.7      4.047     10.129
REMARK SMILES COCC[C@H](NC(=O)c1ccc(C)cc1F)C(=O)OCCOCCOC(=O)c1ccc(-c2c3nc(c(-c4c(F)c(F)c(F)c(F)c4F)c4ccc([nH]4)c(-c4c(F)c(F)c(F)c(F)c4F)c4nc(c(-c5c(F)c(F)c(F)c(F)c5F)c5ccc2[nH]5)C=C4)C=C3)cc1
REMARK SMILES IDX 21 1 20 2 19 3 17 4 18 5 5 6 4 7 3 8 2 9 1 10 6 11 7 12 8 14
REMARK SMILES IDX 9 15 10 16 15 17 11 18 14 19 16 20 12 21 13 22 22 23 23 24
REMARK SMILES IDX 24 25 25 26 26 27 27 28 28 29 29 30 90 31 30 32 89 33 31 34
REMARK SMILES IDX 32 35 33 36 83 37 34 38 88 39 82 40 84 41 35 42 87 43 81 44
REMARK SMILES IDX 80 45 36 47 68 48 48 49 67 50 49 51 52 52 66 53 85 54 50 55
REMARK SMILES IDX 51 56 65 58 86 59 53 60 37 61 38 62 46 63 39 64 40 65 44 66
REMARK SMILES IDX 47 67 41 68 42 69 45 70 43 71 69 72 70 73 78 74 71 75 72 76
REMARK SMILES IDX 76 77 79 78 73 79 74 80 77 81 75 82 54 83 55 84 63 85 56 86
REMARK SMILES IDX 57 87 61 88 64 89 58 90 59 91 62 92 60 93
REMARK H PARENT 6 13 84 46 52 57
REMARK Flexibility Score: inf
ROOT
ATOM      1  C   UNL A   1      37.735  21.420  25.359  1.00  0.00     0.202 C 
ENDROOT
BRANCH   1   2
ATOM      2  C   UNL A   1      36.229  21.645  25.597  1.00  0.00     0.261 C 
BRANCH   2   3
ATOM      3  O   UNL A   1      35.831  23.019  25.727  1.00  0.00    -0.462 OA
BRANCH   3   4
ATOM      4  C   UNL A   1      34.652  23.160  26.381  1.00  0.00     0.328 C 
ATOM      5  O   UNL A   1      34.507  22.895  27.570  1.00  0.00    -0.250 OA
BRANCH   4   6
ATOM      6  C   UNL A   1      33.493  23.661  25.503  1.00  0.00     0.194 C 
BRANCH   6   7
ATOM      7  C   UNL A   1      32.256  22.866  25.937  1.00  0.00     0.065 C 
BRANCH   7   8
ATOM      8  C   UNL A   1      31.160  23.731  26.574  1.00  0.00     0.162 C 
BRANCH   8   9
ATOM      9  O   UNL A   1      30.477  23.052  27.626  1.00  0.00    -0.385 OA
ATOM     10  C   UNL A   1      29.177  22.577  27.286  1.00  0.00     0.194 C 
ENDBRANCH   8   9
ENDBRANCH   7   8
ENDBRANCH   6   7
BRANCH   6  11
ATOM     11  N   UNL A   1      33.715  23.661  24.046  1.00  0.00    -0.338 N 
ATOM     12  C   UNL A   1      33.363  24.642  23.132  1.00  0.00     0.254 C 
ATOM     13  H   UNL A   1      34.169  22.868  23.678  1.00  0.00     0.164 HD
ATOM     14  O   UNL A   1      33.778  24.600  21.979  1.00  0.00    -0.269 OA
BRANCH  12  15
ATOM     15  C   UNL A   1      32.454  25.728  23.558  1.00  0.00     0.075 A 
ATOM     16  C   UNL A   1      31.071  25.624  23.380  1.00  0.00     0.017 A 
ATOM     17  C   UNL A   1      33.010  26.942  23.955  1.00  0.00     0.136 A 
ATOM     18  C   UNL A   1      30.278  26.775  23.438  1.00  0.00     0.004 A 
ATOM     19  C   UNL A   1      32.218  28.088  24.035  1.00  0.00     0.043 A 
ATOM     20  F   UNL A   1      34.331  27.065  24.151  1.00  0.00    -0.206 F 
ATOM     21  C   UNL A   1      30.855  28.022  23.713  1.00  0.00    -0.048 A 
ATOM     22  C   UNL A   1      30.053  29.286  23.588  1.00  0.00     0.044 C 
ENDBRANCH  12  15
ENDBRANCH   6  11
ENDBRANCH   4   6
ENDBRANCH   3   4
ENDBRANCH   2   3
ENDBRANCH   1   2
BRANCH   1  23
ATOM     23  O   UNL A   1      38.696  21.969  26.249  1.00  0.00    -0.374 OA
BRANCH  23  24
ATOM     24  C   UNL A   1      40.093  21.706  26.146  1.00  0.00     0.202 C 
BRANCH  24  25
ATOM     25  C   UNL A   1      41.045  21.971  27.313  1.00  0.00     0.261 C 
BRANCH  25  26
ATOM     26  O   UNL A   1      40.588  23.069  28.098  1.00  0.00    -0.460 OA
BRANCH  26  27
ATOM     27  C   UNL A   1      41.040  24.253  27.646  1.00  0.00     0.338 C 
ATOM     28  O   UNL A   1      42.182  24.680  27.690  1.00  0.00    -0.246 OA
BRANCH  27  29
ATOM     29  C   UNL A   1      39.928  24.999  27.004  1.00  0.00     0.060 A 
ATOM     30  C   UNL A   1      40.426  26.012  26.164  1.00  0.00     0.016 A 
ATOM     31  C   UNL A   1      38.934  25.249  27.944  1.00  0.00     0.016 A 
ATOM     32  C   UNL A   1      40.397  27.299  26.646  1.00  0.00     0.010 A 
ATOM     33  C   UNL A   1      38.905  26.527  28.434  1.00  0.00     0.010 A 
ATOM     34  C   UNL A   1      39.747  27.492  27.857  1.00  0.00    -0.014 A 
BRANCH  34  35
ATOM     35  C   UNL A   1      40.011  28.637  28.689  1.00  0.00     0.031 A 
ATOM     36  C   UNL A   1      38.986  29.673  28.771  1.00  0.00     0.074 A 
ATOM     37  C   UNL A   1      41.131  28.629  29.440  1.00  0.00     0.049 A 
ATOM     38  N   UNL A   1      39.203  30.877  29.161  1.00  0.00    -0.248 NA
ATOM     39  C   UNL A   1      37.616  29.434  28.331  1.00  0.00     0.031 C 
ATOM     40  C   UNL A   1      41.412  29.434  30.620  1.00  0.00     0.029 A 
ATOM     41  N   UNL A   1      42.335  27.967  29.168  1.00  0.00    -0.354 N 
ATOM     42  C   UNL A   1      37.974  31.465  29.333  1.00  0.00     0.074 A 
ATOM     43  C   UNL A   1      37.028  30.572  28.704  1.00  0.00     0.031 C 
ATOM     44  C   UNL A   1      42.733  29.407  30.861  1.00  0.00     0.029 A 
ATOM     45  C   UNL A   1      43.364  28.738  29.733  1.00  0.00     0.049 A 
ATOM     46  H   UNL A   1      42.439  27.122  28.674  1.00  0.00     0.167 HD
ATOM     47  C   UNL A   1      37.884  32.551  30.150  1.00  0.00     0.037 A 
ATOM     48  C   UNL A   1      44.306  29.327  28.937  1.00  0.00     0.037 A 
ATOM     49  C   UNL A   1      39.207  32.933  30.640  1.00  0.00     0.049 A 
ATOM     50  C   UNL A   1      44.267  30.837  28.998  1.00  0.00     0.074 A 
ATOM     51  C   UNL A   1      39.890  32.602  31.800  1.00  0.00     0.029 A 
ATOM     52  N   UNL A   1      40.159  33.417  29.747  1.00  0.00    -0.354 N 
ATOM     53  N   UNL A   1      43.197  31.532  29.271  1.00  0.00    -0.248 NA
ATOM     54  C   UNL A   1      45.441  31.674  28.771  1.00  0.00     0.031 C 
ATOM     55  C   UNL A   1      41.267  32.851  31.587  1.00  0.00     0.029 A 
ATOM     56  C   UNL A   1      41.422  33.351  30.306  1.00  0.00     0.049 A 
ATOM     57  H   UNL A   1      39.962  33.760  28.845  1.00  0.00     0.167 HD
ATOM     58  C   UNL A   1      43.516  32.867  29.291  1.00  0.00     0.074 A 
ATOM     59  C   UNL A   1      44.932  32.902  28.969  1.00  0.00     0.031 C 
ATOM     60  C   UNL A   1      42.595  33.832  29.594  1.00  0.00     0.037 A 
BRANCH  47  61
ATOM     61  C   UNL A   1      36.583  32.988  30.773  1.00  0.00     0.064 A 
ATOM     62  C   UNL A   1      35.684  33.809  30.061  1.00  0.00     0.173 A 
ATOM     63  C   UNL A   1      36.199  32.692  32.093  1.00  0.00     0.173 A 
ATOM     64  F   UNL A   1      35.865  34.090  28.765  1.00  0.00    -0.203 F 
ATOM     65  C   UNL A   1      34.561  34.384  30.658  1.00  0.00     0.198 A 
ATOM     66  C   UNL A   1      35.105  33.310  32.709  1.00  0.00     0.198 A 
ATOM     67  F   UNL A   1      36.845  31.765  32.812  1.00  0.00    -0.203 F 
ATOM     68  F   UNL A   1      33.749  35.165  29.932  1.00  0.00    -0.200 F 
ATOM     69  C   UNL A   1      34.292  34.165  31.993  1.00  0.00     0.200 A 
ATOM     70  F   UNL A   1      34.847  33.071  34.002  1.00  0.00    -0.200 F 
ATOM     71  F   UNL A   1      33.240  34.753  32.578  1.00  0.00    -0.200 F 
ENDBRANCH  47  61
BRANCH  48  72
ATOM     72  C   UNL A   1      44.640  28.536  27.722  1.00  0.00     0.064 A 
ATOM     73  C   UNL A   1      45.580  27.494  27.828  1.00  0.00     0.173 A 
ATOM     74  C   UNL A   1      43.827  28.558  26.581  1.00  0.00     0.173 A 
ATOM     75  F   UNL A   1      46.385  27.426  28.902  1.00  0.00    -0.203 F 
ATOM     76  C   UNL A   1      45.649  26.474  26.879  1.00  0.00     0.198 A 
ATOM     77  C   UNL A   1      43.892  27.531  25.637  1.00  0.00     0.198 A 
ATOM     78  F   UNL A   1      42.909  29.522  26.419  1.00  0.00    -0.203 F 
ATOM     79  F   UNL A   1      46.510  25.460  27.044  1.00  0.00    -0.200 F 
ATOM     80  C   UNL A   1      44.786  26.482  25.795  1.00  0.00     0.200 A 
ATOM     81  F   UNL A   1      43.045  27.525  24.595  1.00  0.00    -0.200 F 
ATOM     82  F   UNL A   1      44.795  25.467  24.917  1.00  0.00    -0.200 F 
ENDBRANCH  48  72
BRANCH  60  83
ATOM     83  C   UNL A   1      42.752  35.323  29.396  1.00  0.00     0.064 A 
ATOM     84  C   UNL A   1      43.533  36.148  30.222  1.00  0.00     0.173 A 
ATOM     85  C   UNL A   1      42.212  35.960  28.248  1.00  0.00     0.173 A 
ATOM     86  F   UNL A   1      44.216  35.653  31.261  1.00  0.00    -0.203 F 
ATOM     87  C   UNL A   1      43.691  37.515  29.969  1.00  0.00     0.198 A 
ATOM     88  C   UNL A   1      42.429  37.307  27.962  1.00  0.00     0.198 A 
ATOM     89  F   UNL A   1      41.483  35.292  27.344  1.00  0.00    -0.203 F 
ATOM     90  F   UNL A   1      44.402  38.267  30.821  1.00  0.00    -0.200 F 
ATOM     91  C   UNL A   1      43.149  38.091  28.836  1.00  0.00     0.200 A 
ATOM     92  F   UNL A   1      41.950  37.831  26.825  1.00  0.00    -0.200 F 
ATOM     93  F   UNL A   1      43.342  39.390  28.575  1.00  0.00    -0.200 F 
ENDBRANCH  60  83
ENDBRANCH  34  35
ENDBRANCH  27  29
ENDBRANCH  26  27
ENDBRANCH  25  26
ENDBRANCH  24  25
ENDBRANCH  23  24
ENDBRANCH   1  23
TORSDOF 19
ENDMDL
