MODEL 1
REMARK VINA RESULT:     -12.4      0.000      0.000
REMARK SMILES Cc1c(C[N@H+]2CC[C@@H](C(=O)OCCOCCOC(=O)c3ccc(-c4c5nc(c(-c6c(F)c(F)c(F)c(F)c6F)c6ccc([nH]6)c(-c6c(F)c(F)c(F)c(F)c6F)c6nc(c(-c7c(F)c(F)c(F)c(F)c7F)c7ccc4[nH]7)C=C6)C=C5)cc3)[C@@H]2C)cccc1[N+](=O)[O-]
REMARK SMILES IDX 13 1 12 2 11 3 9 4 10 5 8 6 5 7 6 8 83 9 7 11 84 12 4 13
REMARK SMILES IDX 3 14 1 15 2 16 88 17 85 18 87 19 86 20 89 21 90 22 91 23
REMARK SMILES IDX 14 24 15 25 16 26 17 27 18 28 19 29 20 30 21 31 82 32 22 33
REMARK SMILES IDX 81 34 23 35 24 36 25 37 75 38 26 39 80 40 74 41 76 42 27 43
REMARK SMILES IDX 79 44 73 45 72 46 28 48 60 49 40 50 59 51 41 52 44 53 58 54
REMARK SMILES IDX 77 55 42 56 43 57 57 59 78 60 45 61 29 62 30 63 38 64 31 65
REMARK SMILES IDX 32 66 36 67 39 68 33 69 34 70 37 71 35 72 61 73 62 74 70 75
REMARK SMILES IDX 63 76 64 77 68 78 71 79 65 80 66 81 69 82 67 83 46 84 47 85
REMARK SMILES IDX 55 86 48 87 49 88 53 89 56 90 50 91 51 92 54 93 52 94
REMARK H PARENT 5 10 76 47 44 58
REMARK Flexibility Score: inf
ROOT
ATOM      1  C   UNL A   1      38.132  20.718  25.006  1.00  0.00     0.202 C 
ENDROOT
BRANCH   1   2
ATOM      2  C   UNL A   1      36.738  21.062  24.650  1.00  0.00     0.261 C 
BRANCH   2   3
ATOM      3  O   UNL A   1      36.633  22.443  24.351  1.00  0.00    -0.463 OA
BRANCH   3   4
ATOM      4  C   UNL A   1      35.467  22.869  23.814  1.00  0.00     0.315 C 
ATOM      5  O   UNL A   1      35.343  23.644  22.880  1.00  0.00    -0.252 OA
BRANCH   4   6
ATOM      6  C   UNL A   1      34.351  22.180  24.541  1.00  0.00     0.162 C 
ATOM      7  N   UNL A   1      32.466  23.272  25.569  1.00  0.00    -0.328 N 
ATOM      8  C   UNL A   1      31.954  22.298  24.622  1.00  0.00     0.263 C 
ATOM      9  C   UNL A   1      33.901  23.030  25.756  1.00  0.00     0.195 C 
ATOM     10  H   UNL A   1      32.074  23.132  26.500  1.00  0.00     0.348 HD
ATOM     11  C   UNL A   1      33.110  22.005  23.692  1.00  0.00     0.083 C 
ATOM     12  C   UNL A   1      34.315  22.252  27.014  1.00  0.00     0.076 C 
BRANCH   7  13
ATOM     13  C   UNL A   1      31.890  24.636  25.512  1.00  0.00     0.299 C 
BRANCH  13  14
ATOM     14  C   UNL A   1      32.083  25.683  24.330  1.00  0.00     0.016 A 
ATOM     15  C   UNL A   1      29.389  26.437  24.488  1.00  0.00     0.052 C 
ATOM     16  C   UNL A   1      30.723  26.769  23.847  1.00  0.00     0.036 A 
ATOM     17  C   UNL A   1      30.953  28.408  23.164  1.00  0.00     0.272 A 
ATOM     18  C   UNL A   1      33.744  26.180  24.135  1.00  0.00     0.010 A 
ATOM     19  C   UNL A   1      32.644  29.021  22.924  1.00  0.00     0.086 A 
ATOM     20  C   UNL A   1      34.140  27.767  23.414  1.00  0.00     0.008 A 
BRANCH  17  21
ATOM     21  N   UNL A   1      29.880  29.280  22.737  1.00  0.00     0.062 N 
ATOM     22  O   UNL A   1      29.485  30.102  23.572  1.00  0.00    -0.258 OA
ATOM     23  O   UNL A   1      29.468  29.188  21.581  1.00  0.00    -0.258 OA
ENDBRANCH  17  21
ENDBRANCH  13  14
ENDBRANCH   7  13
ENDBRANCH   4   6
ENDBRANCH   3   4
ENDBRANCH   2   3
ENDBRANCH   1   2
BRANCH   1  24
ATOM     24  O   UNL A   1      38.507  21.793  25.829  1.00  0.00    -0.374 OA
BRANCH  24  25
ATOM     25  C   UNL A   1      39.876  21.802  26.154  1.00  0.00     0.202 C 
BRANCH  25  26
ATOM     26  C   UNL A   1      40.164  22.547  27.468  1.00  0.00     0.261 C 
BRANCH  26  27
ATOM     27  O   UNL A   1      39.768  23.937  27.324  1.00  0.00    -0.460 OA
BRANCH  27  28
ATOM     28  C   UNL A   1      40.710  24.895  27.571  1.00  0.00     0.338 C 
ATOM     29  O   UNL A   1      41.880  24.683  27.855  1.00  0.00    -0.246 OA
BRANCH  28  30
ATOM     30  C   UNL A   1      40.038  26.216  27.826  1.00  0.00     0.060 A 
ATOM     31  C   UNL A   1      40.450  27.367  27.117  1.00  0.00     0.016 A 
ATOM     32  C   UNL A   1      39.310  26.371  29.000  1.00  0.00     0.016 A 
ATOM     33  C   UNL A   1      40.317  28.650  27.686  1.00  0.00     0.010 A 
ATOM     34  C   UNL A   1      39.246  27.625  29.582  1.00  0.00     0.010 A 
ATOM     35  C   UNL A   1      39.818  28.766  28.978  1.00  0.00    -0.014 A 
BRANCH  35  36
ATOM     36  C   UNL A   1      39.955  29.941  29.866  1.00  0.00     0.031 A 
ATOM     37  C   UNL A   1      41.025  29.901  30.875  1.00  0.00     0.074 A 
ATOM     38  C   UNL A   1      39.331  31.137  29.666  1.00  0.00     0.049 A 
ATOM     39  N   UNL A   1      41.023  30.629  31.938  1.00  0.00    -0.248 NA
ATOM     40  C   UNL A   1      42.152  28.969  30.837  1.00  0.00     0.031 C 
ATOM     41  C   UNL A   1      39.755  32.473  30.088  1.00  0.00     0.029 A 
ATOM     42  N   UNL A   1      38.157  31.418  28.973  1.00  0.00    -0.354 N 
ATOM     43  C   UNL A   1      42.316  30.617  32.394  1.00  0.00     0.074 A 
ATOM     44  C   UNL A   1      42.845  29.377  31.901  1.00  0.00     0.031 C 
ATOM     45  C   UNL A   1      38.765  33.360  29.872  1.00  0.00     0.029 A 
ATOM     46  C   UNL A   1      37.608  32.636  29.370  1.00  0.00     0.049 A 
ATOM     47  H   UNL A   1      37.763  30.830  28.290  1.00  0.00     0.167 HD
ATOM     48  C   UNL A   1      42.844  31.778  32.882  1.00  0.00     0.037 A 
ATOM     49  C   UNL A   1      36.282  32.768  29.622  1.00  0.00     0.037 A 
ATOM     50  C   UNL A   1      41.797  32.832  33.017  1.00  0.00     0.049 A 
ATOM     51  C   UNL A   1      36.292  32.946  31.207  1.00  0.00     0.074 A 
ATOM     52  C   UNL A   1      41.623  34.130  32.556  1.00  0.00     0.029 A 
ATOM     53  N   UNL A   1      40.545  32.485  33.533  1.00  0.00    -0.354 N 
ATOM     54  N   UNL A   1      37.393  33.204  31.882  1.00  0.00    -0.248 NA
ATOM     55  C   UNL A   1      35.175  32.819  32.147  1.00  0.00     0.031 C 
ATOM     56  C   UNL A   1      40.281  34.549  32.845  1.00  0.00     0.029 A 
ATOM     57  C   UNL A   1      39.623  33.515  33.487  1.00  0.00     0.049 A 
ATOM     58  H   UNL A   1      40.338  31.593  33.894  1.00  0.00     0.167 HD
ATOM     59  C   UNL A   1      37.225  33.165  33.232  1.00  0.00     0.074 A 
ATOM     60  C   UNL A   1      35.793  32.927  33.350  1.00  0.00     0.031 C 
ATOM     61  C   UNL A   1      38.295  33.318  34.091  1.00  0.00     0.037 A 
BRANCH  48  62
ATOM     62  C   UNL A   1      44.351  32.038  33.030  1.00  0.00     0.064 A 
ATOM     63  C   UNL A   1      44.948  32.011  34.309  1.00  0.00     0.173 A 
ATOM     64  C   UNL A   1      45.265  32.364  31.996  1.00  0.00     0.173 A 
ATOM     65  F   UNL A   1      44.243  31.692  35.401  1.00  0.00    -0.203 F 
ATOM     66  C   UNL A   1      46.303  32.307  34.529  1.00  0.00     0.198 A 
ATOM     67  C   UNL A   1      46.624  32.620  32.209  1.00  0.00     0.198 A 
ATOM     68  F   UNL A   1      44.915  32.485  30.716  1.00  0.00    -0.203 F 
ATOM     69  F   UNL A   1      46.787  32.303  35.778  1.00  0.00    -0.200 F 
ATOM     70  C   UNL A   1      47.144  32.603  33.477  1.00  0.00     0.200 A 
ATOM     71  F   UNL A   1      47.416  32.898  31.162  1.00  0.00    -0.200 F 
ATOM     72  F   UNL A   1      48.439  32.869  33.684  1.00  0.00    -0.200 F 
ENDBRANCH  48  62
BRANCH  49  73
ATOM     73  C   UNL A   1      35.411  31.692  28.710  1.00  0.00     0.064 A 
ATOM     74  C   UNL A   1      35.384  29.793  28.000  1.00  0.00     0.173 A 
ATOM     75  C   UNL A   1      33.981  32.718  28.240  1.00  0.00     0.173 A 
ATOM     76  F   UNL A   1      36.250  28.736  28.086  1.00  0.00    -0.203 F 
ATOM     77  C   UNL A   1      33.976  29.251  27.005  1.00  0.00     0.198 A 
ATOM     78  C   UNL A   1      32.691  32.033  27.274  1.00  0.00     0.198 A 
ATOM     79  F   UNL A   1      33.899  34.011  28.583  1.00  0.00    -0.203 F 
ATOM     80  F   UNL A   1      33.865  27.969  26.637  1.00  0.00    -0.200 F 
ATOM     81  C   UNL A   1      32.691  30.378  26.689  1.00  0.00     0.200 A 
ATOM     82  F   UNL A   1      31.603  32.785  27.042  1.00  0.00    -0.200 F 
ATOM     83  F   UNL A   1      31.574  29.922  26.095  1.00  0.00    -0.200 F 
ENDBRANCH  49  73
BRANCH  61  84
ATOM     84  C   UNL A   1      38.236  33.298  35.614  1.00  0.00     0.064 A 
ATOM     85  C   UNL A   1      38.621  34.383  36.412  1.00  0.00     0.173 A 
ATOM     86  C   UNL A   1      37.886  32.125  36.344  1.00  0.00     0.173 A 
ATOM     87  F   UNL A   1      39.148  35.486  35.867  1.00  0.00    -0.203 F 
ATOM     88  C   UNL A   1      38.536  34.345  37.810  1.00  0.00     0.198 A 
ATOM     89  C   UNL A   1      37.851  32.073  37.735  1.00  0.00     0.198 A 
ATOM     90  F   UNL A   1      37.561  30.971  35.752  1.00  0.00    -0.203 F 
ATOM     91  F   UNL A   1      38.853  35.434  38.521  1.00  0.00    -0.200 F 
ATOM     92  C   UNL A   1      38.142  33.194  38.470  1.00  0.00     0.200 A 
ATOM     93  F   UNL A   1      37.523  30.925  38.347  1.00  0.00    -0.200 F 
ATOM     94  F   UNL A   1      38.062  33.162  39.807  1.00  0.00    -0.200 F 
ENDBRANCH  61  84
ENDBRANCH  35  36
ENDBRANCH  28  30
ENDBRANCH  27  28
ENDBRANCH  26  27
ENDBRANCH  25  26
ENDBRANCH  24  25
ENDBRANCH   1  24
TORSDOF 17
ENDMDL
MODEL 2
REMARK VINA RESULT:     -12.1      4.744      9.979
REMARK SMILES Cc1c(C[N@H+]2CC[C@@H](C(=O)OCCOCCOC(=O)c3ccc(-c4c5nc(c(-c6c(F)c(F)c(F)c(F)c6F)c6ccc([nH]6)c(-c6c(F)c(F)c(F)c(F)c6F)c6nc(c(-c7c(F)c(F)c(F)c(F)c7F)c7ccc4[nH]7)C=C6)C=C5)cc3)[C@@H]2C)cccc1[N+](=O)[O-]
REMARK SMILES IDX 13 1 12 2 11 3 9 4 10 5 8 6 5 7 6 8 83 9 7 11 84 12 4 13
REMARK SMILES IDX 3 14 1 15 2 16 88 17 85 18 87 19 86 20 89 21 90 22 91 23
REMARK SMILES IDX 14 24 15 25 16 26 17 27 18 28 19 29 20 30 21 31 82 32 22 33
REMARK SMILES IDX 81 34 23 35 24 36 25 37 75 38 26 39 80 40 74 41 76 42 27 43
REMARK SMILES IDX 79 44 73 45 72 46 28 48 60 49 40 50 59 51 41 52 44 53 58 54
REMARK SMILES IDX 77 55 42 56 43 57 57 59 78 60 45 61 29 62 30 63 38 64 31 65
REMARK SMILES IDX 32 66 36 67 39 68 33 69 34 70 37 71 35 72 61 73 62 74 70 75
REMARK SMILES IDX 63 76 64 77 68 78 71 79 65 80 66 81 69 82 67 83 46 84 47 85
REMARK SMILES IDX 55 86 48 87 49 88 53 89 56 90 50 91 51 92 54 93 52 94
REMARK H PARENT 5 10 76 47 44 58
REMARK Flexibility Score: inf
ROOT
ATOM      1  C   UNL A   1      33.933  30.598  27.245  1.00  0.00     0.202 C 
ENDROOT
BRANCH   1   2
ATOM      2  C   UNL A   1      32.500  30.438  26.912  1.00  0.00     0.261 C 
BRANCH   2   3
ATOM      3  O   UNL A   1      32.339  30.241  25.518  1.00  0.00    -0.463 OA
BRANCH   3   4
ATOM      4  C   UNL A   1      32.685  29.030  25.024  1.00  0.00     0.315 C 
ATOM      5  O   UNL A   1      33.819  28.629  24.825  1.00  0.00    -0.252 OA
BRANCH   4   6
ATOM      6  C   UNL A   1      31.424  28.247  24.809  1.00  0.00     0.162 C 
ATOM      7  N   UNL A   1      31.309  25.919  24.204  1.00  0.00    -0.328 N 
ATOM      8  C   UNL A   1      30.548  26.099  25.426  1.00  0.00     0.263 C 
ATOM      9  C   UNL A   1      31.614  27.241  23.646  1.00  0.00     0.195 C 
ATOM     10  H   UNL A   1      30.750  25.472  23.477  1.00  0.00     0.348 HD
ATOM     11  C   UNL A   1      31.035  27.408  26.007  1.00  0.00     0.083 C 
ATOM     12  C   UNL A   1      30.724  27.729  22.492  1.00  0.00     0.076 C 
BRANCH   7  13
ATOM     13  C   UNL A   1      32.279  24.799  24.171  1.00  0.00     0.299 C 
BRANCH  13  14
ATOM     14  C   UNL A   1      32.269  23.528  25.126  1.00  0.00     0.016 A 
ATOM     15  C   UNL A   1      32.115  21.805  22.921  1.00  0.00     0.052 C 
ATOM     16  C   UNL A   1      32.303  21.863  24.425  1.00  0.00     0.036 A 
ATOM     17  C   UNL A   1      33.044  20.453  25.242  1.00  0.00     0.272 A 
ATOM     18  C   UNL A   1      32.963  23.857  26.693  1.00  0.00     0.010 A 
ATOM     19  C   UNL A   1      33.796  20.691  26.877  1.00  0.00     0.086 A 
ATOM     20  C   UNL A   1      33.690  22.542  27.661  1.00  0.00     0.008 A 
BRANCH  17  21
ATOM     21  N   UNL A   1      33.051  19.106  24.716  1.00  0.00     0.062 N 
ATOM     22  O   UNL A   1      34.143  18.684  24.318  1.00  0.00    -0.258 OA
ATOM     23  O   UNL A   1      32.005  18.456  24.740  1.00  0.00    -0.258 OA
ENDBRANCH  17  21
ENDBRANCH  13  14
ENDBRANCH   7  13
ENDBRANCH   4   6
ENDBRANCH   3   4
ENDBRANCH   2   3
ENDBRANCH   1   2
BRANCH   1  24
ATOM     24  O   UNL A   1      33.899  31.554  28.273  1.00  0.00    -0.374 OA
BRANCH  24  25
ATOM     25  C   UNL A   1      34.582  32.743  27.959  1.00  0.00     0.202 C 
BRANCH  25  26
ATOM     26  C   UNL A   1      35.988  32.795  28.579  1.00  0.00     0.261 C 
BRANCH  26  27
ATOM     27  O   UNL A   1      36.642  31.513  28.385  1.00  0.00    -0.460 OA
BRANCH  27  28
ATOM     28  C   UNL A   1      36.996  30.805  29.499  1.00  0.00     0.338 C 
ATOM     29  O   UNL A   1      36.970  31.228  30.646  1.00  0.00    -0.246 OA
BRANCH  28  30
ATOM     30  C   UNL A   1      37.779  29.585  29.100  1.00  0.00     0.060 A 
ATOM     31  C   UNL A   1      37.989  28.543  30.031  1.00  0.00     0.016 A 
ATOM     32  C   UNL A   1      38.596  29.664  27.979  1.00  0.00     0.016 A 
ATOM     33  C   UNL A   1      39.133  27.724  29.949  1.00  0.00     0.010 A 
ATOM     34  C   UNL A   1      39.752  28.901  27.943  1.00  0.00     0.010 A 
ATOM     35  C   UNL A   1      40.079  27.983  28.965  1.00  0.00    -0.014 A 
BRANCH  35  36
ATOM     36  C   UNL A   1      41.479  27.504  28.950  1.00  0.00     0.031 A 
ATOM     37  C   UNL A   1      42.534  28.504  29.173  1.00  0.00     0.074 A 
ATOM     38  C   UNL A   1      41.845  26.191  28.983  1.00  0.00     0.049 A 
ATOM     39  N   UNL A   1      43.759  28.334  28.806  1.00  0.00    -0.248 NA
ATOM     40  C   UNL A   1      42.299  29.831  29.740  1.00  0.00     0.031 C 
ATOM     41  C   UNL A   1      43.079  25.598  29.502  1.00  0.00     0.029 A 
ATOM     42  N   UNL A   1      41.137  25.063  28.582  1.00  0.00    -0.354 N 
ATOM     43  C   UNL A   1      44.485  29.251  29.521  1.00  0.00     0.074 A 
ATOM     44  C   UNL A   1      43.546  30.301  29.794  1.00  0.00     0.031 C 
ATOM     45  C   UNL A   1      43.140  24.295  29.167  1.00  0.00     0.029 A 
ATOM     46  C   UNL A   1      41.985  23.984  28.341  1.00  0.00     0.049 A 
ATOM     47  H   UNL A   1      40.158  25.031  28.479  1.00  0.00     0.167 HD
ATOM     48  C   UNL A   1      45.697  28.870  30.023  1.00  0.00     0.037 A 
ATOM     49  C   UNL A   1      41.847  23.205  27.239  1.00  0.00     0.037 A 
ATOM     50  C   UNL A   1      46.102  27.533  29.500  1.00  0.00     0.049 A 
ATOM     51  C   UNL A   1      43.140  23.629  26.405  1.00  0.00     0.074 A 
ATOM     52  C   UNL A   1      46.471  26.316  30.056  1.00  0.00     0.029 A 
ATOM     53  N   UNL A   1      45.900  27.241  28.148  1.00  0.00    -0.354 N 
ATOM     54  N   UNL A   1      44.132  24.311  26.939  1.00  0.00    -0.248 NA
ATOM     55  C   UNL A   1      43.427  23.401  24.987  1.00  0.00     0.031 C 
ATOM     56  C   UNL A   1      46.526  25.329  29.015  1.00  0.00     0.029 A 
ATOM     57  C   UNL A   1      46.194  25.932  27.815  1.00  0.00     0.049 A 
ATOM     58  H   UNL A   1      45.580  27.904  27.495  1.00  0.00     0.167 HD
ATOM     59  C   UNL A   1      45.066  24.711  26.033  1.00  0.00     0.074 A 
ATOM     60  C   UNL A   1      44.577  24.096  24.806  1.00  0.00     0.031 C 
ATOM     61  C   UNL A   1      46.124  25.516  26.404  1.00  0.00     0.037 A 
BRANCH  48  62
ATOM     62  C   UNL A   1      46.421  29.604  31.162  1.00  0.00     0.064 A 
ATOM     63  C   UNL A   1      47.596  30.338  30.894  1.00  0.00     0.173 A 
ATOM     64  C   UNL A   1      46.067  29.604  32.536  1.00  0.00     0.173 A 
ATOM     65  F   UNL A   1      48.064  30.473  29.647  1.00  0.00    -0.203 F 
ATOM     66  C   UNL A   1      48.348  30.975  31.894  1.00  0.00     0.198 A 
ATOM     67  C   UNL A   1      46.793  30.272  33.528  1.00  0.00     0.198 A 
ATOM     68  F   UNL A   1      45.018  28.944  33.025  1.00  0.00    -0.203 F 
ATOM     69  F   UNL A   1      49.477  31.616  31.566  1.00  0.00    -0.200 F 
ATOM     70  C   UNL A   1      47.941  30.950  33.211  1.00  0.00     0.200 A 
ATOM     71  F   UNL A   1      46.366  30.232  34.800  1.00  0.00    -0.200 F 
ATOM     72  F   UNL A   1      48.649  31.570  34.163  1.00  0.00    -0.200 F 
ENDBRANCH  48  62
BRANCH  49  73
ATOM     73  C   UNL A   1      40.265  23.177  26.746  1.00  0.00     0.064 A 
ATOM     74  C   UNL A   1      38.585  24.299  26.569  1.00  0.00     0.173 A 
ATOM     75  C   UNL A   1      40.113  21.454  26.174  1.00  0.00     0.173 A 
ATOM     76  F   UNL A   1      38.267  25.589  26.899  1.00  0.00    -0.203 F 
ATOM     77  C   UNL A   1      37.104  23.549  25.853  1.00  0.00     0.198 A 
ATOM     78  C   UNL A   1      38.602  20.887  25.494  1.00  0.00     0.198 A 
ATOM     79  F   UNL A   1      41.124  20.581  26.292  1.00  0.00    -0.203 F 
ATOM     80  F   UNL A   1      36.025  24.299  25.600  1.00  0.00    -0.200 F 
ATOM     81  C   UNL A   1      37.171  21.890  25.339  1.00  0.00     0.200 A 
ATOM     82  F   UNL A   1      38.562  19.646  24.982  1.00  0.00    -0.200 F 
ATOM     83  F   UNL A   1      36.125  21.390  24.657  1.00  0.00    -0.200 F 
ENDBRANCH  49  73
BRANCH  61  84
ATOM     84  C   UNL A   1      47.232  26.024  25.489  1.00  0.00     0.064 A 
ATOM     85  C   UNL A   1      48.584  25.710  25.672  1.00  0.00     0.173 A 
ATOM     86  C   UNL A   1      46.981  26.954  24.438  1.00  0.00     0.173 A 
ATOM     87  F   UNL A   1      48.989  24.998  26.731  1.00  0.00    -0.203 F 
ATOM     88  C   UNL A   1      49.580  26.174  24.802  1.00  0.00     0.198 A 
ATOM     89  C   UNL A   1      47.978  27.454  23.606  1.00  0.00     0.198 A 
ATOM     90  F   UNL A   1      45.760  27.425  24.161  1.00  0.00    -0.203 F 
ATOM     91  F   UNL A   1      50.849  25.787  24.985  1.00  0.00    -0.200 F 
ATOM     92  C   UNL A   1      49.276  27.037  23.765  1.00  0.00     0.200 A 
ATOM     93  F   UNL A   1      47.661  28.336  22.646  1.00  0.00    -0.200 F 
ATOM     94  F   UNL A   1      50.231  27.478  22.936  1.00  0.00    -0.200 F 
ENDBRANCH  61  84
ENDBRANCH  35  36
ENDBRANCH  28  30
ENDBRANCH  27  28
ENDBRANCH  26  27
ENDBRANCH  25  26
ENDBRANCH  24  25
ENDBRANCH   1  24
TORSDOF 17
ENDMDL
MODEL 3
REMARK VINA RESULT:     -11.8      4.978     10.149
REMARK SMILES Cc1c(C[N@H+]2CC[C@@H](C(=O)OCCOCCOC(=O)c3ccc(-c4c5nc(c(-c6c(F)c(F)c(F)c(F)c6F)c6ccc([nH]6)c(-c6c(F)c(F)c(F)c(F)c6F)c6nc(c(-c7c(F)c(F)c(F)c(F)c7F)c7ccc4[nH]7)C=C6)C=C5)cc3)[C@@H]2C)cccc1[N+](=O)[O-]
REMARK SMILES IDX 13 1 12 2 11 3 9 4 10 5 8 6 5 7 6 8 83 9 7 11 84 12 4 13
REMARK SMILES IDX 3 14 1 15 2 16 88 17 85 18 87 19 86 20 89 21 90 22 91 23
REMARK SMILES IDX 14 24 15 25 16 26 17 27 18 28 19 29 20 30 21 31 82 32 22 33
REMARK SMILES IDX 81 34 23 35 24 36 25 37 75 38 26 39 80 40 74 41 76 42 27 43
REMARK SMILES IDX 79 44 73 45 72 46 28 48 60 49 40 50 59 51 41 52 44 53 58 54
REMARK SMILES IDX 77 55 42 56 43 57 57 59 78 60 45 61 29 62 30 63 38 64 31 65
REMARK SMILES IDX 32 66 36 67 39 68 33 69 34 70 37 71 35 72 61 73 62 74 70 75
REMARK SMILES IDX 63 76 64 77 68 78 71 79 65 80 66 81 69 82 67 83 46 84 47 85
REMARK SMILES IDX 55 86 48 87 49 88 53 89 56 90 50 91 51 92 54 93 52 94
REMARK H PARENT 5 10 76 47 44 58
REMARK Flexibility Score: inf
ROOT
ATOM      1  C   UNL A   1      34.642  33.207  28.766  1.00  0.00     0.202 C 
ENDROOT
BRANCH   1   2
ATOM      2  C   UNL A   1      34.149  32.251  27.750  1.00  0.00     0.261 C 
BRANCH   2   3
ATOM      3  O   UNL A   1      34.054  30.950  28.304  1.00  0.00    -0.463 OA
BRANCH   3   4
ATOM      4  C   UNL A   1      34.009  29.914  27.435  1.00  0.00     0.315 C 
ATOM      5  O   UNL A   1      34.968  29.332  26.955  1.00  0.00    -0.252 OA
BRANCH   4   6
ATOM      6  C   UNL A   1      32.567  29.576  27.201  1.00  0.00     0.162 C 
ATOM      7  N   UNL A   1      31.673  28.560  25.209  1.00  0.00    -0.328 N 
ATOM      8  C   UNL A   1      31.301  27.729  26.338  1.00  0.00     0.263 C 
ATOM      9  C   UNL A   1      32.193  29.833  25.719  1.00  0.00     0.195 C 
ATOM     10  H   UNL A   1      30.858  28.834  24.660  1.00  0.00     0.348 HD
ATOM     11  C   UNL A   1      32.253  28.116  27.447  1.00  0.00     0.083 C 
ATOM     12  C   UNL A   1      31.229  31.029  25.711  1.00  0.00     0.076 C 
BRANCH   7  13
ATOM     13  C   UNL A   1      32.259  27.877  24.031  1.00  0.00     0.299 C 
BRANCH  13  14
ATOM     14  C   UNL A   1      32.296  26.306  23.786  1.00  0.00     0.016 A 
ATOM     15  C   UNL A   1      34.283  25.997  25.738  1.00  0.00     0.052 C 
ATOM     16  C   UNL A   1      33.333  25.250  24.821  1.00  0.00     0.036 A 
ATOM     17  C   UNL A   1      32.943  23.546  25.210  1.00  0.00     0.272 A 
ATOM     18  C   UNL A   1      30.824  25.700  23.073  1.00  0.00     0.010 A 
ATOM     19  C   UNL A   1      31.430  22.820  24.518  1.00  0.00     0.086 A 
ATOM     20  C   UNL A   1      30.326  24.002  23.319  1.00  0.00     0.008 A 
BRANCH  17  21
ATOM     21  N   UNL A   1      33.776  22.671  26.007  1.00  0.00     0.062 N 
ATOM     22  O   UNL A   1      33.920  22.992  27.192  1.00  0.00    -0.258 OA
ATOM     23  O   UNL A   1      34.239  21.658  25.484  1.00  0.00    -0.258 OA
ENDBRANCH  17  21
ENDBRANCH  13  14
ENDBRANCH   7  13
ENDBRANCH   4   6
ENDBRANCH   3   4
ENDBRANCH   2   3
ENDBRANCH   1   2
BRANCH   1  24
ATOM     24  O   UNL A   1      35.945  33.479  28.316  1.00  0.00    -0.374 OA
BRANCH  24  25
ATOM     25  C   UNL A   1      36.867  33.687  29.358  1.00  0.00     0.202 C 
BRANCH  25  26
ATOM     26  C   UNL A   1      38.064  32.724  29.285  1.00  0.00     0.261 C 
BRANCH  26  27
ATOM     27  O   UNL A   1      37.672  31.531  28.556  1.00  0.00    -0.460 OA
BRANCH  27  28
ATOM     28  C   UNL A   1      37.284  30.440  29.283  1.00  0.00     0.338 C 
ATOM     29  O   UNL A   1      36.592  30.469  30.290  1.00  0.00    -0.246 OA
BRANCH  28  30
ATOM     30  C   UNL A   1      38.129  29.254  28.910  1.00  0.00     0.060 A 
ATOM     31  C   UNL A   1      38.362  28.227  29.853  1.00  0.00     0.016 A 
ATOM     32  C   UNL A   1      38.969  29.361  27.808  1.00  0.00     0.016 A 
ATOM     33  C   UNL A   1      39.541  27.457  29.804  1.00  0.00     0.010 A 
ATOM     34  C   UNL A   1      40.157  28.650  27.805  1.00  0.00     0.010 A 
ATOM     35  C   UNL A   1      40.499  27.752  28.841  1.00  0.00    -0.014 A 
BRANCH  35  36
ATOM     36  C   UNL A   1      41.918  27.334  28.862  1.00  0.00     0.031 A 
ATOM     37  C   UNL A   1      42.927  28.388  29.053  1.00  0.00     0.074 A 
ATOM     38  C   UNL A   1      42.340  26.042  28.957  1.00  0.00     0.049 A 
ATOM     39  N   UNL A   1      44.162  28.256  28.707  1.00  0.00    -0.248 NA
ATOM     40  C   UNL A   1      42.627  29.727  29.558  1.00  0.00     0.031 C 
ATOM     41  C   UNL A   1      43.592  25.526  29.515  1.00  0.00     0.029 A 
ATOM     42  N   UNL A   1      41.686  24.867  28.598  1.00  0.00    -0.354 N 
ATOM     43  C   UNL A   1      44.839  29.234  29.388  1.00  0.00     0.074 A 
ATOM     44  C   UNL A   1      43.852  30.253  29.605  1.00  0.00     0.031 C 
ATOM     45  C   UNL A   1      43.713  24.214  29.238  1.00  0.00     0.029 A 
ATOM     46  C   UNL A   1      42.583  23.817  28.414  1.00  0.00     0.049 A 
ATOM     47  H   UNL A   1      40.711  24.788  28.486  1.00  0.00     0.167 HD
ATOM     48  C   UNL A   1      46.060  28.929  29.920  1.00  0.00     0.037 A 
ATOM     49  C   UNL A   1      42.493  22.985  27.346  1.00  0.00     0.037 A 
ATOM     50  C   UNL A   1      46.528  27.589  29.461  1.00  0.00     0.049 A 
ATOM     51  C   UNL A   1      43.777  23.428  26.509  1.00  0.00     0.074 A 
ATOM     52  C   UNL A   1      46.942  26.414  30.074  1.00  0.00     0.029 A 
ATOM     53  N   UNL A   1      46.357  27.230  28.121  1.00  0.00    -0.354 N 
ATOM     54  N   UNL A   1      44.732  24.176  27.023  1.00  0.00    -0.248 NA
ATOM     55  C   UNL A   1      44.091  23.152  25.106  1.00  0.00     0.031 C 
ATOM     56  C   UNL A   1      47.053  25.386  29.078  1.00  0.00     0.029 A 
ATOM     57  C   UNL A   1      46.710  25.922  27.850  1.00  0.00     0.049 A 
ATOM     58  H   UNL A   1      46.017  27.849  27.436  1.00  0.00     0.167 HD
ATOM     59  C   UNL A   1      45.659  24.577  26.110  1.00  0.00     0.074 A 
ATOM     60  C   UNL A   1      45.213  23.888  24.907  1.00  0.00     0.031 C 
ATOM     61  C   UNL A   1      46.677  25.442  26.457  1.00  0.00     0.037 A 
BRANCH  48  62
ATOM     62  C   UNL A   1      46.736  29.742  31.034  1.00  0.00     0.064 A 
ATOM     63  C   UNL A   1      46.416  29.489  32.385  1.00  0.00     0.173 A 
ATOM     64  C   UNL A   1      47.660  30.807  30.871  1.00  0.00     0.173 A 
ATOM     65  F   UNL A   1      45.583  28.500  32.731  1.00  0.00    -0.203 F 
ATOM     66  C   UNL A   1      46.940  30.238  33.451  1.00  0.00     0.198 A 
ATOM     67  C   UNL A   1      48.213  31.528  31.935  1.00  0.00     0.198 A 
ATOM     68  F   UNL A   1      48.074  31.246  29.684  1.00  0.00    -0.203 F 
ATOM     69  F   UNL A   1      46.554  29.966  34.704  1.00  0.00    -0.200 F 
ATOM     70  C   UNL A   1      47.846  31.252  33.226  1.00  0.00     0.200 A 
ATOM     71  F   UNL A   1      49.098  32.505  31.681  1.00  0.00    -0.200 F 
ATOM     72  F   UNL A   1      48.359  31.957  34.243  1.00  0.00    -0.200 F 
ENDBRANCH  48  62
BRANCH  49  73
ATOM     73  C   UNL A   1      40.920  22.867  26.837  1.00  0.00     0.064 A 
ATOM     74  C   UNL A   1      39.208  23.915  26.555  1.00  0.00     0.173 A 
ATOM     75  C   UNL A   1      40.833  21.101  26.398  1.00  0.00     0.173 A 
ATOM     76  F   UNL A   1      38.843  25.215  26.781  1.00  0.00    -0.203 F 
ATOM     77  C   UNL A   1      37.763  23.064  25.881  1.00  0.00     0.198 A 
ATOM     78  C   UNL A   1      39.351  20.434  25.745  1.00  0.00     0.198 A 
ATOM     79  F   UNL A   1      41.869  20.274  26.595  1.00  0.00    -0.203 F 
ATOM     80  F   UNL A   1      36.663  23.756  25.558  1.00  0.00    -0.200 F 
ATOM     81  C   UNL A   1      37.890  21.374  25.497  1.00  0.00     0.200 A 
ATOM     82  F   UNL A   1      39.359  19.156  25.329  1.00  0.00    -0.200 F 
ATOM     83  F   UNL A   1      36.871  20.789  24.842  1.00  0.00    -0.200 F 
ENDBRANCH  49  73
BRANCH  61  84
ATOM     84  C   UNL A   1      47.774  25.958  25.533  1.00  0.00     0.064 A 
ATOM     85  C   UNL A   1      49.135  25.708  25.743  1.00  0.00     0.173 A 
ATOM     86  C   UNL A   1      47.496  26.832  24.442  1.00  0.00     0.173 A 
ATOM     87  F   UNL A   1      49.557  25.057  26.834  1.00  0.00    -0.203 F 
ATOM     88  C   UNL A   1      50.122  26.177  24.864  1.00  0.00     0.198 A 
ATOM     89  C   UNL A   1      48.482  27.338  23.599  1.00  0.00     0.198 A 
ATOM     90  F   UNL A   1      46.261  27.240  24.133  1.00  0.00    -0.203 F 
ATOM     91  F   UNL A   1      51.403  25.851  25.075  1.00  0.00    -0.200 F 
ATOM     92  C   UNL A   1      49.794  26.983  23.789  1.00  0.00     0.200 A 
ATOM     93  F   UNL A   1      48.140  28.167  22.601  1.00  0.00    -0.200 F 
ATOM     94  F   UNL A   1      50.739  27.429  22.951  1.00  0.00    -0.200 F 
ENDBRANCH  61  84
ENDBRANCH  35  36
ENDBRANCH  28  30
ENDBRANCH  27  28
ENDBRANCH  26  27
ENDBRANCH  25  26
ENDBRANCH  24  25
ENDBRANCH   1  24
TORSDOF 17
ENDMDL
