MODEL 1
REMARK VINA RESULT:     -11.9      0.000      0.000
REMARK SMILES O=C(CNC(=O)N1CC(OCCOCCOC(=O)c2ccc(-c3c4nc(c(-c5c(F)c(F)c(F)c(F)c5F)c5ccc([nH]5)c(-c5c(F)c(F)c(F)c(F)c5F)c5nc(c(-c6c(F)c(F)c(F)c(F)c6F)c6ccc3[nH]6)C=C5)C=C4)cc2)=Nc2ccccc21)N[C@H](C(=O)[O-])c1ccccc1
REMARK SMILES IDX 12 1 11 2 10 3 9 4 7 5 8 6 88 7 83 8 87 9 82 10 84 11 86 12
REMARK SMILES IDX 85 13 5 14 4 15 6 17 3 18 2 19 1 20 89 21 90 23 94 24 95 25
REMARK SMILES IDX 99 26 96 27 98 28 97 29 91 30 92 31 93 32 13 33 14 34 15 35
REMARK SMILES IDX 16 36 17 37 18 38 19 39 20 40 81 41 21 42 80 43 22 44 23 45
REMARK SMILES IDX 24 46 74 47 25 48 79 49 73 50 75 51 26 52 78 53 72 54 71 55
REMARK SMILES IDX 27 57 59 58 39 59 58 60 40 61 43 62 57 63 76 64 41 65 42 66
REMARK SMILES IDX 56 68 77 69 44 70 28 71 29 72 37 73 30 74 31 75 35 76 38 77
REMARK SMILES IDX 32 78 33 79 36 80 34 81 60 82 61 83 69 84 62 85 63 86 67 87
REMARK SMILES IDX 70 88 64 89 65 90 68 91 66 92 45 93 46 94 54 95 47 96 48 97
REMARK SMILES IDX 52 98 55 99 49 100 50 101 53 102 51 103
REMARK H PARENT 4 16 89 22 75 56 43 67
REMARK Flexibility Score: inf
ROOT
ATOM      1  C   UNL A   1      38.443  22.938  26.508  1.00  0.00     0.202 C 
ENDROOT
BRANCH   1   2
ATOM      2  C   UNL A   1      37.562  23.741  25.537  1.00  0.00     0.259 C 
BRANCH   2   3
ATOM      3  O   UNL A   1      36.152  23.596  25.848  1.00  0.00    -0.477 OA
BRANCH   3   4
ATOM      4  C   UNL A   1      35.416  22.794  25.041  1.00  0.00     0.209 C 
ATOM      5  N   UNL A   1      33.537  22.951  23.441  1.00  0.00    -0.283 N 
ATOM      6  C   UNL A   1      34.825  23.517  23.854  1.00  0.00     0.224 C 
ATOM      7  C   UNL A   1      33.372  21.542  23.664  1.00  0.00     0.072 A 
ATOM      8  C   UNL A   1      34.237  20.884  24.571  1.00  0.00     0.091 A 
ATOM      9  C   UNL A   1      32.399  20.778  23.009  1.00  0.00     0.029 A 
ATOM     10  N   UNL A   1      35.225  21.547  25.315  1.00  0.00    -0.214 NA
ATOM     11  C   UNL A   1      34.044  19.533  24.878  1.00  0.00     0.030 A 
ATOM     12  C   UNL A   1      32.210  19.429  23.333  1.00  0.00     0.002 A 
ATOM     13  C   UNL A   1      33.021  18.811  24.277  1.00  0.00     0.002 A 
BRANCH   5  14
ATOM     14  C   UNL A   1      32.746  23.772  22.666  1.00  0.00     0.322 C 
ATOM     15  N   UNL A   1      31.453  24.011  23.000  1.00  0.00    -0.329 N 
ATOM     16  H   UNL A   1      30.889  24.367  22.276  1.00  0.00     0.165 HD
ATOM     17  O   UNL A   1      33.208  24.388  21.702  1.00  0.00    -0.248 OA
BRANCH  15  18
ATOM     18  C   UNL A   1      30.782  23.813  24.271  1.00  0.00     0.218 C 
BRANCH  18  19
ATOM     19  C   UNL A   1      30.391  25.128  24.968  1.00  0.00     0.240 C 
ATOM     20  O   UNL A   1      30.108  25.174  26.160  1.00  0.00    -0.273 OA
ATOM     21  N   UNL A   1      30.422  26.200  24.125  1.00  0.00    -0.342 N 
ATOM     22  H   UNL A   1      30.415  25.986  23.164  1.00  0.00     0.164 HD
BRANCH  21  23
ATOM     23  C   UNL A   1      30.465  27.646  24.459  1.00  0.00     0.158 C 
BRANCH  23  24
ATOM     24  C   UNL A   1      31.679  28.036  25.305  1.00  0.00    -0.020 A 
ATOM     25  C   UNL A   1      31.511  28.274  26.682  1.00  0.00     0.006 A 
ATOM     26  C   UNL A   1      32.986  28.117  24.796  1.00  0.00     0.006 A 
ATOM     27  C   UNL A   1      32.596  28.576  27.510  1.00  0.00     0.000 A 
ATOM     28  C   UNL A   1      34.078  28.394  25.626  1.00  0.00     0.000 A 
ATOM     29  C   UNL A   1      33.883  28.622  26.984  1.00  0.00     0.000 A 
ENDBRANCH  23  24
BRANCH  23  30
ATOM     30  C   UNL A   1      30.297  28.472  23.112  1.00  0.00     0.068 C 
ATOM     31  O   UNL A   1      30.456  27.897  22.005  1.00  0.00    -0.548 OA
ATOM     32  O   UNL A   1      29.944  29.682  23.322  1.00  0.00    -0.548 OA
ENDBRANCH  23  30
ENDBRANCH  21  23
ENDBRANCH  18  19
ENDBRANCH  15  18
ENDBRANCH   5  14
ENDBRANCH   3   4
ENDBRANCH   2   3
ENDBRANCH   1   2
BRANCH   1  33
ATOM     33  O   UNL A   1      39.457  22.140  25.888  1.00  0.00    -0.374 OA
BRANCH  33  34
ATOM     34  C   UNL A   1      39.080  20.822  25.509  1.00  0.00     0.202 C 
BRANCH  34  35
ATOM     35  C   UNL A   1      39.864  19.648  26.085  1.00  0.00     0.261 C 
BRANCH  35  36
ATOM     36  O   UNL A   1      41.028  19.317  25.349  1.00  0.00    -0.460 OA
BRANCH  36  37
ATOM     37  C   UNL A   1      42.123  19.205  26.125  1.00  0.00     0.338 C 
ATOM     38  O   UNL A   1      42.773  18.189  26.359  1.00  0.00    -0.246 OA
BRANCH  37  39
ATOM     39  C   UNL A   1      42.601  20.554  26.453  1.00  0.00     0.060 A 
ATOM     40  C   UNL A   1      42.539  20.935  27.796  1.00  0.00     0.016 A 
ATOM     41  C   UNL A   1      43.108  21.425  25.483  1.00  0.00     0.016 A 
ATOM     42  C   UNL A   1      42.953  22.204  28.172  1.00  0.00     0.010 A 
ATOM     43  C   UNL A   1      43.537  22.697  25.863  1.00  0.00     0.010 A 
ATOM     44  C   UNL A   1      43.436  23.097  27.204  1.00  0.00    -0.014 A 
BRANCH  44  45
ATOM     45  C   UNL A   1      43.734  24.483  27.616  1.00  0.00     0.031 A 
ATOM     46  C   UNL A   1      45.160  24.948  27.630  1.00  0.00     0.074 A 
ATOM     47  C   UNL A   1      42.727  25.327  27.892  1.00  0.00     0.049 A 
ATOM     48  N   UNL A   1      45.635  26.145  27.864  1.00  0.00    -0.248 NA
ATOM     49  C   UNL A   1      46.186  23.936  27.331  1.00  0.00     0.031 C 
ATOM     50  C   UNL A   1      41.308  24.974  27.886  1.00  0.00     0.029 A 
ATOM     51  N   UNL A   1      42.742  26.658  28.218  1.00  0.00    -0.354 N 
ATOM     52  C   UNL A   1      47.012  26.029  27.736  1.00  0.00     0.074 A 
ATOM     53  C   UNL A   1      47.301  24.644  27.436  1.00  0.00     0.031 C 
ATOM     54  C   UNL A   1      40.586  26.065  28.185  1.00  0.00     0.029 A 
ATOM     55  C   UNL A   1      41.492  27.186  28.423  1.00  0.00     0.049 A 
ATOM     56  H   UNL A   1      43.570  27.185  28.296  1.00  0.00     0.167 HD
ATOM     57  C   UNL A   1      47.949  27.000  27.849  1.00  0.00     0.037 A 
ATOM     58  C   UNL A   1      41.128  28.435  28.768  1.00  0.00     0.037 A 
ATOM     59  C   UNL A   1      47.651  28.374  28.155  1.00  0.00     0.049 A 
ATOM     60  C   UNL A   1      42.194  29.484  28.935  1.00  0.00     0.074 A 
ATOM     61  C   UNL A   1      48.522  29.441  28.277  1.00  0.00     0.029 A 
ATOM     62  N   UNL A   1      46.376  28.865  28.395  1.00  0.00    -0.354 N 
ATOM     63  N   UNL A   1      43.490  29.381  28.770  1.00  0.00    -0.248 NA
ATOM     64  C   UNL A   1      41.745  30.826  29.331  1.00  0.00     0.031 C 
ATOM     65  C   UNL A   1      47.778  30.571  28.634  1.00  0.00     0.029 A 
ATOM     66  C   UNL A   1      46.439  30.217  28.691  1.00  0.00     0.049 A 
ATOM     67  H   UNL A   1      45.549  28.332  28.362  1.00  0.00     0.167 HD
ATOM     68  C   UNL A   1      44.011  30.640  29.021  1.00  0.00     0.074 A 
ATOM     69  C   UNL A   1      42.887  31.500  29.336  1.00  0.00     0.031 C 
ATOM     70  C   UNL A   1      45.303  31.050  28.997  1.00  0.00     0.037 A 
BRANCH  57  71
ATOM     71  C   UNL A   1      49.380  26.599  27.659  1.00  0.00     0.064 A 
ATOM     72  C   UNL A   1      49.945  26.479  26.381  1.00  0.00     0.173 A 
ATOM     73  C   UNL A   1      50.203  26.356  28.769  1.00  0.00     0.173 A 
ATOM     74  F   UNL A   1      49.198  26.700  25.289  1.00  0.00    -0.203 F 
ATOM     75  C   UNL A   1      51.278  26.111  26.220  1.00  0.00     0.198 A 
ATOM     76  C   UNL A   1      51.542  26.010  28.604  1.00  0.00     0.198 A 
ATOM     77  F   UNL A   1      49.714  26.471  30.012  1.00  0.00    -0.203 F 
ATOM     78  F   UNL A   1      51.793  25.978  24.989  1.00  0.00    -0.200 F 
ATOM     79  C   UNL A   1      52.076  25.882  27.331  1.00  0.00     0.200 A 
ATOM     80  F   UNL A   1      52.317  25.810  29.678  1.00  0.00    -0.200 F 
ATOM     81  F   UNL A   1      53.364  25.544  27.175  1.00  0.00    -0.200 F 
ENDBRANCH  57  71
BRANCH  58  82
ATOM     82  C   UNL A   1      39.693  28.755  28.970  1.00  0.00     0.064 A 
ATOM     83  C   UNL A   1      39.078  28.578  30.216  1.00  0.00     0.173 A 
ATOM     84  C   UNL A   1      38.907  29.249  27.918  1.00  0.00     0.173 A 
ATOM     85  F   UNL A   1      39.780  28.083  31.246  1.00  0.00    -0.203 F 
ATOM     86  C   UNL A   1      37.728  28.872  30.400  1.00  0.00     0.198 A 
ATOM     87  C   UNL A   1      37.564  29.565  28.109  1.00  0.00     0.198 A 
ATOM     88  F   UNL A   1      39.447  29.429  26.703  1.00  0.00    -0.203 F 
ATOM     89  F   UNL A   1      37.152  28.654  31.590  1.00  0.00    -0.200 F 
ATOM     90  C   UNL A   1      36.974  29.371  29.348  1.00  0.00     0.200 A 
ATOM     91  F   UNL A   1      36.841  30.053  27.091  1.00  0.00    -0.200 F 
ATOM     92  F   UNL A   1      35.677  29.654  29.526  1.00  0.00    -0.200 F 
ENDBRANCH  58  82
BRANCH  70  93
ATOM     93  C   UNL A   1      45.567  32.495  29.298  1.00  0.00     0.064 A 
ATOM     94  C   UNL A   1      45.865  32.929  30.597  1.00  0.00     0.173 A 
ATOM     95  C   UNL A   1      45.568  33.445  28.266  1.00  0.00     0.173 A 
ATOM     96  F   UNL A   1      45.859  32.059  31.619  1.00  0.00    -0.203 F 
ATOM     97  C   UNL A   1      46.136  34.270  30.857  1.00  0.00     0.198 A 
ATOM     98  C   UNL A   1      45.865  34.780  28.525  1.00  0.00     0.198 A 
ATOM     99  F   UNL A   1      45.294  33.079  27.006  1.00  0.00    -0.203 F 
ATOM    100  F   UNL A   1      46.380  34.671  32.111  1.00  0.00    -0.200 F 
ATOM    101  C   UNL A   1      46.143  35.192  29.820  1.00  0.00     0.200 A 
ATOM    102  F   UNL A   1      45.881  35.669  27.523  1.00  0.00    -0.200 F 
ATOM    103  F   UNL A   1      46.412  36.480  30.071  1.00  0.00    -0.200 F 
ENDBRANCH  70  93
ENDBRANCH  44  45
ENDBRANCH  37  39
ENDBRANCH  36  37
ENDBRANCH  35  36
ENDBRANCH  34  35
ENDBRANCH  33  34
ENDBRANCH   1  33
TORSDOF 19
ENDMDL
MODEL 2
REMARK VINA RESULT:     -11.8      1.139      2.302
REMARK SMILES O=C(CNC(=O)N1CC(OCCOCCOC(=O)c2ccc(-c3c4nc(c(-c5c(F)c(F)c(F)c(F)c5F)c5ccc([nH]5)c(-c5c(F)c(F)c(F)c(F)c5F)c5nc(c(-c6c(F)c(F)c(F)c(F)c6F)c6ccc3[nH]6)C=C5)C=C4)cc2)=Nc2ccccc21)N[C@H](C(=O)[O-])c1ccccc1
REMARK SMILES IDX 12 1 11 2 10 3 9 4 7 5 8 6 88 7 83 8 87 9 82 10 84 11 86 12
REMARK SMILES IDX 85 13 5 14 4 15 6 17 3 18 2 19 1 20 89 21 90 23 94 24 95 25
REMARK SMILES IDX 99 26 96 27 98 28 97 29 91 30 92 31 93 32 13 33 14 34 15 35
REMARK SMILES IDX 16 36 17 37 18 38 19 39 20 40 81 41 21 42 80 43 22 44 23 45
REMARK SMILES IDX 24 46 74 47 25 48 79 49 73 50 75 51 26 52 78 53 72 54 71 55
REMARK SMILES IDX 27 57 59 58 39 59 58 60 40 61 43 62 57 63 76 64 41 65 42 66
REMARK SMILES IDX 56 68 77 69 44 70 28 71 29 72 37 73 30 74 31 75 35 76 38 77
REMARK SMILES IDX 32 78 33 79 36 80 34 81 60 82 61 83 69 84 62 85 63 86 67 87
REMARK SMILES IDX 70 88 64 89 65 90 68 91 66 92 45 93 46 94 54 95 47 96 48 97
REMARK SMILES IDX 52 98 55 99 49 100 50 101 53 102 51 103
REMARK H PARENT 4 16 89 22 75 56 43 67
REMARK Flexibility Score: inf
ROOT
ATOM      1  C   UNL A   1      38.343  22.867  26.286  1.00  0.00     0.202 C 
ENDROOT
BRANCH   1   2
ATOM      2  C   UNL A   1      37.138  23.727  25.872  1.00  0.00     0.259 C 
BRANCH   2   3
ATOM      3  O   UNL A   1      35.883  23.126  26.287  1.00  0.00    -0.477 OA
BRANCH   3   4
ATOM      4  C   UNL A   1      35.208  22.399  25.365  1.00  0.00     0.209 C 
ATOM      5  N   UNL A   1      33.450  22.700  23.652  1.00  0.00    -0.283 N 
ATOM      6  C   UNL A   1      34.705  23.221  24.202  1.00  0.00     0.224 C 
ATOM      7  C   UNL A   1      33.268  21.279  23.744  1.00  0.00     0.072 A 
ATOM      8  C   UNL A   1      34.065  20.542  24.653  1.00  0.00     0.091 A 
ATOM      9  C   UNL A   1      32.345  20.579  22.960  1.00  0.00     0.029 A 
ATOM     10  N   UNL A   1      34.997  21.134  25.520  1.00  0.00    -0.214 NA
ATOM     11  C   UNL A   1      33.848  19.171  24.832  1.00  0.00     0.030 A 
ATOM     12  C   UNL A   1      32.131  19.209  23.155  1.00  0.00     0.002 A 
ATOM     13  C   UNL A   1      32.871  18.508  24.101  1.00  0.00     0.002 A 
BRANCH   5  14
ATOM     14  C   UNL A   1      32.718  23.588  22.892  1.00  0.00     0.322 C 
ATOM     15  N   UNL A   1      31.473  23.969  23.275  1.00  0.00    -0.329 N 
ATOM     16  H   UNL A   1      30.919  24.372  22.567  1.00  0.00     0.165 HD
ATOM     17  O   UNL A   1      33.200  24.135  21.898  1.00  0.00    -0.248 OA
BRANCH  15  18
ATOM     18  C   UNL A   1      30.841  23.866  24.576  1.00  0.00     0.218 C 
BRANCH  18  19
ATOM     19  C   UNL A   1      30.348  25.215  25.126  1.00  0.00     0.240 C 
ATOM     20  O   UNL A   1      29.842  25.320  26.239  1.00  0.00    -0.273 OA
ATOM     21  N   UNL A   1      30.560  26.247  24.259  1.00  0.00    -0.342 N 
ATOM     22  H   UNL A   1      30.733  25.988  23.325  1.00  0.00     0.164 HD
BRANCH  21  23
ATOM     23  C   UNL A   1      30.565  27.706  24.532  1.00  0.00     0.158 C 
BRANCH  23  24
ATOM     24  C   UNL A   1      31.754  28.159  25.382  1.00  0.00    -0.020 A 
ATOM     25  C   UNL A   1      31.607  28.249  26.780  1.00  0.00     0.006 A 
ATOM     26  C   UNL A   1      33.025  28.441  24.854  1.00  0.00     0.006 A 
ATOM     27  C   UNL A   1      32.677  28.600  27.608  1.00  0.00     0.000 A 
ATOM     28  C   UNL A   1      34.105  28.768  25.681  1.00  0.00     0.000 A 
ATOM     29  C   UNL A   1      33.931  28.847  27.059  1.00  0.00     0.000 A 
ENDBRANCH  23  24
BRANCH  23  30
ATOM     30  C   UNL A   1      30.407  28.471  23.148  1.00  0.00     0.068 C 
ATOM     31  O   UNL A   1      30.582  27.848  22.069  1.00  0.00    -0.548 OA
ATOM     32  O   UNL A   1      30.042  29.686  23.300  1.00  0.00    -0.548 OA
ENDBRANCH  23  30
ENDBRANCH  21  23
ENDBRANCH  18  19
ENDBRANCH  15  18
ENDBRANCH   5  14
ENDBRANCH   3   4
ENDBRANCH   2   3
ENDBRANCH   1   2
BRANCH   1  33
ATOM     33  O   UNL A   1      38.720  21.858  25.342  1.00  0.00    -0.374 OA
BRANCH  33  34
ATOM     34  C   UNL A   1      38.461  20.512  25.719  1.00  0.00     0.202 C 
BRANCH  34  35
ATOM     35  C   UNL A   1      39.580  19.487  25.566  1.00  0.00     0.261 C 
BRANCH  35  36
ATOM     36  O   UNL A   1      40.553  19.541  26.594  1.00  0.00    -0.460 OA
BRANCH  36  37
ATOM     37  C   UNL A   1      41.765  19.922  26.146  1.00  0.00     0.338 C 
ATOM     38  O   UNL A   1      42.469  19.353  25.316  1.00  0.00    -0.246 OA
BRANCH  37  39
ATOM     39  C   UNL A   1      42.021  21.292  26.608  1.00  0.00     0.060 A 
ATOM     40  C   UNL A   1      42.012  22.296  25.637  1.00  0.00     0.016 A 
ATOM     41  C   UNL A   1      42.253  21.598  27.954  1.00  0.00     0.016 A 
ATOM     42  C   UNL A   1      42.268  23.609  26.001  1.00  0.00     0.010 A 
ATOM     43  C   UNL A   1      42.498  22.921  28.323  1.00  0.00     0.010 A 
ATOM     44  C   UNL A   1      42.531  23.925  27.342  1.00  0.00    -0.014 A 
BRANCH  44  45
ATOM     45  C   UNL A   1      42.938  25.305  27.671  1.00  0.00     0.031 A 
ATOM     46  C   UNL A   1      44.312  25.769  27.292  1.00  0.00     0.074 A 
ATOM     47  C   UNL A   1      42.051  26.146  28.230  1.00  0.00     0.049 A 
ATOM     48  N   UNL A   1      44.839  26.963  27.399  1.00  0.00    -0.248 NA
ATOM     49  C   UNL A   1      45.209  24.762  26.704  1.00  0.00     0.031 C 
ATOM     50  C   UNL A   1      40.686  25.792  28.616  1.00  0.00     0.029 A 
ATOM     51  N   UNL A   1      42.162  27.472  28.555  1.00  0.00    -0.354 N 
ATOM     52  C   UNL A   1      46.124  26.848  26.890  1.00  0.00     0.074 A 
ATOM     53  C   UNL A   1      46.313  25.468  26.503  1.00  0.00     0.031 C 
ATOM     54  C   UNL A   1      40.080  26.880  29.119  1.00  0.00     0.029 A 
ATOM     55  C   UNL A   1      41.022  27.997  29.108  1.00  0.00     0.049 A 
ATOM     56  H   UNL A   1      42.981  27.998  28.405  1.00  0.00     0.167 HD
ATOM     57  C   UNL A   1      47.059  27.818  26.748  1.00  0.00     0.037 A 
ATOM     58  C   UNL A   1      40.774  29.241  29.558  1.00  0.00     0.037 A 
ATOM     59  C   UNL A   1      46.865  29.187  27.143  1.00  0.00     0.049 A 
ATOM     60  C   UNL A   1      41.849  30.288  29.433  1.00  0.00     0.074 A 
ATOM     61  C   UNL A   1      47.740  30.252  27.031  1.00  0.00     0.029 A 
ATOM     62  N   UNL A   1      45.710  29.676  27.738  1.00  0.00    -0.354 N 
ATOM     63  N   UNL A   1      43.045  30.186  28.911  1.00  0.00    -0.248 NA
ATOM     64  C   UNL A   1      41.533  31.624  29.957  1.00  0.00     0.031 C 
ATOM     65  C   UNL A   1      47.129  31.378  27.596  1.00  0.00     0.029 A 
ATOM     66  C   UNL A   1      45.858  31.024  28.021  1.00  0.00     0.049 A 
ATOM     67  H   UNL A   1      44.904  29.143  27.929  1.00  0.00     0.167 HD
ATOM     68  C   UNL A   1      43.622  31.442  29.023  1.00  0.00     0.074 A 
ATOM     69  C   UNL A   1      42.634  32.298  29.651  1.00  0.00     0.031 C 
ATOM     70  C   UNL A   1      44.857  31.852  28.644  1.00  0.00     0.037 A 
BRANCH  57  71
ATOM     71  C   UNL A   1      48.378  27.419  26.160  1.00  0.00     0.064 A 
ATOM     72  C   UNL A   1      49.459  27.042  26.971  1.00  0.00     0.173 A 
ATOM     73  C   UNL A   1      48.556  27.388  24.769  1.00  0.00     0.173 A 
ATOM     74  F   UNL A   1      49.338  27.056  28.307  1.00  0.00    -0.203 F 
ATOM     75  C   UNL A   1      50.677  26.667  26.410  1.00  0.00     0.198 A 
ATOM     76  C   UNL A   1      49.769  26.991  24.211  1.00  0.00     0.198 A 
ATOM     77  F   UNL A   1      47.549  27.726  23.950  1.00  0.00    -0.203 F 
ATOM     78  F   UNL A   1      51.706  26.333  27.203  1.00  0.00    -0.200 F 
ATOM     79  C   UNL A   1      50.830  26.637  25.032  1.00  0.00     0.200 A 
ATOM     80  F   UNL A   1      49.908  26.943  22.880  1.00  0.00    -0.200 F 
ATOM     81  F   UNL A   1      51.997  26.261  24.493  1.00  0.00    -0.200 F 
ENDBRANCH  57  71
BRANCH  58  82
ATOM     82  C   UNL A   1      39.454  29.559  30.158  1.00  0.00     0.064 A 
ATOM     83  C   UNL A   1      38.370  29.951  29.362  1.00  0.00     0.173 A 
ATOM     84  C   UNL A   1      39.250  29.474  31.543  1.00  0.00     0.173 A 
ATOM     85  F   UNL A   1      38.522  30.074  28.035  1.00  0.00    -0.203 F 
ATOM     86  C   UNL A   1      37.134  30.257  29.929  1.00  0.00     0.198 A 
ATOM     87  C   UNL A   1      38.008  29.756  32.107  1.00  0.00     0.198 A 
ATOM     88  F   UNL A   1      40.258  29.110  32.350  1.00  0.00    -0.203 F 
ATOM     89  F   UNL A   1      36.125  30.670  29.151  1.00  0.00    -0.200 F 
ATOM     90  C   UNL A   1      36.953  30.153  31.300  1.00  0.00     0.200 A 
ATOM     91  F   UNL A   1      37.835  29.649  33.432  1.00  0.00    -0.200 F 
ATOM     92  F   UNL A   1      35.764  30.447  31.845  1.00  0.00    -0.200 F 
ENDBRANCH  58  82
BRANCH  70  93
ATOM     93  C   UNL A   1      45.200  33.293  28.878  1.00  0.00     0.064 A 
ATOM     94  C   UNL A   1      44.875  34.283  27.941  1.00  0.00     0.173 A 
ATOM     95  C   UNL A   1      45.818  33.689  30.074  1.00  0.00     0.173 A 
ATOM     96  F   UNL A   1      44.300  33.950  26.776  1.00  0.00    -0.203 F 
ATOM     97  C   UNL A   1      45.174  35.622  28.185  1.00  0.00     0.198 A 
ATOM     98  C   UNL A   1      46.092  35.030  30.324  1.00  0.00     0.198 A 
ATOM     99  F   UNL A   1      46.144  32.779  31.002  1.00  0.00    -0.203 F 
ATOM    100  F   UNL A   1      44.892  36.549  27.260  1.00  0.00    -0.200 F 
ATOM    101  C   UNL A   1      45.775  35.994  29.379  1.00  0.00     0.200 A 
ATOM    102  F   UNL A   1      46.663  35.391  31.481  1.00  0.00    -0.200 F 
ATOM    103  F   UNL A   1      46.055  37.283  29.615  1.00  0.00    -0.200 F 
ENDBRANCH  70  93
ENDBRANCH  44  45
ENDBRANCH  37  39
ENDBRANCH  36  37
ENDBRANCH  35  36
ENDBRANCH  34  35
ENDBRANCH  33  34
ENDBRANCH   1  33
TORSDOF 19
ENDMDL
MODEL 3
REMARK VINA RESULT:     -11.8      5.038     10.111
REMARK SMILES O=C(CNC(=O)N1CC(OCCOCCOC(=O)c2ccc(-c3c4nc(c(-c5c(F)c(F)c(F)c(F)c5F)c5ccc([nH]5)c(-c5c(F)c(F)c(F)c(F)c5F)c5nc(c(-c6c(F)c(F)c(F)c(F)c6F)c6ccc3[nH]6)C=C5)C=C4)cc2)=Nc2ccccc21)N[C@H](C(=O)[O-])c1ccccc1
REMARK SMILES IDX 12 1 11 2 10 3 9 4 7 5 8 6 88 7 83 8 87 9 82 10 84 11 86 12
REMARK SMILES IDX 85 13 5 14 4 15 6 17 3 18 2 19 1 20 89 21 90 23 94 24 95 25
REMARK SMILES IDX 99 26 96 27 98 28 97 29 91 30 92 31 93 32 13 33 14 34 15 35
REMARK SMILES IDX 16 36 17 37 18 38 19 39 20 40 81 41 21 42 80 43 22 44 23 45
REMARK SMILES IDX 24 46 74 47 25 48 79 49 73 50 75 51 26 52 78 53 72 54 71 55
REMARK SMILES IDX 27 57 59 58 39 59 58 60 40 61 43 62 57 63 76 64 41 65 42 66
REMARK SMILES IDX 56 68 77 69 44 70 28 71 29 72 37 73 30 74 31 75 35 76 38 77
REMARK SMILES IDX 32 78 33 79 36 80 34 81 60 82 61 83 69 84 62 85 63 86 67 87
REMARK SMILES IDX 70 88 64 89 65 90 68 91 66 92 45 93 46 94 54 95 47 96 48 97
REMARK SMILES IDX 52 98 55 99 49 100 50 101 53 102 51 103
REMARK H PARENT 4 16 89 22 75 56 43 67
REMARK Flexibility Score: inf
ROOT
ATOM      1  C   UNL A   1      31.760  29.681  26.781  1.00  0.00     0.202 C 
ENDROOT
BRANCH   1   2
ATOM      2  C   UNL A   1      32.006  28.187  26.511  1.00  0.00     0.259 C 
BRANCH   2   3
ATOM      3  O   UNL A   1      33.403  27.833  26.691  1.00  0.00    -0.477 OA
BRANCH   3   4
ATOM      4  C   UNL A   1      33.932  26.933  25.828  1.00  0.00     0.209 C 
ATOM      5  N   UNL A   1      33.589  26.115  23.519  1.00  0.00    -0.283 N 
ATOM      6  C   UNL A   1      33.722  27.297  24.377  1.00  0.00     0.224 C 
ATOM      7  C   UNL A   1      34.319  24.952  23.939  1.00  0.00     0.072 A 
ATOM      8  C   UNL A   1      34.779  24.875  25.276  1.00  0.00     0.091 A 
ATOM      9  C   UNL A   1      34.614  23.889  23.078  1.00  0.00     0.029 A 
ATOM     10  N   UNL A   1      34.514  25.858  26.242  1.00  0.00    -0.214 NA
ATOM     11  C   UNL A   1      35.413  23.717  25.739  1.00  0.00     0.030 A 
ATOM     12  C   UNL A   1      35.240  22.731  23.557  1.00  0.00     0.002 A 
ATOM     13  C   UNL A   1      35.626  22.639  24.889  1.00  0.00     0.002 A 
BRANCH   5  14
ATOM     14  C   UNL A   1      32.996  26.331  22.294  1.00  0.00     0.322 C 
ATOM     15  N   UNL A   1      31.684  26.669  22.206  1.00  0.00    -0.329 N 
ATOM     16  H   UNL A   1      31.273  26.538  21.321  1.00  0.00     0.165 HD
ATOM     17  O   UNL A   1      33.651  26.318  21.249  1.00  0.00    -0.248 OA
BRANCH  15  18
ATOM     18  C   UNL A   1      30.801  27.194  23.230  1.00  0.00     0.218 C 
BRANCH  18  19
ATOM     19  C   UNL A   1      29.965  26.110  23.932  1.00  0.00     0.240 C 
ATOM     20  O   UNL A   1      28.750  26.030  23.790  1.00  0.00    -0.273 OA
ATOM     21  N   UNL A   1      30.727  25.265  24.686  1.00  0.00    -0.342 N 
ATOM     22  H   UNL A   1      31.628  25.591  24.911  1.00  0.00     0.164 HD
BRANCH  21  23
ATOM     23  C   UNL A   1      30.380  23.921  25.214  1.00  0.00     0.158 C 
BRANCH  23  24
ATOM     24  C   UNL A   1      31.171  22.789  24.554  1.00  0.00    -0.020 A 
ATOM     25  C   UNL A   1      31.748  21.791  25.362  1.00  0.00     0.006 A 
ATOM     26  C   UNL A   1      31.311  22.647  23.163  1.00  0.00     0.006 A 
ATOM     27  C   UNL A   1      32.430  20.704  24.807  1.00  0.00     0.000 A 
ATOM     28  C   UNL A   1      31.970  21.547  22.604  1.00  0.00     0.000 A 
ATOM     29  C   UNL A   1      32.529  20.575  23.426  1.00  0.00     0.000 A 
ENDBRANCH  23  24
BRANCH  23  30
ATOM     30  C   UNL A   1      30.482  23.969  26.799  1.00  0.00     0.068 C 
ATOM     31  O   UNL A   1      29.657  23.324  27.496  1.00  0.00    -0.548 OA
ATOM     32  O   UNL A   1      31.484  24.651  27.204  1.00  0.00    -0.548 OA
ENDBRANCH  23  30
ENDBRANCH  21  23
ENDBRANCH  18  19
ENDBRANCH  15  18
ENDBRANCH   5  14
ENDBRANCH   3   4
ENDBRANCH   2   3
ENDBRANCH   1   2
BRANCH   1  33
ATOM     33  O   UNL A   1      32.803  30.556  26.339  1.00  0.00    -0.374 OA
BRANCH  33  34
ATOM     34  C   UNL A   1      33.280  31.502  27.288  1.00  0.00     0.202 C 
BRANCH  34  35
ATOM     35  C   UNL A   1      32.474  32.777  27.509  1.00  0.00     0.261 C 
BRANCH  35  36
ATOM     36  O   UNL A   1      33.256  33.958  27.509  1.00  0.00    -0.460 OA
BRANCH  36  37
ATOM     37  C   UNL A   1      33.348  34.524  28.729  1.00  0.00     0.338 C 
ATOM     38  O   UNL A   1      32.529  35.256  29.279  1.00  0.00    -0.246 OA
BRANCH  37  39
ATOM     39  C   UNL A   1      34.480  33.915  29.439  1.00  0.00     0.060 A 
ATOM     40  C   UNL A   1      35.758  34.212  28.959  1.00  0.00     0.016 A 
ATOM     41  C   UNL A   1      34.306  33.083  30.551  1.00  0.00     0.016 A 
ATOM     42  C   UNL A   1      36.870  33.652  29.569  1.00  0.00     0.010 A 
ATOM     43  C   UNL A   1      35.426  32.530  31.173  1.00  0.00     0.010 A 
ATOM     44  C   UNL A   1      36.708  32.794  30.667  1.00  0.00    -0.014 A 
BRANCH  44  45
ATOM     45  C   UNL A   1      37.900  32.106  31.201  1.00  0.00     0.031 A 
ATOM     46  C   UNL A   1      38.366  32.428  32.589  1.00  0.00     0.074 A 
ATOM     47  C   UNL A   1      38.499  31.148  30.473  1.00  0.00     0.049 A 
ATOM     48  N   UNL A   1      39.326  31.875  33.287  1.00  0.00    -0.248 NA
ATOM     49  C   UNL A   1      37.651  33.506  33.291  1.00  0.00     0.031 C 
ATOM     50  C   UNL A   1      38.107  30.751  29.122  1.00  0.00     0.029 A 
ATOM     51  N   UNL A   1      39.555  30.328  30.774  1.00  0.00    -0.354 N 
ATOM     52  C   UNL A   1      39.326  32.536  34.507  1.00  0.00     0.074 A 
ATOM     53  C   UNL A   1      38.296  33.550  34.448  1.00  0.00     0.031 C 
ATOM     54  C   UNL A   1      38.907  29.753  28.712  1.00  0.00     0.029 A 
ATOM     55  C   UNL A   1      39.878  29.459  29.763  1.00  0.00     0.049 A 
ATOM     56  H   UNL A   1      40.034  30.359  31.634  1.00  0.00     0.167 HD
ATOM     57  C   UNL A   1      40.112  32.305  35.585  1.00  0.00     0.037 A 
ATOM     58  C   UNL A   1      40.853  28.533  29.699  1.00  0.00     0.037 A 
ATOM     59  C   UNL A   1      41.139  31.299  35.632  1.00  0.00     0.049 A 
ATOM     60  C   UNL A   1      41.744  28.331  30.894  1.00  0.00     0.074 A 
ATOM     61  C   UNL A   1      41.982  30.972  36.678  1.00  0.00     0.029 A 
ATOM     62  N   UNL A   1      41.466  30.462  34.574  1.00  0.00    -0.354 N 
ATOM     63  N   UNL A   1      41.712  28.927  32.060  1.00  0.00    -0.248 NA
ATOM     64  C   UNL A   1      42.805  27.322  30.765  1.00  0.00     0.031 C 
ATOM     65  C   UNL A   1      42.848  29.963  36.239  1.00  0.00     0.029 A 
ATOM     66  C   UNL A   1      42.516  29.633  34.934  1.00  0.00     0.049 A 
ATOM     67  H   UNL A   1      41.017  30.458  33.698  1.00  0.00     0.167 HD
ATOM     68  C   UNL A   1      42.730  28.358  32.811  1.00  0.00     0.074 A 
ATOM     69  C   UNL A   1      43.354  27.354  31.972  1.00  0.00     0.031 C 
ATOM     70  C   UNL A   1      43.115  28.640  34.080  1.00  0.00     0.037 A 
BRANCH  57  71
ATOM     71  C   UNL A   1      39.899  33.172  36.788  1.00  0.00     0.064 A 
ATOM     72  C   UNL A   1      40.664  34.327  37.005  1.00  0.00     0.173 A 
ATOM     73  C   UNL A   1      38.900  32.859  37.722  1.00  0.00     0.173 A 
ATOM     74  F   UNL A   1      41.632  34.668  36.142  1.00  0.00    -0.203 F 
ATOM     75  C   UNL A   1      40.450  35.127  38.125  1.00  0.00     0.198 A 
ATOM     76  C   UNL A   1      38.674  33.673  38.829  1.00  0.00     0.198 A 
ATOM     77  F   UNL A   1      38.131  31.773  37.553  1.00  0.00    -0.203 F 
ATOM     78  F   UNL A   1      41.209  36.214  38.327  1.00  0.00    -0.200 F 
ATOM     79  C   UNL A   1      39.453  34.803  39.033  1.00  0.00     0.200 A 
ATOM     80  F   UNL A   1      37.696  33.371  39.694  1.00  0.00    -0.200 F 
ATOM     81  F   UNL A   1      39.238  35.582  40.101  1.00  0.00    -0.200 F 
ENDBRANCH  57  71
BRANCH  58  82
ATOM     82  C   UNL A   1      41.027  27.730  28.463  1.00  0.00     0.064 A 
ATOM     83  C   UNL A   1      40.335  26.526  28.276  1.00  0.00     0.173 A 
ATOM     84  C   UNL A   1      41.889  28.154  27.440  1.00  0.00     0.173 A 
ATOM     85  F   UNL A   1      39.520  26.065  29.236  1.00  0.00    -0.203 F 
ATOM     86  C   UNL A   1      40.508  25.771  27.117  1.00  0.00     0.198 A 
ATOM     87  C   UNL A   1      42.042  27.411  26.272  1.00  0.00     0.198 A 
ATOM     88  F   UNL A   1      42.580  29.297  27.574  1.00  0.00    -0.203 F 
ATOM     89  F   UNL A   1      39.867  24.602  26.980  1.00  0.00    -0.200 F 
ATOM     90  C   UNL A   1      41.355  26.217  26.114  1.00  0.00     0.200 A 
ATOM     91  F   UNL A   1      42.857  27.848  25.303  1.00  0.00    -0.200 F 
ATOM     92  F   UNL A   1      41.519  25.490  25.001  1.00  0.00    -0.200 F 
ENDBRANCH  58  82
BRANCH  70  93
ATOM     93  C   UNL A   1      44.250  27.839  34.643  1.00  0.00     0.064 A 
ATOM     94  C   UNL A   1      45.574  28.293  34.567  1.00  0.00     0.173 A 
ATOM     95  C   UNL A   1      44.003  26.627  35.306  1.00  0.00     0.173 A 
ATOM     96  F   UNL A   1      45.862  29.437  33.928  1.00  0.00    -0.203 F 
ATOM     97  C   UNL A   1      46.615  27.552  35.121  1.00  0.00     0.198 A 
ATOM     98  C   UNL A   1      45.043  25.903  35.879  1.00  0.00     0.198 A 
ATOM     99  F   UNL A   1      42.753  26.154  35.408  1.00  0.00    -0.203 F 
ATOM    100  F   UNL A   1      47.878  27.983  35.003  1.00  0.00    -0.200 F 
ATOM    101  C   UNL A   1      46.347  26.362  35.782  1.00  0.00     0.200 A 
ATOM    102  F   UNL A   1      44.784  24.758  36.527  1.00  0.00    -0.200 F 
ATOM    103  F   UNL A   1      47.350  25.654  36.320  1.00  0.00    -0.200 F 
ENDBRANCH  70  93
ENDBRANCH  44  45
ENDBRANCH  37  39
ENDBRANCH  36  37
ENDBRANCH  35  36
ENDBRANCH  34  35
ENDBRANCH  33  34
ENDBRANCH   1  33
TORSDOF 19
ENDMDL
