MODEL 1
REMARK VINA RESULT:     -11.8      0.000      0.000
REMARK SMILES CCCc1cc(OC(F)(F)F)cc2c1O[C@@H](C(F)(F)F)C(C(=O)OCCOCCOC(=O)c1ccc(-c3c4nc(c(-c5c(F)c(F)c(F)c(F)c5F)c5ccc([nH]5)c(-c5c(F)c(F)c(F)c(F)c5F)c5nc(c(-c6c(F)c(F)c(F)c(F)c6F)c6ccc3[nH]6)C=C5)C=C4)cc1)=C2
REMARK SMILES IDX 27 1 26 2 25 3 24 4 22 5 23 6 21 7 4 8 5 9 14 10 6 11 13 12
REMARK SMILES IDX 15 13 12 14 96 15 16 16 3 17 2 18 1 19 7 20 8 21 9 22 10 23
REMARK SMILES IDX 11 24 17 25 18 26 19 27 20 28 28 29 29 30 30 31 31 32 32 33
REMARK SMILES IDX 33 34 34 35 95 36 35 37 94 38 36 39 37 40 38 41 88 42 39 43
REMARK SMILES IDX 93 44 87 45 89 46 40 47 92 48 86 49 85 50 41 52 73 53 53 54
REMARK SMILES IDX 72 55 54 56 57 57 71 58 90 59 55 60 56 61 70 63 91 64 58 65
REMARK SMILES IDX 42 66 43 67 51 68 44 69 45 70 49 71 52 72 46 73 47 74 50 75
REMARK SMILES IDX 48 76 74 77 75 78 83 79 76 80 77 81 81 82 84 83 78 84 79 85
REMARK SMILES IDX 82 86 80 87 59 88 60 89 68 90 61 91 62 92 66 93 69 94 63 95
REMARK SMILES IDX 64 96 67 97 65 98
REMARK H PARENT 89 51 57 62
REMARK Flexibility Score: inf
ROOT
ATOM      1  O   UNL A   1      34.244  20.665  24.124  1.00  0.00    -0.374 OA
ENDROOT
BRANCH   1   2
ATOM      2  C   UNL A   1      32.905  21.130  24.271  1.00  0.00     0.202 C 
BRANCH   2   3
ATOM      3  C   UNL A   1      32.173  21.561  22.997  1.00  0.00     0.261 C 
BRANCH   3   4
ATOM      4  O   UNL A   1      31.861  22.964  23.016  1.00  0.00    -0.460 OA
BRANCH   4   5
ATOM      5  C   UNL A   1      32.795  23.758  22.444  1.00  0.00     0.338 C 
ATOM      6  O   UNL A   1      33.600  23.430  21.582  1.00  0.00    -0.246 OA
BRANCH   5   7
ATOM      7  C   UNL A   1      32.666  25.144  22.915  1.00  0.00     0.087 C 
ATOM      8  C   UNL A   1      31.699  28.580  25.068  1.00  0.00    -0.002 A 
ATOM      9  C   UNL A   1      30.861  29.544  24.484  1.00  0.00     0.054 A 
ATOM     10  C   UNL A   1      32.038  27.443  24.326  1.00  0.00     0.131 A 
ATOM     11  C   UNL A   1      30.372  29.379  23.186  1.00  0.00     0.130 A 
ATOM     12  C   UNL A   1      31.528  27.246  23.033  1.00  0.00     0.021 A 
ATOM     13  O   UNL A   1      32.819  26.499  24.944  1.00  0.00    -0.475 OA
ATOM     14  C   UNL A   1      30.713  28.229  22.463  1.00  0.00     0.058 A 
ATOM     15  C   UNL A   1      31.746  25.958  22.372  1.00  0.00     0.027 C 
ATOM     16  C   UNL A   1      33.548  25.631  24.042  1.00  0.00     0.316 C 
BRANCH   8  17
ATOM     17  C   UNL A   1      32.225  28.794  26.470  1.00  0.00     0.039 C 
BRANCH  17  18
ATOM     18  C   UNL A   1      33.472  29.681  26.523  1.00  0.00     0.001 C 
ATOM     19  C   UNL A   1      33.293  30.919  27.392  1.00  0.00     0.004 C 
ENDBRANCH  17  18
ENDBRANCH   8  17
BRANCH  11  20
ATOM     20  O   UNL A   1      29.552  30.247  22.521  1.00  0.00    -0.406 OA
BRANCH  20  21
ATOM     21  C   UNL A   1      28.159  29.970  22.528  1.00  0.00     0.573 C 
ATOM     22  F   UNL A   1      27.884  28.861  23.246  1.00  0.00    -0.132 F 
ATOM     23  F   UNL A   1      27.459  31.013  23.023  1.00  0.00    -0.132 F 
ATOM     24  F   UNL A   1      27.753  29.760  21.256  1.00  0.00    -0.132 F 
ENDBRANCH  20  21
ENDBRANCH  11  20
BRANCH  16  25
ATOM     25  C   UNL A   1      34.317  24.594  24.879  1.00  0.00     0.430 C 
ATOM     26  F   UNL A   1      35.171  23.880  24.109  1.00  0.00    -0.167 F 
ATOM     27  F   UNL A   1      35.091  25.227  25.801  1.00  0.00    -0.167 F 
ATOM     28  F   UNL A   1      33.515  23.747  25.553  1.00  0.00    -0.167 F 
ENDBRANCH  16  25
ENDBRANCH   5   7
ENDBRANCH   4   5
ENDBRANCH   3   4
ENDBRANCH   2   3
ENDBRANCH   1   2
BRANCH   1  29
ATOM     29  C   UNL A   1      35.108  20.733  25.257  1.00  0.00     0.202 C 
BRANCH  29  30
ATOM     30  C   UNL A   1      36.613  20.578  25.011  1.00  0.00     0.261 C 
BRANCH  30  31
ATOM     31  O   UNL A   1      37.369  21.723  25.446  1.00  0.00    -0.460 OA
BRANCH  31  32
ATOM     32  C   UNL A   1      38.610  21.436  25.902  1.00  0.00     0.338 C 
ATOM     33  O   UNL A   1      39.243  20.401  25.736  1.00  0.00    -0.246 OA
BRANCH  32  34
ATOM     34  C   UNL A   1      39.219  22.630  26.511  1.00  0.00     0.060 A 
ATOM     35  C   UNL A   1      38.700  23.878  26.144  1.00  0.00     0.016 A 
ATOM     36  C   UNL A   1      40.331  22.542  27.352  1.00  0.00     0.016 A 
ATOM     37  C   UNL A   1      39.321  25.046  26.577  1.00  0.00     0.010 A 
ATOM     38  C   UNL A   1      40.958  23.718  27.780  1.00  0.00     0.010 A 
ATOM     39  C   UNL A   1      40.478  24.973  27.365  1.00  0.00    -0.014 A 
BRANCH  39  40
ATOM     40  C   UNL A   1      41.248  26.211  27.635  1.00  0.00     0.031 A 
ATOM     41  C   UNL A   1      40.592  27.335  28.387  1.00  0.00     0.074 A 
ATOM     42  C   UNL A   1      42.533  26.311  27.254  1.00  0.00     0.049 A 
ATOM     43  N   UNL A   1      41.081  28.497  28.741  1.00  0.00    -0.248 NA
ATOM     44  C   UNL A   1      39.195  27.121  28.798  1.00  0.00     0.031 C 
ATOM     45  C   UNL A   1      43.286  25.277  26.547  1.00  0.00     0.029 A 
ATOM     46  N   UNL A   1      43.432  27.336  27.412  1.00  0.00    -0.354 N 
ATOM     47  C   UNL A   1      40.055  29.151  29.412  1.00  0.00     0.074 A 
ATOM     48  C   UNL A   1      38.905  28.273  29.387  1.00  0.00     0.031 C 
ATOM     49  C   UNL A   1      44.535  25.722  26.327  1.00  0.00     0.029 A 
ATOM     50  C   UNL A   1      44.660  27.078  26.855  1.00  0.00     0.049 A 
ATOM     51  H   UNL A   1      43.217  28.175  27.879  1.00  0.00     0.167 HD
ATOM     52  C   UNL A   1      40.076  30.367  30.006  1.00  0.00     0.037 A 
ATOM     53  C   UNL A   1      45.757  27.858  26.772  1.00  0.00     0.037 A 
ATOM     54  C   UNL A   1      41.222  31.239  30.031  1.00  0.00     0.049 A 
ATOM     55  C   UNL A   1      45.734  29.230  27.394  1.00  0.00     0.074 A 
ATOM     56  C   UNL A   1      41.347  32.485  30.620  1.00  0.00     0.029 A 
ATOM     57  N   UNL A   1      42.441  30.956  29.433  1.00  0.00    -0.354 N 
ATOM     58  N   UNL A   1      44.770  29.828  28.052  1.00  0.00    -0.248 NA
ATOM     59  C   UNL A   1      46.959  30.033  27.266  1.00  0.00     0.031 C 
ATOM     60  C   UNL A   1      42.626  32.977  30.337  1.00  0.00     0.029 A 
ATOM     61  C   UNL A   1      43.317  32.013  29.620  1.00  0.00     0.049 A 
ATOM     62  H   UNL A   1      42.653  30.126  28.948  1.00  0.00     0.167 HD
ATOM     63  C   UNL A   1      45.281  31.059  28.444  1.00  0.00     0.074 A 
ATOM     64  C   UNL A   1      46.645  31.116  27.963  1.00  0.00     0.031 C 
ATOM     65  C   UNL A   1      44.675  32.052  29.141  1.00  0.00     0.037 A 
BRANCH  52  66
ATOM     66  C   UNL A   1      38.812  30.840  30.665  1.00  0.00     0.064 A 
ATOM     67  C   UNL A   1      37.762  31.404  29.926  1.00  0.00     0.173 A 
ATOM     68  C   UNL A   1      38.634  30.690  32.049  1.00  0.00     0.173 A 
ATOM     69  F   UNL A   1      37.887  31.582  28.602  1.00  0.00    -0.203 F 
ATOM     70  C   UNL A   1      36.589  31.821  30.551  1.00  0.00     0.198 A 
ATOM     71  C   UNL A   1      37.449  31.082  32.666  1.00  0.00     0.198 A 
ATOM     72  F   UNL A   1      39.606  30.154  32.802  1.00  0.00    -0.203 F 
ATOM     73  F   UNL A   1      35.616  32.397  29.831  1.00  0.00    -0.200 F 
ATOM     74  C   UNL A   1      36.430  31.653  31.918  1.00  0.00     0.200 A 
ATOM     75  F   UNL A   1      37.292  30.908  33.986  1.00  0.00    -0.200 F 
ATOM     76  F   UNL A   1      35.298  32.046  32.517  1.00  0.00    -0.200 F 
ENDBRANCH  52  66
BRANCH  53  77
ATOM     77  C   UNL A   1      46.971  27.362  26.073  1.00  0.00     0.064 A 
ATOM     78  C   UNL A   1      48.002  26.723  26.775  1.00  0.00     0.173 A 
ATOM     79  C   UNL A   1      47.134  27.537  24.691  1.00  0.00     0.173 A 
ATOM     80  F   UNL A   1      47.903  26.554  28.102  1.00  0.00    -0.203 F 
ATOM     81  C   UNL A   1      49.161  26.300  26.127  1.00  0.00     0.198 A 
ATOM     82  C   UNL A   1      48.280  27.088  24.038  1.00  0.00     0.198 A 
ATOM     83  F   UNL A   1      46.177  28.143  23.973  1.00  0.00    -0.203 F 
ATOM     84  F   UNL A   1      50.153  25.740  26.831  1.00  0.00    -0.200 F 
ATOM     85  C   UNL A   1      49.296  26.478  24.758  1.00  0.00     0.200 A 
ATOM     86  F   UNL A   1      48.401  27.250  22.714  1.00  0.00    -0.200 F 
ATOM     87  F   UNL A   1      50.410  26.070  24.135  1.00  0.00    -0.200 F 
ENDBRANCH  53  77
BRANCH  65  88
ATOM     88  C   UNL A   1      45.498  33.268  29.460  1.00  0.00     0.064 A 
ATOM     89  C   UNL A   1      45.526  34.386  28.611  1.00  0.00     0.173 A 
ATOM     90  C   UNL A   1      46.253  33.324  30.642  1.00  0.00     0.173 A 
ATOM     91  F   UNL A   1      44.833  34.378  27.463  1.00  0.00    -0.203 F 
ATOM     92  C   UNL A   1      46.306  35.498  28.918  1.00  0.00     0.198 A 
ATOM     93  C   UNL A   1      47.005  34.450  30.961  1.00  0.00     0.198 A 
ATOM     94  F   UNL A   1      46.255  32.286  31.492  1.00  0.00    -0.203 F 
ATOM     95  F   UNL A   1      46.362  36.530  28.065  1.00  0.00    -0.200 F 
ATOM     96  C   UNL A   1      47.040  35.532  30.095  1.00  0.00     0.200 A 
ATOM     97  F   UNL A   1      47.702  34.487  32.106  1.00  0.00    -0.200 F 
ATOM     98  F   UNL A   1      47.788  36.604  30.388  1.00  0.00    -0.200 F 
ENDBRANCH  65  88
ENDBRANCH  39  40
ENDBRANCH  32  34
ENDBRANCH  31  32
ENDBRANCH  30  31
ENDBRANCH  29  30
ENDBRANCH   1  29
TORSDOF 19
ENDMDL
MODEL 2
REMARK VINA RESULT:     -11.8      4.216      8.243
REMARK SMILES CCCc1cc(OC(F)(F)F)cc2c1O[C@@H](C(F)(F)F)C(C(=O)OCCOCCOC(=O)c1ccc(-c3c4nc(c(-c5c(F)c(F)c(F)c(F)c5F)c5ccc([nH]5)c(-c5c(F)c(F)c(F)c(F)c5F)c5nc(c(-c6c(F)c(F)c(F)c(F)c6F)c6ccc3[nH]6)C=C5)C=C4)cc1)=C2
REMARK SMILES IDX 27 1 26 2 25 3 24 4 22 5 23 6 21 7 4 8 5 9 14 10 6 11 13 12
REMARK SMILES IDX 15 13 12 14 96 15 16 16 3 17 2 18 1 19 7 20 8 21 9 22 10 23
REMARK SMILES IDX 11 24 17 25 18 26 19 27 20 28 28 29 29 30 30 31 31 32 32 33
REMARK SMILES IDX 33 34 34 35 95 36 35 37 94 38 36 39 37 40 38 41 88 42 39 43
REMARK SMILES IDX 93 44 87 45 89 46 40 47 92 48 86 49 85 50 41 52 73 53 53 54
REMARK SMILES IDX 72 55 54 56 57 57 71 58 90 59 55 60 56 61 70 63 91 64 58 65
REMARK SMILES IDX 42 66 43 67 51 68 44 69 45 70 49 71 52 72 46 73 47 74 50 75
REMARK SMILES IDX 48 76 74 77 75 78 83 79 76 80 77 81 81 82 84 83 78 84 79 85
REMARK SMILES IDX 82 86 80 87 59 88 60 89 68 90 61 91 62 92 66 93 69 94 63 95
REMARK SMILES IDX 64 96 67 97 65 98
REMARK H PARENT 89 51 57 62
REMARK Flexibility Score: inf
ROOT
ATOM      1  O   UNL A   1      32.007  30.823  26.547  1.00  0.00    -0.374 OA
ENDROOT
BRANCH   1   2
ATOM      2  C   UNL A   1      31.860  29.994  25.398  1.00  0.00     0.202 C 
BRANCH   2   3
ATOM      3  C   UNL A   1      32.854  28.840  25.239  1.00  0.00     0.261 C 
BRANCH   3   4
ATOM      4  O   UNL A   1      32.204  27.643  24.781  1.00  0.00    -0.460 OA
BRANCH   4   5
ATOM      5  C   UNL A   1      32.103  26.664  25.710  1.00  0.00     0.338 C 
ATOM      6  O   UNL A   1      31.552  26.749  26.798  1.00  0.00    -0.246 OA
BRANCH   5   7
ATOM      7  C   UNL A   1      32.662  25.402  25.205  1.00  0.00     0.087 C 
ATOM      8  C   UNL A   1      33.436  21.381  24.425  1.00  0.00    -0.002 A 
ATOM      9  C   UNL A   1      34.645  20.817  24.860  1.00  0.00     0.054 A 
ATOM     10  C   UNL A   1      33.199  22.738  24.670  1.00  0.00     0.131 A 
ATOM     11  C   UNL A   1      35.601  21.589  25.525  1.00  0.00     0.130 A 
ATOM     12  C   UNL A   1      34.133  23.521  25.365  1.00  0.00     0.021 A 
ATOM     13  O   UNL A   1      31.986  23.246  24.273  1.00  0.00    -0.475 OA
ATOM     14  C   UNL A   1      35.340  22.944  25.771  1.00  0.00     0.058 A 
ATOM     15  C   UNL A   1      33.761  24.877  25.772  1.00  0.00     0.027 C 
ATOM     16  C   UNL A   1      31.966  24.681  24.074  1.00  0.00     0.316 C 
BRANCH   8  17
ATOM     17  C   UNL A   1      32.428  20.522  23.694  1.00  0.00     0.039 C 
BRANCH  17  18
ATOM     18  C   UNL A   1      32.682  19.020  23.849  1.00  0.00     0.001 C 
ATOM     19  C   UNL A   1      32.316  18.217  22.608  1.00  0.00     0.004 C 
ENDBRANCH  17  18
ENDBRANCH   8  17
BRANCH  11  20
ATOM     20  O   UNL A   1      36.806  21.148  25.993  1.00  0.00    -0.406 OA
BRANCH  20  21
ATOM     21  C   UNL A   1      37.785  20.773  25.036  1.00  0.00     0.573 C 
ATOM     22  F   UNL A   1      37.765  19.442  24.812  1.00  0.00    -0.132 F 
ATOM     23  F   UNL A   1      37.601  21.430  23.870  1.00  0.00    -0.132 F 
ATOM     24  F   UNL A   1      39.006  21.100  25.513  1.00  0.00    -0.132 F 
ENDBRANCH  20  21
ENDBRANCH  11  20
BRANCH  16  25
ATOM     25  C   UNL A   1      30.534  25.100  23.701  1.00  0.00     0.430 C 
ATOM     26  F   UNL A   1      30.537  26.204  22.918  1.00  0.00    -0.167 F 
ATOM     27  F   UNL A   1      29.944  24.123  22.961  1.00  0.00    -0.167 F 
ATOM     28  F   UNL A   1      29.743  25.317  24.769  1.00  0.00    -0.167 F 
ENDBRANCH  16  25
ENDBRANCH   5   7
ENDBRANCH   4   5
ENDBRANCH   3   4
ENDBRANCH   2   3
ENDBRANCH   1   2
BRANCH   1  29
ATOM     29  C   UNL A   1      31.283  32.051  26.589  1.00  0.00     0.202 C 
BRANCH  29  30
ATOM     30  C   UNL A   1      32.069  33.328  26.912  1.00  0.00     0.261 C 
BRANCH  30  31
ATOM     31  O   UNL A   1      32.952  33.168  28.036  1.00  0.00    -0.460 OA
BRANCH  31  32
ATOM     32  C   UNL A   1      34.046  33.964  28.008  1.00  0.00     0.338 C 
ATOM     33  O   UNL A   1      34.079  35.178  27.857  1.00  0.00    -0.246 OA
BRANCH  32  34
ATOM     34  C   UNL A   1      35.248  33.193  28.369  1.00  0.00     0.060 A 
ATOM     35  C   UNL A   1      35.067  31.864  28.770  1.00  0.00     0.016 A 
ATOM     36  C   UNL A   1      36.516  33.779  28.401  1.00  0.00     0.016 A 
ATOM     37  C   UNL A   1      36.145  31.128  29.253  1.00  0.00     0.010 A 
ATOM     38  C   UNL A   1      37.598  33.039  28.894  1.00  0.00     0.010 A 
ATOM     39  C   UNL A   1      37.409  31.724  29.356  1.00  0.00    -0.014 A 
BRANCH  39  40
ATOM     40  C   UNL A   1      38.491  31.006  30.070  1.00  0.00     0.031 A 
ATOM     41  C   UNL A   1      38.733  31.302  31.525  1.00  0.00     0.074 A 
ATOM     42  C   UNL A   1      39.218  30.066  29.442  1.00  0.00     0.049 A 
ATOM     43  N   UNL A   1      39.615  30.786  32.344  1.00  0.00    -0.248 NA
ATOM     44  C   UNL A   1      37.865  32.318  32.139  1.00  0.00     0.031 C 
ATOM     45  C   UNL A   1      39.055  29.669  28.045  1.00  0.00     0.029 A 
ATOM     46  N   UNL A   1      40.239  29.273  29.901  1.00  0.00    -0.354 N 
ATOM     47  C   UNL A   1      39.408  31.413  33.566  1.00  0.00     0.074 A 
ATOM     48  C   UNL A   1      38.342  32.373  33.375  1.00  0.00     0.031 C 
ATOM     49  C   UNL A   1      39.949  28.708  27.758  1.00  0.00     0.029 A 
ATOM     50  C   UNL A   1      40.762  28.441  28.943  1.00  0.00     0.049 A 
ATOM     51  H   UNL A   1      40.566  29.298  30.830  1.00  0.00     0.167 HD
ATOM     52  C   UNL A   1      40.041  31.197  34.744  1.00  0.00     0.037 A 
ATOM     53  C   UNL A   1      41.790  27.573  29.014  1.00  0.00     0.037 A 
ATOM     54  C   UNL A   1      41.101  30.240  34.932  1.00  0.00     0.049 A 
ATOM     55  C   UNL A   1      42.514  27.393  30.322  1.00  0.00     0.074 A 
ATOM     56  C   UNL A   1      41.796  29.937  36.089  1.00  0.00     0.029 A 
ATOM     57  N   UNL A   1      41.623  29.435  33.931  1.00  0.00    -0.354 N 
ATOM     58  N   UNL A   1      42.292  27.968  31.480  1.00  0.00    -0.248 NA
ATOM     59  C   UNL A   1      43.628  26.434  30.334  1.00  0.00     0.031 C 
ATOM     60  C   UNL A   1      42.771  28.983  35.778  1.00  0.00     0.029 A 
ATOM     61  C   UNL A   1      42.646  28.650  34.439  1.00  0.00     0.049 A 
ATOM     62  H   UNL A   1      41.312  29.421  32.997  1.00  0.00     0.167 HD
ATOM     63  C   UNL A   1      43.214  27.419  32.362  1.00  0.00     0.074 A 
ATOM     64  C   UNL A   1      43.988  26.455  31.610  1.00  0.00     0.031 C 
ATOM     65  C   UNL A   1      43.402  27.689  33.678  1.00  0.00     0.037 A 
BRANCH  52  66
ATOM     66  C   UNL A   1      39.618  32.026  35.921  1.00  0.00     0.064 A 
ATOM     67  C   UNL A   1      40.265  33.227  36.248  1.00  0.00     0.173 A 
ATOM     68  C   UNL A   1      38.525  31.633  36.710  1.00  0.00     0.173 A 
ATOM     69  F   UNL A   1      41.324  33.640  35.535  1.00  0.00    -0.203 F 
ATOM     70  C   UNL A   1      39.848  33.993  37.335  1.00  0.00     0.198 A 
ATOM     71  C   UNL A   1      38.094  32.416  37.778  1.00  0.00     0.198 A 
ATOM     72  F   UNL A   1      37.870  30.495  36.439  1.00  0.00    -0.203 F 
ATOM     73  F   UNL A   1      40.509  35.115  37.655  1.00  0.00    -0.200 F 
ATOM     74  C   UNL A   1      38.759  33.592  38.093  1.00  0.00     0.200 A 
ATOM     75  F   UNL A   1      37.034  32.033  38.503  1.00  0.00    -0.200 F 
ATOM     76  F   UNL A   1      38.353  34.334  39.132  1.00  0.00    -0.200 F 
ENDBRANCH  52  66
BRANCH  53  77
ATOM     77  C   UNL A   1      42.199  26.805  27.808  1.00  0.00     0.064 A 
ATOM     78  C   UNL A   1      41.630  25.558  27.515  1.00  0.00     0.173 A 
ATOM     79  C   UNL A   1      43.185  27.292  26.938  1.00  0.00     0.173 A 
ATOM     80  F   UNL A   1      40.701  25.039  28.331  1.00  0.00    -0.203 F 
ATOM     81  C   UNL A   1      42.048  24.817  26.412  1.00  0.00     0.198 A 
ATOM     82  C   UNL A   1      43.582  26.565  25.818  1.00  0.00     0.198 A 
ATOM     83  F   UNL A   1      43.762  28.480  27.174  1.00  0.00    -0.203 F 
ATOM     84  F   UNL A   1      41.524  23.606  26.184  1.00  0.00    -0.200 F 
ATOM     85  C   UNL A   1      43.019  25.324  25.561  1.00  0.00     0.200 A 
ATOM     86  F   UNL A   1      44.511  27.064  24.992  1.00  0.00    -0.200 F 
ATOM     87  F   UNL A   1      43.419  24.612  24.498  1.00  0.00    -0.200 F 
ENDBRANCH  53  77
BRANCH  65  88
ATOM     88  C   UNL A   1      44.460  26.899  34.397  1.00  0.00     0.064 A 
ATOM     89  C   UNL A   1      44.182  25.658  34.990  1.00  0.00     0.173 A 
ATOM     90  C   UNL A   1      45.776  27.383  34.473  1.00  0.00     0.173 A 
ATOM     91  F   UNL A   1      42.938  25.158  34.956  1.00  0.00    -0.203 F 
ATOM     92  C   UNL A   1      45.174  24.948  35.662  1.00  0.00     0.198 A 
ATOM     93  C   UNL A   1      46.771  26.655  35.118  1.00  0.00     0.198 A 
ATOM     94  F   UNL A   1      46.097  28.560  33.916  1.00  0.00    -0.203 F 
ATOM     95  F   UNL A   1      44.872  23.793  36.270  1.00  0.00    -0.200 F 
ATOM     96  C   UNL A   1      46.468  25.444  35.721  1.00  0.00     0.200 A 
ATOM     97  F   UNL A   1      48.024  27.128  35.161  1.00  0.00    -0.200 F 
ATOM     98  F   UNL A   1      47.420  24.758  36.367  1.00  0.00    -0.200 F 
ENDBRANCH  65  88
ENDBRANCH  39  40
ENDBRANCH  32  34
ENDBRANCH  31  32
ENDBRANCH  30  31
ENDBRANCH  29  30
ENDBRANCH   1  29
TORSDOF 19
ENDMDL
MODEL 3
REMARK VINA RESULT:     -11.8      0.705      7.236
REMARK SMILES CCCc1cc(OC(F)(F)F)cc2c1O[C@@H](C(F)(F)F)C(C(=O)OCCOCCOC(=O)c1ccc(-c3c4nc(c(-c5c(F)c(F)c(F)c(F)c5F)c5ccc([nH]5)c(-c5c(F)c(F)c(F)c(F)c5F)c5nc(c(-c6c(F)c(F)c(F)c(F)c6F)c6ccc3[nH]6)C=C5)C=C4)cc1)=C2
REMARK SMILES IDX 27 1 26 2 25 3 24 4 22 5 23 6 21 7 4 8 5 9 14 10 6 11 13 12
REMARK SMILES IDX 15 13 12 14 96 15 16 16 3 17 2 18 1 19 7 20 8 21 9 22 10 23
REMARK SMILES IDX 11 24 17 25 18 26 19 27 20 28 28 29 29 30 30 31 31 32 32 33
REMARK SMILES IDX 33 34 34 35 95 36 35 37 94 38 36 39 37 40 38 41 88 42 39 43
REMARK SMILES IDX 93 44 87 45 89 46 40 47 92 48 86 49 85 50 41 52 73 53 53 54
REMARK SMILES IDX 72 55 54 56 57 57 71 58 90 59 55 60 56 61 70 63 91 64 58 65
REMARK SMILES IDX 42 66 43 67 51 68 44 69 45 70 49 71 52 72 46 73 47 74 50 75
REMARK SMILES IDX 48 76 74 77 75 78 83 79 76 80 77 81 81 82 84 83 78 84 79 85
REMARK SMILES IDX 82 86 80 87 59 88 60 89 68 90 61 91 62 92 66 93 69 94 63 95
REMARK SMILES IDX 64 96 67 97 65 98
REMARK H PARENT 89 51 57 62
REMARK Flexibility Score: inf
ROOT
ATOM      1  O   UNL A   1      35.036  20.584  24.500  1.00  0.00    -0.374 OA
ENDROOT
BRANCH   1   2
ATOM      2  C   UNL A   1      33.710  20.986  24.833  1.00  0.00     0.202 C 
BRANCH   2   3
ATOM      3  C   UNL A   1      32.766  21.304  23.671  1.00  0.00     0.261 C 
BRANCH   3   4
ATOM      4  O   UNL A   1      32.397  22.693  23.654  1.00  0.00    -0.460 OA
BRANCH   4   5
ATOM      5  C   UNL A   1      33.220  23.487  22.931  1.00  0.00     0.338 C 
ATOM      6  O   UNL A   1      34.043  23.121  22.104  1.00  0.00    -0.246 OA
BRANCH   5   7
ATOM      7  C   UNL A   1      32.935  24.907  23.183  1.00  0.00     0.087 C 
ATOM      8  C   UNL A   1      31.482  28.500  24.717  1.00  0.00    -0.002 A 
ATOM      9  C   UNL A   1      30.638  29.294  23.925  1.00  0.00     0.054 A 
ATOM     10  C   UNL A   1      31.984  27.309  24.181  1.00  0.00     0.131 A 
ATOM     11  C   UNL A   1      30.301  28.910  22.624  1.00  0.00     0.130 A 
ATOM     12  C   UNL A   1      31.630  26.892  22.889  1.00  0.00     0.021 A 
ATOM     13  O   UNL A   1      32.768  26.534  25.000  1.00  0.00    -0.475 OA
ATOM     14  C   UNL A   1      30.806  27.708  22.110  1.00  0.00     0.058 A 
ATOM     15  C   UNL A   1      32.016  25.551  22.445  1.00  0.00     0.027 C 
ATOM     16  C   UNL A   1      33.653  25.621  24.304  1.00  0.00     0.316 C 
BRANCH   8  17
ATOM     17  C   UNL A   1      31.840  28.951  26.115  1.00  0.00     0.039 C 
BRANCH  17  18
ATOM     18  C   UNL A   1      33.114  29.797  26.175  1.00  0.00     0.001 C 
ATOM     19  C   UNL A   1      34.188  29.204  27.078  1.00  0.00     0.004 C 
ENDBRANCH  17  18
ENDBRANCH   8  17
BRANCH  11  20
ATOM     20  O   UNL A   1      29.490  29.600  21.767  1.00  0.00    -0.406 OA
BRANCH  20  21
ATOM     21  C   UNL A   1      28.202  29.970  22.236  1.00  0.00     0.573 C 
ATOM     22  F   UNL A   1      27.530  28.901  22.712  1.00  0.00    -0.132 F 
ATOM     23  F   UNL A   1      28.289  30.913  23.199  1.00  0.00    -0.132 F 
ATOM     24  F   UNL A   1      27.497  30.486  21.206  1.00  0.00    -0.132 F 
ENDBRANCH  20  21
ENDBRANCH  11  20
BRANCH  16  25
ATOM     25  C   UNL A   1      34.408  24.784  25.350  1.00  0.00     0.430 C 
ATOM     26  F   UNL A   1      35.383  24.044  24.773  1.00  0.00    -0.167 F 
ATOM     27  F   UNL A   1      35.040  25.605  26.232  1.00  0.00    -0.167 F 
ATOM     28  F   UNL A   1      33.607  23.975  26.070  1.00  0.00    -0.167 F 
ENDBRANCH  16  25
ENDBRANCH   5   7
ENDBRANCH   4   5
ENDBRANCH   3   4
ENDBRANCH   2   3
ENDBRANCH   1   2
BRANCH   1  29
ATOM     29  C   UNL A   1      36.086  20.912  25.408  1.00  0.00     0.202 C 
BRANCH  29  30
ATOM     30  C   UNL A   1      37.503  20.448  25.050  1.00  0.00     0.261 C 
BRANCH  30  31
ATOM     31  O   UNL A   1      38.486  21.485  25.214  1.00  0.00    -0.460 OA
BRANCH  31  32
ATOM     32  C   UNL A   1      39.412  21.235  26.168  1.00  0.00     0.338 C 
ATOM     33  O   UNL A   1      39.960  20.168  26.411  1.00  0.00    -0.246 OA
BRANCH  32  34
ATOM     34  C   UNL A   1      39.839  22.491  26.808  1.00  0.00     0.060 A 
ATOM     35  C   UNL A   1      39.157  23.661  26.451  1.00  0.00     0.016 A 
ATOM     36  C   UNL A   1      40.937  22.542  27.670  1.00  0.00     0.016 A 
ATOM     37  C   UNL A   1      39.602  24.896  26.915  1.00  0.00     0.010 A 
ATOM     38  C   UNL A   1      41.386  23.786  28.130  1.00  0.00     0.010 A 
ATOM     39  C   UNL A   1      40.743  24.970  27.725  1.00  0.00    -0.014 A 
BRANCH  39  40
ATOM     40  C   UNL A   1      41.329  26.297  28.030  1.00  0.00     0.031 A 
ATOM     41  C   UNL A   1      42.728  26.605  27.570  1.00  0.00     0.074 A 
ATOM     42  C   UNL A   1      40.605  27.233  28.667  1.00  0.00     0.049 A 
ATOM     43  N   UNL A   1      43.430  27.700  27.718  1.00  0.00    -0.248 NA
ATOM     44  C   UNL A   1      43.431  25.534  26.847  1.00  0.00     0.031 C 
ATOM     45  C   UNL A   1      39.230  27.063  29.132  1.00  0.00     0.029 A 
ATOM     46  N   UNL A   1      40.928  28.516  29.031  1.00  0.00    -0.354 N 
ATOM     47  C   UNL A   1      44.653  27.451  27.109  1.00  0.00     0.074 A 
ATOM     48  C   UNL A   1      44.613  26.089  26.620  1.00  0.00     0.031 C 
ATOM     49  C   UNL A   1      38.827  28.199  29.725  1.00  0.00     0.029 A 
ATOM     50  C   UNL A   1      39.923  29.165  29.703  1.00  0.00     0.049 A 
ATOM     51  H   UNL A   1      41.798  28.931  28.830  1.00  0.00     0.167 HD
ATOM     52  C   UNL A   1      45.708  28.286  26.959  1.00  0.00     0.037 A 
ATOM     53  C   UNL A   1      39.898  30.397  30.248  1.00  0.00     0.037 A 
ATOM     54  C   UNL A   1      45.745  29.642  27.445  1.00  0.00     0.049 A 
ATOM     55  C   UNL A   1      41.107  31.287  30.116  1.00  0.00     0.074 A 
ATOM     56  C   UNL A   1      46.762  30.573  27.330  1.00  0.00     0.029 A 
ATOM     57  N   UNL A   1      44.718  30.257  28.145  1.00  0.00    -0.354 N 
ATOM     58  N   UNL A   1      42.248  31.053  29.512  1.00  0.00    -0.248 NA
ATOM     59  C   UNL A   1      41.019  32.617  30.735  1.00  0.00     0.031 C 
ATOM     60  C   UNL A   1      46.369  31.735  28.003  1.00  0.00     0.029 A 
ATOM     61  C   UNL A   1      45.086  31.548  28.488  1.00  0.00     0.049 A 
ATOM     62  H   UNL A   1      43.855  29.838  28.365  1.00  0.00     0.167 HD
ATOM     63  C   UNL A   1      42.998  32.214  29.651  1.00  0.00     0.074 A 
ATOM     64  C   UNL A   1      42.178  33.155  30.382  1.00  0.00     0.031 C 
ATOM     65  C   UNL A   1      44.254  32.477  29.210  1.00  0.00     0.037 A 
BRANCH  52  66
ATOM     66  C   UNL A   1      46.922  27.753  26.256  1.00  0.00     0.064 A 
ATOM     67  C   UNL A   1      47.997  27.195  26.962  1.00  0.00     0.173 A 
ATOM     68  C   UNL A   1      46.993  27.764  24.854  1.00  0.00     0.173 A 
ATOM     69  F   UNL A   1      47.986  27.172  28.304  1.00  0.00    -0.203 F 
ATOM     70  C   UNL A   1      49.109  26.688  26.292  1.00  0.00     0.198 A 
ATOM     71  C   UNL A   1      48.093  27.231  24.187  1.00  0.00     0.198 A 
ATOM     72  F   UNL A   1      45.990  28.284  24.130  1.00  0.00    -0.203 F 
ATOM     73  F   UNL A   1      50.144  26.199  26.990  1.00  0.00    -0.200 F 
ATOM     74  C   UNL A   1      49.153  26.699  24.907  1.00  0.00     0.200 A 
ATOM     75  F   UNL A   1      48.128  27.232  22.848  1.00  0.00    -0.200 F 
ATOM     76  F   UNL A   1      50.218  26.203  24.264  1.00  0.00    -0.200 F 
ENDBRANCH  52  66
BRANCH  53  77
ATOM     77  C   UNL A   1      38.687  30.866  30.972  1.00  0.00     0.064 A 
ATOM     78  C   UNL A   1      37.609  31.440  30.285  1.00  0.00     0.173 A 
ATOM     79  C   UNL A   1      38.595  30.771  32.368  1.00  0.00     0.173 A 
ATOM     80  F   UNL A   1      37.662  31.576  28.951  1.00  0.00    -0.203 F 
ATOM     81  C   UNL A   1      36.494  31.922  30.968  1.00  0.00     0.198 A 
ATOM     82  C   UNL A   1      37.467  31.225  33.048  1.00  0.00     0.198 A 
ATOM     83  F   UNL A   1      39.600  30.230  33.073  1.00  0.00    -0.203 F 
ATOM     84  F   UNL A   1      35.501  32.513  30.292  1.00  0.00    -0.200 F 
ATOM     85  C   UNL A   1      36.422  31.809  32.349  1.00  0.00     0.200 A 
ATOM     86  F   UNL A   1      37.396  31.103  34.380  1.00  0.00    -0.200 F 
ATOM     87  F   UNL A   1      35.349  32.272  33.005  1.00  0.00    -0.200 F 
ENDBRANCH  53  77
BRANCH  65  88
ATOM     88  C   UNL A   1      44.800  33.852  29.473  1.00  0.00     0.064 A 
ATOM     89  C   UNL A   1      45.551  34.143  30.622  1.00  0.00     0.173 A 
ATOM     90  C   UNL A   1      44.587  34.887  28.549  1.00  0.00     0.173 A 
ATOM     91  F   UNL A   1      45.772  33.191  31.542  1.00  0.00    -0.203 F 
ATOM     92  C   UNL A   1      46.037  35.427  30.853  1.00  0.00     0.198 A 
ATOM     93  C   UNL A   1      45.102  36.162  28.768  1.00  0.00     0.198 A 
ATOM     94  F   UNL A   1      43.883  34.662  27.430  1.00  0.00    -0.203 F 
ATOM     95  F   UNL A   1      46.702  35.695  31.986  1.00  0.00    -0.200 F 
ATOM     96  C   UNL A   1      45.818  36.433  29.925  1.00  0.00     0.200 A 
ATOM     97  F   UNL A   1      44.901  37.129  27.863  1.00  0.00    -0.200 F 
ATOM     98  F   UNL A   1      46.287  37.668  30.149  1.00  0.00    -0.200 F 
ENDBRANCH  65  88
ENDBRANCH  39  40
ENDBRANCH  32  34
ENDBRANCH  31  32
ENDBRANCH  30  31
ENDBRANCH  29  30
ENDBRANCH   1  29
TORSDOF 19
ENDMDL
