MODEL 1
REMARK VINA RESULT:     -11.2      0.000      0.000
REMARK SMILES CCN(CC)c1ccc(NC(=O)c2ccc(OC)cc2)cc1C(=O)OCCOCCOC(=O)c1ccc(-c2c3nc(c(-c4c(F)c(F)c(F)c(F)c4F)c4ccc([nH]4)c(-c4c(F)c(F)c(F)c(F)c4F)c4nc(c(-c5c(F)c(F)c(F)c(F)c5F)c5ccc2[nH]5)C=C4)C=C3)cc1
REMARK SMILES IDX 27 1 26 2 25 3 23 4 24 5 22 6 6 7 7 8 8 9 21 10 9 11 3 12
REMARK SMILES IDX 2 13 1 14 4 15 5 16 10 17 11 18 12 20 13 21 14 22 20 23
REMARK SMILES IDX 15 24 19 25 16 26 17 27 18 28 28 29 29 30 30 31 31 32 32 33
REMARK SMILES IDX 33 34 34 35 35 36 96 37 36 38 95 39 37 40 38 41 39 42 89 43
REMARK SMILES IDX 40 44 94 45 88 46 90 47 41 48 93 49 87 50 86 51 42 53 74 54
REMARK SMILES IDX 54 55 73 56 55 57 58 58 72 59 91 60 56 61 57 62 71 64 92 65
REMARK SMILES IDX 59 66 43 67 44 68 52 69 45 70 46 71 50 72 53 73 47 74 48 75
REMARK SMILES IDX 51 76 49 77 75 78 76 79 84 80 77 81 78 82 82 83 85 84 79 85
REMARK SMILES IDX 80 86 83 87 81 88 60 89 61 90 69 91 62 92 63 93 67 94 70 95
REMARK SMILES IDX 64 96 65 97 68 98 66 99
REMARK H PARENT 10 19 90 52 58 63
REMARK Flexibility Score: inf
ROOT
ATOM      1  C   UNL A   1      36.423  22.856  25.890  1.00  0.00     0.202 C 
ENDROOT
BRANCH   1   2
ATOM      2  C   UNL A   1      36.457  23.680  24.601  1.00  0.00     0.261 C 
BRANCH   2   3
ATOM      3  O   UNL A   1      35.225  24.403  24.451  1.00  0.00    -0.460 OA
BRANCH   3   4
ATOM      4  C   UNL A   1      34.461  24.001  23.408  1.00  0.00     0.340 C 
ATOM      5  O   UNL A   1      34.785  23.223  22.526  1.00  0.00    -0.246 OA
BRANCH   4   6
ATOM      6  C   UNL A   1      33.073  24.453  23.626  1.00  0.00     0.085 A 
ATOM      7  C   UNL A   1      32.173  23.846  24.529  1.00  0.00     0.051 A 
ATOM      8  C   UNL A   1      30.849  24.306  24.445  1.00  0.00     0.029 A 
ATOM      9  C   UNL A   1      30.466  25.377  23.623  1.00  0.00     0.028 A 
ATOM     10  C   UNL A   1      32.691  25.531  22.793  1.00  0.00     0.044 A 
ATOM     11  C   UNL A   1      31.402  26.042  22.843  1.00  0.00     0.042 A 
BRANCH   7  12
ATOM     12  N   UNL A   1      32.523  22.891  25.481  1.00  0.00    -0.371 N 
BRANCH  12  13
ATOM     13  C   UNL A   1      32.920  23.321  26.833  1.00  0.00     0.113 C 
ATOM     14  C   UNL A   1      33.278  22.150  27.736  1.00  0.00     0.027 C 
ENDBRANCH  12  13
BRANCH  12  15
ATOM     15  C   UNL A   1      32.206  21.464  25.300  1.00  0.00     0.113 C 
ATOM     16  C   UNL A   1      32.944  20.817  24.129  1.00  0.00     0.027 C 
ENDBRANCH  12  15
ENDBRANCH   7  12
BRANCH  11  17
ATOM     17  N   UNL A   1      31.107  27.194  22.090  1.00  0.00    -0.322 N 
ATOM     18  C   UNL A   1      31.107  28.524  22.466  1.00  0.00     0.255 C 
ATOM     19  H   UNL A   1      30.864  27.027  21.150  1.00  0.00     0.170 HD
ATOM     20  O   UNL A   1      30.580  29.378  21.755  1.00  0.00    -0.269 OA
BRANCH  18  21
ATOM     21  C   UNL A   1      31.822  28.948  23.691  1.00  0.00     0.040 A 
ATOM     22  C   UNL A   1      31.099  29.510  24.744  1.00  0.00     0.017 A 
ATOM     23  C   UNL A   1      33.204  28.752  23.811  1.00  0.00     0.017 A 
ATOM     24  C   UNL A   1      31.744  29.769  25.956  1.00  0.00     0.047 A 
ATOM     25  C   UNL A   1      33.841  29.004  25.028  1.00  0.00     0.047 A 
ATOM     26  C   UNL A   1      33.102  29.473  26.115  1.00  0.00     0.118 A 
BRANCH  26  27
ATOM     27  O   UNL A   1      33.608  29.692  27.367  1.00  0.00    -0.497 OA
ATOM     28  C   UNL A   1      35.030  29.736  27.449  1.00  0.00     0.278 C 
ENDBRANCH  26  27
ENDBRANCH  18  21
ENDBRANCH  11  17
ENDBRANCH   4   6
ENDBRANCH   3   4
ENDBRANCH   2   3
ENDBRANCH   1   2
BRANCH   1  29
ATOM     29  O   UNL A   1      36.413  21.437  25.721  1.00  0.00    -0.374 OA
BRANCH  29  30
ATOM     30  C   UNL A   1      37.363  20.873  24.819  1.00  0.00     0.202 C 
BRANCH  30  31
ATOM     31  C   UNL A   1      38.489  20.033  25.439  1.00  0.00     0.261 C 
BRANCH  31  32
ATOM     32  O   UNL A   1      39.756  20.709  25.543  1.00  0.00    -0.460 OA
BRANCH  32  33
ATOM     33  C   UNL A   1      40.306  20.684  26.779  1.00  0.00     0.338 C 
ATOM     34  O   UNL A   1      40.650  19.709  27.425  1.00  0.00    -0.246 OA
BRANCH  33  35
ATOM     35  C   UNL A   1      40.521  22.052  27.283  1.00  0.00     0.060 A 
ATOM     36  C   UNL A   1      39.862  23.106  26.640  1.00  0.00     0.016 A 
ATOM     37  C   UNL A   1      41.498  22.308  28.249  1.00  0.00     0.016 A 
ATOM     38  C   UNL A   1      40.208  24.426  26.933  1.00  0.00     0.010 A 
ATOM     39  C   UNL A   1      41.846  23.633  28.536  1.00  0.00     0.010 A 
ATOM     40  C   UNL A   1      41.229  24.697  27.856  1.00  0.00    -0.014 A 
BRANCH  40  41
ATOM     41  C   UNL A   1      41.734  26.084  28.016  1.00  0.00     0.031 A 
ATOM     42  C   UNL A   1      43.091  26.449  27.477  1.00  0.00     0.074 A 
ATOM     43  C   UNL A   1      40.985  27.019  28.628  1.00  0.00     0.049 A 
ATOM     44  N   UNL A   1      43.735  27.587  27.549  1.00  0.00    -0.248 NA
ATOM     45  C   UNL A   1      43.819  25.390  26.762  1.00  0.00     0.031 C 
ATOM     46  C   UNL A   1      39.644  26.805  29.166  1.00  0.00     0.029 A 
ATOM     47  N   UNL A   1      41.257  28.335  28.906  1.00  0.00    -0.354 N 
ATOM     48  C   UNL A   1      44.943  27.381  26.895  1.00  0.00     0.074 A 
ATOM     49  C   UNL A   1      44.954  26.002  26.454  1.00  0.00     0.031 C 
ATOM     50  C   UNL A   1      39.212  27.951  29.720  1.00  0.00     0.029 A 
ATOM     51  C   UNL A   1      40.256  28.968  29.600  1.00  0.00     0.049 A 
ATOM     52  H   UNL A   1      42.090  28.784  28.633  1.00  0.00     0.167 HD
ATOM     53  C   UNL A   1      45.948  28.262  26.675  1.00  0.00     0.037 A 
ATOM     54  C   UNL A   1      40.197  30.217  30.099  1.00  0.00     0.037 A 
ATOM     55  C   UNL A   1      45.940  29.637  27.102  1.00  0.00     0.049 A 
ATOM     56  C   UNL A   1      41.352  31.160  29.893  1.00  0.00     0.074 A 
ATOM     57  C   UNL A   1      46.903  30.611  26.897  1.00  0.00     0.029 A 
ATOM     58  N   UNL A   1      44.920  30.231  27.829  1.00  0.00    -0.354 N 
ATOM     59  N   UNL A   1      42.479  30.963  29.253  1.00  0.00    -0.248 NA
ATOM     60  C   UNL A   1      41.226  32.503  30.479  1.00  0.00     0.031 C 
ATOM     61  C   UNL A   1      46.483  31.783  27.533  1.00  0.00     0.029 A 
ATOM     62  C   UNL A   1      45.241  31.552  28.101  1.00  0.00     0.049 A 
ATOM     63  H   UNL A   1      44.091  29.781  28.109  1.00  0.00     0.167 HD
ATOM     64  C   UNL A   1      43.182  32.157  29.338  1.00  0.00     0.074 A 
ATOM     65  C   UNL A   1      42.353  33.079  30.085  1.00  0.00     0.031 C 
ATOM     66  C   UNL A   1      44.406  32.462  28.841  1.00  0.00     0.037 A 
BRANCH  53  67
ATOM     67  C   UNL A   1      47.159  27.761  25.946  1.00  0.00     0.064 A 
ATOM     68  C   UNL A   1      47.224  27.760  24.545  1.00  0.00     0.173 A 
ATOM     69  C   UNL A   1      48.283  27.319  26.658  1.00  0.00     0.173 A 
ATOM     70  F   UNL A   1      46.170  28.165  23.820  1.00  0.00    -0.203 F 
ATOM     71  C   UNL A   1      48.366  27.317  23.883  1.00  0.00     0.198 A 
ATOM     72  C   UNL A   1      49.431  26.897  25.993  1.00  0.00     0.198 A 
ATOM     73  F   UNL A   1      48.272  27.306  27.999  1.00  0.00    -0.203 F 
ATOM     74  F   UNL A   1      48.394  27.290  22.543  1.00  0.00    -0.200 F 
ATOM     75  C   UNL A   1      49.470  26.890  24.606  1.00  0.00     0.200 A 
ATOM     76  F   UNL A   1      50.501  26.495  26.694  1.00  0.00    -0.200 F 
ATOM     77  F   UNL A   1      50.570  26.470  23.967  1.00  0.00    -0.200 F 
ENDBRANCH  53  67
BRANCH  54  78
ATOM     78  C   UNL A   1      38.997  30.651  30.857  1.00  0.00     0.064 A 
ATOM     79  C   UNL A   1      38.925  30.492  32.247  1.00  0.00     0.173 A 
ATOM     80  C   UNL A   1      37.896  31.224  30.204  1.00  0.00     0.173 A 
ATOM     81  F   UNL A   1      39.944  29.926  32.910  1.00  0.00    -0.203 F 
ATOM     82  C   UNL A   1      37.790  30.880  32.956  1.00  0.00     0.198 A 
ATOM     83  C   UNL A   1      36.771  31.632  30.916  1.00  0.00     0.198 A 
ATOM     84  F   UNL A   1      37.917  31.392  28.874  1.00  0.00    -0.203 F 
ATOM     85  F   UNL A   1      37.729  30.684  34.280  1.00  0.00    -0.200 F 
ATOM     86  C   UNL A   1      36.716  31.455  32.291  1.00  0.00     0.200 A 
ATOM     87  F   UNL A   1      35.741  32.195  30.271  1.00  0.00    -0.200 F 
ATOM     88  F   UNL A   1      35.627  31.832  32.973  1.00  0.00    -0.200 F 
ENDBRANCH  54  78
BRANCH  66  89
ATOM     89  C   UNL A   1      44.913  33.856  29.062  1.00  0.00     0.064 A 
ATOM     90  C   UNL A   1      45.716  34.177  30.165  1.00  0.00     0.173 A 
ATOM     91  C   UNL A   1      44.626  34.872  28.138  1.00  0.00     0.173 A 
ATOM     92  F   UNL A   1      46.005  33.244  31.084  1.00  0.00    -0.203 F 
ATOM     93  C   UNL A   1      46.198  35.472  30.345  1.00  0.00     0.198 A 
ATOM     94  C   UNL A   1      45.129  36.158  28.309  1.00  0.00     0.198 A 
ATOM     95  F   UNL A   1      43.866  34.613  27.063  1.00  0.00    -0.203 F 
ATOM     96  F   UNL A   1      46.933  35.767  31.427  1.00  0.00    -0.200 F 
ATOM     97  C   UNL A   1      45.910  36.459  29.414  1.00  0.00     0.200 A 
ATOM     98  F   UNL A   1      44.857  37.109  27.403  1.00  0.00    -0.200 F 
ATOM     99  F   UNL A   1      46.379  37.703  29.587  1.00  0.00    -0.200 F 
ENDBRANCH  66  89
ENDBRANCH  40  41
ENDBRANCH  33  35
ENDBRANCH  32  33
ENDBRANCH  31  32
ENDBRANCH  30  31
ENDBRANCH  29  30
ENDBRANCH   1  29
TORSDOF 20
ENDMDL
MODEL 2
REMARK VINA RESULT:     -11.2      4.540     10.300
REMARK SMILES CCN(CC)c1ccc(NC(=O)c2ccc(OC)cc2)cc1C(=O)OCCOCCOC(=O)c1ccc(-c2c3nc(c(-c4c(F)c(F)c(F)c(F)c4F)c4ccc([nH]4)c(-c4c(F)c(F)c(F)c(F)c4F)c4nc(c(-c5c(F)c(F)c(F)c(F)c5F)c5ccc2[nH]5)C=C4)C=C3)cc1
REMARK SMILES IDX 27 1 26 2 25 3 23 4 24 5 22 6 6 7 7 8 8 9 21 10 9 11 3 12
REMARK SMILES IDX 2 13 1 14 4 15 5 16 10 17 11 18 12 20 13 21 14 22 20 23
REMARK SMILES IDX 15 24 19 25 16 26 17 27 18 28 28 29 29 30 30 31 31 32 32 33
REMARK SMILES IDX 33 34 34 35 35 36 96 37 36 38 95 39 37 40 38 41 39 42 89 43
REMARK SMILES IDX 40 44 94 45 88 46 90 47 41 48 93 49 87 50 86 51 42 53 74 54
REMARK SMILES IDX 54 55 73 56 55 57 58 58 72 59 91 60 56 61 57 62 71 64 92 65
REMARK SMILES IDX 59 66 43 67 44 68 52 69 45 70 46 71 50 72 53 73 47 74 48 75
REMARK SMILES IDX 51 76 49 77 75 78 76 79 84 80 77 81 78 82 82 83 85 84 79 85
REMARK SMILES IDX 80 86 83 87 81 88 60 89 61 90 69 91 62 92 63 93 67 94 70 95
REMARK SMILES IDX 64 96 65 97 68 98 66 99
REMARK H PARENT 10 19 90 52 58 63
REMARK Flexibility Score: inf
ROOT
ATOM      1  C   UNL A   1      34.939  29.880  27.272  1.00  0.00     0.202 C 
ENDROOT
BRANCH   1   2
ATOM      2  C   UNL A   1      33.640  29.075  27.243  1.00  0.00     0.261 C 
BRANCH   2   3
ATOM      3  O   UNL A   1      33.224  28.867  25.884  1.00  0.00    -0.460 OA
BRANCH   3   4
ATOM      4  C   UNL A   1      31.931  29.183  25.637  1.00  0.00     0.340 C 
ATOM      5  O   UNL A   1      31.434  30.297  25.673  1.00  0.00    -0.246 OA
BRANCH   4   6
ATOM      6  C   UNL A   1      31.250  28.005  25.066  1.00  0.00     0.085 A 
ATOM      7  C   UNL A   1      30.857  27.892  23.714  1.00  0.00     0.051 A 
ATOM      8  C   UNL A   1      30.055  26.776  23.422  1.00  0.00     0.029 A 
ATOM      9  C   UNL A   1      29.769  25.777  24.363  1.00  0.00     0.028 A 
ATOM     10  C   UNL A   1      30.961  27.001  26.020  1.00  0.00     0.044 A 
ATOM     11  C   UNL A   1      30.280  25.848  25.652  1.00  0.00     0.042 A 
BRANCH   7  12
ATOM     12  N   UNL A   1      31.240  28.764  22.698  1.00  0.00    -0.371 N 
BRANCH  12  13
ATOM     13  C   UNL A   1      30.234  29.635  22.068  1.00  0.00     0.113 C 
ATOM     14  C   UNL A   1      29.281  30.253  23.081  1.00  0.00     0.027 C 
ENDBRANCH  12  13
BRANCH  12  15
ATOM     15  C   UNL A   1      32.656  29.085  22.446  1.00  0.00     0.113 C 
ATOM     16  C   UNL A   1      33.557  27.855  22.366  1.00  0.00     0.027 C 
ENDBRANCH  12  15
ENDBRANCH   7  12
BRANCH  11  17
ATOM     17  N   UNL A   1      30.130  24.824  26.606  1.00  0.00    -0.322 N 
ATOM     18  C   UNL A   1      30.774  23.605  26.708  1.00  0.00     0.255 C 
ATOM     19  H   UNL A   1      29.465  25.004  27.309  1.00  0.00     0.170 HD
ATOM     20  O   UNL A   1      30.341  22.727  27.452  1.00  0.00    -0.269 OA
BRANCH  18  21
ATOM     21  C   UNL A   1      32.046  23.376  25.986  1.00  0.00     0.040 A 
ATOM     22  C   UNL A   1      32.034  22.642  24.799  1.00  0.00     0.017 A 
ATOM     23  C   UNL A   1      33.243  23.923  26.465  1.00  0.00     0.017 A 
ATOM     24  C   UNL A   1      33.202  22.554  24.037  1.00  0.00     0.047 A 
ATOM     25  C   UNL A   1      34.405  23.839  25.694  1.00  0.00     0.047 A 
ATOM     26  C   UNL A   1      34.375  23.191  24.459  1.00  0.00     0.118 A 
BRANCH  26  27
ATOM     27  O   UNL A   1      35.433  23.105  23.595  1.00  0.00    -0.497 OA
ATOM     28  C   UNL A   1      36.491  22.247  24.014  1.00  0.00     0.278 C 
ENDBRANCH  26  27
ENDBRANCH  18  21
ENDBRANCH  11  17
ENDBRANCH   4   6
ENDBRANCH   3   4
ENDBRANCH   2   3
ENDBRANCH   1   2
BRANCH   1  29
ATOM     29  O   UNL A   1      34.791  31.297  27.390  1.00  0.00    -0.374 OA
BRANCH  29  30
ATOM     30  C   UNL A   1      33.553  31.791  27.895  1.00  0.00     0.202 C 
BRANCH  30  31
ATOM     31  C   UNL A   1      33.109  33.176  27.403  1.00  0.00     0.261 C 
BRANCH  31  32
ATOM     32  O   UNL A   1      32.354  33.941  28.361  1.00  0.00    -0.460 OA
BRANCH  32  33
ATOM     33  C   UNL A   1      33.002  35.025  28.848  1.00  0.00     0.338 C 
ATOM     34  O   UNL A   1      32.691  36.198  28.730  1.00  0.00    -0.246 OA
BRANCH  33  35
ATOM     35  C   UNL A   1      34.172  34.619  29.646  1.00  0.00     0.060 A 
ATOM     36  C   UNL A   1      35.437  34.690  29.051  1.00  0.00     0.016 A 
ATOM     37  C   UNL A   1      34.006  34.003  30.889  1.00  0.00     0.016 A 
ATOM     38  C   UNL A   1      36.537  34.108  29.682  1.00  0.00     0.010 A 
ATOM     39  C   UNL A   1      35.111  33.416  31.516  1.00  0.00     0.010 A 
ATOM     40  C   UNL A   1      36.374  33.434  30.900  1.00  0.00    -0.014 A 
BRANCH  40  41
ATOM     41  C   UNL A   1      37.497  32.645  31.467  1.00  0.00     0.031 A 
ATOM     42  C   UNL A   1      38.043  32.996  32.825  1.00  0.00     0.074 A 
ATOM     43  C   UNL A   1      38.023  31.613  30.784  1.00  0.00     0.049 A 
ATOM     44  N   UNL A   1      39.043  32.465  33.483  1.00  0.00    -0.248 NA
ATOM     45  C   UNL A   1      37.371  34.093  33.538  1.00  0.00     0.031 C 
ATOM     46  C   UNL A   1      37.567  31.149  29.476  1.00  0.00     0.029 A 
ATOM     47  N   UNL A   1      39.064  30.775  31.097  1.00  0.00    -0.354 N 
ATOM     48  C   UNL A   1      39.125  33.164  34.680  1.00  0.00     0.074 A 
ATOM     49  C   UNL A   1      38.088  34.174  34.649  1.00  0.00     0.031 C 
ATOM     50  C   UNL A   1      38.333  30.114  29.092  1.00  0.00     0.029 A 
ATOM     51  C   UNL A   1      39.348  29.861  30.114  1.00  0.00     0.049 A 
ATOM     52  H   UNL A   1      39.559  30.824  31.947  1.00  0.00     0.167 HD
ATOM     53  C   UNL A   1      39.979  32.975  35.714  1.00  0.00     0.037 A 
ATOM     54  C   UNL A   1      40.328  28.940  30.038  1.00  0.00     0.037 A 
ATOM     55  C   UNL A   1      41.006  31.967  35.754  1.00  0.00     0.049 A 
ATOM     56  C   UNL A   1      41.303  28.789  31.175  1.00  0.00     0.074 A 
ATOM     57  C   UNL A   1      41.899  31.684  36.774  1.00  0.00     0.029 A 
ATOM     58  N   UNL A   1      41.281  31.080  34.726  1.00  0.00    -0.354 N 
ATOM     59  N   UNL A   1      41.357  29.439  32.312  1.00  0.00    -0.248 NA
ATOM     60  C   UNL A   1      42.356  27.775  31.016  1.00  0.00     0.031 C 
ATOM     61  C   UNL A   1      42.741  30.652  36.346  1.00  0.00     0.029 A 
ATOM     62  C   UNL A   1      42.346  30.265  35.076  1.00  0.00     0.049 A 
ATOM     63  H   UNL A   1      40.792  31.035  33.872  1.00  0.00     0.167 HD
ATOM     64  C   UNL A   1      42.427  28.898  33.012  1.00  0.00     0.074 A 
ATOM     65  C   UNL A   1      42.993  27.861  32.176  1.00  0.00     0.031 C 
ATOM     66  C   UNL A   1      42.898  29.232  34.238  1.00  0.00     0.037 A 
BRANCH  53  67
ATOM     67  C   UNL A   1      39.852  33.895  36.892  1.00  0.00     0.064 A 
ATOM     68  C   UNL A   1      40.539  35.115  36.947  1.00  0.00     0.173 A 
ATOM     69  C   UNL A   1      38.999  33.570  37.956  1.00  0.00     0.173 A 
ATOM     70  F   UNL A   1      41.375  35.465  35.957  1.00  0.00    -0.203 F 
ATOM     71  C   UNL A   1      40.390  35.971  38.036  1.00  0.00     0.198 A 
ATOM     72  C   UNL A   1      38.836  34.437  39.033  1.00  0.00     0.198 A 
ATOM     73  F   UNL A   1      38.316  32.416  37.948  1.00  0.00    -0.203 F 
ATOM     74  F   UNL A   1      41.084  37.117  38.086  1.00  0.00    -0.200 F 
ATOM     75  C   UNL A   1      39.535  35.634  39.075  1.00  0.00     0.200 A 
ATOM     76  F   UNL A   1      38.000  34.115  40.031  1.00  0.00    -0.200 F 
ATOM     77  F   UNL A   1      39.388  36.461  40.119  1.00  0.00    -0.200 F 
ENDBRANCH  53  67
BRANCH  54  78
ATOM     78  C   UNL A   1      40.443  28.087  28.829  1.00  0.00     0.064 A 
ATOM     79  C   UNL A   1      41.207  28.494  27.728  1.00  0.00     0.173 A 
ATOM     80  C   UNL A   1      39.783  26.852  28.749  1.00  0.00     0.173 A 
ATOM     81  F   UNL A   1      41.834  29.680  27.750  1.00  0.00    -0.203 F 
ATOM     82  C   UNL A   1      41.298  27.703  26.585  1.00  0.00     0.198 A 
ATOM     83  C   UNL A   1      39.894  26.051  27.615  1.00  0.00     0.198 A 
ATOM     84  F   UNL A   1      39.037  26.421  29.776  1.00  0.00    -0.203 F 
ATOM     85  F   UNL A   1      42.005  28.132  25.530  1.00  0.00    -0.200 F 
ATOM     86  C   UNL A   1      40.647  26.479  26.531  1.00  0.00     0.200 A 
ATOM     87  F   UNL A   1      39.271  24.866  27.571  1.00  0.00    -0.200 F 
ATOM     88  F   UNL A   1      40.738  25.717  25.434  1.00  0.00    -0.200 F 
ENDBRANCH  54  78
BRANCH  66  89
ATOM     89  C   UNL A   1      44.066  28.452  34.765  1.00  0.00     0.064 A 
ATOM     90  C   UNL A   1      43.889  27.255  35.472  1.00  0.00     0.173 A 
ATOM     91  C   UNL A   1      45.378  28.887  34.524  1.00  0.00     0.173 A 
ATOM     92  F   UNL A   1      42.654  26.806  35.740  1.00  0.00    -0.203 F 
ATOM     93  C   UNL A   1      44.985  26.530  35.936  1.00  0.00     0.198 A 
ATOM     94  C   UNL A   1      46.470  28.148  34.969  1.00  0.00     0.198 A 
ATOM     95  F   UNL A   1      45.600  30.025  33.847  1.00  0.00    -0.203 F 
ATOM     96  F   UNL A   1      44.792  25.408  36.643  1.00  0.00    -0.200 F 
ATOM     97  C   UNL A   1      46.273  26.974  35.679  1.00  0.00     0.200 A 
ATOM     98  F   UNL A   1      47.715  28.573  34.711  1.00  0.00    -0.200 F 
ATOM     99  F   UNL A   1      47.326  26.272  36.121  1.00  0.00    -0.200 F 
ENDBRANCH  66  89
ENDBRANCH  40  41
ENDBRANCH  33  35
ENDBRANCH  32  33
ENDBRANCH  31  32
ENDBRANCH  30  31
ENDBRANCH  29  30
ENDBRANCH   1  29
TORSDOF 20
ENDMDL
MODEL 3
REMARK VINA RESULT:     -10.9      1.802      7.111
REMARK SMILES CCN(CC)c1ccc(NC(=O)c2ccc(OC)cc2)cc1C(=O)OCCOCCOC(=O)c1ccc(-c2c3nc(c(-c4c(F)c(F)c(F)c(F)c4F)c4ccc([nH]4)c(-c4c(F)c(F)c(F)c(F)c4F)c4nc(c(-c5c(F)c(F)c(F)c(F)c5F)c5ccc2[nH]5)C=C4)C=C3)cc1
REMARK SMILES IDX 27 1 26 2 25 3 23 4 24 5 22 6 6 7 7 8 8 9 21 10 9 11 3 12
REMARK SMILES IDX 2 13 1 14 4 15 5 16 10 17 11 18 12 20 13 21 14 22 20 23
REMARK SMILES IDX 15 24 19 25 16 26 17 27 18 28 28 29 29 30 30 31 31 32 32 33
REMARK SMILES IDX 33 34 34 35 35 36 96 37 36 38 95 39 37 40 38 41 39 42 89 43
REMARK SMILES IDX 40 44 94 45 88 46 90 47 41 48 93 49 87 50 86 51 42 53 74 54
REMARK SMILES IDX 54 55 73 56 55 57 58 58 72 59 91 60 56 61 57 62 71 64 92 65
REMARK SMILES IDX 59 66 43 67 44 68 52 69 45 70 46 71 50 72 53 73 47 74 48 75
REMARK SMILES IDX 51 76 49 77 75 78 76 79 84 80 77 81 78 82 82 83 85 84 79 85
REMARK SMILES IDX 80 86 83 87 81 88 60 89 61 90 69 91 62 92 63 93 67 94 70 95
REMARK SMILES IDX 64 96 65 97 68 98 66 99
REMARK H PARENT 10 19 90 52 58 63
REMARK Flexibility Score: inf
ROOT
ATOM      1  C   UNL A   1      37.227  22.428  25.739  1.00  0.00     0.202 C 
ENDROOT
BRANCH   1   2
ATOM      2  C   UNL A   1      36.993  23.684  24.898  1.00  0.00     0.261 C 
BRANCH   2   3
ATOM      3  O   UNL A   1      35.584  23.915  24.747  1.00  0.00    -0.460 OA
BRANCH   3   4
ATOM      4  C   UNL A   1      35.079  23.544  23.547  1.00  0.00     0.340 C 
ATOM      5  O   UNL A   1      35.689  23.014  22.633  1.00  0.00    -0.246 OA
BRANCH   4   6
ATOM      6  C   UNL A   1      33.608  23.648  23.592  1.00  0.00     0.085 A 
ATOM      7  C   UNL A   1      32.767  22.723  24.250  1.00  0.00     0.051 A 
ATOM      8  C   UNL A   1      31.394  22.898  24.010  1.00  0.00     0.029 A 
ATOM      9  C   UNL A   1      30.879  23.981  23.283  1.00  0.00     0.028 A 
ATOM     10  C   UNL A   1      33.094  24.740  22.854  1.00  0.00     0.044 A 
ATOM     11  C   UNL A   1      31.725  24.949  22.758  1.00  0.00     0.042 A 
BRANCH   7  12
ATOM     12  N   UNL A   1      33.205  21.723  25.115  1.00  0.00    -0.371 N 
BRANCH  12  13
ATOM     13  C   UNL A   1      33.694  20.447  24.565  1.00  0.00     0.113 C 
ATOM     14  C   UNL A   1      32.571  19.448  24.324  1.00  0.00     0.027 C 
ENDBRANCH  12  13
BRANCH  12  15
ATOM     15  C   UNL A   1      33.502  21.999  26.531  1.00  0.00     0.113 C 
ATOM     16  C   UNL A   1      32.743  23.200  27.092  1.00  0.00     0.027 C 
ENDBRANCH  12  15
ENDBRANCH   7  12
BRANCH  11  17
ATOM     17  N   UNL A   1      31.268  26.118  22.122  1.00  0.00    -0.322 N 
ATOM     18  C   UNL A   1      31.126  27.401  22.618  1.00  0.00     0.255 C 
ATOM     19  H   UNL A   1      31.009  26.006  21.179  1.00  0.00     0.170 HD
ATOM     20  O   UNL A   1      30.475  28.243  22.004  1.00  0.00    -0.269 OA
BRANCH  18  21
ATOM     21  C   UNL A   1      31.835  27.800  23.855  1.00  0.00     0.040 A 
ATOM     22  C   UNL A   1      33.180  28.164  23.784  1.00  0.00     0.017 A 
ATOM     23  C   UNL A   1      31.155  27.852  25.079  1.00  0.00     0.017 A 
ATOM     24  C   UNL A   1      33.809  28.685  24.917  1.00  0.00     0.047 A 
ATOM     25  C   UNL A   1      31.787  28.383  26.206  1.00  0.00     0.047 A 
ATOM     26  C   UNL A   1      33.103  28.840  26.114  1.00  0.00     0.118 A 
BRANCH  26  27
ATOM     27  O   UNL A   1      33.795  29.435  27.133  1.00  0.00    -0.497 OA
ATOM     28  C   UNL A   1      33.441  30.789  27.399  1.00  0.00     0.278 C 
ENDBRANCH  26  27
ENDBRANCH  18  21
ENDBRANCH  11  17
ENDBRANCH   4   6
ENDBRANCH   3   4
ENDBRANCH   2   3
ENDBRANCH   1   2
BRANCH   1  29
ATOM     29  O   UNL A   1      37.063  21.183  25.055  1.00  0.00    -0.374 OA
BRANCH  29  30
ATOM     30  C   UNL A   1      38.157  20.269  25.077  1.00  0.00     0.202 C 
BRANCH  30  31
ATOM     31  C   UNL A   1      39.470  20.779  25.689  1.00  0.00     0.261 C 
BRANCH  31  32
ATOM     32  O   UNL A   1      40.162  19.820  26.510  1.00  0.00    -0.460 OA
BRANCH  32  33
ATOM     33  C   UNL A   1      41.459  19.626  26.174  1.00  0.00     0.338 C 
ATOM     34  O   UNL A   1      41.946  18.675  25.587  1.00  0.00    -0.246 OA
BRANCH  33  35
ATOM     35  C   UNL A   1      42.278  20.788  26.562  1.00  0.00     0.060 A 
ATOM     36  C   UNL A   1      42.278  21.181  27.905  1.00  0.00     0.016 A 
ATOM     37  C   UNL A   1      42.883  21.587  25.588  1.00  0.00     0.016 A 
ATOM     38  C   UNL A   1      42.851  22.398  28.275  1.00  0.00     0.010 A 
ATOM     39  C   UNL A   1      43.453  22.810  25.962  1.00  0.00     0.010 A 
ATOM     40  C   UNL A   1      43.409  23.238  27.300  1.00  0.00    -0.014 A 
BRANCH  40  41
ATOM     41  C   UNL A   1      43.833  24.615  27.662  1.00  0.00     0.031 A 
ATOM     42  C   UNL A   1      42.793  25.647  28.007  1.00  0.00     0.074 A 
ATOM     43  C   UNL A   1      45.137  24.943  27.696  1.00  0.00     0.049 A 
ATOM     44  N   UNL A   1      42.947  26.913  28.308  1.00  0.00    -0.248 NA
ATOM     45  C   UNL A   1      41.395  25.193  28.014  1.00  0.00     0.031 C 
ATOM     46  C   UNL A   1      46.242  24.031  27.415  1.00  0.00     0.029 A 
ATOM     47  N   UNL A   1      45.746  26.141  27.973  1.00  0.00    -0.354 N 
ATOM     48  C   UNL A   1      41.668  27.406  28.534  1.00  0.00     0.074 A 
ATOM     49  C   UNL A   1      40.748  26.311  28.311  1.00  0.00     0.031 C 
ATOM     50  C   UNL A   1      47.399  24.706  27.525  1.00  0.00     0.029 A 
ATOM     51  C   UNL A   1      47.113  26.102  27.855  1.00  0.00     0.049 A 
ATOM     52  H   UNL A   1      45.250  26.951  28.233  1.00  0.00     0.167 HD
ATOM     53  C   UNL A   1      41.295  28.656  28.901  1.00  0.00     0.037 A 
ATOM     54  C   UNL A   1      48.027  27.083  27.980  1.00  0.00     0.037 A 
ATOM     55  C   UNL A   1      42.206  29.747  29.132  1.00  0.00     0.049 A 
ATOM     56  C   UNL A   1      47.582  28.478  28.331  1.00  0.00     0.074 A 
ATOM     57  C   UNL A   1      41.919  31.040  29.536  1.00  0.00     0.029 A 
ATOM     58  N   UNL A   1      43.581  29.674  28.974  1.00  0.00    -0.354 N 
ATOM     59  N   UNL A   1      46.374  28.929  28.565  1.00  0.00    -0.248 NA
ATOM     60  C   UNL A   1      48.632  29.503  28.434  1.00  0.00     0.031 C 
ATOM     61  C   UNL A   1      43.117  31.761  29.583  1.00  0.00     0.029 A 
ATOM     62  C   UNL A   1      44.154  30.906  29.248  1.00  0.00     0.049 A 
ATOM     63  H   UNL A   1      44.076  28.867  28.706  1.00  0.00     0.167 HD
ATOM     64  C   UNL A   1      46.519  30.276  28.867  1.00  0.00     0.074 A 
ATOM     65  C   UNL A   1      47.935  30.572  28.794  1.00  0.00     0.031 C 
ATOM     66  C   UNL A   1      45.565  31.187  29.177  1.00  0.00     0.037 A 
BRANCH  53  67
ATOM     67  C   UNL A   1      39.828  28.920  29.062  1.00  0.00     0.064 A 
ATOM     68  C   UNL A   1      39.030  29.310  27.978  1.00  0.00     0.173 A 
ATOM     69  C   UNL A   1      39.207  28.738  30.306  1.00  0.00     0.173 A 
ATOM     70  F   UNL A   1      39.580  29.507  26.770  1.00  0.00    -0.203 F 
ATOM     71  C   UNL A   1      37.663  29.526  28.138  1.00  0.00     0.198 A 
ATOM     72  C   UNL A   1      37.838  28.933  30.458  1.00  0.00     0.198 A 
ATOM     73  F   UNL A   1      39.927  28.360  31.373  1.00  0.00    -0.203 F 
ATOM     74  F   UNL A   1      36.923  29.933  27.097  1.00  0.00    -0.200 F 
ATOM     75  C   UNL A   1      37.067  29.332  29.376  1.00  0.00     0.200 A 
ATOM     76  F   UNL A   1      37.261  28.735  31.653  1.00  0.00    -0.200 F 
ATOM     77  F   UNL A   1      35.751  29.534  29.527  1.00  0.00    -0.200 F 
ENDBRANCH  53  67
BRANCH  54  78
ATOM     78  C   UNL A   1      49.463  26.783  27.762  1.00  0.00     0.064 A 
ATOM     79  C   UNL A   1      50.321  26.535  28.841  1.00  0.00     0.173 A 
ATOM     80  C   UNL A   1      50.007  26.748  26.469  1.00  0.00     0.173 A 
ATOM     81  F   UNL A   1      49.850  26.584  30.095  1.00  0.00    -0.203 F 
ATOM     82  C   UNL A   1      51.674  26.274  28.636  1.00  0.00     0.198 A 
ATOM     83  C   UNL A   1      51.355  26.464  26.265  1.00  0.00     0.198 A 
ATOM     84  F   UNL A   1      49.226  26.982  25.405  1.00  0.00    -0.203 F 
ATOM     85  F   UNL A   1      52.483  26.077  29.687  1.00  0.00    -0.200 F 
ATOM     86  C   UNL A   1      52.189  26.232  27.349  1.00  0.00     0.200 A 
ATOM     87  F   UNL A   1      51.846  26.416  25.019  1.00  0.00    -0.200 F 
ATOM     88  F   UNL A   1      53.489  25.977  27.153  1.00  0.00    -0.200 F 
ENDBRANCH  54  78
BRANCH  66  89
ATOM     89  C   UNL A   1      46.017  32.583  29.488  1.00  0.00     0.064 A 
ATOM     90  C   UNL A   1      46.409  32.955  30.782  1.00  0.00     0.173 A 
ATOM     91  C   UNL A   1      46.099  33.547  28.472  1.00  0.00     0.173 A 
ATOM     92  F   UNL A   1      46.333  32.073  31.789  1.00  0.00    -0.203 F 
ATOM     93  C   UNL A   1      46.847  34.250  31.051  1.00  0.00     0.198 A 
ATOM     94  C   UNL A   1      46.560  34.833  28.740  1.00  0.00     0.198 A 
ATOM     95  F   UNL A   1      45.740  33.238  27.216  1.00  0.00    -0.203 F 
ATOM     96  F   UNL A   1      47.180  34.596  32.302  1.00  0.00    -0.200 F 
ATOM     97  C   UNL A   1      46.929  35.185  30.029  1.00  0.00     0.200 A 
ATOM     98  F   UNL A   1      46.647  35.732  27.750  1.00  0.00    -0.200 F 
ATOM     99  F   UNL A   1      47.357  36.428  30.290  1.00  0.00    -0.200 F 
ENDBRANCH  66  89
ENDBRANCH  40  41
ENDBRANCH  33  35
ENDBRANCH  32  33
ENDBRANCH  31  32
ENDBRANCH  30  31
ENDBRANCH  29  30
ENDBRANCH   1  29
TORSDOF 20
ENDMDL
