MODEL 1
REMARK VINA RESULT:     -10.8      0.000      0.000
REMARK SMILES C[N@H+]1CCO[C@](C)(C(=O)OCCOCCOC(=O)c2ccc(-c3c4nc(c(-c5c(F)c(F)c(F)c(F)c5F)c5ccc([nH]5)c(-c5c(F)c(F)c(F)c(F)c5F)c5nc(c(-c6c(F)c(F)c(F)c(F)c6F)c6ccc3[nH]6)C=C5)C=C4)cc2)C1
REMARK SMILES IDX 14 1 13 2 12 3 11 4 10 5 8 6 9 7 6 8 1 9 2 10 3 11 82 12
REMARK SMILES IDX 4 14 5 15 7 16 15 17 16 18 17 19 18 20 19 21 20 22 81 23
REMARK SMILES IDX 21 24 80 25 22 26 23 27 24 28 74 29 25 30 79 31 73 32 75 33
REMARK SMILES IDX 26 34 78 35 72 36 71 37 27 39 59 40 39 41 58 42 40 43 43 44
REMARK SMILES IDX 57 45 76 46 41 47 42 48 56 50 77 51 44 52 28 53 29 54 37 55
REMARK SMILES IDX 30 56 31 57 35 58 38 59 32 60 33 61 36 62 34 63 60 64 61 65
REMARK SMILES IDX 69 66 62 67 63 68 67 69 70 70 64 71 65 72 68 73 66 74 45 75
REMARK SMILES IDX 46 76 54 77 47 78 48 79 52 80 55 81 49 82 50 83 53 84 51 85
REMARK H PARENT 2 13 75 38 43 49
REMARK Flexibility Score: inf
ROOT
ATOM      1  C   UNL A   1      36.810  22.269  23.810  1.00  0.00     0.202 C 
ENDROOT
BRANCH   1   2
ATOM      2  O   UNL A   1      35.706  22.980  24.368  1.00  0.00    -0.374 OA
BRANCH   2   3
ATOM      3  C   UNL A   1      34.573  23.192  23.531  1.00  0.00     0.202 C 
BRANCH   3   4
ATOM      4  C   UNL A   1      33.450  22.152  23.598  1.00  0.00     0.261 C 
BRANCH   4   5
ATOM      5  O   UNL A   1      33.811  20.981  24.354  1.00  0.00    -0.461 OA
BRANCH   5   6
ATOM      6  C   UNL A   1      32.761  20.195  24.738  1.00  0.00     0.344 C 
ATOM      7  O   UNL A   1      31.721  20.641  25.213  1.00  0.00    -0.249 OA
BRANCH   6   8
ATOM      8  C   UNL A   1      33.047  18.684  24.570  1.00  0.00     0.211 C 
ATOM      9  C   UNL A   1      32.601  15.484  25.213  1.00  0.00     0.332 C 
ATOM     10  N   UNL A   1      33.287  16.516  25.977  1.00  0.00    -0.333 N 
ATOM     11  C   UNL A   1      34.724  16.587  25.657  1.00  0.00     0.290 C 
ATOM     12  C   UNL A   1      32.691  17.863  25.843  1.00  0.00     0.310 C 
ATOM     13  H   UNL A   1      33.170  16.225  26.948  1.00  0.00     0.348 HD
ATOM     14  C   UNL A   1      35.023  17.307  24.335  1.00  0.00     0.223 C 
ATOM     15  O   UNL A   1      34.468  18.619  24.300  1.00  0.00    -0.353 OA
ATOM     16  C   UNL A   1      32.249  18.248  23.336  1.00  0.00     0.061 C 
ENDBRANCH   6   8
ENDBRANCH   5   6
ENDBRANCH   4   5
ENDBRANCH   3   4
ENDBRANCH   2   3
ENDBRANCH   1   2
BRANCH   1  17
ATOM     17  C   UNL A   1      37.353  21.092  24.633  1.00  0.00     0.261 C 
BRANCH  17  18
ATOM     18  O   UNL A   1      37.775  21.496  25.951  1.00  0.00    -0.460 OA
BRANCH  18  19
ATOM     19  C   UNL A   1      39.100  21.351  26.192  1.00  0.00     0.338 C 
ATOM     20  O   UNL A   1      39.816  20.410  25.875  1.00  0.00    -0.246 OA
BRANCH  19  21
ATOM     21  C   UNL A   1      39.655  22.594  26.757  1.00  0.00     0.060 A 
ATOM     22  C   UNL A   1      39.186  23.807  26.235  1.00  0.00     0.016 A 
ATOM     23  C   UNL A   1      40.672  22.581  27.714  1.00  0.00     0.016 A 
ATOM     24  C   UNL A   1      39.762  25.011  26.634  1.00  0.00     0.010 A 
ATOM     25  C   UNL A   1      41.259  23.791  28.105  1.00  0.00     0.010 A 
ATOM     26  C   UNL A   1      40.829  25.008  27.542  1.00  0.00    -0.014 A 
BRANCH  26  27
ATOM     27  C   UNL A   1      41.580  26.261  27.793  1.00  0.00     0.031 A 
ATOM     28  C   UNL A   1      40.920  27.367  28.567  1.00  0.00     0.074 A 
ATOM     29  C   UNL A   1      42.848  26.403  27.365  1.00  0.00     0.049 A 
ATOM     30  N   UNL A   1      41.375  28.557  28.872  1.00  0.00    -0.248 NA
ATOM     31  C   UNL A   1      39.564  27.095  29.069  1.00  0.00     0.031 C 
ATOM     32  C   UNL A   1      43.612  25.389  26.645  1.00  0.00     0.029 A 
ATOM     33  N   UNL A   1      43.710  27.466  27.471  1.00  0.00    -0.354 N 
ATOM     34  C   UNL A   1      40.364  29.172  29.598  1.00  0.00     0.074 A 
ATOM     35  C   UNL A   1      39.260  28.238  29.665  1.00  0.00     0.031 C 
ATOM     36  C   UNL A   1      44.831  25.882  26.361  1.00  0.00     0.029 A 
ATOM     37  C   UNL A   1      44.917  27.257  26.852  1.00  0.00     0.049 A 
ATOM     38  H   UNL A   1      43.485  28.298  27.947  1.00  0.00     0.167 HD
ATOM     39  C   UNL A   1      40.359  30.403  30.165  1.00  0.00     0.037 A 
ATOM     40  C   UNL A   1      45.961  28.091  26.679  1.00  0.00     0.037 A 
ATOM     41  C   UNL A   1      41.456  31.333  30.099  1.00  0.00     0.049 A 
ATOM     42  C   UNL A   1      45.898  29.486  27.245  1.00  0.00     0.074 A 
ATOM     43  C   UNL A   1      41.555  32.593  30.663  1.00  0.00     0.029 A 
ATOM     44  N   UNL A   1      42.643  31.104  29.419  1.00  0.00    -0.354 N 
ATOM     45  N   UNL A   1      44.948  30.052  27.948  1.00  0.00    -0.248 NA
ATOM     46  C   UNL A   1      47.053  30.358  26.988  1.00  0.00     0.031 C 
ATOM     47  C   UNL A   1      42.783  33.146  30.282  1.00  0.00     0.029 A 
ATOM     48  C   UNL A   1      43.467  32.213  29.520  1.00  0.00     0.049 A 
ATOM     49  H   UNL A   1      42.866  30.276  28.935  1.00  0.00     0.167 HD
ATOM     50  C   UNL A   1      45.395  31.336  28.232  1.00  0.00     0.074 A 
ATOM     51  C   UNL A   1      46.711  31.460  27.641  1.00  0.00     0.031 C 
ATOM     52  C   UNL A   1      44.773  32.323  28.921  1.00  0.00     0.037 A 
BRANCH  39  53
ATOM     53  C   UNL A   1      39.115  30.826  30.889  1.00  0.00     0.064 A 
ATOM     54  C   UNL A   1      38.043  31.428  30.216  1.00  0.00     0.173 A 
ATOM     55  C   UNL A   1      38.981  30.593  32.265  1.00  0.00     0.173 A 
ATOM     56  F   UNL A   1      38.128  31.685  28.901  1.00  0.00    -0.203 F 
ATOM     57  C   UNL A   1      36.888  31.803  30.900  1.00  0.00     0.198 A 
ATOM     58  C   UNL A   1      37.817  30.947  32.942  1.00  0.00     0.198 A 
ATOM     59  F   UNL A   1      39.978  30.017  32.954  1.00  0.00    -0.203 F 
ATOM     60  F   UNL A   1      35.892  32.415  30.245  1.00  0.00    -0.200 F 
ATOM     61  C   UNL A   1      36.775  31.557  32.260  1.00  0.00     0.200 A 
ATOM     62  F   UNL A   1      37.704  30.698  34.253  1.00  0.00    -0.200 F 
ATOM     63  F   UNL A   1      35.661  31.912  32.916  1.00  0.00    -0.200 F 
ENDBRANCH  39  53
BRANCH  40  64
ATOM     64  C   UNL A   1      47.152  27.639  25.914  1.00  0.00     0.064 A 
ATOM     65  C   UNL A   1      48.285  27.133  26.566  1.00  0.00     0.173 A 
ATOM     66  C   UNL A   1      47.187  27.721  24.514  1.00  0.00     0.173 A 
ATOM     67  F   UNL A   1      48.309  27.062  27.906  1.00  0.00    -0.203 F 
ATOM     68  C   UNL A   1      49.412  26.741  25.850  1.00  0.00     0.198 A 
ATOM     69  C   UNL A   1      48.305  27.303  23.796  1.00  0.00     0.198 A 
ATOM     70  F   UNL A   1      46.130  28.202  23.842  1.00  0.00    -0.203 F 
ATOM     71  F   UNL A   1      50.499  26.302  26.500  1.00  0.00    -0.200 F 
ATOM     72  C   UNL A   1      49.420  26.820  24.465  1.00  0.00     0.200 A 
ATOM     73  F   UNL A   1      48.304  27.373  22.458  1.00  0.00    -0.200 F 
ATOM     74  F   UNL A   1      50.504  26.440  23.775  1.00  0.00    -0.200 F 
ENDBRANCH  40  64
BRANCH  52  75
ATOM     75  C   UNL A   1      45.511  33.620  29.086  1.00  0.00     0.064 A 
ATOM     76  C   UNL A   1      46.371  33.840  30.171  1.00  0.00     0.173 A 
ATOM     77  C   UNL A   1      45.389  34.637  28.127  1.00  0.00     0.173 A 
ATOM     78  F   UNL A   1      46.510  32.905  31.123  1.00  0.00    -0.203 F 
ATOM     79  C   UNL A   1      47.065  35.041  30.302  1.00  0.00     0.198 A 
ATOM     80  C   UNL A   1      46.106  35.824  28.247  1.00  0.00     0.198 A 
ATOM     81  F   UNL A   1      44.584  34.473  27.066  1.00  0.00    -0.203 F 
ATOM     82  F   UNL A   1      47.849  35.246  31.370  1.00  0.00    -0.200 F 
ATOM     83  C   UNL A   1      46.938  36.028  29.337  1.00  0.00     0.200 A 
ATOM     84  F   UNL A   1      45.991  36.773  27.306  1.00  0.00    -0.200 F 
ATOM     85  F   UNL A   1      47.611  37.179  29.461  1.00  0.00    -0.200 F 
ENDBRANCH  52  75
ENDBRANCH  26  27
ENDBRANCH  19  21
ENDBRANCH  18  19
ENDBRANCH  17  18
ENDBRANCH   1  17
TORSDOF 14
ENDMDL
MODEL 2
REMARK VINA RESULT:     -10.6      4.753      9.970
REMARK SMILES C[N@H+]1CCO[C@](C)(C(=O)OCCOCCOC(=O)c2ccc(-c3c4nc(c(-c5c(F)c(F)c(F)c(F)c5F)c5ccc([nH]5)c(-c5c(F)c(F)c(F)c(F)c5F)c5nc(c(-c6c(F)c(F)c(F)c(F)c6F)c6ccc3[nH]6)C=C5)C=C4)cc2)C1
REMARK SMILES IDX 14 1 13 2 12 3 11 4 10 5 8 6 9 7 6 8 1 9 2 10 3 11 82 12
REMARK SMILES IDX 4 14 5 15 7 16 15 17 16 18 17 19 18 20 19 21 20 22 81 23
REMARK SMILES IDX 21 24 80 25 22 26 23 27 24 28 74 29 25 30 79 31 73 32 75 33
REMARK SMILES IDX 26 34 78 35 72 36 71 37 27 39 59 40 39 41 58 42 40 43 43 44
REMARK SMILES IDX 57 45 76 46 41 47 42 48 56 50 77 51 44 52 28 53 29 54 37 55
REMARK SMILES IDX 30 56 31 57 35 58 38 59 32 60 33 61 36 62 34 63 60 64 61 65
REMARK SMILES IDX 69 66 62 67 63 68 67 69 70 70 64 71 65 72 68 73 66 74 45 75
REMARK SMILES IDX 46 76 54 77 47 78 48 79 52 80 55 81 49 82 50 83 53 84 51 85
REMARK H PARENT 2 13 75 38 43 49
REMARK Flexibility Score: inf
ROOT
ATOM      1  C   UNL A   1      31.483  29.580  24.918  1.00  0.00     0.202 C 
ENDROOT
BRANCH   1   2
ATOM      2  O   UNL A   1      31.855  28.320  25.476  1.00  0.00    -0.374 OA
BRANCH   2   3
ATOM      3  C   UNL A   1      31.248  27.155  24.925  1.00  0.00     0.202 C 
BRANCH   3   4
ATOM      4  C   UNL A   1      30.480  26.244  25.888  1.00  0.00     0.261 C 
BRANCH   4   5
ATOM      5  O   UNL A   1      31.345  25.461  26.732  1.00  0.00    -0.461 OA
BRANCH   5   6
ATOM      6  C   UNL A   1      31.190  24.108  26.622  1.00  0.00     0.344 C 
ATOM      7  O   UNL A   1      30.350  23.470  27.250  1.00  0.00    -0.249 OA
BRANCH   6   8
ATOM      8  C   UNL A   1      32.224  23.459  25.672  1.00  0.00     0.211 C 
ATOM      9  C   UNL A   1      33.698  22.975  22.766  1.00  0.00     0.332 C 
ATOM     10  N   UNL A   1      32.418  22.497  23.269  1.00  0.00    -0.333 N 
ATOM     11  C   UNL A   1      32.528  21.177  23.915  1.00  0.00     0.290 C 
ATOM     12  C   UNL A   1      31.744  23.436  24.192  1.00  0.00     0.310 C 
ATOM     13  H   UNL A   1      31.837  22.419  22.434  1.00  0.00     0.348 HD
ATOM     14  C   UNL A   1      33.112  21.234  25.332  1.00  0.00     0.223 C 
ATOM     15  O   UNL A   1      32.378  22.113  26.181  1.00  0.00    -0.353 OA
ATOM     16  C   UNL A   1      33.520  24.255  25.867  1.00  0.00     0.061 C 
ENDBRANCH   6   8
ENDBRANCH   5   6
ENDBRANCH   4   5
ENDBRANCH   3   4
ENDBRANCH   2   3
ENDBRANCH   1   2
BRANCH   1  17
ATOM     17  C   UNL A   1      31.534  30.787  25.865  1.00  0.00     0.261 C 
BRANCH  17  18
ATOM     18  O   UNL A   1      32.490  30.609  26.928  1.00  0.00    -0.460 OA
BRANCH  18  19
ATOM     19  C   UNL A   1      33.192  31.721  27.254  1.00  0.00     0.338 C 
ATOM     20  O   UNL A   1      32.789  32.877  27.273  1.00  0.00    -0.246 OA
BRANCH  19  21
ATOM     21  C   UNL A   1      34.519  31.351  27.778  1.00  0.00     0.060 A 
ATOM     22  C   UNL A   1      34.734  30.005  28.100  1.00  0.00     0.016 A 
ATOM     23  C   UNL A   1      35.506  32.307  28.030  1.00  0.00     0.016 A 
ATOM     24  C   UNL A   1      35.921  29.614  28.718  1.00  0.00     0.010 A 
ATOM     25  C   UNL A   1      36.691  31.914  28.663  1.00  0.00     0.010 A 
ATOM     26  C   UNL A   1      36.890  30.572  29.039  1.00  0.00    -0.014 A 
BRANCH  26  27
ATOM     27  C   UNL A   1      38.043  30.190  29.890  1.00  0.00     0.031 A 
ATOM     28  C   UNL A   1      39.069  29.236  29.345  1.00  0.00     0.074 A 
ATOM     29  C   UNL A   1      38.194  30.710  31.121  1.00  0.00     0.049 A 
ATOM     30  N   UNL A   1      40.134  28.740  29.924  1.00  0.00    -0.248 NA
ATOM     31  C   UNL A   1      38.870  28.781  27.960  1.00  0.00     0.031 C 
ATOM     32  C   UNL A   1      37.295  31.678  31.743  1.00  0.00     0.029 A 
ATOM     33  N   UNL A   1      39.161  30.488  32.070  1.00  0.00    -0.354 N 
ATOM     34  C   UNL A   1      40.729  27.917  28.976  1.00  0.00     0.074 A 
ATOM     35  C   UNL A   1      39.893  27.957  27.795  1.00  0.00     0.031 C 
ATOM     36  C   UNL A   1      37.745  31.959  32.979  1.00  0.00     0.029 A 
ATOM     37  C   UNL A   1      38.945  31.165  33.243  1.00  0.00     0.049 A 
ATOM     38  H   UNL A   1      39.936  29.899  31.922  1.00  0.00     0.167 HD
ATOM     39  C   UNL A   1      41.874  27.200  29.079  1.00  0.00     0.037 A 
ATOM     40  C   UNL A   1      39.624  31.129  34.406  1.00  0.00     0.037 A 
ATOM     41  C   UNL A   1      42.705  27.159  30.253  1.00  0.00     0.049 A 
ATOM     42  C   UNL A   1      40.846  30.255  34.525  1.00  0.00     0.074 A 
ATOM     43  C   UNL A   1      43.897  26.482  30.445  1.00  0.00     0.029 A 
ATOM     44  N   UNL A   1      42.425  27.821  31.440  1.00  0.00    -0.354 N 
ATOM     45  N   UNL A   1      41.413  29.498  33.618  1.00  0.00    -0.248 NA
ATOM     46  C   UNL A   1      41.519  30.231  35.831  1.00  0.00     0.031 C 
ATOM     47  C   UNL A   1      44.312  26.693  31.764  1.00  0.00     0.029 A 
ATOM     48  C   UNL A   1      43.404  27.539  32.379  1.00  0.00     0.049 A 
ATOM     49  H   UNL A   1      41.646  28.402  31.592  1.00  0.00     0.167 HD
ATOM     50  C   UNL A   1      42.516  28.923  34.235  1.00  0.00     0.074 A 
ATOM     51  C   UNL A   1      42.549  29.432  35.590  1.00  0.00     0.031 C 
ATOM     52  C   UNL A   1      43.420  28.051  33.726  1.00  0.00     0.037 A 
BRANCH  39  53
ATOM     53  C   UNL A   1      42.283  26.377  27.893  1.00  0.00     0.064 A 
ATOM     54  C   UNL A   1      43.235  26.837  26.972  1.00  0.00     0.173 A 
ATOM     55  C   UNL A   1      41.742  25.098  27.697  1.00  0.00     0.173 A 
ATOM     56  F   UNL A   1      43.772  28.059  27.109  1.00  0.00    -0.203 F 
ATOM     57  C   UNL A   1      43.614  26.054  25.884  1.00  0.00     0.198 A 
ATOM     58  C   UNL A   1      42.141  24.309  26.622  1.00  0.00     0.198 A 
ATOM     59  F   UNL A   1      40.830  24.611  28.552  1.00  0.00    -0.203 F 
ATOM     60  F   UNL A   1      44.495  26.529  24.993  1.00  0.00    -0.200 F 
ATOM     61  C   UNL A   1      43.071  24.789  25.714  1.00  0.00     0.200 A 
ATOM     62  F   UNL A   1      41.624  23.082  26.465  1.00  0.00    -0.200 F 
ATOM     63  F   UNL A   1      43.441  24.035  24.670  1.00  0.00    -0.200 F 
ENDBRANCH  39  53
BRANCH  40  64
ATOM     64  C   UNL A   1      39.151  31.928  35.566  1.00  0.00     0.064 A 
ATOM     65  C   UNL A   1      38.321  31.364  36.545  1.00  0.00     0.173 A 
ATOM     66  C   UNL A   1      39.505  33.278  35.709  1.00  0.00     0.173 A 
ATOM     67  F   UNL A   1      37.932  30.085  36.436  1.00  0.00    -0.203 F 
ATOM     68  C   UNL A   1      37.851  32.123  37.614  1.00  0.00     0.198 A 
ATOM     69  C   UNL A   1      39.056  34.028  36.794  1.00  0.00     0.198 A 
ATOM     70  F   UNL A   1      40.293  33.866  34.797  1.00  0.00    -0.203 F 
ATOM     71  F   UNL A   1      37.023  31.572  38.512  1.00  0.00    -0.200 F 
ATOM     72  C   UNL A   1      38.224  33.452  37.741  1.00  0.00     0.200 A 
ATOM     73  F   UNL A   1      39.427  35.310  36.916  1.00  0.00    -0.200 F 
ATOM     74  F   UNL A   1      37.774  34.182  38.772  1.00  0.00    -0.200 F 
ENDBRANCH  40  64
BRANCH  52  75
ATOM     75  C   UNL A   1      44.530  27.601  34.632  1.00  0.00     0.064 A 
ATOM     76  C   UNL A   1      45.716  28.338  34.757  1.00  0.00     0.173 A 
ATOM     77  C   UNL A   1      44.389  26.444  35.413  1.00  0.00     0.173 A 
ATOM     78  F   UNL A   1      45.906  29.442  34.020  1.00  0.00    -0.203 F 
ATOM     79  C   UNL A   1      46.731  27.920  35.616  1.00  0.00     0.198 A 
ATOM     80  C   UNL A   1      45.393  26.046  36.291  1.00  0.00     0.198 A 
ATOM     81  F   UNL A   1      43.270  25.708  35.335  1.00  0.00    -0.203 F 
ATOM     82  F   UNL A   1      47.874  28.617  35.688  1.00  0.00    -0.200 F 
ATOM     83  C   UNL A   1      46.565  26.780  36.387  1.00  0.00     0.200 A 
ATOM     84  F   UNL A   1      45.227  24.949  37.044  1.00  0.00    -0.200 F 
ATOM     85  F   UNL A   1      47.539  26.383  37.217  1.00  0.00    -0.200 F 
ENDBRANCH  52  75
ENDBRANCH  26  27
ENDBRANCH  19  21
ENDBRANCH  18  19
ENDBRANCH  17  18
ENDBRANCH   1  17
TORSDOF 14
ENDMDL
MODEL 3
REMARK VINA RESULT:     -10.6      4.635      9.877
REMARK SMILES C[N@H+]1CCO[C@](C)(C(=O)OCCOCCOC(=O)c2ccc(-c3c4nc(c(-c5c(F)c(F)c(F)c(F)c5F)c5ccc([nH]5)c(-c5c(F)c(F)c(F)c(F)c5F)c5nc(c(-c6c(F)c(F)c(F)c(F)c6F)c6ccc3[nH]6)C=C5)C=C4)cc2)C1
REMARK SMILES IDX 14 1 13 2 12 3 11 4 10 5 8 6 9 7 6 8 1 9 2 10 3 11 82 12
REMARK SMILES IDX 4 14 5 15 7 16 15 17 16 18 17 19 18 20 19 21 20 22 81 23
REMARK SMILES IDX 21 24 80 25 22 26 23 27 24 28 74 29 25 30 79 31 73 32 75 33
REMARK SMILES IDX 26 34 78 35 72 36 71 37 27 39 59 40 39 41 58 42 40 43 43 44
REMARK SMILES IDX 57 45 76 46 41 47 42 48 56 50 77 51 44 52 28 53 29 54 37 55
REMARK SMILES IDX 30 56 31 57 35 58 38 59 32 60 33 61 36 62 34 63 60 64 61 65
REMARK SMILES IDX 69 66 62 67 63 68 67 69 70 70 64 71 65 72 68 73 66 74 45 75
REMARK SMILES IDX 46 76 54 77 47 78 48 79 52 80 55 81 49 82 50 83 53 84 51 85
REMARK H PARENT 2 13 75 38 43 49
REMARK Flexibility Score: inf
ROOT
ATOM      1  C   UNL A   1      32.129  29.249  24.724  1.00  0.00     0.202 C 
ENDROOT
BRANCH   1   2
ATOM      2  O   UNL A   1      31.656  27.938  25.032  1.00  0.00    -0.374 OA
BRANCH   2   3
ATOM      3  C   UNL A   1      30.915  27.256  24.025  1.00  0.00     0.202 C 
BRANCH   3   4
ATOM      4  C   UNL A   1      31.545  25.994  23.427  1.00  0.00     0.261 C 
BRANCH   4   5
ATOM      5  O   UNL A   1      32.866  25.730  23.935  1.00  0.00    -0.461 OA
BRANCH   5   6
ATOM      6  C   UNL A   1      33.719  25.138  23.047  1.00  0.00     0.344 C 
ATOM      7  O   UNL A   1      33.865  25.523  21.890  1.00  0.00    -0.249 OA
BRANCH   6   8
ATOM      8  C   UNL A   1      34.433  23.897  23.632  1.00  0.00     0.211 C 
ATOM      9  C   UNL A   1      35.356  21.865  26.055  1.00  0.00     0.332 C 
ATOM     10  N   UNL A   1      35.860  23.179  25.678  1.00  0.00    -0.333 N 
ATOM     11  C   UNL A   1      36.989  23.095  24.734  1.00  0.00     0.290 C 
ATOM     12  C   UNL A   1      34.829  24.084  25.125  1.00  0.00     0.310 C 
ATOM     13  H   UNL A   1      36.181  23.583  26.557  1.00  0.00     0.348 HD
ATOM     14  C   UNL A   1      36.562  22.797  23.292  1.00  0.00     0.223 C 
ATOM     15  O   UNL A   1      35.612  23.742  22.806  1.00  0.00    -0.353 OA
ATOM     16  C   UNL A   1      33.470  22.725  23.412  1.00  0.00     0.061 C 
ENDBRANCH   6   8
ENDBRANCH   5   6
ENDBRANCH   4   5
ENDBRANCH   3   4
ENDBRANCH   2   3
ENDBRANCH   1   2
BRANCH   1  17
ATOM     17  C   UNL A   1      31.743  30.363  25.707  1.00  0.00     0.261 C 
BRANCH  17  18
ATOM     18  O   UNL A   1      32.509  30.306  26.927  1.00  0.00    -0.460 OA
BRANCH  18  19
ATOM     19  C   UNL A   1      33.176  31.445  27.232  1.00  0.00     0.338 C 
ATOM     20  O   UNL A   1      32.734  32.586  27.247  1.00  0.00    -0.246 OA
BRANCH  19  21
ATOM     21  C   UNL A   1      34.522  31.126  27.741  1.00  0.00     0.060 A 
ATOM     22  C   UNL A   1      34.784  29.794  28.086  1.00  0.00     0.016 A 
ATOM     23  C   UNL A   1      35.483  32.117  27.957  1.00  0.00     0.016 A 
ATOM     24  C   UNL A   1      35.991  29.452  28.692  1.00  0.00     0.010 A 
ATOM     25  C   UNL A   1      36.690  31.773  28.578  1.00  0.00     0.010 A 
ATOM     26  C   UNL A   1      36.936  30.446  28.978  1.00  0.00    -0.014 A 
BRANCH  26  27
ATOM     27  C   UNL A   1      38.114  30.116  29.816  1.00  0.00     0.031 A 
ATOM     28  C   UNL A   1      39.153  29.172  29.279  1.00  0.00     0.074 A 
ATOM     29  C   UNL A   1      38.275  30.676  31.029  1.00  0.00     0.049 A 
ATOM     30  N   UNL A   1      40.240  28.719  29.850  1.00  0.00    -0.248 NA
ATOM     31  C   UNL A   1      38.938  28.672  27.912  1.00  0.00     0.031 C 
ATOM     32  C   UNL A   1      37.364  31.639  31.640  1.00  0.00     0.029 A 
ATOM     33  N   UNL A   1      39.265  30.504  31.964  1.00  0.00    -0.354 N 
ATOM     34  C   UNL A   1      40.837  27.883  28.916  1.00  0.00     0.074 A 
ATOM     35  C   UNL A   1      39.978  27.868  27.750  1.00  0.00     0.031 C 
ATOM     36  C   UNL A   1      37.831  31.967  32.858  1.00  0.00     0.029 A 
ATOM     37  C   UNL A   1      39.055  31.210  33.122  1.00  0.00     0.049 A 
ATOM     38  H   UNL A   1      40.052  29.930  31.818  1.00  0.00     0.167 HD
ATOM     39  C   UNL A   1      42.001  27.197  29.016  1.00  0.00     0.037 A 
ATOM     40  C   UNL A   1      39.757  31.225  34.272  1.00  0.00     0.037 A 
ATOM     41  C   UNL A   1      42.855  27.210  30.174  1.00  0.00     0.049 A 
ATOM     42  C   UNL A   1      41.002  30.384  34.391  1.00  0.00     0.074 A 
ATOM     43  C   UNL A   1      44.066  26.567  30.362  1.00  0.00     0.029 A 
ATOM     44  N   UNL A   1      42.581  27.899  31.347  1.00  0.00    -0.354 N 
ATOM     45  N   UNL A   1      41.570  29.614  33.495  1.00  0.00    -0.248 NA
ATOM     46  C   UNL A   1      41.699  30.413  35.684  1.00  0.00     0.031 C 
ATOM     47  C   UNL A   1      44.501  26.826  31.666  1.00  0.00     0.029 A 
ATOM     48  C   UNL A   1      43.585  27.668  32.275  1.00  0.00     0.049 A 
ATOM     49  H   UNL A   1      41.791  28.465  31.498  1.00  0.00     0.167 HD
ATOM     50  C   UNL A   1      42.698  29.084  34.107  1.00  0.00     0.074 A 
ATOM     51  C   UNL A   1      42.744  29.633  35.446  1.00  0.00     0.031 C 
ATOM     52  C   UNL A   1      43.613  28.219  33.606  1.00  0.00     0.037 A 
BRANCH  39  53
ATOM     53  C   UNL A   1      42.407  26.349  27.847  1.00  0.00     0.064 A 
ATOM     54  C   UNL A   1      41.892  25.058  27.661  1.00  0.00     0.173 A 
ATOM     55  C   UNL A   1      43.294  26.849  26.883  1.00  0.00     0.173 A 
ATOM     56  F   UNL A   1      41.050  24.529  28.562  1.00  0.00    -0.203 F 
ATOM     57  C   UNL A   1      42.269  24.289  26.562  1.00  0.00     0.198 A 
ATOM     58  C   UNL A   1      43.650  26.087  25.773  1.00  0.00     0.198 A 
ATOM     59  F   UNL A   1      43.812  28.080  27.013  1.00  0.00    -0.203 F 
ATOM     60  F   UNL A   1      41.798  23.042  26.425  1.00  0.00    -0.200 F 
ATOM     61  C   UNL A   1      43.143  24.807  25.617  1.00  0.00     0.200 A 
ATOM     62  F   UNL A   1      44.485  26.593  24.855  1.00  0.00    -0.200 F 
ATOM     63  F   UNL A   1      43.500  24.068  24.557  1.00  0.00    -0.200 F 
ENDBRANCH  39  53
BRANCH  40  64
ATOM     64  C   UNL A   1      39.286  32.045  35.418  1.00  0.00     0.064 A 
ATOM     65  C   UNL A   1      39.656  33.390  35.547  1.00  0.00     0.173 A 
ATOM     66  C   UNL A   1      38.470  31.493  36.417  1.00  0.00     0.173 A 
ATOM     67  F   UNL A   1      40.458  33.955  34.631  1.00  0.00    -0.203 F 
ATOM     68  C   UNL A   1      39.241  34.149  36.639  1.00  0.00     0.198 A 
ATOM     69  C   UNL A   1      38.034  32.260  37.494  1.00  0.00     0.198 A 
ATOM     70  F   UNL A   1      38.092  30.208  36.342  1.00  0.00    -0.203 F 
ATOM     71  F   UNL A   1      39.645  35.420  36.761  1.00  0.00    -0.200 F 
ATOM     72  C   UNL A   1      38.425  33.585  37.608  1.00  0.00     0.200 A 
ATOM     73  F   UNL A   1      37.239  31.713  38.424  1.00  0.00    -0.200 F 
ATOM     74  F   UNL A   1      38.023  34.316  38.658  1.00  0.00    -0.200 F 
ENDBRANCH  40  64
BRANCH  52  75
ATOM     75  C   UNL A   1      44.751  27.823  34.503  1.00  0.00     0.064 A 
ATOM     76  C   UNL A   1      44.680  26.682  35.314  1.00  0.00     0.173 A 
ATOM     77  C   UNL A   1      45.939  28.569  34.519  1.00  0.00     0.173 A 
ATOM     78  F   UNL A   1      43.560  25.944  35.345  1.00  0.00    -0.203 F 
ATOM     79  C   UNL A   1      45.750  26.314  36.127  1.00  0.00     0.198 A 
ATOM     80  C   UNL A   1      47.016  28.183  35.312  1.00  0.00     0.198 A 
ATOM     81  F   UNL A   1      46.060  29.666  33.755  1.00  0.00    -0.203 F 
ATOM     82  F   UNL A   1      45.644  25.244  36.927  1.00  0.00    -0.200 F 
ATOM     83  C   UNL A   1      46.919  27.060  36.120  1.00  0.00     0.200 A 
ATOM     84  F   UNL A   1      48.150  28.898  35.294  1.00  0.00    -0.200 F 
ATOM     85  F   UNL A   1      47.949  26.702  36.897  1.00  0.00    -0.200 F 
ENDBRANCH  52  75
ENDBRANCH  26  27
ENDBRANCH  19  21
ENDBRANCH  18  19
ENDBRANCH  17  18
ENDBRANCH   1  17
TORSDOF 14
ENDMDL
