MODEL 1
REMARK VINA RESULT:     -10.6      0.000      0.000
REMARK SMILES CC(C)[C@H](NC(N)=O)C(=O)N[C@H](C)C(=O)OCCOCCOC(=O)c1ccc(-c2c3nc(c(-c4c(F)c(F)c(F)c(F)c4F)c4ccc([nH]4)c(-c4c(F)c(F)c(F)c(F)c4F)c4nc(c(-c5c(F)c(F)c(F)c(F)c5F)c5ccc2[nH]5)C=C4)C=C3)cc1
REMARK SMILES IDX 18 1 17 2 16 3 14 4 15 5 12 6 13 7 11 8 9 9 10 10 4 12 2 13
REMARK SMILES IDX 1 14 3 15 5 16 6 17 7 19 8 20 19 23 20 24 21 25 22 26 23 27
REMARK SMILES IDX 24 28 25 29 26 30 87 31 27 32 86 33 28 34 29 35 30 36 80 37
REMARK SMILES IDX 31 38 85 39 79 40 81 41 32 42 84 43 78 44 77 45 33 47 65 48
REMARK SMILES IDX 45 49 64 50 46 51 49 52 63 53 82 54 47 55 48 56 62 58 83 59
REMARK SMILES IDX 50 60 34 61 35 62 43 63 36 64 37 65 41 66 44 67 38 68 39 69
REMARK SMILES IDX 42 70 40 71 66 72 67 73 75 74 68 75 69 76 73 77 76 78 70 79
REMARK SMILES IDX 71 80 74 81 72 82 51 83 52 84 60 85 53 86 54 87 58 88 61 89
REMARK SMILES IDX 55 90 56 91 59 92 57 93
REMARK H PARENT 11 11 5 18 7 21 7 22 81 46 49 57
REMARK Flexibility Score: inf
ROOT
ATOM      1  C   UNL A   1      33.452  27.155  26.131  1.00  0.00     0.202 C 
ENDROOT
BRANCH   1   2
ATOM      2  C   UNL A   1      33.532  25.852  25.332  1.00  0.00     0.261 C 
BRANCH   2   3
ATOM      3  O   UNL A   1      34.039  26.127  24.017  1.00  0.00    -0.462 OA
BRANCH   3   4
ATOM      4  C   UNL A   1      33.984  25.097  23.127  1.00  0.00     0.328 C 
ATOM      5  O   UNL A   1      34.951  24.426  22.789  1.00  0.00    -0.250 OA
BRANCH   4   6
ATOM      6  C   UNL A   1      32.530  24.796  22.720  1.00  0.00     0.189 C 
ATOM      7  C   UNL A   1      32.035  25.616  21.528  1.00  0.00     0.043 C 
BRANCH   6   8
ATOM      8  N   UNL A   1      32.348  23.386  22.416  1.00  0.00    -0.341 N 
ATOM      9  C   UNL A   1      32.117  22.331  23.243  1.00  0.00     0.243 C 
ATOM     10  O   UNL A   1      31.695  21.298  22.709  1.00  0.00    -0.273 OA
ATOM     11  H   UNL A   1      32.400  23.158  21.459  1.00  0.00     0.164 HD
BRANCH   9  12
ATOM     12  C   UNL A   1      32.150  22.447  24.795  1.00  0.00     0.175 C 
BRANCH  12  13
ATOM     13  C   UNL A   1      33.288  21.541  25.362  1.00  0.00     0.015 C 
ATOM     14  C   UNL A   1      32.781  20.103  25.534  1.00  0.00     0.010 C 
ATOM     15  C   UNL A   1      34.587  21.497  24.545  1.00  0.00     0.010 C 
ENDBRANCH  12  13
BRANCH  12  16
ATOM     16  N   UNL A   1      30.870  22.252  25.474  1.00  0.00    -0.326 N 
ATOM     17  C   UNL A   1      30.572  22.937  26.613  1.00  0.00     0.312 C 
ATOM     18  H   UNL A   1      30.215  21.618  25.102  1.00  0.00     0.166 HD
ATOM     19  N   UNL A   1      29.383  22.570  27.145  1.00  0.00    -0.352 N 
ATOM     20  O   UNL A   1      31.259  23.813  27.113  1.00  0.00    -0.249 OA
ATOM     21  H   UNL A   1      28.852  21.859  26.718  1.00  0.00     0.161 HD
ATOM     22  H   UNL A   1      29.049  23.013  27.959  1.00  0.00     0.161 HD
ENDBRANCH  12  16
ENDBRANCH   9  12
ENDBRANCH   6   8
ENDBRANCH   4   6
ENDBRANCH   3   4
ENDBRANCH   2   3
ENDBRANCH   1   2
BRANCH   1  23
ATOM     23  O   UNL A   1      32.312  27.973  25.863  1.00  0.00    -0.374 OA
BRANCH  23  24
ATOM     24  C   UNL A   1      32.526  29.238  25.238  1.00  0.00     0.202 C 
BRANCH  24  25
ATOM     25  C   UNL A   1      31.926  30.461  25.944  1.00  0.00     0.261 C 
BRANCH  25  26
ATOM     26  O   UNL A   1      32.498  30.658  27.252  1.00  0.00    -0.460 OA
BRANCH  26  27
ATOM     27  C   UNL A   1      33.247  31.777  27.393  1.00  0.00     0.338 C 
ATOM     28  O   UNL A   1      32.876  32.938  27.300  1.00  0.00    -0.246 OA
BRANCH  27  29
ATOM     29  C   UNL A   1      34.592  31.415  27.870  1.00  0.00     0.060 A 
ATOM     30  C   UNL A   1      34.825  30.082  28.236  1.00  0.00     0.016 A 
ATOM     31  C   UNL A   1      35.582  32.382  28.040  1.00  0.00     0.016 A 
ATOM     32  C   UNL A   1      36.043  29.715  28.804  1.00  0.00     0.010 A 
ATOM     33  C   UNL A   1      36.799  32.016  28.623  1.00  0.00     0.010 A 
ATOM     34  C   UNL A   1      37.023  30.688  29.034  1.00  0.00    -0.014 A 
BRANCH  34  35
ATOM     35  C   UNL A   1      38.225  30.365  29.838  1.00  0.00     0.031 A 
ATOM     36  C   UNL A   1      39.232  29.401  29.277  1.00  0.00     0.074 A 
ATOM     37  C   UNL A   1      38.409  30.905  31.054  1.00  0.00     0.049 A 
ATOM     38  N   UNL A   1      40.276  28.860  29.849  1.00  0.00    -0.248 NA
ATOM     39  C   UNL A   1      39.028  28.988  27.879  1.00  0.00     0.031 C 
ATOM     40  C   UNL A   1      37.537  31.896  31.679  1.00  0.00     0.029 A 
ATOM     41  N   UNL A   1      39.388  30.677  31.990  1.00  0.00    -0.354 N 
ATOM     42  C   UNL A   1      40.843  28.031  28.891  1.00  0.00     0.074 A 
ATOM     43  C   UNL A   1      40.019  28.126  27.706  1.00  0.00     0.031 C 
ATOM     44  C   UNL A   1      38.003  32.172  32.909  1.00  0.00     0.029 A 
ATOM     45  C   UNL A   1      39.180  31.345  33.172  1.00  0.00     0.049 A 
ATOM     46  H   UNL A   1      40.163  30.091  31.830  1.00  0.00     0.167 HD
ATOM     47  C   UNL A   1      41.951  27.260  28.994  1.00  0.00     0.037 A 
ATOM     48  C   UNL A   1      39.843  31.264  34.342  1.00  0.00     0.037 A 
ATOM     49  C   UNL A   1      42.768  27.175  30.175  1.00  0.00     0.049 A 
ATOM     50  C   UNL A   1      41.026  30.335  34.460  1.00  0.00     0.074 A 
ATOM     51  C   UNL A   1      43.917  26.431  30.378  1.00  0.00     0.029 A 
ATOM     52  N   UNL A   1      42.517  27.853  31.358  1.00  0.00    -0.354 N 
ATOM     53  N   UNL A   1      41.559  29.555  33.552  1.00  0.00    -0.248 NA
ATOM     54  C   UNL A   1      41.696  30.274  35.768  1.00  0.00     0.031 C 
ATOM     55  C   UNL A   1      44.333  26.620  31.699  1.00  0.00     0.029 A 
ATOM     56  C   UNL A   1      43.476  27.529  32.302  1.00  0.00     0.049 A 
ATOM     57  H   UNL A   1      41.767  28.475  31.504  1.00  0.00     0.167 HD
ATOM     58  C   UNL A   1      42.647  28.943  34.162  1.00  0.00     0.074 A 
ATOM     59  C   UNL A   1      42.697  29.439  35.522  1.00  0.00     0.031 C 
ATOM     60  C   UNL A   1      43.528  28.055  33.642  1.00  0.00     0.037 A 
BRANCH  47  61
ATOM     61  C   UNL A   1      42.328  26.422  27.809  1.00  0.00     0.064 A 
ATOM     62  C   UNL A   1      41.726  25.179  27.561  1.00  0.00     0.173 A 
ATOM     63  C   UNL A   1      43.279  26.886  26.888  1.00  0.00     0.173 A 
ATOM     64  F   UNL A   1      40.821  24.684  28.419  1.00  0.00    -0.203 F 
ATOM     65  C   UNL A   1      42.080  24.423  26.447  1.00  0.00     0.198 A 
ATOM     66  C   UNL A   1      43.609  26.140  25.760  1.00  0.00     0.198 A 
ATOM     67  F   UNL A   1      43.882  28.070  27.077  1.00  0.00    -0.203 F 
ATOM     68  F   UNL A   1      41.524  23.218  26.252  1.00  0.00    -0.200 F 
ATOM     69  C   UNL A   1      43.014  24.906  25.543  1.00  0.00     0.200 A 
ATOM     70  F   UNL A   1      44.503  26.616  24.882  1.00  0.00    -0.200 F 
ATOM     71  F   UNL A   1      43.348  24.181  24.467  1.00  0.00    -0.200 F 
ENDBRANCH  47  61
BRANCH  48  72
ATOM     72  C   UNL A   1      39.389  32.065  35.509  1.00  0.00     0.064 A 
ATOM     73  C   UNL A   1      38.506  31.528  36.455  1.00  0.00     0.173 A 
ATOM     74  C   UNL A   1      39.817  33.388  35.694  1.00  0.00     0.173 A 
ATOM     75  F   UNL A   1      38.047  30.276  36.307  1.00  0.00    -0.203 F 
ATOM     76  C   UNL A   1      38.055  32.288  37.532  1.00  0.00     0.198 A 
ATOM     77  C   UNL A   1      39.388  34.138  36.787  1.00  0.00     0.198 A 
ATOM     78  F   UNL A   1      40.661  33.950  34.815  1.00  0.00    -0.203 F 
ATOM     79  F   UNL A   1      37.175  31.765  38.396  1.00  0.00    -0.200 F 
ATOM     80  C   UNL A   1      38.501  33.590  37.701  1.00  0.00     0.200 A 
ATOM     81  F   UNL A   1      39.831  35.392  36.950  1.00  0.00    -0.200 F 
ATOM     82  F   UNL A   1      38.070  34.320  38.738  1.00  0.00    -0.200 F 
ENDBRANCH  48  72
BRANCH  60  83
ATOM     83  C   UNL A   1      44.664  27.604  34.513  1.00  0.00     0.064 A 
ATOM     84  C   UNL A   1      44.578  26.448  35.302  1.00  0.00     0.173 A 
ATOM     85  C   UNL A   1      45.883  28.298  34.492  1.00  0.00     0.173 A 
ATOM     86  F   UNL A   1      43.431  25.757  35.366  1.00  0.00    -0.203 F 
ATOM     87  C   UNL A   1      45.671  26.011  36.047  1.00  0.00     0.198 A 
ATOM     88  C   UNL A   1      46.981  27.842  35.217  1.00  0.00     0.198 A 
ATOM     89  F   UNL A   1      46.018  29.405  33.746  1.00  0.00    -0.203 F 
ATOM     90  F   UNL A   1      45.559  24.920  36.819  1.00  0.00    -0.200 F 
ATOM     91  C   UNL A   1      46.873  26.701  35.996  1.00  0.00     0.200 A 
ATOM     92  F   UNL A   1      48.146  28.503  35.152  1.00  0.00    -0.200 F 
ATOM     93  F   UNL A   1      47.928  26.267  36.699  1.00  0.00    -0.200 F 
ENDBRANCH  60  83
ENDBRANCH  34  35
ENDBRANCH  27  29
ENDBRANCH  26  27
ENDBRANCH  25  26
ENDBRANCH  24  25
ENDBRANCH  23  24
ENDBRANCH   1  23
TORSDOF 18
ENDMDL
MODEL 2
REMARK VINA RESULT:     -10.6      1.317      7.639
REMARK SMILES CC(C)[C@H](NC(N)=O)C(=O)N[C@H](C)C(=O)OCCOCCOC(=O)c1ccc(-c2c3nc(c(-c4c(F)c(F)c(F)c(F)c4F)c4ccc([nH]4)c(-c4c(F)c(F)c(F)c(F)c4F)c4nc(c(-c5c(F)c(F)c(F)c(F)c5F)c5ccc2[nH]5)C=C4)C=C3)cc1
REMARK SMILES IDX 18 1 17 2 16 3 14 4 15 5 12 6 13 7 11 8 9 9 10 10 4 12 2 13
REMARK SMILES IDX 1 14 3 15 5 16 6 17 7 19 8 20 19 23 20 24 21 25 22 26 23 27
REMARK SMILES IDX 24 28 25 29 26 30 87 31 27 32 86 33 28 34 29 35 30 36 80 37
REMARK SMILES IDX 31 38 85 39 79 40 81 41 32 42 84 43 78 44 77 45 33 47 65 48
REMARK SMILES IDX 45 49 64 50 46 51 49 52 63 53 82 54 47 55 48 56 62 58 83 59
REMARK SMILES IDX 50 60 34 61 35 62 43 63 36 64 37 65 41 66 44 67 38 68 39 69
REMARK SMILES IDX 42 70 40 71 66 72 67 73 75 74 68 75 69 76 73 77 76 78 70 79
REMARK SMILES IDX 71 80 74 81 72 82 51 83 52 84 60 85 53 86 54 87 58 88 61 89
REMARK SMILES IDX 55 90 56 91 59 92 57 93
REMARK H PARENT 11 11 5 18 7 21 7 22 81 46 49 57
REMARK Flexibility Score: inf
ROOT
ATOM      1  C   UNL A   1      32.807  29.840  26.026  1.00  0.00     0.202 C 
ENDROOT
BRANCH   1   2
ATOM      2  C   UNL A   1      33.522  28.612  26.595  1.00  0.00     0.261 C 
BRANCH   2   3
ATOM      3  O   UNL A   1      33.272  27.478  25.751  1.00  0.00    -0.462 OA
BRANCH   3   4
ATOM      4  C   UNL A   1      32.048  26.894  25.881  1.00  0.00     0.328 C 
ATOM      5  O   UNL A   1      31.397  26.881  26.918  1.00  0.00    -0.250 OA
BRANCH   4   6
ATOM      6  C   UNL A   1      31.531  26.387  24.522  1.00  0.00     0.189 C 
ATOM      7  C   UNL A   1      30.244  27.068  24.053  1.00  0.00     0.043 C 
BRANCH   6   8
ATOM      8  N   UNL A   1      32.537  26.540  23.484  1.00  0.00    -0.341 N 
ATOM      9  C   UNL A   1      33.356  25.617  22.911  1.00  0.00     0.243 C 
ATOM     10  O   UNL A   1      33.893  25.947  21.846  1.00  0.00    -0.273 OA
ATOM     11  H   UNL A   1      32.644  27.457  23.142  1.00  0.00     0.164 HD
BRANCH   9  12
ATOM     12  C   UNL A   1      33.457  24.146  23.410  1.00  0.00     0.175 C 
BRANCH  12  13
ATOM     13  C   UNL A   1      34.882  23.890  23.996  1.00  0.00     0.015 C 
ATOM     14  C   UNL A   1      34.774  23.350  25.428  1.00  0.00     0.010 C 
ATOM     15  C   UNL A   1      35.782  22.941  23.193  1.00  0.00     0.010 C 
ENDBRANCH  12  13
BRANCH  12  16
ATOM     16  N   UNL A   1      33.038  23.122  22.456  1.00  0.00    -0.326 N 
ATOM     17  C   UNL A   1      32.249  22.082  22.848  1.00  0.00     0.312 C 
ATOM     18  H   UNL A   1      33.328  23.184  21.517  1.00  0.00     0.166 HD
ATOM     19  N   UNL A   1      32.029  21.191  21.854  1.00  0.00    -0.352 N 
ATOM     20  O   UNL A   1      31.750  21.950  23.954  1.00  0.00    -0.249 OA
ATOM     21  H   UNL A   1      32.445  21.326  20.972  1.00  0.00     0.161 HD
ATOM     22  H   UNL A   1      31.453  20.408  22.012  1.00  0.00     0.161 HD
ENDBRANCH  12  16
ENDBRANCH   9  12
ENDBRANCH   6   8
ENDBRANCH   4   6
ENDBRANCH   3   4
ENDBRANCH   2   3
ENDBRANCH   1   2
BRANCH   1  23
ATOM     23  O   UNL A   1      32.092  30.631  26.976  1.00  0.00    -0.374 OA
BRANCH  23  24
ATOM     24  C   UNL A   1      31.384  31.776  26.500  1.00  0.00     0.202 C 
BRANCH  24  25
ATOM     25  C   UNL A   1      31.962  33.145  26.881  1.00  0.00     0.261 C 
BRANCH  25  26
ATOM     26  O   UNL A   1      32.870  33.051  27.996  1.00  0.00    -0.460 OA
BRANCH  26  27
ATOM     27  C   UNL A   1      34.025  33.744  27.860  1.00  0.00     0.338 C 
ATOM     28  O   UNL A   1      34.155  34.929  27.586  1.00  0.00    -0.246 OA
BRANCH  27  29
ATOM     29  C   UNL A   1      35.159  32.904  28.278  1.00  0.00     0.060 A 
ATOM     30  C   UNL A   1      34.892  31.582  28.661  1.00  0.00     0.016 A 
ATOM     31  C   UNL A   1      36.448  33.426  28.375  1.00  0.00     0.016 A 
ATOM     32  C   UNL A   1      35.912  30.783  29.175  1.00  0.00     0.010 A 
ATOM     33  C   UNL A   1      37.467  32.629  28.905  1.00  0.00     0.010 A 
ATOM     34  C   UNL A   1      37.197  31.315  29.334  1.00  0.00    -0.014 A 
BRANCH  34  35
ATOM     35  C   UNL A   1      38.231  30.564  30.084  1.00  0.00     0.031 A 
ATOM     36  C   UNL A   1      38.463  30.901  31.530  1.00  0.00     0.074 A 
ATOM     37  C   UNL A   1      38.962  29.609  29.486  1.00  0.00     0.049 A 
ATOM     38  N   UNL A   1      39.398  30.485  32.343  1.00  0.00    -0.248 NA
ATOM     39  C   UNL A   1      37.508  31.842  32.139  1.00  0.00     0.031 C 
ATOM     40  C   UNL A   1      38.790  29.151  28.110  1.00  0.00     0.029 A 
ATOM     41  N   UNL A   1      40.015  28.867  29.961  1.00  0.00    -0.354 N 
ATOM     42  C   UNL A   1      39.159  31.125  33.551  1.00  0.00     0.074 A 
ATOM     43  C   UNL A   1      38.000  31.970  33.362  1.00  0.00     0.031 C 
ATOM     44  C   UNL A   1      39.724  28.222  27.840  1.00  0.00     0.029 A 
ATOM     45  C   UNL A   1      40.585  28.056  29.010  1.00  0.00     0.049 A 
ATOM     46  H   UNL A   1      40.331  28.911  30.893  1.00  0.00     0.167 HD
ATOM     47  C   UNL A   1      39.847  31.015  34.712  1.00  0.00     0.037 A 
ATOM     48  C   UNL A   1      41.698  27.298  29.071  1.00  0.00     0.037 A 
ATOM     49  C   UNL A   1      40.996  30.169  34.893  1.00  0.00     0.049 A 
ATOM     50  C   UNL A   1      42.496  27.256  30.349  1.00  0.00     0.074 A 
ATOM     51  C   UNL A   1      41.757  29.980  36.033  1.00  0.00     0.029 A 
ATOM     52  N   UNL A   1      41.553  29.375  33.903  1.00  0.00    -0.354 N 
ATOM     53  N   UNL A   1      42.265  27.860  31.490  1.00  0.00    -0.248 NA
ATOM     54  C   UNL A   1      43.713  26.429  30.348  1.00  0.00     0.031 C 
ATOM     55  C   UNL A   1      42.805  29.110  35.719  1.00  0.00     0.029 A 
ATOM     56  C   UNL A   1      42.662  28.711  34.399  1.00  0.00     0.049 A 
ATOM     57  H   UNL A   1      41.211  29.295  32.983  1.00  0.00     0.167 HD
ATOM     58  C   UNL A   1      43.279  27.457  32.350  1.00  0.00     0.074 A 
ATOM     59  C   UNL A   1      44.131  26.558  31.600  1.00  0.00     0.031 C 
ATOM     60  C   UNL A   1      43.482  27.796  33.646  1.00  0.00     0.037 A 
BRANCH  47  61
ATOM     61  C   UNL A   1      39.395  31.855  35.870  1.00  0.00     0.064 A 
ATOM     62  C   UNL A   1      38.394  31.422  36.752  1.00  0.00     0.173 A 
ATOM     63  C   UNL A   1      39.999  33.097  36.120  1.00  0.00     0.173 A 
ATOM     64  F   UNL A   1      37.776  30.249  36.548  1.00  0.00    -0.203 F 
ATOM     65  C   UNL A   1      38.001  32.211  37.830  1.00  0.00     0.198 A 
ATOM     66  C   UNL A   1      39.622  33.870  37.215  1.00  0.00     0.198 A 
ATOM     67  F   UNL A   1      40.963  33.557  35.308  1.00  0.00    -0.203 F 
ATOM     68  F   UNL A   1      37.012  31.797  38.635  1.00  0.00    -0.200 F 
ATOM     69  C   UNL A   1      38.618  33.430  38.065  1.00  0.00     0.200 A 
ATOM     70  F   UNL A   1      40.230  35.042  37.447  1.00  0.00    -0.200 F 
ATOM     71  F   UNL A   1      38.243  34.185  39.107  1.00  0.00    -0.200 F 
ENDBRANCH  47  61
BRANCH  48  72
ATOM     72  C   UNL A   1      42.142  26.536  27.874  1.00  0.00     0.064 A 
ATOM     73  C   UNL A   1      41.620  25.267  27.591  1.00  0.00     0.173 A 
ATOM     74  C   UNL A   1      43.108  27.054  26.998  1.00  0.00     0.173 A 
ATOM     75  F   UNL A   1      40.714  24.718  28.414  1.00  0.00    -0.203 F 
ATOM     76  C   UNL A   1      42.059  24.538  26.488  1.00  0.00     0.198 A 
ATOM     77  C   UNL A   1      43.524  26.337  25.879  1.00  0.00     0.198 A 
ATOM     78  F   UNL A   1      43.641  28.264  27.226  1.00  0.00    -0.203 F 
ATOM     79  F   UNL A   1      41.576  23.308  26.266  1.00  0.00    -0.200 F 
ATOM     80  C   UNL A   1      43.005  25.076  25.629  1.00  0.00     0.200 A 
ATOM     81  F   UNL A   1      44.432  26.866  25.048  1.00  0.00    -0.200 F 
ATOM     82  F   UNL A   1      43.425  24.376  24.566  1.00  0.00    -0.200 F 
ENDBRANCH  48  72
BRANCH  60  83
ATOM     83  C   UNL A   1      44.629  27.150  34.367  1.00  0.00     0.064 A 
ATOM     84  C   UNL A   1      45.887  27.764  34.457  1.00  0.00     0.173 A 
ATOM     85  C   UNL A   1      44.439  25.936  35.044  1.00  0.00     0.173 A 
ATOM     86  F   UNL A   1      46.123  28.918  33.817  1.00  0.00    -0.203 F 
ATOM     87  C   UNL A   1      46.915  27.178  35.192  1.00  0.00     0.198 A 
ATOM     88  C   UNL A   1      45.461  25.368  35.800  1.00  0.00     0.198 A 
ATOM     89  F   UNL A   1      43.251  25.314  34.995  1.00  0.00    -0.203 F 
ATOM     90  F   UNL A   1      48.119  27.766  35.241  1.00  0.00    -0.200 F 
ATOM     91  C   UNL A   1      46.698  25.988  35.870  1.00  0.00     0.200 A 
ATOM     92  F   UNL A   1      45.243  24.226  36.467  1.00  0.00    -0.200 F 
ATOM     93  F   UNL A   1      47.684  25.436  36.592  1.00  0.00    -0.200 F 
ENDBRANCH  60  83
ENDBRANCH  34  35
ENDBRANCH  27  29
ENDBRANCH  26  27
ENDBRANCH  25  26
ENDBRANCH  24  25
ENDBRANCH  23  24
ENDBRANCH   1  23
TORSDOF 18
ENDMDL
MODEL 3
REMARK VINA RESULT:     -10.5      1.269      2.474
REMARK SMILES CC(C)[C@H](NC(N)=O)C(=O)N[C@H](C)C(=O)OCCOCCOC(=O)c1ccc(-c2c3nc(c(-c4c(F)c(F)c(F)c(F)c4F)c4ccc([nH]4)c(-c4c(F)c(F)c(F)c(F)c4F)c4nc(c(-c5c(F)c(F)c(F)c(F)c5F)c5ccc2[nH]5)C=C4)C=C3)cc1
REMARK SMILES IDX 18 1 17 2 16 3 14 4 15 5 12 6 13 7 11 8 9 9 10 10 4 12 2 13
REMARK SMILES IDX 1 14 3 15 5 16 6 17 7 19 8 20 19 23 20 24 21 25 22 26 23 27
REMARK SMILES IDX 24 28 25 29 26 30 87 31 27 32 86 33 28 34 29 35 30 36 80 37
REMARK SMILES IDX 31 38 85 39 79 40 81 41 32 42 84 43 78 44 77 45 33 47 65 48
REMARK SMILES IDX 45 49 64 50 46 51 49 52 63 53 82 54 47 55 48 56 62 58 83 59
REMARK SMILES IDX 50 60 34 61 35 62 43 63 36 64 37 65 41 66 44 67 38 68 39 69
REMARK SMILES IDX 42 70 40 71 66 72 67 73 75 74 68 75 69 76 73 77 76 78 70 79
REMARK SMILES IDX 71 80 74 81 72 82 51 83 52 84 60 85 53 86 54 87 58 88 61 89
REMARK SMILES IDX 55 90 56 91 59 92 57 93
REMARK H PARENT 11 11 5 18 7 21 7 22 81 46 49 57
REMARK Flexibility Score: inf
ROOT
ATOM      1  C   UNL A   1      31.392  27.085  26.280  1.00  0.00     0.202 C 
ENDROOT
BRANCH   1   2
ATOM      2  C   UNL A   1      31.503  25.577  26.044  1.00  0.00     0.261 C 
BRANCH   2   3
ATOM      3  O   UNL A   1      31.160  24.877  27.250  1.00  0.00    -0.462 OA
BRANCH   3   4
ATOM      4  C   UNL A   1      30.881  23.550  27.113  1.00  0.00     0.328 C 
ATOM      5  O   UNL A   1      29.755  23.074  27.159  1.00  0.00    -0.250 OA
BRANCH   4   6
ATOM      6  C   UNL A   1      32.149  22.756  26.745  1.00  0.00     0.189 C 
ATOM      7  C   UNL A   1      33.040  22.419  27.940  1.00  0.00     0.043 C 
BRANCH   6   8
ATOM      8  N   UNL A   1      31.816  21.520  26.055  1.00  0.00    -0.341 N 
ATOM      9  C   UNL A   1      32.578  20.728  25.254  1.00  0.00     0.243 C 
ATOM     10  O   UNL A   1      32.153  19.584  25.050  1.00  0.00    -0.273 OA
ATOM     11  H   UNL A   1      30.892  21.207  26.188  1.00  0.00     0.164 HD
BRANCH   9  12
ATOM     12  C   UNL A   1      34.012  21.118  24.793  1.00  0.00     0.175 C 
BRANCH  12  13
ATOM     13  C   UNL A   1      33.938  21.834  23.407  1.00  0.00     0.015 C 
ATOM     14  C   UNL A   1      32.477  21.966  22.959  1.00  0.00     0.010 C 
ATOM     15  C   UNL A   1      34.591  23.221  23.328  1.00  0.00     0.010 C 
ENDBRANCH  12  13
BRANCH  12  16
ATOM     16  N   UNL A   1      35.005  20.046  24.831  1.00  0.00    -0.326 N 
ATOM     17  C   UNL A   1      36.317  20.318  25.085  1.00  0.00     0.312 C 
ATOM     18  H   UNL A   1      34.724  19.116  24.673  1.00  0.00     0.166 HD
ATOM     19  N   UNL A   1      37.102  19.219  25.001  1.00  0.00    -0.352 N 
ATOM     20  O   UNL A   1      36.768  21.410  25.389  1.00  0.00    -0.249 OA
ATOM     21  H   UNL A   1      36.707  18.351  24.754  1.00  0.00     0.161 HD
ATOM     22  H   UNL A   1      38.066  19.286  25.187  1.00  0.00     0.161 HD
ENDBRANCH  12  16
ENDBRANCH   9  12
ENDBRANCH   6   8
ENDBRANCH   4   6
ENDBRANCH   3   4
ENDBRANCH   2   3
ENDBRANCH   1   2
BRANCH   1  23
ATOM     23  O   UNL A   1      31.383  27.893  25.103  1.00  0.00    -0.374 OA
BRANCH  23  24
ATOM     24  C   UNL A   1      32.326  28.961  25.013  1.00  0.00     0.202 C 
BRANCH  24  25
ATOM     25  C   UNL A   1      31.958  30.262  25.737  1.00  0.00     0.261 C 
BRANCH  25  26
ATOM     26  O   UNL A   1      32.573  30.344  27.038  1.00  0.00    -0.460 OA
BRANCH  26  27
ATOM     27  C   UNL A   1      33.257  31.486  27.283  1.00  0.00     0.338 C 
ATOM     28  O   UNL A   1      32.829  32.631  27.254  1.00  0.00    -0.246 OA
BRANCH  27  29
ATOM     29  C   UNL A   1      34.601  31.160  27.787  1.00  0.00     0.060 A 
ATOM     30  C   UNL A   1      34.868  29.829  28.134  1.00  0.00     0.016 A 
ATOM     31  C   UNL A   1      35.554  32.156  27.998  1.00  0.00     0.016 A 
ATOM     32  C   UNL A   1      36.084  29.491  28.725  1.00  0.00     0.010 A 
ATOM     33  C   UNL A   1      36.768  31.818  28.604  1.00  0.00     0.010 A 
ATOM     34  C   UNL A   1      37.026  30.491  28.997  1.00  0.00    -0.014 A 
BRANCH  34  35
ATOM     35  C   UNL A   1      38.218  30.192  29.825  1.00  0.00     0.031 A 
ATOM     36  C   UNL A   1      39.252  29.243  29.286  1.00  0.00     0.074 A 
ATOM     37  C   UNL A   1      38.370  30.740  31.042  1.00  0.00     0.049 A 
ATOM     38  N   UNL A   1      40.295  28.724  29.880  1.00  0.00    -0.248 NA
ATOM     39  C   UNL A   1      39.081  28.822  27.887  1.00  0.00     0.031 C 
ATOM     40  C   UNL A   1      37.469  31.718  31.646  1.00  0.00     0.029 A 
ATOM     41  N   UNL A   1      39.335  30.532  31.996  1.00  0.00    -0.354 N 
ATOM     42  C   UNL A   1      40.893  27.900  28.936  1.00  0.00     0.074 A 
ATOM     43  C   UNL A   1      40.090  27.976  27.735  1.00  0.00     0.031 C 
ATOM     44  C   UNL A   1      37.908  32.007  32.883  1.00  0.00     0.029 A 
ATOM     45  C   UNL A   1      39.094  31.201  33.171  1.00  0.00     0.049 A 
ATOM     46  H   UNL A   1      40.123  29.960  31.853  1.00  0.00     0.167 HD
ATOM     47  C   UNL A   1      42.013  27.150  29.063  1.00  0.00     0.037 A 
ATOM     48  C   UNL A   1      39.736  31.136  34.354  1.00  0.00     0.037 A 
ATOM     49  C   UNL A   1      42.809  27.083  30.259  1.00  0.00     0.049 A 
ATOM     50  C   UNL A   1      40.933  30.229  34.498  1.00  0.00     0.074 A 
ATOM     51  C   UNL A   1      43.967  26.360  30.486  1.00  0.00     0.029 A 
ATOM     52  N   UNL A   1      42.524  27.762  31.434  1.00  0.00    -0.354 N 
ATOM     53  N   UNL A   1      41.496  29.455  33.603  1.00  0.00    -0.248 NA
ATOM     54  C   UNL A   1      41.579  30.185  35.818  1.00  0.00     0.031 C 
ATOM     55  C   UNL A   1      44.355  26.562  31.814  1.00  0.00     0.029 A 
ATOM     56  C   UNL A   1      43.471  27.458  32.397  1.00  0.00     0.049 A 
ATOM     57  H   UNL A   1      41.761  28.371  31.564  1.00  0.00     0.167 HD
ATOM     58  C   UNL A   1      42.583  28.865  34.236  1.00  0.00     0.074 A 
ATOM     59  C   UNL A   1      42.599  29.367  35.594  1.00  0.00     0.031 C 
ATOM     60  C   UNL A   1      43.489  27.990  33.735  1.00  0.00     0.037 A 
BRANCH  47  61
ATOM     61  C   UNL A   1      42.426  26.313  27.888  1.00  0.00     0.064 A 
ATOM     62  C   UNL A   1      41.854  25.057  27.637  1.00  0.00     0.173 A 
ATOM     63  C   UNL A   1      43.382  26.793  26.981  1.00  0.00     0.173 A 
ATOM     64  F   UNL A   1      40.946  24.547  28.483  1.00  0.00    -0.203 F 
ATOM     65  C   UNL A   1      42.241  24.303  26.533  1.00  0.00     0.198 A 
ATOM     66  C   UNL A   1      43.746  26.048  25.861  1.00  0.00     0.198 A 
ATOM     67  F   UNL A   1      43.958  27.990  27.173  1.00  0.00    -0.203 F 
ATOM     68  F   UNL A   1      41.714  23.086  26.336  1.00  0.00    -0.200 F 
ATOM     69  C   UNL A   1      43.180  24.801  25.642  1.00  0.00     0.200 A 
ATOM     70  F   UNL A   1      44.644  26.538  24.996  1.00  0.00    -0.200 F 
ATOM     71  F   UNL A   1      43.546  24.077  24.575  1.00  0.00    -0.200 F 
ENDBRANCH  47  61
BRANCH  48  72
ATOM     72  C   UNL A   1      39.247  31.935  35.509  1.00  0.00     0.064 A 
ATOM     73  C   UNL A   1      38.371  31.379  36.451  1.00  0.00     0.173 A 
ATOM     74  C   UNL A   1      39.633  33.272  35.686  1.00  0.00     0.173 A 
ATOM     75  F   UNL A   1      37.953  30.112  36.311  1.00  0.00    -0.203 F 
ATOM     76  C   UNL A   1      37.887  32.135  37.517  1.00  0.00     0.198 A 
ATOM     77  C   UNL A   1      39.171  34.018  36.767  1.00  0.00     0.198 A 
ATOM     78  F   UNL A   1      40.468  33.851  34.809  1.00  0.00    -0.203 F 
ATOM     79  F   UNL A   1      37.015  31.594  38.378  1.00  0.00    -0.200 F 
ATOM     80  C   UNL A   1      38.292  33.452  37.677  1.00  0.00     0.200 A 
ATOM     81  F   UNL A   1      39.573  35.287  36.922  1.00  0.00    -0.200 F 
ATOM     82  F   UNL A   1      37.828  34.178  38.704  1.00  0.00    -0.200 F 
ENDBRANCH  48  72
BRANCH  60  83
ATOM     83  C   UNL A   1      44.617  27.562  34.629  1.00  0.00     0.064 A 
ATOM     84  C   UNL A   1      45.780  28.331  34.772  1.00  0.00     0.173 A 
ATOM     85  C   UNL A   1      44.490  26.405  35.414  1.00  0.00     0.173 A 
ATOM     86  F   UNL A   1      45.954  29.438  34.035  1.00  0.00    -0.203 F 
ATOM     87  C   UNL A   1      46.782  27.949  35.662  1.00  0.00     0.198 A 
ATOM     88  C   UNL A   1      45.481  26.043  36.321  1.00  0.00     0.198 A 
ATOM     89  F   UNL A   1      43.392  25.641  35.319  1.00  0.00    -0.203 F 
ATOM     90  F   UNL A   1      47.900  28.682  35.762  1.00  0.00    -0.200 F 
ATOM     91  C   UNL A   1      46.627  26.813  36.442  1.00  0.00     0.200 A 
ATOM     92  F   UNL A   1      45.322  24.953  37.086  1.00  0.00    -0.200 F 
ATOM     93  F   UNL A   1      47.585  26.459  37.311  1.00  0.00    -0.200 F 
ENDBRANCH  60  83
ENDBRANCH  34  35
ENDBRANCH  27  29
ENDBRANCH  26  27
ENDBRANCH  25  26
ENDBRANCH  24  25
ENDBRANCH  23  24
ENDBRANCH   1  23
TORSDOF 18
ENDMDL
