MODEL 1
REMARK VINA RESULT:     -12.2      0.000      0.000
REMARK SMILES Cc1ccc(Nc2c(Cl)cccc2Cl)c(CC(=O)OCCOCCOC(=O)c2ccc(-c3c4nc(c(-c5c(F)c(F)c(F)c(F)c5F)c5ccc([nH]5)c(-c5c(F)c(F)c(F)c(F)c5F)c5nc(c(-c6c(F)c(F)c(F)c(F)c6F)c6ccc3[nH]6)C=C5)C=C4)cc2)c1
REMARK SMILES IDX 21 1 20 2 19 3 17 4 18 5 16 6 15 7 1 8 2 9 3 10 91 11 4 12
REMARK SMILES IDX 5 13 6 14 7 16 8 17 13 18 9 19 10 20 12 21 14 22 11 23 22 24
REMARK SMILES IDX 23 25 24 26 25 27 26 28 27 29 28 30 29 31 90 32 30 33 89 34
REMARK SMILES IDX 31 35 32 36 33 37 83 38 34 39 88 40 82 41 84 42 35 43 87 44
REMARK SMILES IDX 81 45 80 46 36 48 68 49 48 50 67 51 49 52 52 53 66 54 85 55
REMARK SMILES IDX 50 56 51 57 65 59 86 60 53 61 37 62 38 63 46 64 39 65 40 66
REMARK SMILES IDX 44 67 47 68 41 69 42 70 45 71 43 72 69 73 70 74 78 75 71 76
REMARK SMILES IDX 72 77 76 78 79 79 73 80 74 81 77 82 75 83 54 84 55 85 63 86
REMARK SMILES IDX 56 87 57 88 61 89 64 90 58 91 59 92 62 93 60 94
REMARK H PARENT 6 15 84 47 52 58
REMARK Flexibility Score: inf
ROOT
ATOM      1  C   UNL A   1      32.632  28.723  25.439  1.00  0.00     0.202 C 
ENDROOT
BRANCH   1   2
ATOM      2  C   UNL A   1      33.723  28.562  24.394  1.00  0.00     0.261 C 
BRANCH   2   3
ATOM      3  O   UNL A   1      33.709  27.278  23.794  1.00  0.00    -0.463 OA
BRANCH   3   4
ATOM      4  C   UNL A   1      33.638  27.175  22.432  1.00  0.00     0.310 C 
ATOM      5  O   UNL A   1      34.162  27.918  21.615  1.00  0.00    -0.252 OA
BRANCH   4   6
ATOM      6  C   UNL A   1      32.759  25.992  22.047  1.00  0.00     0.160 C 
BRANCH   6   7
ATOM      7  C   UNL A   1      31.320  26.270  22.450  1.00  0.00    -0.013 A 
ATOM      8  C   UNL A   1      29.483  29.614  22.732  1.00  0.00     0.044 C 
ATOM      9  C   UNL A   1      29.808  28.157  22.876  1.00  0.00    -0.051 A 
ATOM     10  C   UNL A   1      29.110  27.355  23.769  1.00  0.00     0.005 A 
ATOM     11  C   UNL A   1      30.862  27.587  22.166  1.00  0.00     0.009 A 
ATOM     12  C   UNL A   1      29.503  26.026  23.991  1.00  0.00     0.026 A 
ATOM     13  C   UNL A   1      30.626  25.452  23.364  1.00  0.00     0.042 A 
BRANCH  13  14
ATOM     14  N   UNL A   1      31.053  24.129  23.678  1.00  0.00    -0.353 N 
ATOM     15  H   UNL A   1      30.409  23.413  23.474  1.00  0.00     0.167 HD
BRANCH  14  16
ATOM     16  C   UNL A   1      32.289  23.707  24.247  1.00  0.00     0.076 A 
ATOM     17  C   UNL A   1      32.878  24.359  25.347  1.00  0.00     0.066 A 
ATOM     18  C   UNL A   1      33.077  22.725  23.609  1.00  0.00     0.066 A 
ATOM     19  Cl  UNL A   1      31.929  25.290  26.462  1.00  0.00    -0.082 Cl
ATOM     20  C   UNL A   1      34.238  24.212  25.638  1.00  0.00     0.023 A 
ATOM     21  C   UNL A   1      34.450  22.611  23.862  1.00  0.00     0.023 A 
ATOM     22  Cl  UNL A   1      32.370  21.548  22.557  1.00  0.00    -0.082 Cl
ATOM     23  C   UNL A   1      35.039  23.389  24.853  1.00  0.00     0.003 A 
ENDBRANCH  14  16
ENDBRANCH  13  14
ENDBRANCH   6   7
ENDBRANCH   4   6
ENDBRANCH   3   4
ENDBRANCH   2   3
ENDBRANCH   1   2
BRANCH   1  24
ATOM     24  O   UNL A   1      32.248  30.081  25.493  1.00  0.00    -0.374 OA
BRANCH  24  25
ATOM     25  C   UNL A   1      32.201  30.632  26.797  1.00  0.00     0.202 C 
BRANCH  25  26
ATOM     26  C   UNL A   1      33.512  30.347  27.531  1.00  0.00     0.261 C 
BRANCH  26  27
ATOM     27  O   UNL A   1      34.450  31.431  27.349  1.00  0.00    -0.460 OA
BRANCH  27  28
ATOM     28  C   UNL A   1      35.369  31.547  28.346  1.00  0.00     0.338 C 
ATOM     29  O   UNL A   1      35.619  32.588  28.944  1.00  0.00    -0.246 OA
BRANCH  28  30
ATOM     30  C   UNL A   1      36.179  30.303  28.450  1.00  0.00     0.060 A 
ATOM     31  C   UNL A   1      36.314  29.690  29.709  1.00  0.00     0.016 A 
ATOM     32  C   UNL A   1      37.067  29.997  27.419  1.00  0.00     0.016 A 
ATOM     33  C   UNL A   1      37.455  28.934  29.995  1.00  0.00     0.010 A 
ATOM     34  C   UNL A   1      38.250  29.365  27.749  1.00  0.00     0.010 A 
ATOM     35  C   UNL A   1      38.471  28.869  29.045  1.00  0.00    -0.014 A 
BRANCH  35  36
ATOM     36  C   UNL A   1      39.844  28.433  29.303  1.00  0.00     0.031 A 
ATOM     37  C   UNL A   1      40.245  27.061  28.940  1.00  0.00     0.074 A 
ATOM     38  C   UNL A   1      40.807  29.327  29.626  1.00  0.00     0.049 A 
ATOM     39  N   UNL A   1      41.428  26.598  29.135  1.00  0.00    -0.248 NA
ATOM     40  C   UNL A   1      39.339  26.058  28.385  1.00  0.00     0.031 C 
ATOM     41  C   UNL A   1      42.243  29.259  29.334  1.00  0.00     0.029 A 
ATOM     42  N   UNL A   1      40.697  30.540  30.273  1.00  0.00    -0.354 N 
ATOM     43  C   UNL A   1      41.542  25.428  28.437  1.00  0.00     0.074 A 
ATOM     44  C   UNL A   1      40.188  25.063  28.108  1.00  0.00     0.031 C 
ATOM     45  C   UNL A   1      42.882  30.256  29.968  1.00  0.00     0.029 A 
ATOM     46  C   UNL A   1      41.918  30.905  30.835  1.00  0.00     0.049 A 
ATOM     47  H   UNL A   1      39.870  31.073  30.329  1.00  0.00     0.167 HD
ATOM     48  C   UNL A   1      42.797  24.993  28.140  1.00  0.00     0.037 A 
ATOM     49  C   UNL A   1      42.049  31.085  32.181  1.00  0.00     0.037 A 
ATOM     50  C   UNL A   1      43.804  25.744  28.909  1.00  0.00     0.049 A 
ATOM     51  C   UNL A   1      42.798  29.910  32.795  1.00  0.00     0.074 A 
ATOM     52  C   UNL A   1      44.783  26.679  28.625  1.00  0.00     0.029 A 
ATOM     53  N   UNL A   1      43.671  25.759  30.292  1.00  0.00    -0.354 N 
ATOM     54  N   UNL A   1      43.330  28.954  32.080  1.00  0.00    -0.248 NA
ATOM     55  C   UNL A   1      42.969  29.668  34.224  1.00  0.00     0.031 C 
ATOM     56  C   UNL A   1      45.180  27.290  29.865  1.00  0.00     0.029 A 
ATOM     57  C   UNL A   1      44.481  26.693  30.903  1.00  0.00     0.049 A 
ATOM     58  H   UNL A   1      43.061  25.165  30.785  1.00  0.00     0.167 HD
ATOM     59  C   UNL A   1      43.835  27.975  32.873  1.00  0.00     0.074 A 
ATOM     60  C   UNL A   1      43.570  28.461  34.221  1.00  0.00     0.031 C 
ATOM     61  C   UNL A   1      44.409  26.845  32.358  1.00  0.00     0.037 A 
BRANCH  48  62
ATOM     62  C   UNL A   1      43.130  23.955  27.096  1.00  0.00     0.064 A 
ATOM     63  C   UNL A   1      42.783  22.606  27.313  1.00  0.00     0.173 A 
ATOM     64  C   UNL A   1      43.867  24.193  25.913  1.00  0.00     0.173 A 
ATOM     65  F   UNL A   1      42.095  22.237  28.403  1.00  0.00    -0.203 F 
ATOM     66  C   UNL A   1      43.142  21.587  26.424  1.00  0.00     0.198 A 
ATOM     67  C   UNL A   1      44.177  23.181  24.999  1.00  0.00     0.198 A 
ATOM     68  F   UNL A   1      44.373  25.394  25.614  1.00  0.00    -0.203 F 
ATOM     69  F   UNL A   1      42.829  20.315  26.710  1.00  0.00    -0.200 F 
ATOM     70  C   UNL A   1      43.827  21.875  25.261  1.00  0.00     0.200 A 
ATOM     71  F   UNL A   1      44.844  23.484  23.875  1.00  0.00    -0.200 F 
ATOM     72  F   UNL A   1      44.165  20.900  24.407  1.00  0.00    -0.200 F 
ENDBRANCH  48  62
BRANCH  49  73
ATOM     73  C   UNL A   1      40.868  31.835  32.711  1.00  0.00     0.064 A 
ATOM     74  C   UNL A   1      40.755  33.171  32.251  1.00  0.00     0.173 A 
ATOM     75  C   UNL A   1      39.681  31.163  33.036  1.00  0.00     0.173 A 
ATOM     76  F   UNL A   1      41.860  33.857  31.916  1.00  0.00    -0.203 F 
ATOM     77  C   UNL A   1      39.519  33.711  31.904  1.00  0.00     0.198 A 
ATOM     78  C   UNL A   1      38.440  31.728  32.715  1.00  0.00     0.198 A 
ATOM     79  F   UNL A   1      39.719  29.890  33.453  1.00  0.00    -0.203 F 
ATOM     80  F   UNL A   1      39.463  34.871  31.232  1.00  0.00    -0.200 F 
ATOM     81  C   UNL A   1      38.366  32.969  32.095  1.00  0.00     0.200 A 
ATOM     82  F   UNL A   1      37.324  30.999  32.856  1.00  0.00    -0.200 F 
ATOM     83  F   UNL A   1      37.201  33.402  31.594  1.00  0.00    -0.200 F 
ENDBRANCH  49  73
BRANCH  61  84
ATOM     84  C   UNL A   1      44.928  25.754  33.247  1.00  0.00     0.064 A 
ATOM     85  C   UNL A   1      44.078  25.020  34.087  1.00  0.00     0.173 A 
ATOM     86  C   UNL A   1      46.300  25.435  33.323  1.00  0.00     0.173 A 
ATOM     87  F   UNL A   1      42.776  25.329  34.184  1.00  0.00    -0.203 F 
ATOM     88  C   UNL A   1      44.547  23.949  34.844  1.00  0.00     0.198 A 
ATOM     89  C   UNL A   1      46.778  24.417  34.142  1.00  0.00     0.198 A 
ATOM     90  F   UNL A   1      47.220  26.066  32.580  1.00  0.00    -0.203 F 
ATOM     91  F   UNL A   1      43.680  23.199  35.538  1.00  0.00    -0.200 F 
ATOM     92  C   UNL A   1      45.897  23.648  34.872  1.00  0.00     0.200 A 
ATOM     93  F   UNL A   1      48.095  24.171  34.193  1.00  0.00    -0.200 F 
ATOM     94  F   UNL A   1      46.346  22.614  35.593  1.00  0.00    -0.200 F 
ENDBRANCH  61  84
ENDBRANCH  35  36
ENDBRANCH  28  30
ENDBRANCH  27  28
ENDBRANCH  26  27
ENDBRANCH  25  26
ENDBRANCH  24  25
ENDBRANCH   1  24
TORSDOF 17
ENDMDL
MODEL 2
REMARK VINA RESULT:     -12.1      1.601      2.422
REMARK SMILES Cc1ccc(Nc2c(Cl)cccc2Cl)c(CC(=O)OCCOCCOC(=O)c2ccc(-c3c4nc(c(-c5c(F)c(F)c(F)c(F)c5F)c5ccc([nH]5)c(-c5c(F)c(F)c(F)c(F)c5F)c5nc(c(-c6c(F)c(F)c(F)c(F)c6F)c6ccc3[nH]6)C=C5)C=C4)cc2)c1
REMARK SMILES IDX 21 1 20 2 19 3 17 4 18 5 16 6 15 7 1 8 2 9 3 10 91 11 4 12
REMARK SMILES IDX 5 13 6 14 7 16 8 17 13 18 9 19 10 20 12 21 14 22 11 23 22 24
REMARK SMILES IDX 23 25 24 26 25 27 26 28 27 29 28 30 29 31 90 32 30 33 89 34
REMARK SMILES IDX 31 35 32 36 33 37 83 38 34 39 88 40 82 41 84 42 35 43 87 44
REMARK SMILES IDX 81 45 80 46 36 48 68 49 48 50 67 51 49 52 52 53 66 54 85 55
REMARK SMILES IDX 50 56 51 57 65 59 86 60 53 61 37 62 38 63 46 64 39 65 40 66
REMARK SMILES IDX 44 67 47 68 41 69 42 70 45 71 43 72 69 73 70 74 78 75 71 76
REMARK SMILES IDX 72 77 76 78 79 79 73 80 74 81 77 82 75 83 54 84 55 85 63 86
REMARK SMILES IDX 56 87 57 88 61 89 64 90 58 91 59 92 62 93 60 94
REMARK H PARENT 6 15 84 47 52 58
REMARK Flexibility Score: inf
ROOT
ATOM      1  C   UNL A   1      31.781  29.609  25.393  1.00  0.00     0.202 C 
ENDROOT
BRANCH   1   2
ATOM      2  C   UNL A   1      32.329  28.250  24.992  1.00  0.00     0.261 C 
BRANCH   2   3
ATOM      3  O   UNL A   1      32.567  27.413  26.111  1.00  0.00    -0.463 OA
BRANCH   3   4
ATOM      4  C   UNL A   1      32.812  26.083  25.914  1.00  0.00     0.310 C 
ATOM      5  O   UNL A   1      32.067  25.154  26.192  1.00  0.00    -0.252 OA
BRANCH   4   6
ATOM      6  C   UNL A   1      34.200  25.894  25.315  1.00  0.00     0.160 C 
BRANCH   6   7
ATOM      7  C   UNL A   1      34.104  25.035  24.065  1.00  0.00    -0.013 A 
ATOM      8  C   UNL A   1      32.419  25.801  20.716  1.00  0.00     0.044 C 
ATOM      9  C   UNL A   1      33.073  25.047  21.836  1.00  0.00    -0.051 A 
ATOM     10  C   UNL A   1      33.035  23.660  21.880  1.00  0.00     0.005 A 
ATOM     11  C   UNL A   1      33.674  25.723  22.895  1.00  0.00     0.009 A 
ATOM     12  C   UNL A   1      33.536  22.969  22.993  1.00  0.00     0.026 A 
ATOM     13  C   UNL A   1      34.059  23.627  24.124  1.00  0.00     0.042 A 
BRANCH  13  14
ATOM     14  N   UNL A   1      34.477  22.900  25.275  1.00  0.00    -0.353 N 
ATOM     15  H   UNL A   1      33.957  23.062  26.095  1.00  0.00     0.167 HD
BRANCH  14  16
ATOM     16  C   UNL A   1      35.549  21.969  25.396  1.00  0.00     0.076 A 
ATOM     17  C   UNL A   1      36.889  22.373  25.555  1.00  0.00     0.066 A 
ATOM     18  C   UNL A   1      35.335  20.592  25.171  1.00  0.00     0.066 A 
ATOM     19  Cl  UNL A   1      37.294  23.925  26.214  1.00  0.00    -0.082 Cl
ATOM     20  C   UNL A   1      37.949  21.507  25.270  1.00  0.00     0.023 A 
ATOM     21  C   UNL A   1      36.390  19.734  24.835  1.00  0.00     0.023 A 
ATOM     22  Cl  UNL A   1      33.777  19.875  25.393  1.00  0.00    -0.082 Cl
ATOM     23  C   UNL A   1      37.698  20.206  24.844  1.00  0.00     0.003 A 
ENDBRANCH  14  16
ENDBRANCH  13  14
ENDBRANCH   6   7
ENDBRANCH   4   6
ENDBRANCH   3   4
ENDBRANCH   2   3
ENDBRANCH   1   2
BRANCH   1  24
ATOM     24  O   UNL A   1      31.949  29.776  26.786  1.00  0.00    -0.374 OA
BRANCH  24  25
ATOM     25  C   UNL A   1      32.706  30.915  27.158  1.00  0.00     0.202 C 
BRANCH  25  26
ATOM     26  C   UNL A   1      34.181  30.536  27.301  1.00  0.00     0.261 C 
BRANCH  26  27
ATOM     27  O   UNL A   1      34.728  31.054  28.535  1.00  0.00    -0.460 OA
BRANCH  27  28
ATOM     28  C   UNL A   1      36.064  31.308  28.490  1.00  0.00     0.338 C 
ATOM     29  O   UNL A   1      36.555  32.407  28.255  1.00  0.00    -0.246 OA
BRANCH  28  30
ATOM     30  C   UNL A   1      36.835  30.036  28.539  1.00  0.00     0.060 A 
ATOM     31  C   UNL A   1      36.953  29.366  29.769  1.00  0.00     0.016 A 
ATOM     32  C   UNL A   1      37.711  29.747  27.492  1.00  0.00     0.016 A 
ATOM     33  C   UNL A   1      38.070  28.564  30.019  1.00  0.00     0.010 A 
ATOM     34  C   UNL A   1      38.874  29.066  27.791  1.00  0.00     0.010 A 
ATOM     35  C   UNL A   1      39.082  28.508  29.064  1.00  0.00    -0.014 A 
BRANCH  35  36
ATOM     36  C   UNL A   1      40.442  28.019  29.299  1.00  0.00     0.031 A 
ATOM     37  C   UNL A   1      40.808  26.663  28.849  1.00  0.00     0.074 A 
ATOM     38  C   UNL A   1      41.426  28.864  29.682  1.00  0.00     0.049 A 
ATOM     39  N   UNL A   1      41.976  26.157  29.019  1.00  0.00    -0.248 NA
ATOM     40  C   UNL A   1      39.878  25.723  28.226  1.00  0.00     0.031 C 
ATOM     41  C   UNL A   1      42.861  28.777  29.393  1.00  0.00     0.029 A 
ATOM     42  N   UNL A   1      41.345  30.035  30.407  1.00  0.00    -0.354 N 
ATOM     43  C   UNL A   1      42.063  25.032  28.247  1.00  0.00     0.074 A 
ATOM     44  C   UNL A   1      40.702  24.725  27.889  1.00  0.00     0.031 C 
ATOM     45  C   UNL A   1      43.523  29.713  30.093  1.00  0.00     0.029 A 
ATOM     46  C   UNL A   1      42.572  30.330  30.996  1.00  0.00     0.049 A 
ATOM     47  H   UNL A   1      40.533  30.586  30.494  1.00  0.00     0.167 HD
ATOM     48  C   UNL A   1      43.308  24.584  27.927  1.00  0.00     0.037 A 
ATOM     49  C   UNL A   1      42.700  30.419  32.352  1.00  0.00     0.037 A 
ATOM     50  C   UNL A   1      44.331  25.255  28.747  1.00  0.00     0.049 A 
ATOM     51  C   UNL A   1      43.414  29.187  32.890  1.00  0.00     0.074 A 
ATOM     52  C   UNL A   1      45.336  26.180  28.528  1.00  0.00     0.029 A 
ATOM     53  N   UNL A   1      44.190  25.185  30.128  1.00  0.00    -0.354 N 
ATOM     54  N   UNL A   1      43.924  28.265  32.118  1.00  0.00    -0.248 NA
ATOM     55  C   UNL A   1      43.571  28.848  34.302  1.00  0.00     0.031 C 
ATOM     56  C   UNL A   1      45.742  26.699  29.807  1.00  0.00     0.029 A 
ATOM     57  C   UNL A   1      45.021  26.054  30.801  1.00  0.00     0.049 A 
ATOM     58  H   UNL A   1      43.561  24.577  30.578  1.00  0.00     0.167 HD
ATOM     59  C   UNL A   1      44.398  27.223  32.848  1.00  0.00     0.074 A 
ATOM     60  C   UNL A   1      44.138  27.628  34.223  1.00  0.00     0.031 C 
ATOM     61  C   UNL A   1      44.945  26.114  32.263  1.00  0.00     0.037 A 
BRANCH  48  62
ATOM     62  C   UNL A   1      43.619  23.607  26.819  1.00  0.00     0.064 A 
ATOM     63  C   UNL A   1      43.218  22.260  26.939  1.00  0.00     0.173 A 
ATOM     64  C   UNL A   1      44.384  23.895  25.666  1.00  0.00     0.173 A 
ATOM     65  F   UNL A   1      42.500  21.844  27.992  1.00  0.00    -0.203 F 
ATOM     66  C   UNL A   1      43.554  21.291  25.988  1.00  0.00     0.198 A 
ATOM     67  C   UNL A   1      44.671  22.936  24.689  1.00  0.00     0.198 A 
ATOM     68  F   UNL A   1      44.939  25.093  25.456  1.00  0.00    -0.203 F 
ATOM     69  F   UNL A   1      43.189  20.015  26.182  1.00  0.00    -0.200 F 
ATOM     70  C   UNL A   1      44.268  21.630  24.857  1.00  0.00     0.200 A 
ATOM     71  F   UNL A   1      45.367  23.289  23.598  1.00  0.00    -0.200 F 
ATOM     72  F   UNL A   1      44.583  20.703  23.943  1.00  0.00    -0.200 F 
ENDBRANCH  48  62
BRANCH  49  73
ATOM     73  C   UNL A   1      41.536  31.165  32.924  1.00  0.00     0.064 A 
ATOM     74  C   UNL A   1      41.507  32.549  32.620  1.00  0.00     0.173 A 
ATOM     75  C   UNL A   1      40.306  30.524  33.127  1.00  0.00     0.173 A 
ATOM     76  F   UNL A   1      42.657  33.209  32.404  1.00  0.00    -0.203 F 
ATOM     77  C   UNL A   1      40.314  33.190  32.295  1.00  0.00     0.198 A 
ATOM     78  C   UNL A   1      39.108  31.186  32.832  1.00  0.00     0.198 A 
ATOM     79  F   UNL A   1      40.265  29.211  33.394  1.00  0.00    -0.203 F 
ATOM     80  F   UNL A   1      40.341  34.420  31.762  1.00  0.00    -0.200 F 
ATOM     81  C   UNL A   1      39.120  32.493  32.359  1.00  0.00     0.200 A 
ATOM     82  F   UNL A   1      37.953  30.507  32.848  1.00  0.00    -0.200 F 
ATOM     83  F   UNL A   1      37.998  33.042  31.871  1.00  0.00    -0.200 F 
ENDBRANCH  49  73
BRANCH  61  84
ATOM     84  C   UNL A   1      45.429  24.954  33.081  1.00  0.00     0.064 A 
ATOM     85  C   UNL A   1      46.746  24.886  33.558  1.00  0.00     0.173 A 
ATOM     86  C   UNL A   1      44.606  23.847  33.377  1.00  0.00     0.173 A 
ATOM     87  F   UNL A   1      47.645  25.825  33.225  1.00  0.00    -0.203 F 
ATOM     88  C   UNL A   1      47.168  23.853  34.391  1.00  0.00     0.198 A 
ATOM     89  C   UNL A   1      45.054  22.776  34.143  1.00  0.00     0.198 A 
ATOM     90  F   UNL A   1      43.329  23.782  32.974  1.00  0.00    -0.203 F 
ATOM     91  F   UNL A   1      48.398  23.891  34.922  1.00  0.00    -0.200 F 
ATOM     92  C   UNL A   1      46.322  22.798  34.684  1.00  0.00     0.200 A 
ATOM     93  F   UNL A   1      44.236  21.739  34.376  1.00  0.00    -0.200 F 
ATOM     94  F   UNL A   1      46.725  21.810  35.491  1.00  0.00    -0.200 F 
ENDBRANCH  61  84
ENDBRANCH  35  36
ENDBRANCH  28  30
ENDBRANCH  27  28
ENDBRANCH  26  27
ENDBRANCH  25  26
ENDBRANCH  24  25
ENDBRANCH   1  24
TORSDOF 17
ENDMDL
MODEL 3
REMARK VINA RESULT:     -11.9      3.301      9.387
REMARK SMILES Cc1ccc(Nc2c(Cl)cccc2Cl)c(CC(=O)OCCOCCOC(=O)c2ccc(-c3c4nc(c(-c5c(F)c(F)c(F)c(F)c5F)c5ccc([nH]5)c(-c5c(F)c(F)c(F)c(F)c5F)c5nc(c(-c6c(F)c(F)c(F)c(F)c6F)c6ccc3[nH]6)C=C5)C=C4)cc2)c1
REMARK SMILES IDX 21 1 20 2 19 3 17 4 18 5 16 6 15 7 1 8 2 9 3 10 91 11 4 12
REMARK SMILES IDX 5 13 6 14 7 16 8 17 13 18 9 19 10 20 12 21 14 22 11 23 22 24
REMARK SMILES IDX 23 25 24 26 25 27 26 28 27 29 28 30 29 31 90 32 30 33 89 34
REMARK SMILES IDX 31 35 32 36 33 37 83 38 34 39 88 40 82 41 84 42 35 43 87 44
REMARK SMILES IDX 81 45 80 46 36 48 68 49 48 50 67 51 49 52 52 53 66 54 85 55
REMARK SMILES IDX 50 56 51 57 65 59 86 60 53 61 37 62 38 63 46 64 39 65 40 66
REMARK SMILES IDX 44 67 47 68 41 69 42 70 45 71 43 72 69 73 70 74 78 75 71 76
REMARK SMILES IDX 72 77 76 78 79 79 73 80 74 81 77 82 75 83 54 84 55 85 63 86
REMARK SMILES IDX 56 87 57 88 61 89 64 90 58 91 59 92 62 93 60 94
REMARK H PARENT 6 15 84 47 52 58
REMARK Flexibility Score: inf
ROOT
ATOM      1  C   UNL A   1      35.692  21.263  24.654  1.00  0.00     0.202 C 
ENDROOT
BRANCH   1   2
ATOM      2  C   UNL A   1      34.660  22.368  24.808  1.00  0.00     0.261 C 
BRANCH   2   3
ATOM      3  O   UNL A   1      35.064  23.574  24.183  1.00  0.00    -0.463 OA
BRANCH   3   4
ATOM      4  C   UNL A   1      34.209  24.640  24.166  1.00  0.00     0.310 C 
ATOM      5  O   UNL A   1      33.590  25.065  23.200  1.00  0.00    -0.252 OA
BRANCH   4   6
ATOM      6  C   UNL A   1      34.149  25.280  25.547  1.00  0.00     0.160 C 
BRANCH   6   7
ATOM      7  C   UNL A   1      32.698  25.471  25.960  1.00  0.00    -0.013 A 
ATOM      8  C   UNL A   1      30.075  22.849  26.900  1.00  0.00     0.044 C 
ATOM      9  C   UNL A   1      30.698  24.155  26.505  1.00  0.00    -0.051 A 
ATOM     10  C   UNL A   1      29.919  25.206  26.041  1.00  0.00     0.005 A 
ATOM     11  C   UNL A   1      32.081  24.324  26.531  1.00  0.00     0.009 A 
ATOM     12  C   UNL A   1      30.518  26.378  25.554  1.00  0.00     0.026 A 
ATOM     13  C   UNL A   1      31.916  26.539  25.474  1.00  0.00     0.042 A 
BRANCH  13  14
ATOM     14  N   UNL A   1      32.494  27.703  24.892  1.00  0.00    -0.353 N 
ATOM     15  H   UNL A   1      33.021  27.556  24.075  1.00  0.00     0.167 HD
BRANCH  14  16
ATOM     16  C   UNL A   1      32.408  29.054  25.340  1.00  0.00     0.076 A 
ATOM     17  C   UNL A   1      33.228  29.565  26.364  1.00  0.00     0.066 A 
ATOM     18  C   UNL A   1      31.361  29.892  24.900  1.00  0.00     0.066 A 
ATOM     19  Cl  UNL A   1      34.762  28.848  26.740  1.00  0.00    -0.082 Cl
ATOM     20  C   UNL A   1      32.880  30.726  27.063  1.00  0.00     0.023 A 
ATOM     21  C   UNL A   1      30.979  31.027  25.628  1.00  0.00     0.023 A 
ATOM     22  Cl  UNL A   1      30.561  29.619  23.391  1.00  0.00    -0.082 Cl
ATOM     23  C   UNL A   1      31.718  31.420  26.739  1.00  0.00     0.003 A 
ENDBRANCH  14  16
ENDBRANCH  13  14
ENDBRANCH   6   7
ENDBRANCH   4   6
ENDBRANCH   3   4
ENDBRANCH   2   3
ENDBRANCH   1   2
BRANCH   1  24
ATOM     24  O   UNL A   1      36.629  21.364  25.706  1.00  0.00    -0.374 OA
BRANCH  24  25
ATOM     25  C   UNL A   1      37.710  22.244  25.453  1.00  0.00     0.202 C 
BRANCH  25  26
ATOM     26  C   UNL A   1      38.960  21.762  26.192  1.00  0.00     0.261 C 
BRANCH  26  27
ATOM     27  O   UNL A   1      40.077  22.643  25.942  1.00  0.00    -0.460 OA
BRANCH  27  28
ATOM     28  C   UNL A   1      40.582  23.234  27.059  1.00  0.00     0.338 C 
ATOM     29  O   UNL A   1      41.198  22.644  27.940  1.00  0.00    -0.246 OA
BRANCH  28  30
ATOM     30  C   UNL A   1      40.090  24.635  27.172  1.00  0.00     0.060 A 
ATOM     31  C   UNL A   1      40.649  25.615  26.332  1.00  0.00     0.016 A 
ATOM     32  C   UNL A   1      39.393  25.006  28.321  1.00  0.00     0.016 A 
ATOM     33  C   UNL A   1      40.689  26.948  26.751  1.00  0.00     0.010 A 
ATOM     34  C   UNL A   1      39.555  26.295  28.788  1.00  0.00     0.010 A 
ATOM     35  C   UNL A   1      40.239  27.262  28.030  1.00  0.00    -0.014 A 
BRANCH  35  36
ATOM     36  C   UNL A   1      40.525  28.506  28.747  1.00  0.00     0.031 A 
ATOM     37  C   UNL A   1      39.504  29.569  28.781  1.00  0.00     0.074 A 
ATOM     38  C   UNL A   1      41.587  28.597  29.580  1.00  0.00     0.049 A 
ATOM     39  N   UNL A   1      39.676  30.691  29.383  1.00  0.00    -0.248 NA
ATOM     40  C   UNL A   1      38.220  29.501  28.086  1.00  0.00     0.031 C 
ATOM     41  C   UNL A   1      41.724  29.419  30.788  1.00  0.00     0.029 A 
ATOM     42  N   UNL A   1      42.793  27.930  29.542  1.00  0.00    -0.354 N 
ATOM     43  C   UNL A   1      38.461  31.313  29.468  1.00  0.00     0.074 A 
ATOM     44  C   UNL A   1      37.622  30.611  28.532  1.00  0.00     0.031 C 
ATOM     45  C   UNL A   1      42.989  29.357  31.237  1.00  0.00     0.029 A 
ATOM     46  C   UNL A   1      43.764  28.637  30.247  1.00  0.00     0.049 A 
ATOM     47  H   UNL A   1      42.945  27.072  29.082  1.00  0.00     0.167 HD
ATOM     48  C   UNL A   1      38.313  32.276  30.419  1.00  0.00     0.037 A 
ATOM     49  C   UNL A   1      44.891  29.096  29.627  1.00  0.00     0.037 A 
ATOM     50  C   UNL A   1      39.620  32.662  30.978  1.00  0.00     0.049 A 
ATOM     51  C   UNL A   1      44.797  30.602  29.422  1.00  0.00     0.074 A 
ATOM     52  C   UNL A   1      40.272  32.508  32.188  1.00  0.00     0.029 A 
ATOM     53  N   UNL A   1      40.596  33.085  30.085  1.00  0.00    -0.354 N 
ATOM     54  N   UNL A   1      43.820  31.326  29.899  1.00  0.00    -0.248 NA
ATOM     55  C   UNL A   1      45.728  31.409  28.639  1.00  0.00     0.031 C 
ATOM     56  C   UNL A   1      41.666  32.791  31.975  1.00  0.00     0.029 A 
ATOM     57  C   UNL A   1      41.851  33.164  30.653  1.00  0.00     0.049 A 
ATOM     58  H   UNL A   1      40.412  33.307  29.144  1.00  0.00     0.167 HD
ATOM     59  C   UNL A   1      43.914  32.612  29.477  1.00  0.00     0.074 A 
ATOM     60  C   UNL A   1      45.127  32.615  28.669  1.00  0.00     0.031 C 
ATOM     61  C   UNL A   1      42.983  33.558  29.810  1.00  0.00     0.037 A 
BRANCH  48  62
ATOM     62  C   UNL A   1      36.991  32.811  30.912  1.00  0.00     0.064 A 
ATOM     63  C   UNL A   1      36.221  33.650  30.080  1.00  0.00     0.173 A 
ATOM     64  C   UNL A   1      36.466  32.624  32.211  1.00  0.00     0.173 A 
ATOM     65  F   UNL A   1      36.609  33.925  28.827  1.00  0.00    -0.203 F 
ATOM     66  C   UNL A   1      35.032  34.247  30.513  1.00  0.00     0.198 A 
ATOM     67  C   UNL A   1      35.249  33.177  32.622  1.00  0.00     0.198 A 
ATOM     68  F   UNL A   1      37.126  31.953  33.160  1.00  0.00    -0.203 F 
ATOM     69  F   UNL A   1      34.369  35.077  29.694  1.00  0.00    -0.200 F 
ATOM     70  C   UNL A   1      34.539  34.001  31.778  1.00  0.00     0.200 A 
ATOM     71  F   UNL A   1      34.789  32.925  33.857  1.00  0.00    -0.200 F 
ATOM     72  F   UNL A   1      33.396  34.567  32.189  1.00  0.00    -0.200 F 
ENDBRANCH  48  62
BRANCH  49  73
ATOM     73  C   UNL A   1      45.426  28.046  28.705  1.00  0.00     0.064 A 
ATOM     74  C   UNL A   1      45.876  26.864  29.345  1.00  0.00     0.173 A 
ATOM     75  C   UNL A   1      44.935  27.924  27.398  1.00  0.00     0.173 A 
ATOM     76  F   UNL A   1      46.346  26.924  30.602  1.00  0.00    -0.203 F 
ATOM     77  C   UNL A   1      45.618  25.608  28.801  1.00  0.00     0.198 A 
ATOM     78  C   UNL A   1      44.711  26.657  26.844  1.00  0.00     0.198 A 
ATOM     79  F   UNL A   1      44.471  29.000  26.748  1.00  0.00    -0.203 F 
ATOM     80  F   UNL A   1      45.819  24.508  29.541  1.00  0.00    -0.200 F 
ATOM     81  C   UNL A   1      44.994  25.507  27.570  1.00  0.00     0.200 A 
ATOM     82  F   UNL A   1      44.066  26.550  25.674  1.00  0.00    -0.200 F 
ATOM     83  F   UNL A   1      44.575  24.312  27.129  1.00  0.00    -0.200 F 
ENDBRANCH  49  73
BRANCH  61  84
ATOM     84  C   UNL A   1      43.079  34.966  29.305  1.00  0.00     0.064 A 
ATOM     85  C   UNL A   1      42.896  35.277  27.950  1.00  0.00     0.173 A 
ATOM     86  C   UNL A   1      43.405  36.048  30.150  1.00  0.00     0.173 A 
ATOM     87  F   UNL A   1      42.709  34.307  27.042  1.00  0.00    -0.203 F 
ATOM     88  C   UNL A   1      42.898  36.595  27.497  1.00  0.00     0.198 A 
ATOM     89  C   UNL A   1      43.485  37.355  29.680  1.00  0.00     0.198 A 
ATOM     90  F   UNL A   1      43.612  35.887  31.464  1.00  0.00    -0.203 F 
ATOM     91  F   UNL A   1      42.598  36.856  26.217  1.00  0.00    -0.200 F 
ATOM     92  C   UNL A   1      43.192  37.633  28.362  1.00  0.00     0.200 A 
ATOM     93  F   UNL A   1      43.819  38.343  30.523  1.00  0.00    -0.200 F 
ATOM     94  F   UNL A   1      43.186  38.900  27.929  1.00  0.00    -0.200 F 
ENDBRANCH  61  84
ENDBRANCH  35  36
ENDBRANCH  28  30
ENDBRANCH  27  28
ENDBRANCH  26  27
ENDBRANCH  25  26
ENDBRANCH  24  25
ENDBRANCH   1  24
TORSDOF 17
ENDMDL
