MODEL 1
REMARK VINA RESULT:     -12.1      0.000      0.000
REMARK SMILES [NH3+][C@H]1CN(C(=O)OCC2c3ccccc3-c3ccccc32)C[C@@H]1C(=O)OCCOCCOC(=O)c1ccc(-c2c3nc(c(-c4c(F)c(F)c(F)c(F)c4F)c4ccc([nH]4)c(-c4c(F)c(F)c(F)c(F)c4F)c4nc(c(-c5c(F)c(F)c(F)c(F)c5F)c5ccc2[nH]5)C=C4)C=C3)cc1
REMARK SMILES IDX 28 1 27 2 26 3 24 4 25 5 23 6 2 7 3 8 4 9 22 10 1 11 5 15
REMARK SMILES IDX 6 16 7 17 8 18 9 19 10 20 21 21 11 22 15 23 16 24 20 25
REMARK SMILES IDX 12 26 14 27 17 28 19 29 13 30 18 31 29 32 30 33 31 34 32 35
REMARK SMILES IDX 33 36 34 37 35 38 36 39 97 40 37 41 96 42 38 43 39 44 40 45
REMARK SMILES IDX 90 46 41 47 95 48 89 49 91 50 42 51 94 52 88 53 87 54 43 56
REMARK SMILES IDX 75 57 55 58 74 59 56 60 59 61 73 62 92 63 57 64 58 65 72 67
REMARK SMILES IDX 93 68 60 69 44 70 45 71 53 72 46 73 47 74 51 75 54 76 48 77
REMARK SMILES IDX 49 78 52 79 50 80 76 81 77 82 85 83 78 84 79 85 83 86 86 87
REMARK SMILES IDX 80 88 81 89 84 90 82 91 61 92 62 93 70 94 63 95 64 96 68 97
REMARK SMILES IDX 71 98 65 99 66 100 69 101 67 102
REMARK H PARENT 1 12 1 13 1 14 91 55 59 66
REMARK Flexibility Score: inf
ROOT
ATOM      1  C   UNL A   1      37.054  22.316  24.239  1.00  0.00     0.202 C 
ENDROOT
BRANCH   1   2
ATOM      2  C   UNL A   1      36.495  22.869  22.922  1.00  0.00     0.261 C 
BRANCH   2   3
ATOM      3  O   UNL A   1      35.410  23.796  23.101  1.00  0.00    -0.463 OA
BRANCH   3   4
ATOM      4  C   UNL A   1      34.337  23.248  23.736  1.00  0.00     0.316 C 
ATOM      5  O   UNL A   1      33.854  22.164  23.434  1.00  0.00    -0.252 OA
BRANCH   4   6
ATOM      6  C   UNL A   1      33.883  24.098  24.908  1.00  0.00     0.178 C 
ATOM      7  C   UNL A   1      32.383  23.922  25.228  1.00  0.00     0.216 C 
ATOM      8  C   UNL A   1      31.689  24.771  24.133  1.00  0.00     0.188 C 
ATOM      9  N   UNL A   1      32.717  25.686  23.675  1.00  0.00    -0.301 N 
ATOM     10  C   UNL A   1      33.943  25.537  24.438  1.00  0.00     0.145 C 
BRANCH   7  11
ATOM     11  N   UNL A   1      32.067  24.427  26.577  1.00  0.00    -0.353 N 
ATOM     12  H   UNL A   1      32.583  23.887  27.271  1.00  0.00     0.344 HD
ATOM     13  H   UNL A   1      31.065  24.332  26.749  1.00  0.00     0.344 HD
ATOM     14  H   UNL A   1      32.332  25.409  26.642  1.00  0.00     0.344 HD
ENDBRANCH   7  11
BRANCH   9  15
ATOM     15  C   UNL A   1      32.735  26.150  22.384  1.00  0.00     0.410 C 
ATOM     16  O   UNL A   1      33.726  26.146  21.669  1.00  0.00    -0.224 OA
BRANCH  15  17
ATOM     17  O   UNL A   1      31.555  26.751  22.074  1.00  0.00    -0.448 OA
BRANCH  17  18
ATOM     18  C   UNL A   1      31.511  28.144  22.417  1.00  0.00     0.248 C 
BRANCH  18  19
ATOM     19  C   UNL A   1      30.520  28.410  23.575  1.00  0.00     0.088 C 
ATOM     20  C   UNL A   1      31.152  28.988  24.844  1.00  0.00    -0.029 A 
ATOM     21  C   UNL A   1      29.572  29.539  23.184  1.00  0.00    -0.029 A 
ATOM     22  C   UNL A   1      31.971  28.368  25.778  1.00  0.00     0.005 A 
ATOM     23  C   UNL A   1      30.784  30.338  25.003  1.00  0.00    -0.014 A 
ATOM     24  C   UNL A   1      29.773  30.659  24.021  1.00  0.00    -0.014 A 
ATOM     25  C   UNL A   1      28.614  29.548  22.182  1.00  0.00     0.005 A 
ATOM     26  C   UNL A   1      32.561  29.147  26.773  1.00  0.00     0.000 A 
ATOM     27  C   UNL A   1      31.350  31.110  26.005  1.00  0.00     0.009 A 
ATOM     28  C   UNL A   1      29.000  31.795  23.871  1.00  0.00     0.009 A 
ATOM     29  C   UNL A   1      27.836  30.696  22.031  1.00  0.00     0.000 A 
ATOM     30  C   UNL A   1      32.271  30.514  26.872  1.00  0.00     0.001 A 
ATOM     31  C   UNL A   1      28.024  31.807  22.870  1.00  0.00     0.001 A 
ENDBRANCH  18  19
ENDBRANCH  17  18
ENDBRANCH  15  17
ENDBRANCH   9  15
ENDBRANCH   4   6
ENDBRANCH   3   4
ENDBRANCH   2   3
ENDBRANCH   1   2
BRANCH   1  32
ATOM     32  O   UNL A   1      37.430  20.941  24.307  1.00  0.00    -0.374 OA
BRANCH  32  33
ATOM     33  C   UNL A   1      37.889  20.449  25.562  1.00  0.00     0.202 C 
BRANCH  33  34
ATOM     34  C   UNL A   1      39.214  19.686  25.588  1.00  0.00     0.261 C 
BRANCH  34  35
ATOM     35  O   UNL A   1      40.315  20.571  25.844  1.00  0.00    -0.460 OA
BRANCH  35  36
ATOM     36  C   UNL A   1      40.727  20.571  27.134  1.00  0.00     0.338 C 
ATOM     37  O   UNL A   1      41.043  19.608  27.811  1.00  0.00    -0.246 OA
BRANCH  36  38
ATOM     38  C   UNL A   1      40.933  21.957  27.590  1.00  0.00     0.060 A 
ATOM     39  C   UNL A   1      40.222  22.959  26.918  1.00  0.00     0.016 A 
ATOM     40  C   UNL A   1      41.837  22.280  28.604  1.00  0.00     0.016 A 
ATOM     41  C   UNL A   1      40.466  24.298  27.205  1.00  0.00     0.010 A 
ATOM     42  C   UNL A   1      42.089  23.626  28.885  1.00  0.00     0.010 A 
ATOM     43  C   UNL A   1      41.438  24.636  28.153  1.00  0.00    -0.014 A 
BRANCH  43  44
ATOM     44  C   UNL A   1      41.896  26.041  28.243  1.00  0.00     0.031 A 
ATOM     45  C   UNL A   1      43.211  26.411  27.614  1.00  0.00     0.074 A 
ATOM     46  C   UNL A   1      41.132  26.975  28.836  1.00  0.00     0.049 A 
ATOM     47  N   UNL A   1      43.830  27.563  27.599  1.00  0.00    -0.248 NA
ATOM     48  C   UNL A   1      43.928  25.336  26.908  1.00  0.00     0.031 C 
ATOM     49  C   UNL A   1      39.823  26.737  29.438  1.00  0.00     0.029 A 
ATOM     50  N   UNL A   1      41.358  28.314  29.034  1.00  0.00    -0.354 N 
ATOM     51  C   UNL A   1      45.009  27.347  26.897  1.00  0.00     0.074 A 
ATOM     52  C   UNL A   1      45.035  25.952  26.523  1.00  0.00     0.031 C 
ATOM     53  C   UNL A   1      39.364  27.891  29.953  1.00  0.00     0.029 A 
ATOM     54  C   UNL A   1      40.364  28.937  29.747  1.00  0.00     0.049 A 
ATOM     55  H   UNL A   1      42.155  28.783  28.697  1.00  0.00     0.167 HD
ATOM     56  C   UNL A   1      45.977  28.242  26.587  1.00  0.00     0.037 A 
ATOM     57  C   UNL A   1      40.287  30.204  30.200  1.00  0.00     0.037 A 
ATOM     58  C   UNL A   1      45.934  29.633  26.947  1.00  0.00     0.049 A 
ATOM     59  C   UNL A   1      41.412  31.161  29.890  1.00  0.00     0.074 A 
ATOM     60  C   UNL A   1      46.850  30.629  26.654  1.00  0.00     0.029 A 
ATOM     61  N   UNL A   1      44.921  30.226  27.687  1.00  0.00    -0.354 N 
ATOM     62  N   UNL A   1      42.507  30.959  29.199  1.00  0.00    -0.248 NA
ATOM     63  C   UNL A   1      41.284  32.526  30.419  1.00  0.00     0.031 C 
ATOM     64  C   UNL A   1      46.420  31.810  27.265  1.00  0.00     0.029 A 
ATOM     65  C   UNL A   1      45.205  31.567  27.885  1.00  0.00     0.049 A 
ATOM     66  H   UNL A   1      44.120  29.761  28.022  1.00  0.00     0.167 HD
ATOM     67  C   UNL A   1      43.179  32.174  29.181  1.00  0.00     0.074 A 
ATOM     68  C   UNL A   1      42.361  33.113  29.918  1.00  0.00     0.031 C 
ATOM     69  C   UNL A   1      44.367  32.488  28.608  1.00  0.00     0.037 A 
BRANCH  56  70
ATOM     70  C   UNL A   1      47.180  27.746  25.839  1.00  0.00     0.064 A 
ATOM     71  C   UNL A   1      47.223  27.723  24.438  1.00  0.00     0.173 A 
ATOM     72  C   UNL A   1      48.331  27.352  26.538  1.00  0.00     0.173 A 
ATOM     73  F   UNL A   1      46.144  28.074  23.722  1.00  0.00    -0.203 F 
ATOM     74  C   UNL A   1      48.373  27.315  23.764  1.00  0.00     0.198 A 
ATOM     75  C   UNL A   1      49.488  26.972  25.862  1.00  0.00     0.198 A 
ATOM     76  F   UNL A   1      48.342  27.357  27.880  1.00  0.00    -0.203 F 
ATOM     77  F   UNL A   1      48.382  27.271  22.425  1.00  0.00    -0.200 F 
ATOM     78  C   UNL A   1      49.506  26.951  24.476  1.00  0.00     0.200 A 
ATOM     79  F   UNL A   1      50.585  26.634  26.552  1.00  0.00    -0.200 F 
ATOM     80  F   UNL A   1      50.616  26.577  23.826  1.00  0.00    -0.200 F 
ENDBRANCH  56  70
BRANCH  57  81
ATOM     81  C   UNL A   1      39.125  30.639  31.019  1.00  0.00     0.064 A 
ATOM     82  C   UNL A   1      38.005  31.242  30.429  1.00  0.00     0.173 A 
ATOM     83  C   UNL A   1      39.131  30.504  32.415  1.00  0.00     0.173 A 
ATOM     84  F   UNL A   1      37.961  31.415  29.099  1.00  0.00    -0.203 F 
ATOM     85  C   UNL A   1      36.952  31.722  31.206  1.00  0.00     0.198 A 
ATOM     86  C   UNL A   1      38.062  30.954  33.188  1.00  0.00     0.198 A 
ATOM     87  F   UNL A   1      40.177  29.935  33.032  1.00  0.00    -0.203 F 
ATOM     88  F   UNL A   1      35.925  32.353  30.620  1.00  0.00    -0.200 F 
ATOM     89  C   UNL A   1      36.979  31.575  32.583  1.00  0.00     0.200 A 
ATOM     90  F   UNL A   1      38.088  30.796  34.518  1.00  0.00    -0.200 F 
ATOM     91  F   UNL A   1      35.970  32.042  33.330  1.00  0.00    -0.200 F 
ENDBRANCH  57  81
BRANCH  69  92
ATOM     92  C   UNL A   1      44.830  33.913  28.712  1.00  0.00     0.064 A 
ATOM     93  C   UNL A   1      45.651  34.350  29.762  1.00  0.00     0.173 A 
ATOM     94  C   UNL A   1      44.482  34.844  27.720  1.00  0.00     0.173 A 
ATOM     95  F   UNL A   1      46.001  33.503  30.742  1.00  0.00    -0.203 F 
ATOM     96  C   UNL A   1      46.080  35.672  29.831  1.00  0.00     0.198 A 
ATOM     97  C   UNL A   1      44.942  36.156  27.774  1.00  0.00     0.198 A 
ATOM     98  F   UNL A   1      43.707  34.475  26.688  1.00  0.00    -0.203 F 
ATOM     99  F   UNL A   1      46.819  36.080  30.871  1.00  0.00    -0.200 F 
ATOM    100  C   UNL A   1      45.733  36.572  28.834  1.00  0.00     0.200 A 
ATOM    101  F   UNL A   1      44.620  37.018  26.799  1.00  0.00    -0.200 F 
ATOM    102  F   UNL A   1      46.155  37.841  28.898  1.00  0.00    -0.200 F 
ENDBRANCH  69  92
ENDBRANCH  43  44
ENDBRANCH  36  38
ENDBRANCH  35  36
ENDBRANCH  34  35
ENDBRANCH  33  34
ENDBRANCH  32  33
ENDBRANCH   1  32
TORSDOF 19
ENDMDL
MODEL 2
REMARK VINA RESULT:     -12.1      0.886      7.092
REMARK SMILES [NH3+][C@H]1CN(C(=O)OCC2c3ccccc3-c3ccccc32)C[C@@H]1C(=O)OCCOCCOC(=O)c1ccc(-c2c3nc(c(-c4c(F)c(F)c(F)c(F)c4F)c4ccc([nH]4)c(-c4c(F)c(F)c(F)c(F)c4F)c4nc(c(-c5c(F)c(F)c(F)c(F)c5F)c5ccc2[nH]5)C=C4)C=C3)cc1
REMARK SMILES IDX 28 1 27 2 26 3 24 4 25 5 23 6 2 7 3 8 4 9 22 10 1 11 5 15
REMARK SMILES IDX 6 16 7 17 8 18 9 19 10 20 21 21 11 22 15 23 16 24 20 25
REMARK SMILES IDX 12 26 14 27 17 28 19 29 13 30 18 31 29 32 30 33 31 34 32 35
REMARK SMILES IDX 33 36 34 37 35 38 36 39 97 40 37 41 96 42 38 43 39 44 40 45
REMARK SMILES IDX 90 46 41 47 95 48 89 49 91 50 42 51 94 52 88 53 87 54 43 56
REMARK SMILES IDX 75 57 55 58 74 59 56 60 59 61 73 62 92 63 57 64 58 65 72 67
REMARK SMILES IDX 93 68 60 69 44 70 45 71 53 72 46 73 47 74 51 75 54 76 48 77
REMARK SMILES IDX 49 78 52 79 50 80 76 81 77 82 85 83 78 84 79 85 83 86 86 87
REMARK SMILES IDX 80 88 81 89 84 90 82 91 61 92 62 93 70 94 63 95 64 96 68 97
REMARK SMILES IDX 71 98 65 99 66 100 69 101 67 102
REMARK H PARENT 1 12 1 13 1 14 91 55 59 66
REMARK Flexibility Score: inf
ROOT
ATOM      1  C   UNL A   1      33.618  19.949  24.618  1.00  0.00     0.202 C 
ENDROOT
BRANCH   1   2
ATOM      2  C   UNL A   1      33.051  21.200  25.300  1.00  0.00     0.261 C 
BRANCH   2   3
ATOM      3  O   UNL A   1      32.673  22.238  24.379  1.00  0.00    -0.463 OA
BRANCH   3   4
ATOM      4  C   UNL A   1      33.553  23.277  24.353  1.00  0.00     0.316 C 
ATOM      5  O   UNL A   1      34.462  23.373  23.539  1.00  0.00    -0.252 OA
BRANCH   4   6
ATOM      6  C   UNL A   1      33.207  24.332  25.387  1.00  0.00     0.178 C 
ATOM      7  C   UNL A   1      31.687  24.468  25.617  1.00  0.00     0.216 C 
ATOM      8  C   UNL A   1      31.219  25.286  24.387  1.00  0.00     0.188 C 
ATOM      9  N   UNL A   1      32.420  25.939  23.904  1.00  0.00    -0.301 N 
ATOM     10  C   UNL A   1      33.558  25.668  24.765  1.00  0.00     0.145 C 
BRANCH   7  11
ATOM     11  N   UNL A   1      31.403  25.184  26.875  1.00  0.00    -0.353 N 
ATOM     12  H   UNL A   1      31.794  24.662  27.658  1.00  0.00     0.344 HD
ATOM     13  H   UNL A   1      30.394  25.272  26.995  1.00  0.00     0.344 HD
ATOM     14  H   UNL A   1      31.824  26.112  26.839  1.00  0.00     0.344 HD
ENDBRANCH   7  11
BRANCH   9  15
ATOM     15  C   UNL A   1      32.589  26.230  22.574  1.00  0.00     0.410 C 
ATOM     16  O   UNL A   1      33.587  25.940  21.931  1.00  0.00    -0.224 OA
BRANCH  15  17
ATOM     17  O   UNL A   1      31.575  27.015  22.123  1.00  0.00    -0.448 OA
BRANCH  17  18
ATOM     18  C   UNL A   1      31.648  28.372  22.583  1.00  0.00     0.248 C 
BRANCH  18  19
ATOM     19  C   UNL A   1      30.550  28.672  23.632  1.00  0.00     0.088 C 
ATOM     20  C   UNL A   1      31.043  29.382  24.895  1.00  0.00    -0.029 A 
ATOM     21  C   UNL A   1      29.584  29.713  23.074  1.00  0.00    -0.029 A 
ATOM     22  C   UNL A   1      31.808  28.883  25.940  1.00  0.00     0.005 A 
ATOM     23  C   UNL A   1      30.597  30.717  24.913  1.00  0.00    -0.014 A 
ATOM     24  C   UNL A   1      29.659  30.904  23.829  1.00  0.00    -0.014 A 
ATOM     25  C   UNL A   1      28.716  29.591  22.000  1.00  0.00     0.005 A 
ATOM     26  C   UNL A   1      32.274  29.769  26.913  1.00  0.00     0.000 A 
ATOM     27  C   UNL A   1      31.038  31.596  25.890  1.00  0.00     0.009 A 
ATOM     28  C   UNL A   1      28.847  31.981  23.524  1.00  0.00     0.009 A 
ATOM     29  C   UNL A   1      27.899  30.679  21.693  1.00  0.00     0.000 A 
ATOM     30  C   UNL A   1      31.910  31.121  26.875  1.00  0.00     0.001 A 
ATOM     31  C   UNL A   1      27.960  31.861  22.450  1.00  0.00     0.001 A 
ENDBRANCH  18  19
ENDBRANCH  17  18
ENDBRANCH  15  17
ENDBRANCH   9  15
ENDBRANCH   4   6
ENDBRANCH   3   4
ENDBRANCH   2   3
ENDBRANCH   1   2
BRANCH   1  32
ATOM     32  O   UNL A   1      34.971  19.575  24.874  1.00  0.00    -0.374 OA
BRANCH  32  33
ATOM     33  C   UNL A   1      35.924  20.624  25.015  1.00  0.00     0.202 C 
BRANCH  33  34
ATOM     34  C   UNL A   1      37.405  20.244  25.031  1.00  0.00     0.261 C 
BRANCH  34  35
ATOM     35  O   UNL A   1      38.230  21.391  25.290  1.00  0.00    -0.460 OA
BRANCH  35  36
ATOM     36  C   UNL A   1      39.293  21.130  26.086  1.00  0.00     0.338 C 
ATOM     37  O   UNL A   1      39.888  20.073  26.205  1.00  0.00    -0.246 OA
BRANCH  36  38
ATOM     38  C   UNL A   1      39.786  22.383  26.684  1.00  0.00     0.060 A 
ATOM     39  C   UNL A   1      39.212  23.575  26.223  1.00  0.00     0.016 A 
ATOM     40  C   UNL A   1      40.818  22.405  27.624  1.00  0.00     0.016 A 
ATOM     41  C   UNL A   1      39.718  24.800  26.644  1.00  0.00     0.010 A 
ATOM     42  C   UNL A   1      41.333  23.636  28.038  1.00  0.00     0.010 A 
ATOM     43  C   UNL A   1      40.814  24.833  27.513  1.00  0.00    -0.014 A 
BRANCH  43  44
ATOM     44  C   UNL A   1      41.524  26.115  27.724  1.00  0.00     0.031 A 
ATOM     45  C   UNL A   1      40.814  27.218  28.460  1.00  0.00     0.074 A 
ATOM     46  C   UNL A   1      42.792  26.276  27.307  1.00  0.00     0.049 A 
ATOM     47  N   UNL A   1      41.218  28.433  28.729  1.00  0.00    -0.248 NA
ATOM     48  C   UNL A   1      39.462  26.912  28.958  1.00  0.00     0.031 C 
ATOM     49  C   UNL A   1      43.590  25.260  26.624  1.00  0.00     0.029 A 
ATOM     50  N   UNL A   1      43.626  27.361  27.392  1.00  0.00    -0.354 N 
ATOM     51  C   UNL A   1      40.169  29.035  29.413  1.00  0.00     0.074 A 
ATOM     52  C   UNL A   1      39.101  28.066  29.497  1.00  0.00     0.031 C 
ATOM     53  C   UNL A   1      44.798  25.776  26.338  1.00  0.00     0.029 A 
ATOM     54  C   UNL A   1      44.843  27.167  26.786  1.00  0.00     0.049 A 
ATOM     55  H   UNL A   1      43.377  28.200  27.844  1.00  0.00     0.167 HD
ATOM     56  C   UNL A   1      40.113  30.285  29.931  1.00  0.00     0.037 A 
ATOM     57  C   UNL A   1      45.862  28.026  26.596  1.00  0.00     0.037 A 
ATOM     58  C   UNL A   1      41.189  31.237  29.858  1.00  0.00     0.049 A 
ATOM     59  C   UNL A   1      45.744  29.432  27.131  1.00  0.00     0.074 A 
ATOM     60  C   UNL A   1      41.242  32.519  30.377  1.00  0.00     0.029 A 
ATOM     61  N   UNL A   1      42.399  31.012  29.218  1.00  0.00    -0.354 N 
ATOM     62  N   UNL A   1      44.765  29.984  27.804  1.00  0.00    -0.248 NA
ATOM     63  C   UNL A   1      46.880  30.331  26.885  1.00  0.00     0.031 C 
ATOM     64  C   UNL A   1      42.463  33.089  30.003  1.00  0.00     0.029 A 
ATOM     65  C   UNL A   1      43.195  32.142  29.306  1.00  0.00     0.049 A 
ATOM     66  H   UNL A   1      42.654  30.173  28.770  1.00  0.00     0.167 HD
ATOM     67  C   UNL A   1      45.177  31.279  28.090  1.00  0.00     0.074 A 
ATOM     68  C   UNL A   1      46.504  31.426  27.531  1.00  0.00     0.031 C 
ATOM     69  C   UNL A   1      44.520  32.261  28.756  1.00  0.00     0.037 A 
BRANCH  56  70
ATOM     70  C   UNL A   1      38.841  30.711  30.604  1.00  0.00     0.064 A 
ATOM     71  C   UNL A   1      37.729  31.152  29.873  1.00  0.00     0.173 A 
ATOM     72  C   UNL A   1      38.714  30.610  31.998  1.00  0.00     0.173 A 
ATOM     73  F   UNL A   1      37.804  31.281  28.540  1.00  0.00    -0.203 F 
ATOM     74  C   UNL A   1      36.538  31.485  30.515  1.00  0.00     0.198 A 
ATOM     75  C   UNL A   1      37.513  30.917  32.633  1.00  0.00     0.198 A 
ATOM     76  F   UNL A   1      39.748  30.192  32.743  1.00  0.00    -0.203 F 
ATOM     77  F   UNL A   1      35.497  31.934  29.801  1.00  0.00    -0.200 F 
ATOM     78  C   UNL A   1      36.428  31.356  31.891  1.00  0.00     0.200 A 
ATOM     79  F   UNL A   1      37.406  30.779  33.961  1.00  0.00    -0.200 F 
ATOM     80  F   UNL A   1      35.276  31.660  32.504  1.00  0.00    -0.200 F 
ENDBRANCH  56  70
BRANCH  57  81
ATOM     81  C   UNL A   1      47.072  27.601  25.842  1.00  0.00     0.064 A 
ATOM     82  C   UNL A   1      48.201  27.099  26.504  1.00  0.00     0.173 A 
ATOM     83  C   UNL A   1      47.140  27.731  24.447  1.00  0.00     0.173 A 
ATOM     84  F   UNL A   1      48.195  26.977  27.840  1.00  0.00    -0.203 F 
ATOM     85  C   UNL A   1      49.363  26.777  25.804  1.00  0.00     0.198 A 
ATOM     86  C   UNL A   1      48.291  27.377  23.745  1.00  0.00     0.198 A 
ATOM     87  F   UNL A   1      46.088  28.206  23.763  1.00  0.00    -0.203 F 
ATOM     88  F   UNL A   1      50.449  26.363  26.470  1.00  0.00    -0.200 F 
ATOM     89  C   UNL A   1      49.405  26.912  24.426  1.00  0.00     0.200 A 
ATOM     90  F   UNL A   1      48.321  27.496  22.411  1.00  0.00    -0.200 F 
ATOM     91  F   UNL A   1      50.524  26.609  23.754  1.00  0.00    -0.200 F 
ENDBRANCH  57  81
BRANCH  69  92
ATOM     92  C   UNL A   1      45.243  33.562  28.958  1.00  0.00     0.064 A 
ATOM     93  C   UNL A   1      46.074  33.782  30.067  1.00  0.00     0.173 A 
ATOM     94  C   UNL A   1      45.136  34.586  28.005  1.00  0.00     0.173 A 
ATOM     95  F   UNL A   1      46.200  32.839  31.013  1.00  0.00    -0.203 F 
ATOM     96  C   UNL A   1      46.746  34.990  30.227  1.00  0.00     0.198 A 
ATOM     97  C   UNL A   1      45.838  35.779  28.151  1.00  0.00     0.198 A 
ATOM     98  F   UNL A   1      44.362  34.423  26.920  1.00  0.00    -0.203 F 
ATOM     99  F   UNL A   1      47.492  35.197  31.321  1.00  0.00    -0.200 F 
ATOM    100  C   UNL A   1      46.634  35.984  29.267  1.00  0.00     0.200 A 
ATOM    101  F   UNL A   1      45.741  36.731  27.212  1.00  0.00    -0.200 F 
ATOM    102  F   UNL A   1      47.290  37.142  29.419  1.00  0.00    -0.200 F 
ENDBRANCH  69  92
ENDBRANCH  43  44
ENDBRANCH  36  38
ENDBRANCH  35  36
ENDBRANCH  34  35
ENDBRANCH  33  34
ENDBRANCH  32  33
ENDBRANCH   1  32
TORSDOF 19
ENDMDL
MODEL 3
REMARK VINA RESULT:     -12.0      2.079      7.466
REMARK SMILES [NH3+][C@H]1CN(C(=O)OCC2c3ccccc3-c3ccccc32)C[C@@H]1C(=O)OCCOCCOC(=O)c1ccc(-c2c3nc(c(-c4c(F)c(F)c(F)c(F)c4F)c4ccc([nH]4)c(-c4c(F)c(F)c(F)c(F)c4F)c4nc(c(-c5c(F)c(F)c(F)c(F)c5F)c5ccc2[nH]5)C=C4)C=C3)cc1
REMARK SMILES IDX 28 1 27 2 26 3 24 4 25 5 23 6 2 7 3 8 4 9 22 10 1 11 5 15
REMARK SMILES IDX 6 16 7 17 8 18 9 19 10 20 21 21 11 22 15 23 16 24 20 25
REMARK SMILES IDX 12 26 14 27 17 28 19 29 13 30 18 31 29 32 30 33 31 34 32 35
REMARK SMILES IDX 33 36 34 37 35 38 36 39 97 40 37 41 96 42 38 43 39 44 40 45
REMARK SMILES IDX 90 46 41 47 95 48 89 49 91 50 42 51 94 52 88 53 87 54 43 56
REMARK SMILES IDX 75 57 55 58 74 59 56 60 59 61 73 62 92 63 57 64 58 65 72 67
REMARK SMILES IDX 93 68 60 69 44 70 45 71 53 72 46 73 47 74 51 75 54 76 48 77
REMARK SMILES IDX 49 78 52 79 50 80 76 81 77 82 85 83 78 84 79 85 83 86 86 87
REMARK SMILES IDX 80 88 81 89 84 90 82 91 61 92 62 93 70 94 63 95 64 96 68 97
REMARK SMILES IDX 71 98 65 99 66 100 69 101 67 102
REMARK H PARENT 1 12 1 13 1 14 91 55 59 66
REMARK Flexibility Score: inf
ROOT
ATOM      1  C   UNL A   1      37.357  23.239  25.023  1.00  0.00     0.202 C 
ENDROOT
BRANCH   1   2
ATOM      2  C   UNL A   1      35.863  23.535  25.206  1.00  0.00     0.261 C 
BRANCH   2   3
ATOM      3  O   UNL A   1      35.289  22.907  26.366  1.00  0.00    -0.463 OA
BRANCH   3   4
ATOM      4  C   UNL A   1      33.964  23.180  26.523  1.00  0.00     0.316 C 
ATOM      5  O   UNL A   1      33.499  24.312  26.492  1.00  0.00    -0.252 OA
BRANCH   4   6
ATOM      6  C   UNL A   1      33.139  21.912  26.643  1.00  0.00     0.178 C 
ATOM      7  C   UNL A   1      33.707  20.748  25.803  1.00  0.00     0.216 C 
ATOM      8  C   UNL A   1      33.255  21.101  24.364  1.00  0.00     0.188 C 
ATOM      9  N   UNL A   1      32.146  22.018  24.544  1.00  0.00    -0.301 N 
ATOM     10  C   UNL A   1      31.823  22.194  25.949  1.00  0.00     0.145 C 
BRANCH   7  11
ATOM     11  N   UNL A   1      33.145  19.457  26.240  1.00  0.00    -0.353 N 
ATOM     12  H   UNL A   1      32.172  19.586  26.516  1.00  0.00     0.344 HD
ATOM     13  H   UNL A   1      33.680  19.104  27.034  1.00  0.00     0.344 HD
ATOM     14  H   UNL A   1      33.195  18.788  25.472  1.00  0.00     0.344 HD
ENDBRANCH   7  11
BRANCH   9  15
ATOM     15  C   UNL A   1      31.872  22.997  23.623  1.00  0.00     0.410 C 
ATOM     16  O   UNL A   1      32.678  23.407  22.801  1.00  0.00    -0.224 OA
BRANCH  15  17
ATOM     17  O   UNL A   1      30.651  23.547  23.857  1.00  0.00    -0.448 OA
BRANCH  17  18
ATOM     18  C   UNL A   1      30.416  24.759  23.125  1.00  0.00     0.248 C 
BRANCH  18  19
ATOM     19  C   UNL A   1      30.511  26.001  24.044  1.00  0.00     0.088 C 
ATOM     20  C   UNL A   1      31.732  26.891  23.800  1.00  0.00    -0.029 A 
ATOM     21  C   UNL A   1      29.377  26.967  23.712  1.00  0.00    -0.029 A 
ATOM     22  C   UNL A   1      33.066  26.654  24.100  1.00  0.00     0.005 A 
ATOM     23  C   UNL A   1      31.342  28.101  23.194  1.00  0.00    -0.014 A 
ATOM     24  C   UNL A   1      29.899  28.172  23.191  1.00  0.00    -0.014 A 
ATOM     25  C   UNL A   1      28.014  26.780  23.876  1.00  0.00     0.005 A 
ATOM     26  C   UNL A   1      34.028  27.550  23.634  1.00  0.00     0.000 A 
ATOM     27  C   UNL A   1      32.294  29.006  22.749  1.00  0.00     0.009 A 
ATOM     28  C   UNL A   1      29.054  29.211  22.847  1.00  0.00     0.009 A 
ATOM     29  C   UNL A   1      27.163  27.829  23.527  1.00  0.00     0.000 A 
ATOM     30  C   UNL A   1      33.646  28.707  22.942  1.00  0.00     0.001 A 
ATOM     31  C   UNL A   1      27.678  29.035  23.021  1.00  0.00     0.001 A 
ENDBRANCH  18  19
ENDBRANCH  17  18
ENDBRANCH  15  17
ENDBRANCH   9  15
ENDBRANCH   4   6
ENDBRANCH   3   4
ENDBRANCH   2   3
ENDBRANCH   1   2
BRANCH   1  32
ATOM     32  O   UNL A   1      37.786  21.881  24.932  1.00  0.00    -0.374 OA
BRANCH  32  33
ATOM     33  C   UNL A   1      38.882  21.483  25.750  1.00  0.00     0.202 C 
BRANCH  33  34
ATOM     34  C   UNL A   1      39.352  20.032  25.658  1.00  0.00     0.261 C 
BRANCH  34  35
ATOM     35  O   UNL A   1      40.247  19.709  26.733  1.00  0.00    -0.460 OA
BRANCH  35  36
ATOM     36  C   UNL A   1      41.521  19.482  26.333  1.00  0.00     0.338 C 
ATOM     37  O   UNL A   1      41.952  18.499  25.754  1.00  0.00    -0.246 OA
BRANCH  36  38
ATOM     38  C   UNL A   1      42.327  20.699  26.528  1.00  0.00     0.060 A 
ATOM     39  C   UNL A   1      42.440  21.183  27.837  1.00  0.00     0.016 A 
ATOM     40  C   UNL A   1      42.910  21.385  25.460  1.00  0.00     0.016 A 
ATOM     41  C   UNL A   1      43.074  22.398  28.078  1.00  0.00     0.010 A 
ATOM     42  C   UNL A   1      43.537  22.610  25.702  1.00  0.00     0.010 A 
ATOM     43  C   UNL A   1      43.578  23.139  27.004  1.00  0.00    -0.014 A 
BRANCH  43  44
ATOM     44  C   UNL A   1      43.984  24.545  27.230  1.00  0.00     0.031 A 
ATOM     45  C   UNL A   1      42.943  25.529  27.693  1.00  0.00     0.074 A 
ATOM     46  C   UNL A   1      45.263  24.926  27.068  1.00  0.00     0.049 A 
ATOM     47  N   UNL A   1      43.055  26.812  27.919  1.00  0.00    -0.248 NA
ATOM     48  C   UNL A   1      41.592  24.994  27.930  1.00  0.00     0.031 C 
ATOM     49  C   UNL A   1      46.360  24.049  26.667  1.00  0.00     0.029 A 
ATOM     50  N   UNL A   1      45.850  26.157  27.216  1.00  0.00    -0.354 N 
ATOM     51  C   UNL A   1      41.792  27.237  28.310  1.00  0.00     0.074 A 
ATOM     52  C   UNL A   1      40.921  26.084  28.267  1.00  0.00     0.031 C 
ATOM     53  C   UNL A   1      47.489  24.773  26.586  1.00  0.00     0.029 A 
ATOM     54  C   UNL A   1      47.185  26.169  26.895  1.00  0.00     0.049 A 
ATOM     55  H   UNL A   1      45.362  26.955  27.523  1.00  0.00     0.167 HD
ATOM     56  C   UNL A   1      41.401  28.479  28.680  1.00  0.00     0.037 A 
ATOM     57  C   UNL A   1      48.052  27.198  26.835  1.00  0.00     0.037 A 
ATOM     58  C   UNL A   1      42.279  29.617  28.737  1.00  0.00     0.049 A 
ATOM     59  C   UNL A   1      47.570  28.582  27.195  1.00  0.00     0.074 A 
ATOM     60  C   UNL A   1      41.987  30.912  29.128  1.00  0.00     0.029 A 
ATOM     61  N   UNL A   1      43.621  29.596  28.385  1.00  0.00    -0.354 N 
ATOM     62  N   UNL A   1      46.384  28.970  27.595  1.00  0.00    -0.248 NA
ATOM     63  C   UNL A   1      48.553  29.671  27.099  1.00  0.00     0.031 C 
ATOM     64  C   UNL A   1      43.139  31.687  28.958  1.00  0.00     0.029 A 
ATOM     65  C   UNL A   1      44.163  30.863  28.523  1.00  0.00     0.049 A 
ATOM     66  H   UNL A   1      44.113  28.799  28.082  1.00  0.00     0.167 HD
ATOM     67  C   UNL A   1      46.486  30.335  27.831  1.00  0.00     0.074 A 
ATOM     68  C   UNL A   1      47.855  30.706  27.544  1.00  0.00     0.031 C 
ATOM     69  C   UNL A   1      45.534  31.207  28.247  1.00  0.00     0.037 A 
BRANCH  56  70
ATOM     70  C   UNL A   1      39.957  28.686  29.032  1.00  0.00     0.064 A 
ATOM     71  C   UNL A   1      39.480  28.507  30.338  1.00  0.00     0.173 A 
ATOM     72  C   UNL A   1      39.052  29.138  28.059  1.00  0.00     0.173 A 
ATOM     73  F   UNL A   1      40.301  28.061  31.302  1.00  0.00    -0.203 F 
ATOM     74  C   UNL A   1      38.148  28.763  30.655  1.00  0.00     0.198 A 
ATOM     75  C   UNL A   1      37.729  29.421  28.385  1.00  0.00     0.198 A 
ATOM     76  F   UNL A   1      39.458  29.328  26.794  1.00  0.00    -0.203 F 
ATOM     77  F   UNL A   1      37.706  28.555  31.903  1.00  0.00    -0.200 F 
ATOM     78  C   UNL A   1      37.278  29.231  29.682  1.00  0.00     0.200 A 
ATOM     79  F   UNL A   1      36.894  29.885  27.446  1.00  0.00    -0.200 F 
ATOM     80  F   UNL A   1      36.001  29.494  29.993  1.00  0.00    -0.200 F 
ENDBRANCH  56  70
BRANCH  57  81
ATOM     81  C   UNL A   1      49.453  26.975  26.391  1.00  0.00     0.064 A 
ATOM     82  C   UNL A   1      49.801  27.012  25.033  1.00  0.00     0.173 A 
ATOM     83  C   UNL A   1      50.466  26.671  27.313  1.00  0.00     0.173 A 
ATOM     84  F   UNL A   1      48.864  27.275  24.110  1.00  0.00    -0.203 F 
ATOM     85  C   UNL A   1      51.098  26.722  24.613  1.00  0.00     0.198 A 
ATOM     86  C   UNL A   1      51.771  26.415  26.894  1.00  0.00     0.198 A 
ATOM     87  F   UNL A   1      50.190  26.622  28.625  1.00  0.00    -0.203 F 
ATOM     88  F   UNL A   1      51.385  26.701  23.305  1.00  0.00    -0.200 F 
ATOM     89  C   UNL A   1      52.082  26.428  25.543  1.00  0.00     0.200 A 
ATOM     90  F   UNL A   1      52.720  26.144  27.799  1.00  0.00    -0.200 F 
ATOM     91  F   UNL A   1      53.327  26.143  25.139  1.00  0.00    -0.200 F 
ENDBRANCH  57  81
BRANCH  69  92
ATOM     92  C   UNL A   1      45.950  32.633  28.465  1.00  0.00     0.064 A 
ATOM     93  C   UNL A   1      45.827  33.602  27.458  1.00  0.00     0.173 A 
ATOM     94  C   UNL A   1      46.437  33.045  29.716  1.00  0.00     0.173 A 
ATOM     95  F   UNL A   1      45.379  33.257  26.241  1.00  0.00    -0.203 F 
ATOM     96  C   UNL A   1      46.205  34.922  27.686  1.00  0.00     0.198 A 
ATOM     97  C   UNL A   1      46.781  34.373  29.951  1.00  0.00     0.198 A 
ATOM     98  F   UNL A   1      46.564  32.160  30.717  1.00  0.00    -0.203 F 
ATOM     99  F   UNL A   1      46.130  35.818  26.693  1.00  0.00    -0.200 F 
ATOM    100  C   UNL A   1      46.674  35.308  28.933  1.00  0.00     0.200 A 
ATOM    101  F   UNL A   1      47.216  34.746  31.162  1.00  0.00    -0.200 F 
ATOM    102  F   UNL A   1      47.029  36.581  29.153  1.00  0.00    -0.200 F 
ENDBRANCH  69  92
ENDBRANCH  43  44
ENDBRANCH  36  38
ENDBRANCH  35  36
ENDBRANCH  34  35
ENDBRANCH  33  34
ENDBRANCH  32  33
ENDBRANCH   1  32
TORSDOF 19
ENDMDL
