MODEL 1
REMARK VINA RESULT:      -9.9      0.000      0.000
REMARK SMILES C[C@H]1[C@H](C)CC[C@@]2(C(=O)OCCOCCOC(=O)c3ccc(-c4c5nc(c(-c6c(F)c(F)c(F)c(F)c6F)c6ccc([nH]6)c(-c6c(F)c(F)c(F)c(F)c6F)c6nc(c(-c7c(F)c(F)c(F)c(F)c7F)c7ccc4[nH]7)C=C6)C=C5)cc3)CC[C@@]3(C)C(=CC[C@@H]4[C@@]5(C)CC[C@H](O)C(C)(C)[C@@H]5CC[C@]43C)[C@H]12
REMARK SMILES IDX 14 1 13 2 12 3 11 4 10 5 8 6 9 7 7 8 1 9 2 10 3 11 104 12
REMARK SMILES IDX 4 13 5 14 86 15 6 16 82 17 84 18 87 19 83 20 85 21 102 22
REMARK SMILES IDX 88 23 89 24 101 25 103 26 90 27 100 28 91 29 92 30 99 31
REMARK SMILES IDX 93 32 96 33 94 34 97 35 98 36 95 37 15 39 16 40 17 41 18 42
REMARK SMILES IDX 19 43 20 44 81 45 21 46 80 47 22 48 23 49 24 50 74 51 25 52
REMARK SMILES IDX 79 53 73 54 75 55 26 56 78 57 72 58 71 59 27 61 59 62 39 63
REMARK SMILES IDX 58 64 40 65 43 66 57 67 76 68 41 69 42 70 56 72 77 73 44 74
REMARK SMILES IDX 28 75 29 76 37 77 30 78 31 79 35 80 38 81 32 82 33 83 36 84
REMARK SMILES IDX 34 85 60 86 61 87 69 88 62 89 63 90 67 91 70 92 64 93 65 94
REMARK SMILES IDX 68 95 66 96 45 97 46 98 54 99 47 100 48 101 52 102 55 103
REMARK SMILES IDX 49 104 50 105 53 106 51 107
REMARK H PARENT 95 38 75 60 43 71
REMARK Flexibility Score: inf
ROOT
ATOM      1  C   UNL A   1      37.037  33.982  34.724  1.00  0.00     0.202 C 
ENDROOT
BRANCH   1   2
ATOM      2  O   UNL A   1      37.726  34.951  33.955  1.00  0.00    -0.374 OA
BRANCH   2   3
ATOM      3  C   UNL A   1      38.559  34.467  32.913  1.00  0.00     0.202 C 
BRANCH   3   4
ATOM      4  C   UNL A   1      39.408  33.202  33.112  1.00  0.00     0.261 C 
BRANCH   4   5
ATOM      5  O   UNL A   1      40.696  33.439  33.736  1.00  0.00    -0.463 OA
BRANCH   5   6
ATOM      6  C   UNL A   1      40.887  33.311  35.076  1.00  0.00     0.312 C 
ATOM      7  O   UNL A   1      40.330  32.444  35.738  1.00  0.00    -0.252 OA
BRANCH   6   8
ATOM      8  C   UNL A   1      41.879  34.356  35.693  1.00  0.00     0.075 C 
ATOM      9  C   UNL A   1      41.393  33.661  39.561  1.00  0.00     0.008 C 
ATOM     10  C   UNL A   1      41.083  33.966  38.093  1.00  0.00    -0.003 C 
ATOM     11  C   UNL A   1      40.247  35.300  38.014  1.00  0.00    -0.011 C 
ATOM     12  C   UNL A   1      42.366  33.941  37.125  1.00  0.00     0.036 C 
ATOM     13  C   UNL A   1      38.903  35.241  38.764  1.00  0.00     0.008 C 
ATOM     14  C   UNL A   1      39.906  35.714  36.586  1.00  0.00     0.005 C 
ATOM     15  C   UNL A   1      43.263  32.638  36.907  1.00  0.00    -0.063 C 
ATOM     16  C   UNL A   1      41.130  35.714  35.708  1.00  0.00     0.020 C 
ATOM     17  C   UNL A   1      43.098  34.643  34.800  1.00  0.00     0.020 C 
ATOM     18  C   UNL A   1      44.461  32.708  35.868  1.00  0.00    -0.006 C 
ATOM     19  C   UNL A   1      42.872  31.429  37.365  1.00  0.00    -0.027 C 
ATOM     20  C   UNL A   1      44.019  33.466  34.585  1.00  0.00     0.013 C 
ATOM     21  C   UNL A   1      45.600  33.507  36.543  1.00  0.00     0.017 C 
ATOM     22  C   UNL A   1      45.006  31.216  35.406  1.00  0.00    -0.020 C 
ATOM     23  C   UNL A   1      43.142  30.135  36.610  1.00  0.00     0.032 C 
ATOM     24  C   UNL A   1      43.701  30.376  35.170  1.00  0.00     0.006 C 
ATOM     25  C   UNL A   1      45.899  31.216  34.137  1.00  0.00     0.008 C 
ATOM     26  C   UNL A   1      45.907  30.586  36.517  1.00  0.00     0.012 C 
ATOM     27  C   UNL A   1      43.701  29.145  34.129  1.00  0.00    -0.025 C 
ATOM     28  C   UNL A   1      46.124  29.804  33.560  1.00  0.00     0.005 C 
ATOM     29  C   UNL A   1      43.721  27.836  34.936  1.00  0.00     0.012 C 
ATOM     30  C   UNL A   1      42.377  29.156  33.287  1.00  0.00     0.010 C 
ATOM     31  C   UNL A   1      44.800  29.281  33.006  1.00  0.00     0.003 C 
ATOM     32  C   UNL A   1      42.274  28.078  32.199  1.00  0.00     0.033 C 
ATOM     33  C   UNL A   1      44.875  28.080  31.974  1.00  0.00    -0.006 C 
ATOM     34  C   UNL A   1      43.485  27.995  31.266  1.00  0.00     0.120 C 
ATOM     35  C   UNL A   1      45.303  26.726  32.578  1.00  0.00     0.014 C 
ATOM     36  C   UNL A   1      45.925  28.365  30.865  1.00  0.00     0.014 C 
BRANCH  34  37
ATOM     37  O   UNL A   1      43.378  26.823  30.457  1.00  0.00    -0.393 OA
ATOM     38  H   UNL A   1      43.559  27.051  29.532  1.00  0.00     0.210 HD
ENDBRANCH  34  37
ENDBRANCH   6   8
ENDBRANCH   5   6
ENDBRANCH   4   5
ENDBRANCH   3   4
ENDBRANCH   2   3
ENDBRANCH   1   2
BRANCH   1  39
ATOM     39  C   UNL A   1      35.797  33.455  33.991  1.00  0.00     0.261 C 
BRANCH  39  40
ATOM     40  O   UNL A   1      35.932  32.099  33.524  1.00  0.00    -0.460 OA
BRANCH  40  41
ATOM     41  C   UNL A   1      35.510  31.881  32.259  1.00  0.00     0.338 C 
ATOM     42  O   UNL A   1      34.602  32.446  31.657  1.00  0.00    -0.246 OA
BRANCH  41  43
ATOM     43  C   UNL A   1      36.373  30.883  31.610  1.00  0.00     0.060 A 
ATOM     44  C   UNL A   1      37.300  30.175  32.389  1.00  0.00     0.016 A 
ATOM     45  C   UNL A   1      36.367  30.765  30.220  1.00  0.00     0.016 A 
ATOM     46  C   UNL A   1      38.281  29.408  31.773  1.00  0.00     0.010 A 
ATOM     47  C   UNL A   1      37.376  30.031  29.599  1.00  0.00     0.010 A 
ATOM     48  C   UNL A   1      38.368  29.411  30.378  1.00  0.00    -0.014 A 
BRANCH  48  49
ATOM     49  C   UNL A   1      39.650  29.026  29.756  1.00  0.00     0.031 A 
ATOM     50  C   UNL A   1      40.731  30.068  29.684  1.00  0.00     0.074 A 
ATOM     51  C   UNL A   1      39.849  27.772  29.328  1.00  0.00     0.049 A 
ATOM     52  N   UNL A   1      41.913  30.006  29.129  1.00  0.00    -0.248 NA
ATOM     53  C   UNL A   1      40.436  31.363  30.325  1.00  0.00     0.031 C 
ATOM     54  C   UNL A   1      38.882  26.682  29.435  1.00  0.00     0.029 A 
ATOM     55  N   UNL A   1      40.933  27.207  28.711  1.00  0.00    -0.354 N 
ATOM     56  C   UNL A   1      42.493  31.252  29.343  1.00  0.00     0.074 A 
ATOM     57  C   UNL A   1      41.530  32.059  30.055  1.00  0.00     0.031 C 
ATOM     58  C   UNL A   1      39.410  25.578  28.882  1.00  0.00     0.029 A 
ATOM     59  C   UNL A   1      40.730  25.901  28.345  1.00  0.00     0.049 A 
ATOM     60  H   UNL A   1      41.774  27.691  28.546  1.00  0.00     0.167 HD
ATOM     61  C   UNL A   1      43.723  31.676  28.972  1.00  0.00     0.037 A 
ATOM     62  C   UNL A   1      41.519  25.082  27.625  1.00  0.00     0.037 A 
ATOM     63  C   UNL A   1      44.659  30.849  28.260  1.00  0.00     0.049 A 
ATOM     64  C   UNL A   1      42.850  25.605  27.153  1.00  0.00     0.074 A 
ATOM     65  C   UNL A   1      45.935  31.158  27.827  1.00  0.00     0.029 A 
ATOM     66  N   UNL A   1      44.409  29.539  27.871  1.00  0.00    -0.354 N 
ATOM     67  N   UNL A   1      43.396  26.782  27.349  1.00  0.00    -0.248 NA
ATOM     68  C   UNL A   1      43.676  24.684  26.363  1.00  0.00     0.031 C 
ATOM     69  C   UNL A   1      46.431  30.056  27.123  1.00  0.00     0.029 A 
ATOM     70  C   UNL A   1      45.494  29.035  27.178  1.00  0.00     0.049 A 
ATOM     71  H   UNL A   1      43.579  29.042  28.061  1.00  0.00     0.167 HD
ATOM     72  C   UNL A   1      44.639  26.737  26.733  1.00  0.00     0.074 A 
ATOM     73  C   UNL A   1      44.771  25.406  26.172  1.00  0.00     0.031 C 
ATOM     74  C   UNL A   1      45.589  27.701  26.637  1.00  0.00     0.037 A 
BRANCH  61  75
ATOM     75  C   UNL A   1      44.099  33.096  29.286  1.00  0.00     0.064 A 
ATOM     76  C   UNL A   1      43.906  34.141  28.368  1.00  0.00     0.173 A 
ATOM     77  C   UNL A   1      44.649  33.422  30.536  1.00  0.00     0.173 A 
ATOM     78  F   UNL A   1      43.402  33.885  27.152  1.00  0.00    -0.203 F 
ATOM     79  C   UNL A   1      44.269  35.449  28.682  1.00  0.00     0.198 A 
ATOM     80  C   UNL A   1      44.981  34.734  30.858  1.00  0.00     0.198 A 
ATOM     81  F   UNL A   1      44.860  32.463  31.452  1.00  0.00    -0.203 F 
ATOM     82  F   UNL A   1      44.120  36.421  27.771  1.00  0.00    -0.200 F 
ATOM     83  C   UNL A   1      44.799  35.747  29.929  1.00  0.00     0.200 A 
ATOM     84  F   UNL A   1      45.481  35.021  32.069  1.00  0.00    -0.200 F 
ATOM     85  F   UNL A   1      45.139  37.007  30.232  1.00  0.00    -0.200 F 
ENDBRANCH  61  75
BRANCH  62  86
ATOM     86  C   UNL A   1      41.057  23.709  27.294  1.00  0.00     0.064 A 
ATOM     87  C   UNL A   1      41.687  22.580  27.834  1.00  0.00     0.173 A 
ATOM     88  C   UNL A   1      39.974  23.496  26.428  1.00  0.00     0.173 A 
ATOM     89  F   UNL A   1      42.738  22.729  28.654  1.00  0.00    -0.203 F 
ATOM     90  C   UNL A   1      41.265  21.293  27.508  1.00  0.00     0.198 A 
ATOM     91  C   UNL A   1      39.530  22.210  26.127  1.00  0.00     0.198 A 
ATOM     92  F   UNL A   1      39.330  24.540  25.885  1.00  0.00    -0.203 F 
ATOM     93  F   UNL A   1      41.915  20.231  28.003  1.00  0.00    -0.200 F 
ATOM     94  C   UNL A   1      40.183  21.108  26.660  1.00  0.00     0.200 A 
ATOM     95  F   UNL A   1      38.473  22.038  25.322  1.00  0.00    -0.200 F 
ATOM     96  F   UNL A   1      39.772  19.871  26.351  1.00  0.00    -0.200 F 
ENDBRANCH  62  86
BRANCH  74  97
ATOM     97  C   UNL A   1      46.864  27.332  25.935  1.00  0.00     0.064 A 
ATOM     98  C   UNL A   1      47.060  27.597  24.572  1.00  0.00     0.173 A 
ATOM     99  C   UNL A   1      47.915  26.735  26.649  1.00  0.00     0.173 A 
ATOM    100  F   UNL A   1      46.081  28.153  23.844  1.00  0.00    -0.203 F 
ATOM    101  C   UNL A   1      48.249  27.242  23.941  1.00  0.00     0.198 A 
ATOM    102  C   UNL A   1      49.116  26.419  26.023  1.00  0.00     0.198 A 
ATOM    103  F   UNL A   1      47.782  26.472  27.958  1.00  0.00    -0.203 F 
ATOM    104  F   UNL A   1      48.392  27.447  22.624  1.00  0.00    -0.200 F 
ATOM    105  C   UNL A   1      49.278  26.662  24.668  1.00  0.00     0.200 A 
ATOM    106  F   UNL A   1      50.116  25.876  26.731  1.00  0.00    -0.200 F 
ATOM    107  F   UNL A   1      50.424  26.328  24.059  1.00  0.00    -0.200 F 
ENDBRANCH  74  97
ENDBRANCH  48  49
ENDBRANCH  41  43
ENDBRANCH  40  41
ENDBRANCH  39  40
ENDBRANCH   1  39
TORSDOF 15
ENDMDL
MODEL 2
REMARK VINA RESULT:      -9.7      3.869     10.962
REMARK SMILES C[C@H]1[C@H](C)CC[C@@]2(C(=O)OCCOCCOC(=O)c3ccc(-c4c5nc(c(-c6c(F)c(F)c(F)c(F)c6F)c6ccc([nH]6)c(-c6c(F)c(F)c(F)c(F)c6F)c6nc(c(-c7c(F)c(F)c(F)c(F)c7F)c7ccc4[nH]7)C=C6)C=C5)cc3)CC[C@@]3(C)C(=CC[C@@H]4[C@@]5(C)CC[C@H](O)C(C)(C)[C@@H]5CC[C@]43C)[C@H]12
REMARK SMILES IDX 14 1 13 2 12 3 11 4 10 5 8 6 9 7 7 8 1 9 2 10 3 11 104 12
REMARK SMILES IDX 4 13 5 14 86 15 6 16 82 17 84 18 87 19 83 20 85 21 102 22
REMARK SMILES IDX 88 23 89 24 101 25 103 26 90 27 100 28 91 29 92 30 99 31
REMARK SMILES IDX 93 32 96 33 94 34 97 35 98 36 95 37 15 39 16 40 17 41 18 42
REMARK SMILES IDX 19 43 20 44 81 45 21 46 80 47 22 48 23 49 24 50 74 51 25 52
REMARK SMILES IDX 79 53 73 54 75 55 26 56 78 57 72 58 71 59 27 61 59 62 39 63
REMARK SMILES IDX 58 64 40 65 43 66 57 67 76 68 41 69 42 70 56 72 77 73 44 74
REMARK SMILES IDX 28 75 29 76 37 77 30 78 31 79 35 80 38 81 32 82 33 83 36 84
REMARK SMILES IDX 34 85 60 86 61 87 69 88 62 89 63 90 67 91 70 92 64 93 65 94
REMARK SMILES IDX 68 95 66 96 45 97 46 98 54 99 47 100 48 101 52 102 55 103
REMARK SMILES IDX 49 104 50 105 53 106 51 107
REMARK H PARENT 95 38 75 60 43 71
REMARK Flexibility Score: inf
ROOT
ATOM      1  C   UNL A   1      46.124  23.425  25.985  1.00  0.00     0.202 C 
ENDROOT
BRANCH   1   2
ATOM      2  O   UNL A   1      46.277  24.711  26.560  1.00  0.00    -0.374 OA
BRANCH   2   3
ATOM      3  C   UNL A   1      45.694  24.912  27.838  1.00  0.00     0.202 C 
BRANCH   3   4
ATOM      4  C   UNL A   1      46.570  25.236  29.058  1.00  0.00     0.261 C 
BRANCH   4   5
ATOM      5  O   UNL A   1      46.981  26.624  29.146  1.00  0.00    -0.463 OA
BRANCH   5   6
ATOM      6  C   UNL A   1      48.013  27.124  28.415  1.00  0.00     0.312 C 
ATOM      7  O   UNL A   1      47.882  27.463  27.245  1.00  0.00    -0.252 OA
BRANCH   6   8
ATOM      8  C   UNL A   1      49.369  27.233  29.192  1.00  0.00     0.075 C 
ATOM      9  C   UNL A   1      51.778  28.524  26.327  1.00  0.00     0.008 C 
ATOM     10  C   UNL A   1      50.751  27.680  27.086  1.00  0.00    -0.003 C 
ATOM     11  C   UNL A   1      51.239  26.181  27.110  1.00  0.00    -0.011 C 
ATOM     12  C   UNL A   1      50.353  28.260  28.531  1.00  0.00     0.036 C 
ATOM     13  C   UNL A   1      51.405  25.555  25.712  1.00  0.00     0.008 C 
ATOM     14  C   UNL A   1      50.297  25.253  27.871  1.00  0.00     0.005 C 
ATOM     15  C   UNL A   1      49.674  29.691  28.735  1.00  0.00    -0.063 C 
ATOM     16  C   UNL A   1      49.966  25.803  29.233  1.00  0.00     0.020 C 
ATOM     17  C   UNL A   1      49.194  27.577  30.682  1.00  0.00     0.020 C 
ATOM     18  C   UNL A   1      49.253  30.128  30.202  1.00  0.00    -0.006 C 
ATOM     19  C   UNL A   1      49.208  30.405  27.687  1.00  0.00    -0.027 C 
ATOM     20  C   UNL A   1      48.596  28.937  30.953  1.00  0.00     0.013 C 
ATOM     21  C   UNL A   1      50.551  30.522  30.947  1.00  0.00     0.017 C 
ATOM     22  C   UNL A   1      48.180  31.387  30.221  1.00  0.00    -0.020 C 
ATOM     23  C   UNL A   1      47.951  31.259  27.766  1.00  0.00     0.032 C 
ATOM     24  C   UNL A   1      47.148  31.040  29.090  1.00  0.00     0.006 C 
ATOM     25  C   UNL A   1      47.460  31.605  31.577  1.00  0.00     0.008 C 
ATOM     26  C   UNL A   1      48.908  32.742  29.944  1.00  0.00     0.012 C 
ATOM     27  C   UNL A   1      45.635  31.590  29.172  1.00  0.00    -0.025 C 
ATOM     28  C   UNL A   1      46.257  32.563  31.473  1.00  0.00     0.005 C 
ATOM     29  C   UNL A   1      45.490  32.745  28.167  1.00  0.00     0.012 C 
ATOM     30  C   UNL A   1      44.632  30.463  28.736  1.00  0.00     0.010 C 
ATOM     31  C   UNL A   1      45.162  31.891  30.645  1.00  0.00     0.003 C 
ATOM     32  C   UNL A   1      43.144  30.826  28.837  1.00  0.00     0.033 C 
ATOM     33  C   UNL A   1      43.693  32.472  30.787  1.00  0.00    -0.006 C 
ATOM     34  C   UNL A   1      42.719  31.408  30.188  1.00  0.00     0.120 C 
ATOM     35  C   UNL A   1      43.481  33.869  30.167  1.00  0.00     0.014 C 
ATOM     36  C   UNL A   1      43.305  32.643  32.282  1.00  0.00     0.014 C 
BRANCH  34  37
ATOM     37  O   UNL A   1      41.387  31.914  30.085  1.00  0.00    -0.393 OA
ATOM     38  H   UNL A   1      40.757  31.179  30.139  1.00  0.00     0.210 HD
ENDBRANCH  34  37
ENDBRANCH   6   8
ENDBRANCH   5   6
ENDBRANCH   4   5
ENDBRANCH   3   4
ENDBRANCH   2   3
ENDBRANCH   1   2
BRANCH   1  39
ATOM     39  C   UNL A   1      45.421  23.495  24.624  1.00  0.00     0.261 C 
BRANCH  39  40
ATOM     40  O   UNL A   1      44.327  24.432  24.583  1.00  0.00    -0.460 OA
BRANCH  40  41
ATOM     41  C   UNL A   1      43.142  23.953  25.020  1.00  0.00     0.338 C 
ATOM     42  O   UNL A   1      42.732  22.797  24.982  1.00  0.00    -0.246 OA
BRANCH  41  43
ATOM     43  C   UNL A   1      42.378  25.029  25.668  1.00  0.00     0.060 A 
ATOM     44  C   UNL A   1      42.913  26.326  25.693  1.00  0.00     0.016 A 
ATOM     45  C   UNL A   1      41.216  24.720  26.378  1.00  0.00     0.016 A 
ATOM     46  C   UNL A   1      42.334  27.300  26.495  1.00  0.00     0.010 A 
ATOM     47  C   UNL A   1      40.660  25.684  27.216  1.00  0.00     0.010 A 
ATOM     48  C   UNL A   1      41.263  26.950  27.321  1.00  0.00    -0.014 A 
BRANCH  48  49
ATOM     49  C   UNL A   1      40.975  27.801  28.493  1.00  0.00     0.031 A 
ATOM     50  C   UNL A   1      41.871  27.662  29.692  1.00  0.00     0.074 A 
ATOM     51  C   UNL A   1      39.982  28.701  28.453  1.00  0.00     0.049 A 
ATOM     52  N   UNL A   1      41.792  28.238  30.862  1.00  0.00    -0.248 NA
ATOM     53  C   UNL A   1      43.016  26.744  29.551  1.00  0.00     0.031 C 
ATOM     54  C   UNL A   1      39.120  28.953  27.301  1.00  0.00     0.029 A 
ATOM     55  N   UNL A   1      39.531  29.565  29.414  1.00  0.00    -0.354 N 
ATOM     56  C   UNL A   1      42.863  27.742  31.597  1.00  0.00     0.074 A 
ATOM     57  C   UNL A   1      43.566  26.803  30.754  1.00  0.00     0.031 C 
ATOM     58  C   UNL A   1      38.225  29.900  27.629  1.00  0.00     0.029 A 
ATOM     59  C   UNL A   1      38.429  30.282  29.024  1.00  0.00     0.049 A 
ATOM     60  H   UNL A   1      39.955  29.662  30.296  1.00  0.00     0.167 HD
ATOM     61  C   UNL A   1      43.221  28.050  32.865  1.00  0.00     0.037 A 
ATOM     62  C   UNL A   1      37.658  31.123  29.739  1.00  0.00     0.037 A 
ATOM     63  C   UNL A   1      42.499  28.988  33.681  1.00  0.00     0.049 A 
ATOM     64  C   UNL A   1      38.030  31.386  31.175  1.00  0.00     0.074 A 
ATOM     65  C   UNL A   1      42.757  29.387  34.979  1.00  0.00     0.029 A 
ATOM     66  N   UNL A   1      41.362  29.672  33.269  1.00  0.00    -0.354 N 
ATOM     67  N   UNL A   1      39.038  30.916  31.871  1.00  0.00    -0.248 NA
ATOM     68  C   UNL A   1      37.160  32.301  31.923  1.00  0.00     0.031 C 
ATOM     69  C   UNL A   1      41.741  30.265  35.372  1.00  0.00     0.029 A 
ATOM     70  C   UNL A   1      40.889  30.468  34.296  1.00  0.00     0.049 A 
ATOM     71  H   UNL A   1      40.952  29.599  32.375  1.00  0.00     0.167 HD
ATOM     72  C   UNL A   1      38.942  31.496  33.128  1.00  0.00     0.074 A 
ATOM     73  C   UNL A   1      37.785  32.368  33.090  1.00  0.00     0.031 C 
ATOM     74  C   UNL A   1      39.734  31.327  34.218  1.00  0.00     0.037 A 
BRANCH  61  75
ATOM     75  C   UNL A   1      44.406  27.337  33.451  1.00  0.00     0.064 A 
ATOM     76  C   UNL A   1      45.702  27.876  33.403  1.00  0.00     0.173 A 
ATOM     77  C   UNL A   1      44.241  26.098  34.089  1.00  0.00     0.173 A 
ATOM     78  F   UNL A   1      45.923  29.048  32.789  1.00  0.00    -0.203 F 
ATOM     79  C   UNL A   1      46.785  27.191  33.950  1.00  0.00     0.198 A 
ATOM     80  C   UNL A   1      45.320  25.432  34.662  1.00  0.00     0.198 A 
ATOM     81  F   UNL A   1      43.025  25.532  34.162  1.00  0.00    -0.203 F 
ATOM     82  F   UNL A   1      48.020  27.703  33.848  1.00  0.00    -0.200 F 
ATOM     83  C   UNL A   1      46.593  25.974  34.585  1.00  0.00     0.200 A 
ATOM     84  F   UNL A   1      45.129  24.260  35.286  1.00  0.00    -0.200 F 
ATOM     85  F   UNL A   1      47.635  25.321  35.118  1.00  0.00    -0.200 F 
ENDBRANCH  61  75
BRANCH  62  86
ATOM     86  C   UNL A   1      36.461  31.745  29.116  1.00  0.00     0.064 A 
ATOM     87  C   UNL A   1      35.343  30.976  28.764  1.00  0.00     0.173 A 
ATOM     88  C   UNL A   1      36.409  33.123  28.859  1.00  0.00     0.173 A 
ATOM     89  F   UNL A   1      35.350  29.652  28.973  1.00  0.00    -0.203 F 
ATOM     90  C   UNL A   1      34.229  31.558  28.162  1.00  0.00     0.198 A 
ATOM     91  C   UNL A   1      35.282  33.710  28.288  1.00  0.00     0.198 A 
ATOM     92  F   UNL A   1      37.449  33.907  29.180  1.00  0.00    -0.203 F 
ATOM     93  F   UNL A   1      33.193  30.793  27.794  1.00  0.00    -0.200 F 
ATOM     94  C   UNL A   1      34.196  32.925  27.931  1.00  0.00     0.200 A 
ATOM     95  F   UNL A   1      35.248  35.034  28.084  1.00  0.00    -0.200 F 
ATOM     96  F   UNL A   1      33.122  33.486  27.359  1.00  0.00    -0.200 F 
ENDBRANCH  62  86
BRANCH  74  97
ATOM     97  C   UNL A   1      39.393  32.137  35.436  1.00  0.00     0.064 A 
ATOM     98  C   UNL A   1      38.555  31.638  36.443  1.00  0.00     0.173 A 
ATOM     99  C   UNL A   1      39.944  33.416  35.609  1.00  0.00     0.173 A 
ATOM    100  F   UNL A   1      37.994  30.426  36.317  1.00  0.00    -0.203 F 
ATOM    101  C   UNL A   1      38.250  32.407  37.563  1.00  0.00     0.198 A 
ATOM    102  C   UNL A   1      39.669  34.165  36.749  1.00  0.00     0.198 A 
ATOM    103  F   UNL A   1      40.762  33.934  34.680  1.00  0.00    -0.203 F 
ATOM    104  F   UNL A   1      37.397  31.936  38.483  1.00  0.00    -0.200 F 
ATOM    105  C   UNL A   1      38.813  33.665  37.718  1.00  0.00     0.200 A 
ATOM    106  F   UNL A   1      40.228  35.373  36.906  1.00  0.00    -0.200 F 
ATOM    107  F   UNL A   1      38.523  34.401  38.800  1.00  0.00    -0.200 F 
ENDBRANCH  74  97
ENDBRANCH  48  49
ENDBRANCH  41  43
ENDBRANCH  40  41
ENDBRANCH  39  40
ENDBRANCH   1  39
TORSDOF 15
ENDMDL
MODEL 3
REMARK VINA RESULT:      -9.0      4.337     11.473
REMARK SMILES C[C@H]1[C@H](C)CC[C@@]2(C(=O)OCCOCCOC(=O)c3ccc(-c4c5nc(c(-c6c(F)c(F)c(F)c(F)c6F)c6ccc([nH]6)c(-c6c(F)c(F)c(F)c(F)c6F)c6nc(c(-c7c(F)c(F)c(F)c(F)c7F)c7ccc4[nH]7)C=C6)C=C5)cc3)CC[C@@]3(C)C(=CC[C@@H]4[C@@]5(C)CC[C@H](O)C(C)(C)[C@@H]5CC[C@]43C)[C@H]12
REMARK SMILES IDX 14 1 13 2 12 3 11 4 10 5 8 6 9 7 7 8 1 9 2 10 3 11 104 12
REMARK SMILES IDX 4 13 5 14 86 15 6 16 82 17 84 18 87 19 83 20 85 21 102 22
REMARK SMILES IDX 88 23 89 24 101 25 103 26 90 27 100 28 91 29 92 30 99 31
REMARK SMILES IDX 93 32 96 33 94 34 97 35 98 36 95 37 15 39 16 40 17 41 18 42
REMARK SMILES IDX 19 43 20 44 81 45 21 46 80 47 22 48 23 49 24 50 74 51 25 52
REMARK SMILES IDX 79 53 73 54 75 55 26 56 78 57 72 58 71 59 27 61 59 62 39 63
REMARK SMILES IDX 58 64 40 65 43 66 57 67 76 68 41 69 42 70 56 72 77 73 44 74
REMARK SMILES IDX 28 75 29 76 37 77 30 78 31 79 35 80 38 81 32 82 33 83 36 84
REMARK SMILES IDX 34 85 60 86 61 87 69 88 62 89 63 90 67 91 70 92 64 93 65 94
REMARK SMILES IDX 68 95 66 96 45 97 46 98 54 99 47 100 48 101 52 102 55 103
REMARK SMILES IDX 49 104 50 105 53 106 51 107
REMARK H PARENT 95 38 75 60 43 71
REMARK Flexibility Score: inf
ROOT
ATOM      1  C   UNL A   1      46.764  24.589  25.406  1.00  0.00     0.202 C 
ENDROOT
BRANCH   1   2
ATOM      2  O   UNL A   1      46.611  25.997  25.431  1.00  0.00    -0.374 OA
BRANCH   2   3
ATOM      3  C   UNL A   1      47.257  26.728  24.401  1.00  0.00     0.202 C 
BRANCH   3   4
ATOM      4  C   UNL A   1      48.711  27.199  24.566  1.00  0.00     0.261 C 
BRANCH   4   5
ATOM      5  O   UNL A   1      49.023  27.721  25.882  1.00  0.00    -0.463 OA
BRANCH   5   6
ATOM      6  C   UNL A   1      50.267  27.627  26.424  1.00  0.00     0.312 C 
ATOM      7  O   UNL A   1      51.168  28.405  26.134  1.00  0.00    -0.252 OA
BRANCH   6   8
ATOM      8  C   UNL A   1      50.444  26.453  27.446  1.00  0.00     0.075 C 
ATOM      9  C   UNL A   1      53.792  27.533  29.264  1.00  0.00     0.008 C 
ATOM     10  C   UNL A   1      52.789  27.184  28.161  1.00  0.00    -0.003 C 
ATOM     11  C   UNL A   1      53.400  26.048  27.255  1.00  0.00    -0.011 C 
ATOM     12  C   UNL A   1      51.304  26.870  28.690  1.00  0.00     0.036 C 
ATOM     13  C   UNL A   1      54.721  26.440  26.566  1.00  0.00     0.008 C 
ATOM     14  C   UNL A   1      52.465  25.603  26.134  1.00  0.00     0.005 C 
ATOM     15  C   UNL A   1      50.419  27.940  29.478  1.00  0.00    -0.063 C 
ATOM     16  C   UNL A   1      51.091  25.283  26.661  1.00  0.00     0.020 C 
ATOM     17  C   UNL A   1      49.110  25.852  27.924  1.00  0.00     0.020 C 
ATOM     18  C   UNL A   1      48.936  27.545  29.886  1.00  0.00    -0.006 C 
ATOM     19  C   UNL A   1      50.791  29.236  29.564  1.00  0.00    -0.027 C 
ATOM     20  C   UNL A   1      48.237  26.795  28.718  1.00  0.00     0.013 C 
ATOM     21  C   UNL A   1      49.039  26.583  31.094  1.00  0.00     0.017 C 
ATOM     22  C   UNL A   1      48.000  28.851  30.274  1.00  0.00    -0.020 C 
ATOM     23  C   UNL A   1      49.791  30.383  29.539  1.00  0.00     0.032 C 
ATOM     24  C   UNL A   1      48.342  29.920  29.177  1.00  0.00     0.006 C 
ATOM     25  C   UNL A   1      46.475  28.569  30.313  1.00  0.00     0.008 C 
ATOM     26  C   UNL A   1      48.338  29.368  31.711  1.00  0.00     0.012 C 
ATOM     27  C   UNL A   1      47.259  31.040  28.764  1.00  0.00    -0.025 C 
ATOM     28  C   UNL A   1      45.626  29.855  30.364  1.00  0.00     0.005 C 
ATOM     29  C   UNL A   1      47.687  32.376  29.393  1.00  0.00     0.012 C 
ATOM     30  C   UNL A   1      47.258  31.235  27.207  1.00  0.00     0.010 C 
ATOM     31  C   UNL A   1      45.770  30.594  29.035  1.00  0.00     0.003 C 
ATOM     32  C   UNL A   1      46.216  32.223  26.663  1.00  0.00     0.033 C 
ATOM     33  C   UNL A   1      44.659  31.669  28.684  1.00  0.00    -0.006 C 
ATOM     34  C   UNL A   1      44.788  31.982  27.159  1.00  0.00     0.120 C 
ATOM     35  C   UNL A   1      44.696  32.950  29.546  1.00  0.00     0.014 C 
ATOM     36  C   UNL A   1      43.235  31.089  28.904  1.00  0.00     0.014 C 
BRANCH  34  37
ATOM     37  O   UNL A   1      43.964  33.084  26.777  1.00  0.00    -0.393 OA
ATOM     38  H   UNL A   1      43.317  32.791  26.117  1.00  0.00     0.210 HD
ENDBRANCH  34  37
ENDBRANCH   6   8
ENDBRANCH   5   6
ENDBRANCH   4   5
ENDBRANCH   3   4
ENDBRANCH   2   3
ENDBRANCH   1   2
BRANCH   1  39
ATOM     39  C   UNL A   1      45.482  23.889  24.938  1.00  0.00     0.261 C 
BRANCH  39  40
ATOM     40  O   UNL A   1      44.362  24.780  24.772  1.00  0.00    -0.460 OA
BRANCH  40  41
ATOM     41  C   UNL A   1      43.169  24.286  25.169  1.00  0.00     0.338 C 
ATOM     42  O   UNL A   1      42.765  23.130  25.091  1.00  0.00    -0.246 OA
BRANCH  41  43
ATOM     43  C   UNL A   1      42.386  25.342  25.828  1.00  0.00     0.060 A 
ATOM     44  C   UNL A   1      42.924  26.635  25.915  1.00  0.00     0.016 A 
ATOM     45  C   UNL A   1      41.201  25.014  26.487  1.00  0.00     0.016 A 
ATOM     46  C   UNL A   1      42.321  27.584  26.730  1.00  0.00     0.010 A 
ATOM     47  C   UNL A   1      40.619  25.951  27.339  1.00  0.00     0.010 A 
ATOM     48  C   UNL A   1      41.221  27.210  27.507  1.00  0.00    -0.014 A 
BRANCH  48  49
ATOM     49  C   UNL A   1      40.897  28.021  28.697  1.00  0.00     0.031 A 
ATOM     50  C   UNL A   1      41.746  27.832  29.923  1.00  0.00     0.074 A 
ATOM     51  C   UNL A   1      39.913  28.931  28.653  1.00  0.00     0.049 A 
ATOM     52  N   UNL A   1      41.628  28.367  31.110  1.00  0.00    -0.248 NA
ATOM     53  C   UNL A   1      42.889  26.909  29.792  1.00  0.00     0.031 C 
ATOM     54  C   UNL A   1      39.096  29.231  27.480  1.00  0.00     0.029 A 
ATOM     55  N   UNL A   1      39.433  29.765  29.627  1.00  0.00    -0.354 N 
ATOM     56  C   UNL A   1      42.667  27.835  31.866  1.00  0.00     0.074 A 
ATOM     57  C   UNL A   1      43.394  26.921  31.016  1.00  0.00     0.031 C 
ATOM     58  C   UNL A   1      38.198  30.174  27.808  1.00  0.00     0.029 A 
ATOM     59  C   UNL A   1      38.352  30.504  29.223  1.00  0.00     0.049 A 
ATOM     60  H   UNL A   1      39.825  29.826  30.528  1.00  0.00     0.167 HD
ATOM     61  C   UNL A   1      42.980  28.095  33.156  1.00  0.00     0.037 A 
ATOM     62  C   UNL A   1      37.562  31.327  29.938  1.00  0.00     0.037 A 
ATOM     63  C   UNL A   1      42.235  29.010  33.978  1.00  0.00     0.049 A 
ATOM     64  C   UNL A   1      37.881  31.536  31.396  1.00  0.00     0.074 A 
ATOM     65  C   UNL A   1      42.447  29.360  35.298  1.00  0.00     0.029 A 
ATOM     66  N   UNL A   1      41.120  29.718  33.548  1.00  0.00    -0.354 N 
ATOM     67  N   UNL A   1      38.859  31.032  32.111  1.00  0.00    -0.248 NA
ATOM     68  C   UNL A   1      36.992  32.431  32.143  1.00  0.00     0.031 C 
ATOM     69  C   UNL A   1      41.425  30.233  35.684  1.00  0.00     0.029 A 
ATOM     70  C   UNL A   1      40.615  30.482  34.585  1.00  0.00     0.049 A 
ATOM     71  H   UNL A   1      40.743  29.681  32.638  1.00  0.00     0.167 HD
ATOM     72  C   UNL A   1      38.721  31.567  33.384  1.00  0.00     0.074 A 
ATOM     73  C   UNL A   1      37.573  32.451  33.334  1.00  0.00     0.031 C 
ATOM     74  C   UNL A   1      39.470  31.354  34.495  1.00  0.00     0.037 A 
BRANCH  61  75
ATOM     75  C   UNL A   1      44.137  27.351  33.760  1.00  0.00     0.064 A 
ATOM     76  C   UNL A   1      44.017  26.031  34.222  1.00  0.00     0.173 A 
ATOM     77  C   UNL A   1      45.395  27.965  33.864  1.00  0.00     0.173 A 
ATOM     78  F   UNL A   1      42.833  25.401  34.166  1.00  0.00    -0.203 F 
ATOM     79  C   UNL A   1      45.104  25.365  34.785  1.00  0.00     0.198 A 
ATOM     80  C   UNL A   1      46.487  27.285  34.397  1.00  0.00     0.198 A 
ATOM     81  F   UNL A   1      45.569  29.227  33.442  1.00  0.00    -0.203 F 
ATOM     82  F   UNL A   1      44.952  24.122  35.264  1.00  0.00    -0.200 F 
ATOM     83  C   UNL A   1      46.340  25.989  34.864  1.00  0.00     0.200 A 
ATOM     84  F   UNL A   1      47.683  27.887  34.462  1.00  0.00    -0.200 F 
ATOM     85  F   UNL A   1      47.386  25.343  35.397  1.00  0.00    -0.200 F 
ENDBRANCH  61  75
BRANCH  62  86
ATOM     86  C   UNL A   1      36.393  31.981  29.294  1.00  0.00     0.064 A 
ATOM     87  C   UNL A   1      36.389  33.356  29.022  1.00  0.00     0.173 A 
ATOM     88  C   UNL A   1      35.255  31.244  28.935  1.00  0.00     0.173 A 
ATOM     89  F   UNL A   1      37.446  34.108  29.361  1.00  0.00    -0.203 F 
ATOM     90  C   UNL A   1      35.285  33.971  28.435  1.00  0.00     0.198 A 
ATOM     91  C   UNL A   1      34.164  31.853  28.318  1.00  0.00     0.198 A 
ATOM     92  F   UNL A   1      35.206  29.924  29.168  1.00  0.00    -0.203 F 
ATOM     93  F   UNL A   1      35.290  35.294  28.228  1.00  0.00    -0.200 F 
ATOM     94  C   UNL A   1      34.176  33.219  28.078  1.00  0.00     0.200 A 
ATOM     95  F   UNL A   1      33.103  31.118  27.958  1.00  0.00    -0.200 F 
ATOM     96  F   UNL A   1      33.117  33.809  27.506  1.00  0.00    -0.200 F 
ENDBRANCH  62  86
BRANCH  74  97
ATOM     97  C   UNL A   1      39.091  32.122  35.728  1.00  0.00     0.064 A 
ATOM     98  C   UNL A   1      38.269  31.569  36.720  1.00  0.00     0.173 A 
ATOM     99  C   UNL A   1      39.588  33.419  35.932  1.00  0.00     0.173 A 
ATOM    100  F   UNL A   1      37.758  30.338  36.565  1.00  0.00    -0.203 F 
ATOM    101  C   UNL A   1      37.926  32.301  37.853  1.00  0.00     0.198 A 
ATOM    102  C   UNL A   1      39.276  34.132  37.085  1.00  0.00     0.198 A 
ATOM    103  F   UNL A   1      40.389  33.989  35.019  1.00  0.00    -0.203 F 
ATOM    104  F   UNL A   1      37.088  31.776  38.758  1.00  0.00    -0.200 F 
ATOM    105  C   UNL A   1      38.437  33.577  38.039  1.00  0.00     0.200 A 
ATOM    106  F   UNL A   1      39.785  35.357  37.271  1.00  0.00    -0.200 F 
ATOM    107  F   UNL A   1      38.112  34.277  39.134  1.00  0.00    -0.200 F 
ENDBRANCH  74  97
ENDBRANCH  48  49
ENDBRANCH  41  43
ENDBRANCH  40  41
ENDBRANCH  39  40
ENDBRANCH   1  39
TORSDOF 15
ENDMDL
