MODEL 1
REMARK VINA RESULT:     -11.8      0.000      0.000
REMARK SMILES Cc1ccc([C@@H](Cc2cccs2)C(=O)OCCOCCOC(=O)c2ccc(-c3c4nc(c(-c5c(F)c(F)c(F)c(F)c5F)c5ccc([nH]5)c(-c5c(F)c(F)c(F)c(F)c5F)c5nc(c(-c6c(F)c(F)c(F)c(F)c6F)c6ccc3[nH]6)C=C5)C=C4)cc2)cc1
REMARK SMILES IDX 18 1 17 2 16 3 15 4 13 5 14 6 6 7 5 8 1 9 2 10 3 11 88 12
REMARK SMILES IDX 4 13 87 14 7 15 8 16 9 17 12 18 10 19 11 20 19 21 20 22
REMARK SMILES IDX 21 23 22 24 23 25 24 26 25 27 86 28 26 29 85 30 27 31 28 32
REMARK SMILES IDX 29 33 79 34 30 35 84 36 78 37 80 38 31 39 83 40 77 41 76 42
REMARK SMILES IDX 32 44 64 45 44 46 63 47 45 48 48 49 62 50 81 51 46 52 47 53
REMARK SMILES IDX 61 55 82 56 49 57 33 58 34 59 42 60 35 61 36 62 40 63 43 64
REMARK SMILES IDX 37 65 38 66 41 67 39 68 65 69 66 70 74 71 67 72 68 73 72 74
REMARK SMILES IDX 75 75 69 76 70 77 73 78 71 79 50 80 51 81 59 82 52 83 53 84
REMARK SMILES IDX 57 85 60 86 54 87 55 88 58 89 56 90
REMARK H PARENT 80 43 48 54
REMARK Flexibility Score: inf
ROOT
ATOM      1  O   UNL A   1      32.778  29.644  24.981  1.00  0.00    -0.374 OA
ENDROOT
BRANCH   1   2
ATOM      2  C   UNL A   1      33.375  28.939  23.909  1.00  0.00     0.202 C 
BRANCH   2   3
ATOM      3  C   UNL A   1      32.374  27.955  23.376  1.00  0.00     0.261 C 
BRANCH   3   4
ATOM      4  O   UNL A   1      32.709  26.594  23.580  1.00  0.00    -0.463 OA
BRANCH   4   5
ATOM      5  C   UNL A   1      33.379  25.963  22.582  1.00  0.00     0.313 C 
ATOM      6  O   UNL A   1      33.906  26.520  21.629  1.00  0.00    -0.252 OA
BRANCH   5   7
ATOM      7  C   UNL A   1      33.379  24.458  22.831  1.00  0.00     0.134 C 
BRANCH   7   8
ATOM      8  C   UNL A   1      34.587  23.976  23.657  1.00  0.00    -0.033 A 
ATOM      9  C   UNL A   1      38.208  22.869  25.754  1.00  0.00     0.044 C 
ATOM     10  C   UNL A   1      36.903  23.196  25.101  1.00  0.00    -0.051 A 
ATOM     11  C   UNL A   1      36.656  22.662  23.848  1.00  0.00     0.004 A 
ATOM     12  C   UNL A   1      35.967  24.078  25.658  1.00  0.00     0.004 A 
ATOM     13  C   UNL A   1      35.534  23.069  23.145  1.00  0.00     0.005 A 
ATOM     14  C   UNL A   1      34.814  24.456  24.949  1.00  0.00     0.005 A 
ENDBRANCH   7   8
BRANCH   7  15
ATOM     15  C   UNL A   1      31.998  23.995  23.364  1.00  0.00     0.066 C 
BRANCH  15  16
ATOM     16  C   UNL A   1      31.956  22.533  23.735  1.00  0.00     0.006 A 
ATOM     17  C   UNL A   1      32.136  21.436  22.911  1.00  0.00     0.015 A 
ATOM     18  S   UNL A   1      31.771  22.039  25.366  1.00  0.00    -0.149 S 
ATOM     19  C   UNL A   1      32.534  20.287  23.658  1.00  0.00     0.012 A 
ATOM     20  C   UNL A   1      32.414  20.494  25.012  1.00  0.00     0.065 A 
ENDBRANCH  15  16
ENDBRANCH   7  15
ENDBRANCH   5   7
ENDBRANCH   4   5
ENDBRANCH   3   4
ENDBRANCH   2   3
ENDBRANCH   1   2
BRANCH   1  21
ATOM     21  C   UNL A   1      33.396  29.436  26.244  1.00  0.00     0.202 C 
BRANCH  21  22
ATOM     22  C   UNL A   1      33.297  30.629  27.214  1.00  0.00     0.261 C 
BRANCH  22  23
ATOM     23  O   UNL A   1      34.551  31.349  27.235  1.00  0.00    -0.460 OA
BRANCH  23  24
ATOM     24  C   UNL A   1      35.187  31.430  28.435  1.00  0.00     0.338 C 
ATOM     25  O   UNL A   1      35.222  32.429  29.147  1.00  0.00    -0.246 OA
BRANCH  24  26
ATOM     26  C   UNL A   1      36.087  30.250  28.614  1.00  0.00     0.060 A 
ATOM     27  C   UNL A   1      36.227  29.642  29.877  1.00  0.00     0.016 A 
ATOM     28  C   UNL A   1      37.047  30.020  27.636  1.00  0.00     0.016 A 
ATOM     29  C   UNL A   1      37.408  28.953  30.207  1.00  0.00     0.010 A 
ATOM     30  C   UNL A   1      38.256  29.480  28.019  1.00  0.00     0.010 A 
ATOM     31  C   UNL A   1      38.468  28.964  29.312  1.00  0.00    -0.014 A 
BRANCH  31  32
ATOM     32  C   UNL A   1      39.856  28.542  29.563  1.00  0.00     0.031 A 
ATOM     33  C   UNL A   1      40.220  27.169  29.122  1.00  0.00     0.074 A 
ATOM     34  C   UNL A   1      40.855  29.414  29.879  1.00  0.00     0.049 A 
ATOM     35  N   UNL A   1      41.390  26.662  29.254  1.00  0.00    -0.248 NA
ATOM     36  C   UNL A   1      39.289  26.235  28.494  1.00  0.00     0.031 C 
ATOM     37  C   UNL A   1      42.290  29.250  29.609  1.00  0.00     0.029 A 
ATOM     38  N   UNL A   1      40.824  30.656  30.545  1.00  0.00    -0.354 N 
ATOM     39  C   UNL A   1      41.471  25.520  28.496  1.00  0.00     0.074 A 
ATOM     40  C   UNL A   1      40.113  25.261  28.097  1.00  0.00     0.031 C 
ATOM     41  C   UNL A   1      42.993  30.083  30.391  1.00  0.00     0.029 A 
ATOM     42  C   UNL A   1      42.039  30.742  31.256  1.00  0.00     0.049 A 
ATOM     43  H   UNL A   1      40.102  31.325  30.520  1.00  0.00     0.167 HD
ATOM     44  C   UNL A   1      42.717  25.016  28.263  1.00  0.00     0.037 A 
ATOM     45  C   UNL A   1      42.087  30.842  32.609  1.00  0.00     0.037 A 
ATOM     46  C   UNL A   1      43.712  25.753  29.063  1.00  0.00     0.049 A 
ATOM     47  C   UNL A   1      42.903  29.713  33.153  1.00  0.00     0.074 A 
ATOM     48  C   UNL A   1      44.706  26.675  28.780  1.00  0.00     0.029 A 
ATOM     49  N   UNL A   1      43.540  25.794  30.447  1.00  0.00    -0.354 N 
ATOM     50  N   UNL A   1      43.030  28.574  32.522  1.00  0.00    -0.248 NA
ATOM     51  C   UNL A   1      43.759  29.811  34.323  1.00  0.00     0.031 C 
ATOM     52  C   UNL A   1      45.147  27.242  30.015  1.00  0.00     0.029 A 
ATOM     53  C   UNL A   1      44.432  26.654  31.049  1.00  0.00     0.049 A 
ATOM     54  H   UNL A   1      42.864  25.270  30.935  1.00  0.00     0.167 HD
ATOM     55  C   UNL A   1      44.053  27.862  33.080  1.00  0.00     0.074 A 
ATOM     56  C   UNL A   1      44.445  28.658  34.232  1.00  0.00     0.031 C 
ATOM     57  C   UNL A   1      44.532  26.717  32.506  1.00  0.00     0.037 A 
BRANCH  44  58
ATOM     58  C   UNL A   1      43.099  23.941  27.258  1.00  0.00     0.064 A 
ATOM     59  C   UNL A   1      43.829  24.281  26.094  1.00  0.00     0.173 A 
ATOM     60  C   UNL A   1      42.770  22.572  27.342  1.00  0.00     0.173 A 
ATOM     61  F   UNL A   1      44.237  25.536  25.864  1.00  0.00    -0.203 F 
ATOM     62  C   UNL A   1      44.171  23.345  25.109  1.00  0.00     0.198 A 
ATOM     63  C   UNL A   1      43.112  21.637  26.359  1.00  0.00     0.198 A 
ATOM     64  F   UNL A   1      42.116  22.052  28.379  1.00  0.00    -0.203 F 
ATOM     65  F   UNL A   1      44.854  23.741  24.026  1.00  0.00    -0.200 F 
ATOM     66  C   UNL A   1      43.810  22.023  25.240  1.00  0.00     0.200 A 
ATOM     67  F   UNL A   1      42.753  20.354  26.516  1.00  0.00    -0.200 F 
ATOM     68  F   UNL A   1      44.138  21.124  24.302  1.00  0.00    -0.200 F 
ENDBRANCH  44  58
BRANCH  45  69
ATOM     69  C   UNL A   1      40.913  31.583  33.150  1.00  0.00     0.064 A 
ATOM     70  C   UNL A   1      40.882  32.958  32.820  1.00  0.00     0.173 A 
ATOM     71  C   UNL A   1      39.676  30.944  33.319  1.00  0.00     0.173 A 
ATOM     72  F   UNL A   1      42.033  33.640  32.715  1.00  0.00    -0.203 F 
ATOM     73  C   UNL A   1      39.703  33.580  32.414  1.00  0.00     0.198 A 
ATOM     74  C   UNL A   1      38.487  31.595  32.965  1.00  0.00     0.198 A 
ATOM     75  F   UNL A   1      39.627  29.645  33.645  1.00  0.00    -0.203 F 
ATOM     76  F   UNL A   1      39.742  34.818  31.896  1.00  0.00    -0.200 F 
ATOM     77  C   UNL A   1      38.512  32.880  32.440  1.00  0.00     0.200 A 
ATOM     78  F   UNL A   1      37.319  30.937  33.023  1.00  0.00    -0.200 F 
ATOM     79  F   UNL A   1      37.402  33.419  31.914  1.00  0.00    -0.200 F 
ENDBRANCH  45  69
BRANCH  57  80
ATOM     80  C   UNL A   1      45.142  25.536  33.245  1.00  0.00     0.064 A 
ATOM     81  C   UNL A   1      46.507  25.206  33.252  1.00  0.00     0.173 A 
ATOM     82  C   UNL A   1      44.353  24.785  34.161  1.00  0.00     0.173 A 
ATOM     83  F   UNL A   1      47.400  25.842  32.491  1.00  0.00    -0.203 F 
ATOM     84  C   UNL A   1      47.034  24.223  34.094  1.00  0.00     0.198 A 
ATOM     85  C   UNL A   1      44.894  23.855  35.045  1.00  0.00     0.198 A 
ATOM     86  F   UNL A   1      43.028  24.944  34.273  1.00  0.00    -0.203 F 
ATOM     87  F   UNL A   1      48.343  23.944  34.034  1.00  0.00    -0.200 F 
ATOM     88  C   UNL A   1      46.236  23.568  35.008  1.00  0.00     0.200 A 
ATOM     89  F   UNL A   1      44.102  23.267  35.952  1.00  0.00    -0.200 F 
ATOM     90  F   UNL A   1      46.761  22.678  35.858  1.00  0.00    -0.200 F 
ENDBRANCH  57  80
ENDBRANCH  31  32
ENDBRANCH  24  26
ENDBRANCH  23  24
ENDBRANCH  22  23
ENDBRANCH  21  22
ENDBRANCH   1  21
TORSDOF 17
ENDMDL
MODEL 2
REMARK VINA RESULT:     -11.8      1.071      2.422
REMARK SMILES Cc1ccc([C@@H](Cc2cccs2)C(=O)OCCOCCOC(=O)c2ccc(-c3c4nc(c(-c5c(F)c(F)c(F)c(F)c5F)c5ccc([nH]5)c(-c5c(F)c(F)c(F)c(F)c5F)c5nc(c(-c6c(F)c(F)c(F)c(F)c6F)c6ccc3[nH]6)C=C5)C=C4)cc2)cc1
REMARK SMILES IDX 18 1 17 2 16 3 15 4 13 5 14 6 6 7 5 8 1 9 2 10 3 11 88 12
REMARK SMILES IDX 4 13 87 14 7 15 8 16 9 17 12 18 10 19 11 20 19 21 20 22
REMARK SMILES IDX 21 23 22 24 23 25 24 26 25 27 86 28 26 29 85 30 27 31 28 32
REMARK SMILES IDX 29 33 79 34 30 35 84 36 78 37 80 38 31 39 83 40 77 41 76 42
REMARK SMILES IDX 32 44 64 45 44 46 63 47 45 48 48 49 62 50 81 51 46 52 47 53
REMARK SMILES IDX 61 55 82 56 49 57 33 58 34 59 42 60 35 61 36 62 40 63 43 64
REMARK SMILES IDX 37 65 38 66 41 67 39 68 65 69 66 70 74 71 67 72 68 73 72 74
REMARK SMILES IDX 75 75 69 76 70 77 73 78 71 79 50 80 51 81 59 82 52 83 53 84
REMARK SMILES IDX 57 85 60 86 54 87 55 88 58 89 56 90
REMARK H PARENT 80 43 48 54
REMARK Flexibility Score: inf
ROOT
ATOM      1  O   UNL A   1      31.660  29.485  25.276  1.00  0.00    -0.374 OA
ENDROOT
BRANCH   1   2
ATOM      2  C   UNL A   1      31.408  28.135  24.934  1.00  0.00     0.202 C 
BRANCH   2   3
ATOM      3  C   UNL A   1      32.119  27.256  25.922  1.00  0.00     0.261 C 
BRANCH   3   4
ATOM      4  O   UNL A   1      32.562  26.014  25.405  1.00  0.00    -0.463 OA
BRANCH   4   5
ATOM      5  C   UNL A   1      32.419  24.924  26.202  1.00  0.00     0.313 C 
ATOM      6  O   UNL A   1      31.465  24.713  26.939  1.00  0.00    -0.252 OA
BRANCH   5   7
ATOM      7  C   UNL A   1      33.623  24.002  26.037  1.00  0.00     0.134 C 
BRANCH   7   8
ATOM      8  C   UNL A   1      33.254  22.606  25.502  1.00  0.00    -0.033 A 
ATOM      9  C   UNL A   1      32.523  18.722  23.737  1.00  0.00     0.044 C 
ATOM     10  C   UNL A   1      32.704  20.040  24.420  1.00  0.00    -0.051 A 
ATOM     11  C   UNL A   1      32.287  21.177  23.750  1.00  0.00     0.004 A 
ATOM     12  C   UNL A   1      33.348  20.180  25.657  1.00  0.00     0.004 A 
ATOM     13  C   UNL A   1      32.583  22.424  24.278  1.00  0.00     0.005 A 
ATOM     14  C   UNL A   1      33.610  21.449  26.200  1.00  0.00     0.005 A 
ENDBRANCH   7   8
BRANCH   7  15
ATOM     15  C   UNL A   1      34.756  24.721  25.256  1.00  0.00     0.066 C 
BRANCH  15  16
ATOM     16  C   UNL A   1      36.005  23.888  25.107  1.00  0.00     0.006 A 
ATOM     17  C   UNL A   1      37.009  23.679  26.035  1.00  0.00     0.015 A 
ATOM     18  S   UNL A   1      36.283  22.955  23.696  1.00  0.00    -0.149 S 
ATOM     19  C   UNL A   1      37.729  22.478  25.757  1.00  0.00     0.012 A 
ATOM     20  C   UNL A   1      37.401  21.962  24.525  1.00  0.00     0.065 A 
ENDBRANCH  15  16
ENDBRANCH   7  15
ENDBRANCH   5   7
ENDBRANCH   4   5
ENDBRANCH   3   4
ENDBRANCH   2   3
ENDBRANCH   1   2
BRANCH   1  21
ATOM     21  C   UNL A   1      32.184  29.677  26.583  1.00  0.00     0.202 C 
BRANCH  21  22
ATOM     22  C   UNL A   1      33.074  30.924  26.743  1.00  0.00     0.261 C 
BRANCH  22  23
ATOM     23  O   UNL A   1      33.752  30.881  28.020  1.00  0.00    -0.460 OA
BRANCH  23  24
ATOM     24  C   UNL A   1      35.048  31.295  28.036  1.00  0.00     0.338 C 
ATOM     25  O   UNL A   1      35.445  32.382  27.627  1.00  0.00    -0.246 OA
BRANCH  24  26
ATOM     26  C   UNL A   1      35.948  30.138  28.326  1.00  0.00     0.060 A 
ATOM     27  C   UNL A   1      36.086  29.650  29.641  1.00  0.00     0.016 A 
ATOM     28  C   UNL A   1      36.911  29.818  27.377  1.00  0.00     0.016 A 
ATOM     29  C   UNL A   1      37.266  28.995  30.036  1.00  0.00     0.010 A 
ATOM     30  C   UNL A   1      38.119  29.317  27.811  1.00  0.00     0.010 A 
ATOM     31  C   UNL A   1      38.329  28.924  29.147  1.00  0.00    -0.014 A 
BRANCH  31  32
ATOM     32  C   UNL A   1      39.716  28.528  29.440  1.00  0.00     0.031 A 
ATOM     33  C   UNL A   1      40.135  27.184  28.962  1.00  0.00     0.074 A 
ATOM     34  C   UNL A   1      40.677  29.413  29.831  1.00  0.00     0.049 A 
ATOM     35  N   UNL A   1      41.313  26.703  29.123  1.00  0.00    -0.248 NA
ATOM     36  C   UNL A   1      39.258  26.252  28.259  1.00  0.00     0.031 C 
ATOM     37  C   UNL A   1      42.126  29.297  29.617  1.00  0.00     0.029 A 
ATOM     38  N   UNL A   1      40.584  30.626  30.544  1.00  0.00    -0.354 N 
ATOM     39  C   UNL A   1      41.456  25.594  28.326  1.00  0.00     0.074 A 
ATOM     40  C   UNL A   1      40.123  25.316  27.859  1.00  0.00     0.031 C 
ATOM     41  C   UNL A   1      42.772  30.116  30.459  1.00  0.00     0.029 A 
ATOM     42  C   UNL A   1      41.766  30.715  31.308  1.00  0.00     0.049 A 
ATOM     43  H   UNL A   1      39.845  31.277  30.514  1.00  0.00     0.167 HD
ATOM     44  C   UNL A   1      42.724  25.133  28.126  1.00  0.00     0.037 A 
ATOM     45  C   UNL A   1      41.756  30.762  32.664  1.00  0.00     0.037 A 
ATOM     46  C   UNL A   1      43.664  25.863  28.996  1.00  0.00     0.049 A 
ATOM     47  C   UNL A   1      42.579  29.634  33.198  1.00  0.00     0.074 A 
ATOM     48  C   UNL A   1      44.643  26.821  28.791  1.00  0.00     0.029 A 
ATOM     49  N   UNL A   1      43.435  25.844  30.371  1.00  0.00    -0.354 N 
ATOM     50  N   UNL A   1      42.764  28.525  32.530  1.00  0.00    -0.248 NA
ATOM     51  C   UNL A   1      43.384  29.707  34.406  1.00  0.00     0.031 C 
ATOM     52  C   UNL A   1      45.017  27.349  30.064  1.00  0.00     0.029 A 
ATOM     53  C   UNL A   1      44.277  26.701  31.044  1.00  0.00     0.049 A 
ATOM     54  H   UNL A   1      42.754  25.283  30.810  1.00  0.00     0.167 HD
ATOM     55  C   UNL A   1      43.782  27.818  33.102  1.00  0.00     0.074 A 
ATOM     56  C   UNL A   1      44.104  28.576  34.300  1.00  0.00     0.031 C 
ATOM     57  C   UNL A   1      44.316  26.709  32.505  1.00  0.00     0.037 A 
BRANCH  44  58
ATOM     58  C   UNL A   1      43.177  24.109  27.097  1.00  0.00     0.064 A 
ATOM     59  C   UNL A   1      42.780  22.756  27.216  1.00  0.00     0.173 A 
ATOM     60  C   UNL A   1      44.016  24.359  25.992  1.00  0.00     0.173 A 
ATOM     61  F   UNL A   1      41.970  22.346  28.201  1.00  0.00    -0.203 F 
ATOM     62  C   UNL A   1      43.203  21.757  26.328  1.00  0.00     0.198 A 
ATOM     63  C   UNL A   1      44.438  23.363  25.104  1.00  0.00     0.198 A 
ATOM     64  F   UNL A   1      44.467  25.576  25.692  1.00  0.00    -0.203 F 
ATOM     65  F   UNL A   1      42.796  20.493  26.509  1.00  0.00    -0.200 F 
ATOM     66  C   UNL A   1      44.033  22.060  25.273  1.00  0.00     0.200 A 
ATOM     67  F   UNL A   1      45.242  23.688  24.081  1.00  0.00    -0.200 F 
ATOM     68  F   UNL A   1      44.437  21.109  24.420  1.00  0.00    -0.200 F 
ENDBRANCH  44  58
BRANCH  45  69
ATOM     69  C   UNL A   1      40.540  31.450  33.184  1.00  0.00     0.064 A 
ATOM     70  C   UNL A   1      40.475  32.831  32.889  1.00  0.00     0.173 A 
ATOM     71  C   UNL A   1      39.320  30.768  33.294  1.00  0.00     0.173 A 
ATOM     72  F   UNL A   1      41.605  33.553  32.840  1.00  0.00    -0.203 F 
ATOM     73  C   UNL A   1      39.290  33.426  32.459  1.00  0.00     0.198 A 
ATOM     74  C   UNL A   1      38.123  31.389  32.917  1.00  0.00     0.198 A 
ATOM     75  F   UNL A   1      39.303  29.459  33.585  1.00  0.00    -0.203 F 
ATOM     76  F   UNL A   1      39.305  34.678  31.974  1.00  0.00    -0.200 F 
ATOM     77  C   UNL A   1      38.123  32.687  32.426  1.00  0.00     0.200 A 
ATOM     78  F   UNL A   1      36.976  30.692  32.918  1.00  0.00    -0.200 F 
ATOM     79  F   UNL A   1      37.013  33.204  31.876  1.00  0.00    -0.200 F 
ENDBRANCH  45  69
BRANCH  57  80
ATOM     80  C   UNL A   1      44.927  25.515  33.222  1.00  0.00     0.064 A 
ATOM     81  C   UNL A   1      46.292  25.191  33.228  1.00  0.00     0.173 A 
ATOM     82  C   UNL A   1      44.137  24.744  34.120  1.00  0.00     0.173 A 
ATOM     83  F   UNL A   1      47.186  25.845  32.483  1.00  0.00    -0.203 F 
ATOM     84  C   UNL A   1      46.820  24.193  34.052  1.00  0.00     0.198 A 
ATOM     85  C   UNL A   1      44.678  23.798  34.988  1.00  0.00     0.198 A 
ATOM     86  F   UNL A   1      42.811  24.896  34.231  1.00  0.00    -0.203 F 
ATOM     87  F   UNL A   1      48.131  23.919  33.992  1.00  0.00    -0.200 F 
ATOM     88  C   UNL A   1      46.021  23.517  34.950  1.00  0.00     0.200 A 
ATOM     89  F   UNL A   1      43.884  23.190  35.880  1.00  0.00    -0.200 F 
ATOM     90  F   UNL A   1      46.546  22.612  35.785  1.00  0.00    -0.200 F 
ENDBRANCH  57  80
ENDBRANCH  31  32
ENDBRANCH  24  26
ENDBRANCH  23  24
ENDBRANCH  22  23
ENDBRANCH  21  22
ENDBRANCH   1  21
TORSDOF 17
ENDMDL
MODEL 3
REMARK VINA RESULT:     -11.6      3.582      9.419
REMARK SMILES Cc1ccc([C@@H](Cc2cccs2)C(=O)OCCOCCOC(=O)c2ccc(-c3c4nc(c(-c5c(F)c(F)c(F)c(F)c5F)c5ccc([nH]5)c(-c5c(F)c(F)c(F)c(F)c5F)c5nc(c(-c6c(F)c(F)c(F)c(F)c6F)c6ccc3[nH]6)C=C5)C=C4)cc2)cc1
REMARK SMILES IDX 18 1 17 2 16 3 15 4 13 5 14 6 6 7 5 8 1 9 2 10 3 11 88 12
REMARK SMILES IDX 4 13 87 14 7 15 8 16 9 17 12 18 10 19 11 20 19 21 20 22
REMARK SMILES IDX 21 23 22 24 23 25 24 26 25 27 86 28 26 29 85 30 27 31 28 32
REMARK SMILES IDX 29 33 79 34 30 35 84 36 78 37 80 38 31 39 83 40 77 41 76 42
REMARK SMILES IDX 32 44 64 45 44 46 63 47 45 48 48 49 62 50 81 51 46 52 47 53
REMARK SMILES IDX 61 55 82 56 49 57 33 58 34 59 42 60 35 61 36 62 40 63 43 64
REMARK SMILES IDX 37 65 38 66 41 67 39 68 65 69 66 70 74 71 67 72 68 73 72 74
REMARK SMILES IDX 75 75 69 76 70 77 73 78 71 79 50 80 51 81 59 82 52 83 53 84
REMARK SMILES IDX 57 85 60 86 54 87 55 88 58 89 56 90
REMARK H PARENT 80 43 48 54
REMARK Flexibility Score: inf
ROOT
ATOM      1  O   UNL A   1      35.569  22.435  25.544  1.00  0.00    -0.374 OA
ENDROOT
BRANCH   1   2
ATOM      2  C   UNL A   1      34.690  22.765  26.603  1.00  0.00     0.202 C 
BRANCH   2   3
ATOM      3  C   UNL A   1      33.322  22.250  26.259  1.00  0.00     0.261 C 
BRANCH   3   4
ATOM      4  O   UNL A   1      32.457  23.205  25.671  1.00  0.00    -0.463 OA
BRANCH   4   5
ATOM      5  C   UNL A   1      31.605  23.863  26.498  1.00  0.00     0.313 C 
ATOM      6  O   UNL A   1      31.301  23.499  27.626  1.00  0.00    -0.252 OA
BRANCH   5   7
ATOM      7  C   UNL A   1      31.089  25.124  25.812  1.00  0.00     0.134 C 
BRANCH   7   8
ATOM      8  C   UNL A   1      31.923  26.378  26.134  1.00  0.00    -0.033 A 
ATOM      9  C   UNL A   1      34.301  29.760  27.416  1.00  0.00     0.044 C 
ATOM     10  C   UNL A   1      33.486  28.629  26.875  1.00  0.00    -0.051 A 
ATOM     11  C   UNL A   1      32.149  28.569  27.228  1.00  0.00     0.004 A 
ATOM     12  C   UNL A   1      34.031  27.592  26.105  1.00  0.00     0.004 A 
ATOM     13  C   UNL A   1      31.404  27.454  26.880  1.00  0.00     0.005 A 
ATOM     14  C   UNL A   1      33.255  26.483  25.727  1.00  0.00     0.005 A 
ENDBRANCH   7   8
BRANCH   7  15
ATOM     15  C   UNL A   1      30.860  24.865  24.299  1.00  0.00     0.066 C 
BRANCH  15  16
ATOM     16  C   UNL A   1      30.390  26.084  23.545  1.00  0.00     0.006 A 
ATOM     17  C   UNL A   1      29.219  26.799  23.719  1.00  0.00     0.015 A 
ATOM     18  S   UNL A   1      31.386  26.835  22.369  1.00  0.00    -0.149 S 
ATOM     19  C   UNL A   1      29.345  28.130  23.220  1.00  0.00     0.012 A 
ATOM     20  C   UNL A   1      30.501  28.293  22.493  1.00  0.00     0.065 A 
ENDBRANCH  15  16
ENDBRANCH   7  15
ENDBRANCH   5   7
ENDBRANCH   4   5
ENDBRANCH   3   4
ENDBRANCH   2   3
ENDBRANCH   1   2
BRANCH   1  21
ATOM     21  C   UNL A   1      35.708  21.042  25.300  1.00  0.00     0.202 C 
BRANCH  21  22
ATOM     22  C   UNL A   1      37.135  20.590  24.936  1.00  0.00     0.261 C 
BRANCH  22  23
ATOM     23  O   UNL A   1      38.042  21.713  25.024  1.00  0.00    -0.460 OA
BRANCH  23  24
ATOM     24  C   UNL A   1      39.170  21.530  25.762  1.00  0.00     0.338 C 
ATOM     25  O   UNL A   1      39.824  20.492  25.802  1.00  0.00    -0.246 OA
BRANCH  24  26
ATOM     26  C   UNL A   1      39.322  22.646  26.743  1.00  0.00     0.060 A 
ATOM     27  C   UNL A   1      38.663  23.874  26.539  1.00  0.00     0.016 A 
ATOM     28  C   UNL A   1      40.399  22.589  27.621  1.00  0.00     0.016 A 
ATOM     29  C   UNL A   1      39.190  25.062  27.076  1.00  0.00     0.010 A 
ATOM     30  C   UNL A   1      40.990  23.771  28.011  1.00  0.00     0.010 A 
ATOM     31  C   UNL A   1      40.416  25.024  27.725  1.00  0.00    -0.014 A 
BRANCH  31  32
ATOM     32  C   UNL A   1      41.256  26.167  28.120  1.00  0.00     0.031 A 
ATOM     33  C   UNL A   1      40.541  27.364  28.639  1.00  0.00     0.074 A 
ATOM     34  C   UNL A   1      42.600  26.071  28.318  1.00  0.00     0.049 A 
ATOM     35  N   UNL A   1      41.130  28.430  29.039  1.00  0.00    -0.248 NA
ATOM     36  C   UNL A   1      39.089  27.470  28.748  1.00  0.00     0.031 C 
ATOM     37  C   UNL A   1      43.426  26.901  29.205  1.00  0.00     0.029 A 
ATOM     38  N   UNL A   1      43.562  25.212  27.746  1.00  0.00    -0.354 N 
ATOM     39  C   UNL A   1      40.228  29.212  29.717  1.00  0.00     0.074 A 
ATOM     40  C   UNL A   1      38.954  28.600  29.448  1.00  0.00     0.031 C 
ATOM     41  C   UNL A   1      44.715  26.794  28.853  1.00  0.00     0.029 A 
ATOM     42  C   UNL A   1      44.752  25.964  27.668  1.00  0.00     0.049 A 
ATOM     43  H   UNL A   1      43.429  24.279  27.460  1.00  0.00     0.167 HD
ATOM     44  C   UNL A   1      40.733  30.226  30.476  1.00  0.00     0.037 A 
ATOM     45  C   UNL A   1      45.364  26.242  26.489  1.00  0.00     0.037 A 
ATOM     46  C   UNL A   1      42.182  30.356  30.237  1.00  0.00     0.049 A 
ATOM     47  C   UNL A   1      45.493  27.725  26.342  1.00  0.00     0.074 A 
ATOM     48  C   UNL A   1      43.323  30.070  30.968  1.00  0.00     0.029 A 
ATOM     49  N   UNL A   1      42.613  30.572  28.929  1.00  0.00    -0.354 N 
ATOM     50  N   UNL A   1      44.675  28.559  26.929  1.00  0.00    -0.248 NA
ATOM     51  C   UNL A   1      46.610  28.390  25.693  1.00  0.00     0.031 C 
ATOM     52  C   UNL A   1      44.443  30.149  30.085  1.00  0.00     0.029 A 
ATOM     53  C   UNL A   1      43.985  30.499  28.823  1.00  0.00     0.049 A 
ATOM     54  H   UNL A   1      42.011  30.756  28.172  1.00  0.00     0.167 HD
ATOM     55  C   UNL A   1      45.201  29.818  26.877  1.00  0.00     0.074 A 
ATOM     56  C   UNL A   1      46.389  29.667  26.052  1.00  0.00     0.031 C 
ATOM     57  C   UNL A   1      44.652  30.860  27.573  1.00  0.00     0.037 A 
BRANCH  44  58
ATOM     58  C   UNL A   1      39.991  31.053  31.514  1.00  0.00     0.064 A 
ATOM     59  C   UNL A   1      39.667  30.494  32.773  1.00  0.00     0.173 A 
ATOM     60  C   UNL A   1      39.538  32.379  31.349  1.00  0.00     0.173 A 
ATOM     61  F   UNL A   1      40.036  29.249  33.103  1.00  0.00    -0.203 F 
ATOM     62  C   UNL A   1      38.945  31.188  33.753  1.00  0.00     0.198 A 
ATOM     63  C   UNL A   1      38.817  33.073  32.327  1.00  0.00     0.198 A 
ATOM     64  F   UNL A   1      39.774  33.088  30.247  1.00  0.00    -0.203 F 
ATOM     65  F   UNL A   1      38.665  30.591  34.920  1.00  0.00    -0.200 F 
ATOM     66  C   UNL A   1      38.517  32.477  33.529  1.00  0.00     0.200 A 
ATOM     67  F   UNL A   1      38.418  34.331  32.084  1.00  0.00    -0.200 F 
ATOM     68  F   UNL A   1      37.829  33.146  34.464  1.00  0.00    -0.200 F 
ENDBRANCH  44  58
BRANCH  45  69
ATOM     69  C   UNL A   1      45.168  25.149  25.494  1.00  0.00     0.064 A 
ATOM     70  C   UNL A   1      46.133  24.119  25.555  1.00  0.00     0.173 A 
ATOM     71  C   UNL A   1      43.881  24.788  25.069  1.00  0.00     0.173 A 
ATOM     72  F   UNL A   1      47.399  24.415  25.887  1.00  0.00    -0.203 F 
ATOM     73  C   UNL A   1      45.768  22.776  25.466  1.00  0.00     0.198 A 
ATOM     74  C   UNL A   1      43.534  23.439  24.923  1.00  0.00     0.198 A 
ATOM     75  F   UNL A   1      42.917  25.715  24.974  1.00  0.00    -0.203 F 
ATOM     76  F   UNL A   1      46.665  21.818  25.748  1.00  0.00    -0.200 F 
ATOM     77  C   UNL A   1      44.455  22.438  25.200  1.00  0.00     0.200 A 
ATOM     78  F   UNL A   1      42.271  23.099  24.626  1.00  0.00    -0.200 F 
ATOM     79  F   UNL A   1      44.066  21.155  25.259  1.00  0.00    -0.200 F 
ENDBRANCH  45  69
BRANCH  57  80
ATOM     80  C   UNL A   1      44.678  32.323  27.159  1.00  0.00     0.064 A 
ATOM     81  C   UNL A   1      44.023  32.856  26.038  1.00  0.00     0.173 A 
ATOM     82  C   UNL A   1      45.234  33.300  28.033  1.00  0.00     0.173 A 
ATOM     83  F   UNL A   1      43.404  32.087  25.139  1.00  0.00    -0.203 F 
ATOM     84  C   UNL A   1      43.929  34.232  25.810  1.00  0.00     0.198 A 
ATOM     85  C   UNL A   1      45.079  34.670  27.837  1.00  0.00     0.198 A 
ATOM     86  F   UNL A   1      45.917  32.977  29.138  1.00  0.00    -0.203 F 
ATOM     87  F   UNL A   1      43.308  34.672  24.708  1.00  0.00    -0.200 F 
ATOM     88  C   UNL A   1      44.431  35.138  26.720  1.00  0.00     0.200 A 
ATOM     89  F   UNL A   1      45.538  35.526  28.761  1.00  0.00    -0.200 F 
ATOM     90  F   UNL A   1      44.276  36.453  26.530  1.00  0.00    -0.200 F 
ENDBRANCH  57  80
ENDBRANCH  31  32
ENDBRANCH  24  26
ENDBRANCH  23  24
ENDBRANCH  22  23
ENDBRANCH  21  22
ENDBRANCH   1  21
TORSDOF 17
ENDMDL
