MODEL 1
REMARK VINA RESULT:     -12.1      0.000      0.000
REMARK SMILES CC1(C)S[C@H](c2ccc(Cl)cc2Cl)[NH2+][C@H]1C(=O)OCCOCCOC(=O)c1ccc(-c2c3nc(c(-c4c(F)c(F)c(F)c(F)c4F)c4ccc([nH]4)c(-c4c(F)c(F)c(F)c(F)c4F)c4nc(c(-c5c(F)c(F)c(F)c(F)c5F)c5ccc2[nH]5)C=C4)C=C3)cc1
REMARK SMILES IDX 22 1 21 2 20 3 19 4 18 5 16 6 17 7 15 8 1 9 2 10 3 11 4 12
REMARK SMILES IDX 5 13 14 14 6 17 7 18 12 19 8 20 11 21 13 22 9 23 10 24 23 25
REMARK SMILES IDX 24 26 25 27 26 28 27 29 28 30 89 31 29 32 88 33 30 34 31 35
REMARK SMILES IDX 32 36 82 37 33 38 87 39 81 40 83 41 34 42 86 43 80 44 79 45
REMARK SMILES IDX 35 47 67 48 47 49 66 50 48 51 51 52 65 53 84 54 49 55 50 56
REMARK SMILES IDX 64 58 85 59 52 60 36 61 37 62 45 63 38 64 39 65 43 66 46 67
REMARK SMILES IDX 40 68 41 69 44 70 42 71 68 72 69 73 77 74 70 75 71 76 75 77
REMARK SMILES IDX 78 78 72 79 73 80 76 81 74 82 53 83 54 84 62 85 55 86 56 87
REMARK SMILES IDX 60 88 63 89 57 90 58 91 61 92 59 93
REMARK H PARENT 14 15 14 16 83 46 51 57
REMARK Flexibility Score: inf
ROOT
ATOM      1  C   UNL A   1      32.474  29.589  25.403  1.00  0.00     0.202 C 
ENDROOT
BRANCH   1   2
ATOM      2  O   UNL A   1      31.474  28.855  24.704  1.00  0.00    -0.374 OA
BRANCH   2   3
ATOM      3  C   UNL A   1      31.667  28.675  23.301  1.00  0.00     0.202 C 
BRANCH   3   4
ATOM      4  C   UNL A   1      33.113  28.540  22.809  1.00  0.00     0.261 C 
BRANCH   4   5
ATOM      5  O   UNL A   1      33.750  27.337  23.290  1.00  0.00    -0.459 OA
BRANCH   5   6
ATOM      6  C   UNL A   1      33.546  26.235  22.520  1.00  0.00     0.366 C 
ATOM      7  O   UNL A   1      33.523  26.243  21.294  1.00  0.00    -0.245 OA
BRANCH   6   8
ATOM      8  C   UNL A   1      33.349  24.956  23.336  1.00  0.00     0.310 C 
ATOM      9  C   UNL A   1      30.738  25.068  23.488  1.00  0.00     0.030 C 
ATOM     10  C   UNL A   1      32.073  24.775  24.181  1.00  0.00     0.079 C 
ATOM     11  C   UNL A   1      32.156  25.493  25.532  1.00  0.00     0.030 C 
ATOM     12  S   UNL A   1      32.117  22.954  24.503  1.00  0.00    -0.081 SA
ATOM     13  C   UNL A   1      33.519  22.616  23.344  1.00  0.00     0.276 C 
ATOM     14  N   UNL A   1      33.496  23.769  22.452  1.00  0.00    -0.319 N 
ATOM     15  H   UNL A   1      32.708  23.706  21.808  1.00  0.00     0.348 HD
ATOM     16  H   UNL A   1      34.342  23.824  21.886  1.00  0.00     0.348 HD
BRANCH  13  17
ATOM     17  C   UNL A   1      34.837  22.333  24.079  1.00  0.00     0.039 A 
ATOM     18  C   UNL A   1      35.778  23.392  24.140  1.00  0.00     0.014 A 
ATOM     19  C   UNL A   1      35.190  21.142  24.756  1.00  0.00     0.052 A 
ATOM     20  C   UNL A   1      37.024  23.247  24.756  1.00  0.00     0.021 A 
ATOM     21  C   UNL A   1      36.458  20.986  25.337  1.00  0.00     0.041 A 
ATOM     22  Cl  UNL A   1      34.133  19.792  25.008  1.00  0.00    -0.084 Cl
ATOM     23  C   UNL A   1      37.368  22.032  25.332  1.00  0.00     0.042 A 
ATOM     24  Cl  UNL A   1      38.907  21.836  26.072  1.00  0.00    -0.084 Cl
ENDBRANCH  13  17
ENDBRANCH   6   8
ENDBRANCH   5   6
ENDBRANCH   4   5
ENDBRANCH   3   4
ENDBRANCH   2   3
ENDBRANCH   1   2
BRANCH   1  25
ATOM     25  C   UNL A   1      32.010  30.857  26.125  1.00  0.00     0.261 C 
BRANCH  25  26
ATOM     26  O   UNL A   1      32.603  30.953  27.432  1.00  0.00    -0.460 OA
BRANCH  26  27
ATOM     27  C   UNL A   1      33.428  32.013  27.589  1.00  0.00     0.338 C 
ATOM     28  O   UNL A   1      33.115  33.194  27.627  1.00  0.00    -0.246 OA
BRANCH  27  29
ATOM     29  C   UNL A   1      34.792  31.551  27.909  1.00  0.00     0.060 A 
ATOM     30  C   UNL A   1      34.956  30.179  28.141  1.00  0.00     0.016 A 
ATOM     31  C   UNL A   1      35.875  32.425  28.032  1.00  0.00     0.016 A 
ATOM     32  C   UNL A   1      36.179  29.688  28.582  1.00  0.00     0.010 A 
ATOM     33  C   UNL A   1      37.106  31.929  28.476  1.00  0.00     0.010 A 
ATOM     34  C   UNL A   1      37.246  30.568  28.802  1.00  0.00    -0.014 A 
BRANCH  34  35
ATOM     35  C   UNL A   1      38.430  30.079  29.549  1.00  0.00     0.031 A 
ATOM     36  C   UNL A   1      38.637  30.548  30.963  1.00  0.00     0.074 A 
ATOM     37  C   UNL A   1      39.262  29.175  29.005  1.00  0.00     0.049 A 
ATOM     38  N   UNL A   1      39.579  30.233  31.817  1.00  0.00    -0.248 NA
ATOM     39  C   UNL A   1      37.646  31.500  31.490  1.00  0.00     0.031 C 
ATOM     40  C   UNL A   1      39.139  28.617  27.660  1.00  0.00     0.029 A 
ATOM     41  N   UNL A   1      40.376  28.564  29.524  1.00  0.00    -0.354 N 
ATOM     42  C   UNL A   1      39.296  30.950  32.972  1.00  0.00     0.074 A 
ATOM     43  C   UNL A   1      38.120  31.746  32.702  1.00  0.00     0.031 C 
ATOM     44  C   UNL A   1      40.140  27.743  27.458  1.00  0.00     0.029 A 
ATOM     45  C   UNL A   1      40.989  27.704  28.648  1.00  0.00     0.049 A 
ATOM     46  H   UNL A   1      40.704  28.728  30.437  1.00  0.00     0.167 HD
ATOM     47  C   UNL A   1      39.951  30.934  34.158  1.00  0.00     0.037 A 
ATOM     48  C   UNL A   1      42.115  26.978  28.789  1.00  0.00     0.037 A 
ATOM     49  C   UNL A   1      41.119  30.135  34.424  1.00  0.00     0.049 A 
ATOM     50  C   UNL A   1      42.863  27.028  30.097  1.00  0.00     0.074 A 
ATOM     51  C   UNL A   1      41.847  30.033  35.597  1.00  0.00     0.029 A 
ATOM     52  N   UNL A   1      41.735  29.306  33.498  1.00  0.00    -0.354 N 
ATOM     53  N   UNL A   1      42.574  27.687  31.194  1.00  0.00    -0.248 NA
ATOM     54  C   UNL A   1      44.091  26.227  30.187  1.00  0.00     0.031 C 
ATOM     55  C   UNL A   1      42.936  29.188  35.362  1.00  0.00     0.029 A 
ATOM     56  C   UNL A   1      42.850  28.711  34.064  1.00  0.00     0.049 A 
ATOM     57  H   UNL A   1      41.424  29.161  32.575  1.00  0.00     0.167 HD
ATOM     58  C   UNL A   1      43.563  27.355  32.112  1.00  0.00     0.074 A 
ATOM     59  C   UNL A   1      44.450  26.424  31.447  1.00  0.00     0.031 C 
ATOM     60  C   UNL A   1      43.722  27.781  33.390  1.00  0.00     0.037 A 
BRANCH  47  61
ATOM     61  C   UNL A   1      39.436  31.828  35.249  1.00  0.00     0.064 A 
ATOM     62  C   UNL A   1      38.574  31.354  36.251  1.00  0.00     0.173 A 
ATOM     63  C   UNL A   1      39.832  33.173  35.310  1.00  0.00     0.173 A 
ATOM     64  F   UNL A   1      38.152  30.080  36.231  1.00  0.00    -0.203 F 
ATOM     65  C   UNL A   1      38.109  32.199  37.256  1.00  0.00     0.198 A 
ATOM     66  C   UNL A   1      39.390  34.006  36.335  1.00  0.00     0.198 A 
ATOM     67  F   UNL A   1      40.655  33.678  34.379  1.00  0.00    -0.203 F 
ATOM     68  F   UNL A   1      37.248  31.737  38.172  1.00  0.00    -0.200 F 
ATOM     69  C   UNL A   1      38.524  33.521  37.302  1.00  0.00     0.200 A 
ATOM     70  F   UNL A   1      39.804  35.281  36.384  1.00  0.00    -0.200 F 
ATOM     71  F   UNL A   1      38.081  34.331  38.273  1.00  0.00    -0.200 F 
ENDBRANCH  47  61
BRANCH  48  72
ATOM     72  C   UNL A   1      42.610  26.145  27.661  1.00  0.00     0.064 A 
ATOM     73  C   UNL A   1      43.579  26.628  26.771  1.00  0.00     0.173 A 
ATOM     74  C   UNL A   1      42.106  24.855  27.439  1.00  0.00     0.173 A 
ATOM     75  F   UNL A   1      44.074  27.864  26.927  1.00  0.00    -0.203 F 
ATOM     76  C   UNL A   1      44.010  25.861  25.690  1.00  0.00     0.198 A 
ATOM     77  C   UNL A   1      42.561  24.076  26.376  1.00  0.00     0.198 A 
ATOM     78  F   UNL A   1      41.176  24.345  28.259  1.00  0.00    -0.203 F 
ATOM     79  F   UNL A   1      44.899  26.366  24.825  1.00  0.00    -0.200 F 
ATOM     80  C   UNL A   1      43.506  24.583  25.497  1.00  0.00     0.200 A 
ATOM     81  F   UNL A   1      42.080  22.838  26.203  1.00  0.00    -0.200 F 
ATOM     82  F   UNL A   1      43.922  23.845  24.460  1.00  0.00    -0.200 F 
ENDBRANCH  48  72
BRANCH  60  83
ATOM     83  C   UNL A   1      44.876  27.214  34.168  1.00  0.00     0.064 A 
ATOM     84  C   UNL A   1      46.124  27.854  34.214  1.00  0.00     0.173 A 
ATOM     85  C   UNL A   1      44.721  26.028  34.903  1.00  0.00     0.173 A 
ATOM     86  F   UNL A   1      46.329  28.983  33.519  1.00  0.00    -0.203 F 
ATOM     87  C   UNL A   1      47.182  27.310  34.938  1.00  0.00     0.198 A 
ATOM     88  C   UNL A   1      45.770  25.506  35.654  1.00  0.00     0.198 A 
ATOM     89  F   UNL A   1      43.546  25.381  34.902  1.00  0.00    -0.203 F 
ATOM     90  F   UNL A   1      48.380  27.908  34.919  1.00  0.00    -0.200 F 
ATOM     91  C   UNL A   1      47.003  26.141  35.662  1.00  0.00     0.200 A 
ATOM     92  F   UNL A   1      45.590  24.386  36.367  1.00  0.00    -0.200 F 
ATOM     93  F   UNL A   1      48.021  25.621  36.362  1.00  0.00    -0.200 F 
ENDBRANCH  60  83
ENDBRANCH  34  35
ENDBRANCH  27  29
ENDBRANCH  26  27
ENDBRANCH  25  26
ENDBRANCH   1  25
TORSDOF 15
ENDMDL
MODEL 2
REMARK VINA RESULT:     -12.0      4.627      9.877
REMARK SMILES CC1(C)S[C@H](c2ccc(Cl)cc2Cl)[NH2+][C@H]1C(=O)OCCOCCOC(=O)c1ccc(-c2c3nc(c(-c4c(F)c(F)c(F)c(F)c4F)c4ccc([nH]4)c(-c4c(F)c(F)c(F)c(F)c4F)c4nc(c(-c5c(F)c(F)c(F)c(F)c5F)c5ccc2[nH]5)C=C4)C=C3)cc1
REMARK SMILES IDX 22 1 21 2 20 3 19 4 18 5 16 6 17 7 15 8 1 9 2 10 3 11 4 12
REMARK SMILES IDX 5 13 14 14 6 17 7 18 12 19 8 20 11 21 13 22 9 23 10 24 23 25
REMARK SMILES IDX 24 26 25 27 26 28 27 29 28 30 89 31 29 32 88 33 30 34 31 35
REMARK SMILES IDX 32 36 82 37 33 38 87 39 81 40 83 41 34 42 86 43 80 44 79 45
REMARK SMILES IDX 35 47 67 48 47 49 66 50 48 51 51 52 65 53 84 54 49 55 50 56
REMARK SMILES IDX 64 58 85 59 52 60 36 61 37 62 45 63 38 64 39 65 43 66 46 67
REMARK SMILES IDX 40 68 41 69 44 70 42 71 68 72 69 73 77 74 70 75 71 76 75 77
REMARK SMILES IDX 78 78 72 79 73 80 76 81 74 82 53 83 54 84 62 85 55 86 56 87
REMARK SMILES IDX 60 88 63 89 57 90 58 91 61 92 59 93
REMARK H PARENT 14 15 14 16 83 46 51 57
REMARK Flexibility Score: inf
ROOT
ATOM      1  C   UNL A   1      36.296  20.220  24.999  1.00  0.00     0.202 C 
ENDROOT
BRANCH   1   2
ATOM      2  O   UNL A   1      35.751  21.125  25.954  1.00  0.00    -0.374 OA
BRANCH   2   3
ATOM      3  C   UNL A   1      34.339  21.332  25.916  1.00  0.00     0.202 C 
BRANCH   3   4
ATOM      4  C   UNL A   1      33.679  21.868  27.192  1.00  0.00     0.261 C 
BRANCH   4   5
ATOM      5  O   UNL A   1      33.428  23.287  27.129  1.00  0.00    -0.459 OA
BRANCH   5   6
ATOM      6  C   UNL A   1      32.124  23.631  26.955  1.00  0.00     0.366 C 
ATOM      7  O   UNL A   1      31.188  23.123  27.564  1.00  0.00    -0.245 OA
BRANCH   6   8
ATOM      8  C   UNL A   1      31.923  24.734  25.916  1.00  0.00     0.310 C 
ATOM      9  C   UNL A   1      31.215  23.183  23.930  1.00  0.00     0.030 C 
ATOM     10  C   UNL A   1      32.012  24.399  24.414  1.00  0.00     0.079 C 
ATOM     11  C   UNL A   1      33.458  24.339  23.911  1.00  0.00     0.030 C 
ATOM     12  S   UNL A   1      31.213  25.891  23.669  1.00  0.00    -0.081 SA
ATOM     13  C   UNL A   1      30.633  26.589  25.281  1.00  0.00     0.276 C 
ATOM     14  N   UNL A   1      30.631  25.428  26.162  1.00  0.00    -0.319 N 
ATOM     15  H   UNL A   1      29.848  24.813  25.939  1.00  0.00     0.348 HD
ATOM     16  H   UNL A   1      30.529  25.698  27.141  1.00  0.00     0.348 HD
BRANCH  13  17
ATOM     17  C   UNL A   1      31.462  27.801  25.732  1.00  0.00     0.039 A 
ATOM     18  C   UNL A   1      32.434  27.575  26.739  1.00  0.00     0.014 A 
ATOM     19  C   UNL A   1      31.400  29.112  25.204  1.00  0.00     0.052 A 
ATOM     20  C   UNL A   1      33.229  28.604  27.251  1.00  0.00     0.021 A 
ATOM     21  C   UNL A   1      32.170  30.151  25.750  1.00  0.00     0.041 A 
ATOM     22  Cl  UNL A   1      30.455  29.587  23.831  1.00  0.00    -0.084 Cl
ATOM     23  C   UNL A   1      33.075  29.895  26.769  1.00  0.00     0.042 A 
ATOM     24  Cl  UNL A   1      34.032  31.172  27.408  1.00  0.00    -0.084 Cl
ENDBRANCH  13  17
ENDBRANCH   6   8
ENDBRANCH   5   6
ENDBRANCH   4   5
ENDBRANCH   3   4
ENDBRANCH   2   3
ENDBRANCH   1   2
BRANCH   1  25
ATOM     25  C   UNL A   1      37.821  20.087  24.979  1.00  0.00     0.261 C 
BRANCH  25  26
ATOM     26  O   UNL A   1      38.450  21.300  25.430  1.00  0.00    -0.460 OA
BRANCH  26  27
ATOM     27  C   UNL A   1      39.561  21.104  26.174  1.00  0.00     0.338 C 
ATOM     28  O   UNL A   1      40.267  20.105  26.200  1.00  0.00    -0.246 OA
BRANCH  27  29
ATOM     29  C   UNL A   1      39.950  22.358  26.846  1.00  0.00     0.060 A 
ATOM     30  C   UNL A   1      39.247  23.514  26.482  1.00  0.00     0.016 A 
ATOM     31  C   UNL A   1      41.000  22.427  27.765  1.00  0.00     0.016 A 
ATOM     32  C   UNL A   1      39.646  24.754  26.966  1.00  0.00     0.010 A 
ATOM     33  C   UNL A   1      41.401  23.677  28.253  1.00  0.00     0.010 A 
ATOM     34  C   UNL A   1      40.757  24.848  27.812  1.00  0.00    -0.014 A 
BRANCH  34  35
ATOM     35  C   UNL A   1      41.344  26.185  28.072  1.00  0.00     0.031 A 
ATOM     36  C   UNL A   1      42.732  26.475  27.571  1.00  0.00     0.074 A 
ATOM     37  C   UNL A   1      40.625  27.147  28.675  1.00  0.00     0.049 A 
ATOM     38  N   UNL A   1      43.435  27.577  27.654  1.00  0.00    -0.248 NA
ATOM     39  C   UNL A   1      43.424  25.375  26.881  1.00  0.00     0.031 C 
ATOM     40  C   UNL A   1      39.256  26.996  29.164  1.00  0.00     0.029 A 
ATOM     41  N   UNL A   1      40.948  28.447  28.972  1.00  0.00    -0.354 N 
ATOM     42  C   UNL A   1      44.647  27.299  27.034  1.00  0.00     0.074 A 
ATOM     43  C   UNL A   1      44.602  25.917  26.614  1.00  0.00     0.031 C 
ATOM     44  C   UNL A   1      38.855  28.160  29.703  1.00  0.00     0.029 A 
ATOM     45  C   UNL A   1      39.949  29.128  29.620  1.00  0.00     0.049 A 
ATOM     46  H   UNL A   1      41.815  28.853  28.741  1.00  0.00     0.167 HD
ATOM     47  C   UNL A   1      45.696  28.128  26.820  1.00  0.00     0.037 A 
ATOM     48  C   UNL A   1      39.927  30.385  30.105  1.00  0.00     0.037 A 
ATOM     49  C   UNL A   1      45.733  29.506  27.236  1.00  0.00     0.049 A 
ATOM     50  C   UNL A   1      41.134  31.267  29.912  1.00  0.00     0.074 A 
ATOM     51  C   UNL A   1      46.742  30.436  27.053  1.00  0.00     0.029 A 
ATOM     52  N   UNL A   1      44.717  30.149  27.928  1.00  0.00    -0.354 N 
ATOM     53  N   UNL A   1      42.264  31.007  29.300  1.00  0.00    -0.248 NA
ATOM     54  C   UNL A   1      41.057  32.623  30.473  1.00  0.00     0.031 C 
ATOM     55  C   UNL A   1      46.360  31.624  27.685  1.00  0.00     0.029 A 
ATOM     56  C   UNL A   1      45.086  31.455  28.204  1.00  0.00     0.049 A 
ATOM     57  H   UNL A   1      43.860  29.738  28.184  1.00  0.00     0.167 HD
ATOM     58  C   UNL A   1      43.017  32.172  29.373  1.00  0.00     0.074 A 
ATOM     59  C   UNL A   1      42.209  33.145  30.076  1.00  0.00     0.031 C 
ATOM     60  C   UNL A   1      44.266  32.415  28.901  1.00  0.00     0.037 A 
BRANCH  47  61
ATOM     61  C   UNL A   1      46.902  27.560  26.130  1.00  0.00     0.064 A 
ATOM     62  C   UNL A   1      47.940  26.937  26.841  1.00  0.00     0.173 A 
ATOM     63  C   UNL A   1      47.009  27.613  24.731  1.00  0.00     0.173 A 
ATOM     64  F   UNL A   1      47.895  26.873  28.181  1.00  0.00    -0.203 F 
ATOM     65  C   UNL A   1      49.049  26.414  26.181  1.00  0.00     0.198 A 
ATOM     66  C   UNL A   1      48.104  27.060  24.073  1.00  0.00     0.198 A 
ATOM     67  F   UNL A   1      46.045  28.195  24.001  1.00  0.00    -0.203 F 
ATOM     68  F   UNL A   1      50.050  25.870  26.886  1.00  0.00    -0.200 F 
ATOM     69  C   UNL A   1      49.127  26.469  24.798  1.00  0.00     0.200 A 
ATOM     70  F   UNL A   1      48.170  27.103  22.734  1.00  0.00    -0.200 F 
ATOM     71  F   UNL A   1      50.191  25.959  24.164  1.00  0.00    -0.200 F 
ENDBRANCH  47  61
BRANCH  48  72
ATOM     72  C   UNL A   1      38.725  30.885  30.823  1.00  0.00     0.064 A 
ATOM     73  C   UNL A   1      38.636  30.824  32.220  1.00  0.00     0.173 A 
ATOM     74  C   UNL A   1      37.632  31.416  30.123  1.00  0.00     0.173 A 
ATOM     75  F   UNL A   1      39.645  30.303  32.933  1.00  0.00    -0.203 F 
ATOM     76  C   UNL A   1      37.491  31.255  32.888  1.00  0.00     0.198 A 
ATOM     77  C   UNL A   1      36.500  31.876  30.794  1.00  0.00     0.198 A 
ATOM     78  F   UNL A   1      37.664  31.496  28.784  1.00  0.00    -0.203 F 
ATOM     79  F   UNL A   1      37.411  31.137  34.221  1.00  0.00    -0.200 F 
ATOM     80  C   UNL A   1      36.427  31.786  32.175  1.00  0.00     0.200 A 
ATOM     81  F   UNL A   1      35.481  32.401  30.101  1.00  0.00    -0.200 F 
ATOM     82  F   UNL A   1      35.327  32.203  32.818  1.00  0.00    -0.200 F 
ENDBRANCH  48  72
BRANCH  60  83
ATOM     83  C   UNL A   1      44.819  33.799  29.093  1.00  0.00     0.064 A 
ATOM     84  C   UNL A   1      44.536  34.841  28.196  1.00  0.00     0.173 A 
ATOM     85  C   UNL A   1      45.619  34.095  30.208  1.00  0.00     0.173 A 
ATOM     86  F   UNL A   1      43.787  34.609  27.107  1.00  0.00    -0.203 F 
ATOM     87  C   UNL A   1      45.062  36.115  28.390  1.00  0.00     0.198 A 
ATOM     88  C   UNL A   1      46.113  35.379  30.418  1.00  0.00     0.198 A 
ATOM     89  F   UNL A   1      45.912  33.139  31.103  1.00  0.00    -0.203 F 
ATOM     90  F   UNL A   1      44.826  37.079  27.489  1.00  0.00    -0.200 F 
ATOM     91  C   UNL A   1      45.844  36.385  29.503  1.00  0.00     0.200 A 
ATOM     92  F   UNL A   1      46.855  35.642  31.503  1.00  0.00    -0.200 F 
ATOM     93  F   UNL A   1      46.345  37.614  29.690  1.00  0.00    -0.200 F 
ENDBRANCH  60  83
ENDBRANCH  34  35
ENDBRANCH  27  29
ENDBRANCH  26  27
ENDBRANCH  25  26
ENDBRANCH   1  25
TORSDOF 15
ENDMDL
MODEL 3
REMARK VINA RESULT:     -12.0      1.203      2.116
REMARK SMILES CC1(C)S[C@H](c2ccc(Cl)cc2Cl)[NH2+][C@H]1C(=O)OCCOCCOC(=O)c1ccc(-c2c3nc(c(-c4c(F)c(F)c(F)c(F)c4F)c4ccc([nH]4)c(-c4c(F)c(F)c(F)c(F)c4F)c4nc(c(-c5c(F)c(F)c(F)c(F)c5F)c5ccc2[nH]5)C=C4)C=C3)cc1
REMARK SMILES IDX 22 1 21 2 20 3 19 4 18 5 16 6 17 7 15 8 1 9 2 10 3 11 4 12
REMARK SMILES IDX 5 13 14 14 6 17 7 18 12 19 8 20 11 21 13 22 9 23 10 24 23 25
REMARK SMILES IDX 24 26 25 27 26 28 27 29 28 30 89 31 29 32 88 33 30 34 31 35
REMARK SMILES IDX 32 36 82 37 33 38 87 39 81 40 83 41 34 42 86 43 80 44 79 45
REMARK SMILES IDX 35 47 67 48 47 49 66 50 48 51 51 52 65 53 84 54 49 55 50 56
REMARK SMILES IDX 64 58 85 59 52 60 36 61 37 62 45 63 38 64 39 65 43 66 46 67
REMARK SMILES IDX 40 68 41 69 44 70 42 71 68 72 69 73 77 74 70 75 71 76 75 77
REMARK SMILES IDX 78 78 72 79 73 80 76 81 74 82 53 83 54 84 62 85 55 86 56 87
REMARK SMILES IDX 60 88 63 89 57 90 58 91 61 92 59 93
REMARK H PARENT 14 15 14 16 83 46 51 57
REMARK Flexibility Score: inf
ROOT
ATOM      1  C   UNL A   1      31.407  31.449  26.125  1.00  0.00     0.202 C 
ENDROOT
BRANCH   1   2
ATOM      2  O   UNL A   1      32.394  30.423  26.073  1.00  0.00    -0.374 OA
BRANCH   2   3
ATOM      3  C   UNL A   1      31.925  29.075  26.077  1.00  0.00     0.202 C 
BRANCH   3   4
ATOM      4  C   UNL A   1      32.674  28.079  26.970  1.00  0.00     0.261 C 
BRANCH   4   5
ATOM      5  O   UNL A   1      33.163  26.938  26.235  1.00  0.00    -0.459 OA
BRANCH   5   6
ATOM      6  C   UNL A   1      32.268  25.924  26.091  1.00  0.00     0.366 C 
ATOM      7  O   UNL A   1      31.353  25.693  26.875  1.00  0.00    -0.245 OA
BRANCH   6   8
ATOM      8  C   UNL A   1      32.504  25.083  24.836  1.00  0.00     0.310 C 
ATOM      9  C   UNL A   1      31.823  26.910  23.090  1.00  0.00     0.030 C 
ATOM     10  C   UNL A   1      31.778  25.441  23.525  1.00  0.00     0.079 C 
ATOM     11  C   UNL A   1      30.344  24.902  23.482  1.00  0.00     0.030 C 
ATOM     12  S   UNL A   1      32.777  24.490  22.294  1.00  0.00    -0.081 SA
ATOM     13  C   UNL A   1      34.102  24.010  23.493  1.00  0.00     0.276 C 
ATOM     14  N   UNL A   1      33.962  25.001  24.554  1.00  0.00    -0.319 N 
ATOM     15  H   UNL A   1      34.317  25.906  24.245  1.00  0.00     0.348 HD
ATOM     16  H   UNL A   1      34.493  24.740  25.385  1.00  0.00     0.348 HD
BRANCH  13  17
ATOM     17  C   UNL A   1      34.017  22.533  23.908  1.00  0.00     0.039 A 
ATOM     18  C   UNL A   1      32.861  21.819  23.505  1.00  0.00     0.014 A 
ATOM     19  C   UNL A   1      35.002  21.791  24.600  1.00  0.00     0.052 A 
ATOM     20  C   UNL A   1      32.656  20.479  23.846  1.00  0.00     0.021 A 
ATOM     21  C   UNL A   1      34.775  20.458  24.977  1.00  0.00     0.041 A 
ATOM     22  Cl  UNL A   1      36.582  22.375  25.008  1.00  0.00    -0.084 Cl
ATOM     23  C   UNL A   1      33.607  19.811  24.604  1.00  0.00     0.042 A 
ATOM     24  Cl  UNL A   1      33.355  18.170  25.048  1.00  0.00    -0.084 Cl
ENDBRANCH  13  17
ENDBRANCH   6   8
ENDBRANCH   5   6
ENDBRANCH   4   5
ENDBRANCH   3   4
ENDBRANCH   2   3
ENDBRANCH   1   2
BRANCH   1  25
ATOM     25  C   UNL A   1      31.794  32.730  26.868  1.00  0.00     0.261 C 
BRANCH  25  26
ATOM     26  O   UNL A   1      32.773  32.459  27.887  1.00  0.00    -0.460 OA
BRANCH  26  27
ATOM     27  C   UNL A   1      33.766  33.373  27.958  1.00  0.00     0.338 C 
ATOM     28  O   UNL A   1      33.652  34.591  27.944  1.00  0.00    -0.246 OA
BRANCH  27  29
ATOM     29  C   UNL A   1      35.049  32.708  28.255  1.00  0.00     0.060 A 
ATOM     30  C   UNL A   1      34.996  31.340  28.555  1.00  0.00     0.016 A 
ATOM     31  C   UNL A   1      36.264  33.396  28.292  1.00  0.00     0.016 A 
ATOM     32  C   UNL A   1      36.140  30.675  28.979  1.00  0.00     0.010 A 
ATOM     33  C   UNL A   1      37.416  32.724  28.719  1.00  0.00     0.010 A 
ATOM     34  C   UNL A   1      37.345  31.375  29.114  1.00  0.00    -0.014 A 
BRANCH  34  35
ATOM     35  C   UNL A   1      38.464  30.734  29.844  1.00  0.00     0.031 A 
ATOM     36  C   UNL A   1      38.670  31.073  31.296  1.00  0.00     0.074 A 
ATOM     37  C   UNL A   1      39.235  29.808  29.248  1.00  0.00     0.049 A 
ATOM     38  N   UNL A   1      39.560  30.615  32.141  1.00  0.00    -0.248 NA
ATOM     39  C   UNL A   1      37.746  32.061  31.875  1.00  0.00     0.031 C 
ATOM     40  C   UNL A   1      39.104  29.368  27.861  1.00  0.00     0.029 A 
ATOM     41  N   UNL A   1      40.281  29.069  29.740  1.00  0.00    -0.354 N 
ATOM     42  C   UNL A   1      39.305  31.262  33.344  1.00  0.00     0.074 A 
ATOM     43  C   UNL A   1      38.205  32.172  33.113  1.00  0.00     0.031 C 
ATOM     44  C   UNL A   1      40.035  28.432  27.611  1.00  0.00     0.029 A 
ATOM     45  C   UNL A   1      40.845  28.230  28.812  1.00  0.00     0.049 A 
ATOM     46  H   UNL A   1      40.596  29.133  30.671  1.00  0.00     0.167 HD
ATOM     47  C   UNL A   1      39.923  31.100  34.537  1.00  0.00     0.037 A 
ATOM     48  C   UNL A   1      41.905  27.404  28.918  1.00  0.00     0.037 A 
ATOM     49  C   UNL A   1      41.014  30.188  34.764  1.00  0.00     0.049 A 
ATOM     50  C   UNL A   1      42.618  27.291  30.242  1.00  0.00     0.074 A 
ATOM     51  C   UNL A   1      41.699  29.936  35.940  1.00  0.00     0.029 A 
ATOM     52  N   UNL A   1      41.586  29.384  33.788  1.00  0.00    -0.354 N 
ATOM     53  N   UNL A   1      42.354  27.884  31.381  1.00  0.00    -0.248 NA
ATOM     54  C   UNL A   1      43.773  26.386  30.294  1.00  0.00     0.031 C 
ATOM     55  C   UNL A   1      42.722  29.024  35.662  1.00  0.00     0.029 A 
ATOM     56  C   UNL A   1      42.633  28.657  34.329  1.00  0.00     0.049 A 
ATOM     57  H   UNL A   1      41.290  29.338  32.850  1.00  0.00     0.167 HD
ATOM     58  C   UNL A   1      43.286  27.401  32.290  1.00  0.00     0.074 A 
ATOM     59  C   UNL A   1      44.113  26.454  31.573  1.00  0.00     0.031 C 
ATOM     60  C   UNL A   1      43.444  27.713  33.601  1.00  0.00     0.037 A 
BRANCH  47  61
ATOM     61  C   UNL A   1      39.452  31.946  35.685  1.00  0.00     0.064 A 
ATOM     62  C   UNL A   1      38.463  31.503  36.578  1.00  0.00     0.173 A 
ATOM     63  C   UNL A   1      40.019  33.210  35.913  1.00  0.00     0.173 A 
ATOM     64  F   UNL A   1      37.877  30.309  36.396  1.00  0.00    -0.203 F 
ATOM     65  C   UNL A   1      38.042  32.302  37.638  1.00  0.00     0.198 A 
ATOM     66  C   UNL A   1      39.618  33.992  36.993  1.00  0.00     0.198 A 
ATOM     67  F   UNL A   1      40.969  33.682  35.093  1.00  0.00    -0.203 F 
ATOM     68  F   UNL A   1      37.061  31.878  38.446  1.00  0.00    -0.200 F 
ATOM     69  C   UNL A   1      38.625  33.542  37.849  1.00  0.00     0.200 A 
ATOM     70  F   UNL A   1      40.193  35.186  37.202  1.00  0.00    -0.200 F 
ATOM     71  F   UNL A   1      38.224  34.308  38.873  1.00  0.00    -0.200 F 
ENDBRANCH  47  61
BRANCH  48  72
ATOM     72  C   UNL A   1      42.360  26.623  27.738  1.00  0.00     0.064 A 
ATOM     73  C   UNL A   1      41.858  25.342  27.477  1.00  0.00     0.173 A 
ATOM     74  C   UNL A   1      43.325  27.137  26.858  1.00  0.00     0.173 A 
ATOM     75  F   UNL A   1      40.952  24.797  28.301  1.00  0.00    -0.203 F 
ATOM     76  C   UNL A   1      42.318  24.595  26.393  1.00  0.00     0.198 A 
ATOM     77  C   UNL A   1      43.761  26.402  25.757  1.00  0.00     0.198 A 
ATOM     78  F   UNL A   1      43.840  28.359  27.063  1.00  0.00    -0.203 F 
ATOM     79  F   UNL A   1      41.859  23.352  26.196  1.00  0.00    -0.200 F 
ATOM     80  C   UNL A   1      43.264  25.129  25.531  1.00  0.00     0.200 A 
ATOM     81  F   UNL A   1      44.665  26.928  24.920  1.00  0.00    -0.200 F 
ATOM     82  F   UNL A   1      43.704  24.412  24.488  1.00  0.00    -0.200 F 
ENDBRANCH  48  72
BRANCH  60  83
ATOM     83  C   UNL A   1      44.527  26.993  34.356  1.00  0.00     0.064 A 
ATOM     84  C   UNL A   1      45.817  27.528  34.489  1.00  0.00     0.173 A 
ATOM     85  C   UNL A   1      44.259  25.764  34.980  1.00  0.00     0.173 A 
ATOM     86  F   UNL A   1      46.130  28.692  33.902  1.00  0.00    -0.203 F 
ATOM     87  C   UNL A   1      46.807  26.842  35.190  1.00  0.00     0.198 A 
ATOM     88  C   UNL A   1      45.241  25.100  35.709  1.00  0.00     0.198 A 
ATOM     89  F   UNL A   1      43.039  25.213  34.893  1.00  0.00    -0.203 F 
ATOM     90  F   UNL A   1      48.047  27.344  35.254  1.00  0.00    -0.200 F 
ATOM     91  C   UNL A   1      46.517  25.633  35.804  1.00  0.00     0.200 A 
ATOM     92  F   UNL A   1      44.953  23.940  36.316  1.00  0.00    -0.200 F 
ATOM     93  F   UNL A   1      47.470  24.978  36.481  1.00  0.00    -0.200 F 
ENDBRANCH  60  83
ENDBRANCH  34  35
ENDBRANCH  27  29
ENDBRANCH  26  27
ENDBRANCH  25  26
ENDBRANCH   1  25
TORSDOF 15
ENDMDL
