MODEL 1
REMARK VINA RESULT:     -11.5      0.000      0.000
REMARK SMILES O=C(COCCNC(=O)c1cc(Cl)c2c(c1)OCCO2)OCCOCCOC(=O)c1ccc(-c2c3nc(c(-c4c(F)c(F)c(F)c(F)c4F)c4ccc([nH]4)c(-c4c(F)c(F)c(F)c(F)c4F)c4nc(c(-c5c(F)c(F)c(F)c(F)c5F)c5ccc2[nH]5)C=C4)C=C3)cc1
REMARK SMILES IDX 22 1 21 2 2 3 1 4 3 5 4 6 5 7 6 8 7 9 8 10 9 12 10 13 11 14
REMARK SMILES IDX 16 15 12 16 15 17 13 18 14 19 17 20 20 21 18 22 19 23 23 24
REMARK SMILES IDX 24 25 25 26 26 27 27 28 28 29 29 30 30 31 31 32 92 33 32 34
REMARK SMILES IDX 91 35 33 36 34 37 35 38 85 39 36 40 90 41 84 42 86 43 37 44
REMARK SMILES IDX 89 45 83 46 82 47 38 49 70 50 50 51 69 52 51 53 54 54 68 55
REMARK SMILES IDX 87 56 52 57 53 58 67 60 88 61 55 62 39 63 40 64 48 65 41 66
REMARK SMILES IDX 42 67 46 68 49 69 43 70 44 71 47 72 45 73 71 74 72 75 80 76
REMARK SMILES IDX 73 77 74 78 78 79 81 80 75 81 76 82 79 83 77 84 56 85 57 86
REMARK SMILES IDX 65 87 58 88 59 89 63 90 66 91 60 92 61 93 64 94 62 95
REMARK H PARENT 7 11 86 48 54 59
REMARK Flexibility Score: inf
ROOT
ATOM      1  C   UNL A   1      33.174  20.821  26.116  1.00  0.00     0.261 C 
ENDROOT
BRANCH   1   2
ATOM      2  O   UNL A   1      31.951  21.539  25.916  1.00  0.00    -0.462 OA
BRANCH   2   3
ATOM      3  C   UNL A   1      31.814  22.787  26.420  1.00  0.00     0.332 C 
ATOM      4  O   UNL A   1      31.723  22.959  27.633  1.00  0.00    -0.250 OA
BRANCH   3   5
ATOM      5  C   UNL A   1      31.868  23.952  25.435  1.00  0.00     0.282 C 
BRANCH   5   6
ATOM      6  O   UNL A   1      30.778  23.987  24.535  1.00  0.00    -0.368 OA
BRANCH   6   7
ATOM      7  C   UNL A   1      31.072  23.399  23.269  1.00  0.00     0.182 C 
BRANCH   7   8
ATOM      8  C   UNL A   1      32.577  23.385  22.985  1.00  0.00     0.144 C 
BRANCH   8   9
ATOM      9  N   UNL A   1      32.980  24.080  21.754  1.00  0.00    -0.350 N 
ATOM     10  C   UNL A   1      32.807  25.383  21.363  1.00  0.00     0.251 C 
ATOM     11  H   UNL A   1      33.452  23.514  21.101  1.00  0.00     0.163 HD
ATOM     12  O   UNL A   1      33.035  25.729  20.209  1.00  0.00    -0.269 OA
BRANCH  10  13
ATOM     13  C   UNL A   1      32.398  26.379  22.365  1.00  0.00     0.045 A 
ATOM     14  C   UNL A   1      31.108  26.908  22.294  1.00  0.00     0.038 A 
ATOM     15  C   UNL A   1      33.279  26.778  23.371  1.00  0.00     0.064 A 
ATOM     16  C   UNL A   1      30.749  27.963  23.118  1.00  0.00     0.087 A 
ATOM     17  C   UNL A   1      32.888  27.794  24.242  1.00  0.00     0.163 A 
ATOM     18  Cl  UNL A   1      29.210  28.700  22.865  1.00  0.00    -0.080 Cl
ATOM     19  C   UNL A   1      31.632  28.408  24.102  1.00  0.00     0.179 A 
ATOM     20  O   UNL A   1      33.789  28.141  25.215  1.00  0.00    -0.486 OA
ATOM     21  O   UNL A   1      31.231  29.449  24.900  1.00  0.00    -0.485 OA
ATOM     22  C   UNL A   1      33.441  29.364  25.873  1.00  0.00     0.271 C 
ATOM     23  C   UNL A   1      31.947  29.450  26.133  1.00  0.00     0.271 C 
ENDBRANCH  10  13
ENDBRANCH   8   9
ENDBRANCH   7   8
ENDBRANCH   6   7
ENDBRANCH   5   6
ENDBRANCH   3   5
ENDBRANCH   2   3
ENDBRANCH   1   2
BRANCH   1  24
ATOM     24  C   UNL A   1      33.554  20.062  24.843  1.00  0.00     0.202 C 
BRANCH  24  25
ATOM     25  O   UNL A   1      34.939  19.772  24.647  1.00  0.00    -0.374 OA
BRANCH  25  26
ATOM     26  C   UNL A   1      35.872  20.778  25.073  1.00  0.00     0.202 C 
BRANCH  26  27
ATOM     27  C   UNL A   1      37.363  20.425  24.968  1.00  0.00     0.261 C 
BRANCH  27  28
ATOM     28  O   UNL A   1      38.192  21.537  25.339  1.00  0.00    -0.460 OA
BRANCH  28  29
ATOM     29  C   UNL A   1      39.276  21.222  26.083  1.00  0.00     0.338 C 
ATOM     30  O   UNL A   1      39.906  20.176  26.080  1.00  0.00    -0.246 OA
BRANCH  29  31
ATOM     31  C   UNL A   1      39.768  22.457  26.723  1.00  0.00     0.060 A 
ATOM     32  C   UNL A   1      39.164  23.670  26.355  1.00  0.00     0.016 A 
ATOM     33  C   UNL A   1      40.792  22.425  27.670  1.00  0.00     0.016 A 
ATOM     34  C   UNL A   1      39.602  24.864  26.910  1.00  0.00     0.010 A 
ATOM     35  C   UNL A   1      41.269  23.628  28.185  1.00  0.00     0.010 A 
ATOM     36  C   UNL A   1      40.704  24.846  27.768  1.00  0.00    -0.014 A 
BRANCH  36  37
ATOM     37  C   UNL A   1      41.457  26.095  27.980  1.00  0.00     0.031 A 
ATOM     38  C   UNL A   1      40.755  27.198  28.721  1.00  0.00     0.074 A 
ATOM     39  C   UNL A   1      42.719  26.233  27.547  1.00  0.00     0.049 A 
ATOM     40  N   UNL A   1      41.145  28.423  28.954  1.00  0.00    -0.248 NA
ATOM     41  C   UNL A   1      39.429  26.873  29.279  1.00  0.00     0.031 C 
ATOM     42  C   UNL A   1      43.510  25.194  26.894  1.00  0.00     0.029 A 
ATOM     43  N   UNL A   1      43.551  27.319  27.591  1.00  0.00    -0.354 N 
ATOM     44  C   UNL A   1      40.120  29.004  29.688  1.00  0.00     0.074 A 
ATOM     45  C   UNL A   1      39.075  28.020  29.834  1.00  0.00     0.031 C 
ATOM     46  C   UNL A   1      44.716  25.700  26.582  1.00  0.00     0.029 A 
ATOM     47  C   UNL A   1      44.762  27.106  26.981  1.00  0.00     0.049 A 
ATOM     48  H   UNL A   1      43.306  28.171  28.020  1.00  0.00     0.167 HD
ATOM     49  C   UNL A   1      40.068  30.251  30.206  1.00  0.00     0.037 A 
ATOM     50  C   UNL A   1      45.770  27.969  26.755  1.00  0.00     0.037 A 
ATOM     51  C   UNL A   1      41.105  31.229  30.031  1.00  0.00     0.049 A 
ATOM     52  C   UNL A   1      45.625  29.395  27.225  1.00  0.00     0.074 A 
ATOM     53  C   UNL A   1      41.141  32.537  30.475  1.00  0.00     0.029 A 
ATOM     54  N   UNL A   1      42.293  30.999  29.351  1.00  0.00    -0.354 N 
ATOM     55  N   UNL A   1      44.651  29.952  27.906  1.00  0.00    -0.248 NA
ATOM     56  C   UNL A   1      46.721  30.314  26.891  1.00  0.00     0.031 C 
ATOM     57  C   UNL A   1      42.333  33.113  30.026  1.00  0.00     0.029 A 
ATOM     58  C   UNL A   1      43.064  32.147  29.352  1.00  0.00     0.049 A 
ATOM     59  H   UNL A   1      42.549  30.145  28.932  1.00  0.00     0.167 HD
ATOM     60  C   UNL A   1      45.032  31.272  28.112  1.00  0.00     0.074 A 
ATOM     61  C   UNL A   1      46.335  31.427  27.498  1.00  0.00     0.031 C 
ATOM     62  C   UNL A   1      44.367  32.267  28.748  1.00  0.00     0.037 A 
BRANCH  49  63
ATOM     63  C   UNL A   1      38.855  30.627  31.002  1.00  0.00     0.064 A 
ATOM     64  C   UNL A   1      38.828  30.487  32.397  1.00  0.00     0.173 A 
ATOM     65  C   UNL A   1      37.735  31.191  30.375  1.00  0.00     0.173 A 
ATOM     66  F   UNL A   1      39.865  29.929  33.041  1.00  0.00    -0.203 F 
ATOM     67  C   UNL A   1      37.722  30.899  33.137  1.00  0.00     0.198 A 
ATOM     68  C   UNL A   1      36.642  31.628  31.121  1.00  0.00     0.198 A 
ATOM     69  F   UNL A   1      37.708  31.338  29.042  1.00  0.00    -0.203 F 
ATOM     70  F   UNL A   1      37.707  30.731  34.466  1.00  0.00    -0.200 F 
ATOM     71  C   UNL A   1      36.637  31.482  32.499  1.00  0.00     0.200 A 
ATOM     72  F   UNL A   1      35.599  32.200  30.504  1.00  0.00    -0.200 F 
ATOM     73  F   UNL A   1      35.585  31.900  33.215  1.00  0.00    -0.200 F 
ENDBRANCH  49  63
BRANCH  50  74
ATOM     74  C   UNL A   1      47.004  27.517  26.060  1.00  0.00     0.064 A 
ATOM     75  C   UNL A   1      48.094  27.022  26.791  1.00  0.00     0.173 A 
ATOM     76  C   UNL A   1      47.135  27.591  24.666  1.00  0.00     0.173 A 
ATOM     77  F   UNL A   1      48.027  26.956  28.129  1.00  0.00    -0.203 F 
ATOM     78  C   UNL A   1      49.272  26.637  26.155  1.00  0.00     0.198 A 
ATOM     79  C   UNL A   1      48.303  27.176  24.028  1.00  0.00     0.198 A 
ATOM     80  F   UNL A   1      46.125  28.061  23.918  1.00  0.00    -0.203 F 
ATOM     81  F   UNL A   1      50.315  26.216  26.884  1.00  0.00    -0.200 F 
ATOM     82  C   UNL A   1      49.375  26.709  24.775  1.00  0.00     0.200 A 
ATOM     83  F   UNL A   1      48.394  27.236  22.693  1.00  0.00    -0.200 F 
ATOM     84  F   UNL A   1      50.508  26.336  24.165  1.00  0.00    -0.200 F 
ENDBRANCH  50  74
BRANCH  62  85
ATOM     85  C   UNL A   1      45.048  33.601  28.849  1.00  0.00     0.064 A 
ATOM     86  C   UNL A   1      44.805  34.625  27.922  1.00  0.00     0.173 A 
ATOM     87  C   UNL A   1      45.907  33.879  29.925  1.00  0.00     0.173 A 
ATOM     88  F   UNL A   1      43.999  34.406  26.871  1.00  0.00    -0.203 F 
ATOM     89  C   UNL A   1      45.418  35.867  28.052  1.00  0.00     0.198 A 
ATOM     90  C   UNL A   1      46.489  35.134  30.071  1.00  0.00     0.198 A 
ATOM     91  F   UNL A   1      46.162  32.939  30.847  1.00  0.00    -0.203 F 
ATOM     92  F   UNL A   1      45.212  36.813  27.125  1.00  0.00    -0.200 F 
ATOM     93  C   UNL A   1      46.252  36.124  29.130  1.00  0.00     0.200 A 
ATOM     94  F   UNL A   1      47.277  35.387  31.126  1.00  0.00    -0.200 F 
ATOM     95  F   UNL A   1      46.830  37.325  29.260  1.00  0.00    -0.200 F 
ENDBRANCH  62  85
ENDBRANCH  36  37
ENDBRANCH  29  31
ENDBRANCH  28  29
ENDBRANCH  27  28
ENDBRANCH  26  27
ENDBRANCH  25  26
ENDBRANCH  24  25
ENDBRANCH   1  24
TORSDOF 19
ENDMDL
MODEL 2
REMARK VINA RESULT:     -11.3      1.150      2.778
REMARK SMILES O=C(COCCNC(=O)c1cc(Cl)c2c(c1)OCCO2)OCCOCCOC(=O)c1ccc(-c2c3nc(c(-c4c(F)c(F)c(F)c(F)c4F)c4ccc([nH]4)c(-c4c(F)c(F)c(F)c(F)c4F)c4nc(c(-c5c(F)c(F)c(F)c(F)c5F)c5ccc2[nH]5)C=C4)C=C3)cc1
REMARK SMILES IDX 22 1 21 2 2 3 1 4 3 5 4 6 5 7 6 8 7 9 8 10 9 12 10 13 11 14
REMARK SMILES IDX 16 15 12 16 15 17 13 18 14 19 17 20 20 21 18 22 19 23 23 24
REMARK SMILES IDX 24 25 25 26 26 27 27 28 28 29 29 30 30 31 31 32 92 33 32 34
REMARK SMILES IDX 91 35 33 36 34 37 35 38 85 39 36 40 90 41 84 42 86 43 37 44
REMARK SMILES IDX 89 45 83 46 82 47 38 49 70 50 50 51 69 52 51 53 54 54 68 55
REMARK SMILES IDX 87 56 52 57 53 58 67 60 88 61 55 62 39 63 40 64 48 65 41 66
REMARK SMILES IDX 42 67 46 68 49 69 43 70 44 71 47 72 45 73 71 74 72 75 80 76
REMARK SMILES IDX 73 77 74 78 78 79 81 80 75 81 76 82 79 83 77 84 56 85 57 86
REMARK SMILES IDX 65 87 58 88 59 89 63 90 66 91 60 92 61 93 64 94 62 95
REMARK H PARENT 7 11 86 48 54 59
REMARK Flexibility Score: inf
ROOT
ATOM      1  C   UNL A   1      35.202  23.162  23.309  1.00  0.00     0.261 C 
ENDROOT
BRANCH   1   2
ATOM      2  O   UNL A   1      34.607  24.329  22.728  1.00  0.00    -0.462 OA
BRANCH   2   3
ATOM      3  C   UNL A   1      33.276  24.355  22.487  1.00  0.00     0.332 C 
ATOM      4  O   UNL A   1      32.546  23.478  22.943  1.00  0.00    -0.250 OA
BRANCH   3   5
ATOM      5  C   UNL A   1      32.726  25.549  21.711  1.00  0.00     0.282 C 
BRANCH   5   6
ATOM      6  O   UNL A   1      33.690  26.552  21.452  1.00  0.00    -0.368 OA
BRANCH   6   7
ATOM      7  C   UNL A   1      33.309  27.838  21.938  1.00  0.00     0.182 C 
BRANCH   7   8
ATOM      8  C   UNL A   1      34.356  28.414  22.898  1.00  0.00     0.144 C 
BRANCH   8   9
ATOM      9  N   UNL A   1      33.819  29.317  23.925  1.00  0.00    -0.350 N 
ATOM     10  C   UNL A   1      32.757  29.171  24.782  1.00  0.00     0.251 C 
ATOM     11  H   UNL A   1      34.303  30.170  24.014  1.00  0.00     0.163 HD
ATOM     12  O   UNL A   1      32.338  30.121  25.433  1.00  0.00    -0.269 OA
BRANCH  10  13
ATOM     13  C   UNL A   1      32.160  27.838  24.954  1.00  0.00     0.045 A 
ATOM     14  C   UNL A   1      30.885  27.605  24.435  1.00  0.00     0.038 A 
ATOM     15  C   UNL A   1      32.858  26.826  25.613  1.00  0.00     0.064 A 
ATOM     16  C   UNL A   1      30.229  26.418  24.722  1.00  0.00     0.087 A 
ATOM     17  C   UNL A   1      32.219  25.607  25.841  1.00  0.00     0.163 A 
ATOM     18  Cl  UNL A   1      28.590  26.255  24.213  1.00  0.00    -0.080 Cl
ATOM     19  C   UNL A   1      30.894  25.409  25.419  1.00  0.00     0.179 A 
ATOM     20  O   UNL A   1      32.954  24.647  26.486  1.00  0.00    -0.486 OA
ATOM     21  O   UNL A   1      30.209  24.247  25.673  1.00  0.00    -0.485 OA
ATOM     22  C   UNL A   1      32.150  23.550  26.932  1.00  0.00     0.271 C 
ATOM     23  C   UNL A   1      31.110  23.164  25.895  1.00  0.00     0.271 C 
ENDBRANCH  10  13
ENDBRANCH   8   9
ENDBRANCH   7   8
ENDBRANCH   6   7
ENDBRANCH   5   6
ENDBRANCH   3   5
ENDBRANCH   2   3
ENDBRANCH   1   2
BRANCH   1  24
ATOM     24  C   UNL A   1      35.638  23.453  24.746  1.00  0.00     0.202 C 
BRANCH  24  25
ATOM     25  O   UNL A   1      35.702  22.343  25.644  1.00  0.00    -0.374 OA
BRANCH  25  26
ATOM     26  C   UNL A   1      35.900  21.050  25.052  1.00  0.00     0.202 C 
BRANCH  26  27
ATOM     27  C   UNL A   1      37.336  20.505  25.046  1.00  0.00     0.261 C 
BRANCH  27  28
ATOM     28  O   UNL A   1      38.294  21.552  25.264  1.00  0.00    -0.460 OA
BRANCH  28  29
ATOM     29  C   UNL A   1      39.319  21.232  26.086  1.00  0.00     0.338 C 
ATOM     30  O   UNL A   1      39.920  20.171  26.150  1.00  0.00    -0.246 OA
BRANCH  29  31
ATOM     31  C   UNL A   1      39.800  22.471  26.724  1.00  0.00     0.060 A 
ATOM     32  C   UNL A   1      39.210  23.682  26.330  1.00  0.00     0.016 A 
ATOM     33  C   UNL A   1      40.801  22.446  27.695  1.00  0.00     0.016 A 
ATOM     34  C   UNL A   1      39.639  24.881  26.882  1.00  0.00     0.010 A 
ATOM     35  C   UNL A   1      41.271  23.652  28.209  1.00  0.00     0.010 A 
ATOM     36  C   UNL A   1      40.720  24.867  27.767  1.00  0.00    -0.014 A 
BRANCH  36  37
ATOM     37  C   UNL A   1      41.473  26.116  27.984  1.00  0.00     0.031 A 
ATOM     38  C   UNL A   1      40.770  27.216  28.728  1.00  0.00     0.074 A 
ATOM     39  C   UNL A   1      42.735  26.256  27.552  1.00  0.00     0.049 A 
ATOM     40  N   UNL A   1      41.160  28.440  28.966  1.00  0.00    -0.248 NA
ATOM     41  C   UNL A   1      39.444  26.888  29.284  1.00  0.00     0.031 C 
ATOM     42  C   UNL A   1      43.526  25.219  26.896  1.00  0.00     0.029 A 
ATOM     43  N   UNL A   1      43.567  27.342  27.601  1.00  0.00    -0.354 N 
ATOM     44  C   UNL A   1      40.135  29.018  29.702  1.00  0.00     0.074 A 
ATOM     45  C   UNL A   1      39.089  28.033  29.843  1.00  0.00     0.031 C 
ATOM     46  C   UNL A   1      44.733  25.727  26.587  1.00  0.00     0.029 A 
ATOM     47  C   UNL A   1      44.778  27.131  26.991  1.00  0.00     0.049 A 
ATOM     48  H   UNL A   1      43.321  28.192  28.033  1.00  0.00     0.167 HD
ATOM     49  C   UNL A   1      40.082  30.264  30.224  1.00  0.00     0.037 A 
ATOM     50  C   UNL A   1      45.787  27.995  26.769  1.00  0.00     0.037 A 
ATOM     51  C   UNL A   1      41.118  31.242  30.053  1.00  0.00     0.049 A 
ATOM     52  C   UNL A   1      45.641  29.420  27.243  1.00  0.00     0.074 A 
ATOM     53  C   UNL A   1      41.154  32.549  30.502  1.00  0.00     0.029 A 
ATOM     54  N   UNL A   1      42.307  31.015  29.374  1.00  0.00    -0.354 N 
ATOM     55  N   UNL A   1      44.666  29.974  27.926  1.00  0.00    -0.248 NA
ATOM     56  C   UNL A   1      46.736  30.340  26.914  1.00  0.00     0.031 C 
ATOM     57  C   UNL A   1      42.346  33.126  30.056  1.00  0.00     0.029 A 
ATOM     58  C   UNL A   1      43.078  32.163  29.380  1.00  0.00     0.049 A 
ATOM     59  H   UNL A   1      42.563  30.163  28.951  1.00  0.00     0.167 HD
ATOM     60  C   UNL A   1      45.047  31.293  28.138  1.00  0.00     0.074 A 
ATOM     61  C   UNL A   1      46.350  31.450  27.525  1.00  0.00     0.031 C 
ATOM     62  C   UNL A   1      44.381  32.286  28.777  1.00  0.00     0.037 A 
BRANCH  49  63
ATOM     63  C   UNL A   1      38.868  30.637  31.021  1.00  0.00     0.064 A 
ATOM     64  C   UNL A   1      38.844  30.501  32.416  1.00  0.00     0.173 A 
ATOM     65  C   UNL A   1      37.744  31.192  30.394  1.00  0.00     0.173 A 
ATOM     66  F   UNL A   1      39.884  29.951  33.060  1.00  0.00    -0.203 F 
ATOM     67  C   UNL A   1      37.737  30.910  33.156  1.00  0.00     0.198 A 
ATOM     68  C   UNL A   1      36.651  31.626  31.139  1.00  0.00     0.198 A 
ATOM     69  F   UNL A   1      37.714  31.335  29.060  1.00  0.00    -0.203 F 
ATOM     70  F   UNL A   1      37.725  30.747  34.486  1.00  0.00    -0.200 F 
ATOM     71  C   UNL A   1      36.648  31.485  32.518  1.00  0.00     0.200 A 
ATOM     72  F   UNL A   1      35.603  32.191  30.522  1.00  0.00    -0.200 F 
ATOM     73  F   UNL A   1      35.595  31.901  33.234  1.00  0.00    -0.200 F 
ENDBRANCH  49  63
BRANCH  50  74
ATOM     74  C   UNL A   1      47.021  27.546  26.073  1.00  0.00     0.064 A 
ATOM     75  C   UNL A   1      47.126  27.634  24.678  1.00  0.00     0.173 A 
ATOM     76  C   UNL A   1      48.105  26.999  26.775  1.00  0.00     0.173 A 
ATOM     77  F   UNL A   1      46.106  28.127  23.960  1.00  0.00    -0.203 F 
ATOM     78  C   UNL A   1      48.260  27.175  24.010  1.00  0.00     0.198 A 
ATOM     79  C   UNL A   1      49.252  26.569  26.108  1.00  0.00     0.198 A 
ATOM     80  F   UNL A   1      48.056  26.886  28.110  1.00  0.00    -0.203 F 
ATOM     81  F   UNL A   1      48.311  27.226  22.672  1.00  0.00    -0.200 F 
ATOM     82  C   UNL A   1      49.324  26.648  24.725  1.00  0.00     0.200 A 
ATOM     83  F   UNL A   1      50.283  26.071  26.804  1.00  0.00    -0.200 F 
ATOM     84  F   UNL A   1      50.414  26.210  24.082  1.00  0.00    -0.200 F 
ENDBRANCH  50  74
BRANCH  62  85
ATOM     85  C   UNL A   1      45.062  33.620  28.883  1.00  0.00     0.064 A 
ATOM     86  C   UNL A   1      45.945  33.914  29.932  1.00  0.00     0.173 A 
ATOM     87  C   UNL A   1      44.877  34.591  27.886  1.00  0.00     0.173 A 
ATOM     88  F   UNL A   1      46.149  33.023  30.913  1.00  0.00    -0.203 F 
ATOM     89  C   UNL A   1      46.596  35.143  29.993  1.00  0.00     0.198 A 
ATOM     90  C   UNL A   1      45.558  35.803  27.932  1.00  0.00     0.198 A 
ATOM     91  F   UNL A   1      44.054  34.353  26.853  1.00  0.00    -0.203 F 
ATOM     92  F   UNL A   1      47.395  35.423  31.032  1.00  0.00    -0.200 F 
ATOM     93  C   UNL A   1      46.409  36.083  28.990  1.00  0.00     0.200 A 
ATOM     94  F   UNL A   1      45.394  36.700  26.950  1.00  0.00    -0.200 F 
ATOM     95  F   UNL A   1      47.048  37.259  29.045  1.00  0.00    -0.200 F 
ENDBRANCH  62  85
ENDBRANCH  36  37
ENDBRANCH  29  31
ENDBRANCH  28  29
ENDBRANCH  27  28
ENDBRANCH  26  27
ENDBRANCH  25  26
ENDBRANCH  24  25
ENDBRANCH   1  24
TORSDOF 19
ENDMDL
MODEL 3
REMARK VINA RESULT:     -11.1      4.165      9.993
REMARK SMILES O=C(COCCNC(=O)c1cc(Cl)c2c(c1)OCCO2)OCCOCCOC(=O)c1ccc(-c2c3nc(c(-c4c(F)c(F)c(F)c(F)c4F)c4ccc([nH]4)c(-c4c(F)c(F)c(F)c(F)c4F)c4nc(c(-c5c(F)c(F)c(F)c(F)c5F)c5ccc2[nH]5)C=C4)C=C3)cc1
REMARK SMILES IDX 22 1 21 2 2 3 1 4 3 5 4 6 5 7 6 8 7 9 8 10 9 12 10 13 11 14
REMARK SMILES IDX 16 15 12 16 15 17 13 18 14 19 17 20 20 21 18 22 19 23 23 24
REMARK SMILES IDX 24 25 25 26 26 27 27 28 28 29 29 30 30 31 31 32 92 33 32 34
REMARK SMILES IDX 91 35 33 36 34 37 35 38 85 39 36 40 90 41 84 42 86 43 37 44
REMARK SMILES IDX 89 45 83 46 82 47 38 49 70 50 50 51 69 52 51 53 54 54 68 55
REMARK SMILES IDX 87 56 52 57 53 58 67 60 88 61 55 62 39 63 40 64 48 65 41 66
REMARK SMILES IDX 42 67 46 68 49 69 43 70 44 71 47 72 45 73 71 74 72 75 80 76
REMARK SMILES IDX 73 77 74 78 78 79 81 80 75 81 76 82 79 83 77 84 56 85 57 86
REMARK SMILES IDX 65 87 58 88 59 89 63 90 66 91 60 92 61 93 64 94 62 95
REMARK H PARENT 7 11 86 48 54 59
REMARK Flexibility Score: inf
ROOT
ATOM      1  C   UNL A   1      32.864  28.091  25.837  1.00  0.00     0.261 C 
ENDROOT
BRANCH   1   2
ATOM      2  O   UNL A   1      33.093  28.105  24.423  1.00  0.00    -0.462 OA
BRANCH   2   3
ATOM      3  C   UNL A   1      32.112  28.516  23.587  1.00  0.00     0.332 C 
ATOM      4  O   UNL A   1      32.388  28.944  22.469  1.00  0.00    -0.250 OA
BRANCH   3   5
ATOM      5  C   UNL A   1      30.671  28.342  24.059  1.00  0.00     0.282 C 
BRANCH   5   6
ATOM      6  O   UNL A   1      30.010  27.236  23.475  1.00  0.00    -0.368 OA
BRANCH   6   7
ATOM      7  C   UNL A   1      30.075  26.055  24.272  1.00  0.00     0.182 C 
BRANCH   7   8
ATOM      8  C   UNL A   1      30.613  24.861  23.477  1.00  0.00     0.144 C 
BRANCH   8   9
ATOM      9  N   UNL A   1      31.414  25.217  22.297  1.00  0.00    -0.350 N 
ATOM     10  C   UNL A   1      32.711  24.915  21.969  1.00  0.00     0.251 C 
ATOM     11  H   UNL A   1      30.940  25.765  21.631  1.00  0.00     0.163 HD
ATOM     12  O   UNL A   1      33.270  25.473  21.031  1.00  0.00    -0.269 OA
BRANCH  10  13
ATOM     13  C   UNL A   1      33.409  23.864  22.725  1.00  0.00     0.045 A 
ATOM     14  C   UNL A   1      32.827  22.597  22.801  1.00  0.00     0.038 A 
ATOM     15  C   UNL A   1      34.631  24.126  23.345  1.00  0.00     0.064 A 
ATOM     16  C   UNL A   1      33.372  21.636  23.639  1.00  0.00     0.087 A 
ATOM     17  C   UNL A   1      35.212  23.133  24.133  1.00  0.00     0.163 A 
ATOM     18  Cl  UNL A   1      32.514  20.153  23.836  1.00  0.00    -0.080 Cl
ATOM     19  C   UNL A   1      34.571  21.894  24.303  1.00  0.00     0.179 A 
ATOM     20  O   UNL A   1      36.415  23.442  24.713  1.00  0.00    -0.486 OA
ATOM     21  O   UNL A   1      35.078  20.911  25.115  1.00  0.00    -0.485 OA
ATOM     22  C   UNL A   1      36.797  22.498  25.719  1.00  0.00     0.271 C 
ATOM     23  C   UNL A   1      36.484  21.075  25.294  1.00  0.00     0.271 C 
ENDBRANCH  10  13
ENDBRANCH   8   9
ENDBRANCH   7   8
ENDBRANCH   6   7
ENDBRANCH   5   6
ENDBRANCH   3   5
ENDBRANCH   2   3
ENDBRANCH   1   2
BRANCH   1  24
ATOM     24  C   UNL A   1      33.267  29.434  26.450  1.00  0.00     0.202 C 
BRANCH  24  25
ATOM     25  O   UNL A   1      32.263  30.142  27.179  1.00  0.00    -0.374 OA
BRANCH  25  26
ATOM     26  C   UNL A   1      31.539  31.153  26.460  1.00  0.00     0.202 C 
BRANCH  26  27
ATOM     27  C   UNL A   1      31.755  32.606  26.905  1.00  0.00     0.261 C 
BRANCH  27  28
ATOM     28  O   UNL A   1      33.147  32.957  26.891  1.00  0.00    -0.460 OA
BRANCH  28  29
ATOM     29  C   UNL A   1      33.604  33.544  28.020  1.00  0.00     0.338 C 
ATOM     30  O   UNL A   1      33.015  34.334  28.741  1.00  0.00    -0.246 OA
BRANCH  29  31
ATOM     31  C   UNL A   1      34.853  32.868  28.417  1.00  0.00     0.060 A 
ATOM     32  C   UNL A   1      34.757  31.565  28.932  1.00  0.00     0.016 A 
ATOM     33  C   UNL A   1      36.092  33.492  28.277  1.00  0.00     0.016 A 
ATOM     34  C   UNL A   1      35.898  30.889  29.341  1.00  0.00     0.010 A 
ATOM     35  C   UNL A   1      37.231  32.838  28.738  1.00  0.00     0.010 A 
ATOM     36  C   UNL A   1      37.125  31.558  29.310  1.00  0.00    -0.014 A 
BRANCH  36  37
ATOM     37  C   UNL A   1      38.224  31.056  30.153  1.00  0.00     0.031 A 
ATOM     38  C   UNL A   1      39.154  30.050  29.534  1.00  0.00     0.074 A 
ATOM     39  C   UNL A   1      38.399  31.491  31.410  1.00  0.00     0.049 A 
ATOM     40  N   UNL A   1      40.134  29.378  30.077  1.00  0.00    -0.248 NA
ATOM     41  C   UNL A   1      38.952  29.765  28.101  1.00  0.00     0.031 C 
ATOM     42  C   UNL A   1      37.602  32.523  32.067  1.00  0.00     0.029 A 
ATOM     43  N   UNL A   1      39.309  31.106  32.357  1.00  0.00    -0.354 N 
ATOM     44  C   UNL A   1      40.664  28.604  29.054  1.00  0.00     0.074 A 
ATOM     45  C   UNL A   1      39.882  28.855  27.867  1.00  0.00     0.031 C 
ATOM     46  C   UNL A   1      38.050  32.679  33.325  1.00  0.00     0.029 A 
ATOM     47  C   UNL A   1      39.138  31.732  33.566  1.00  0.00     0.049 A 
ATOM     48  H   UNL A   1      40.018  30.444  32.188  1.00  0.00     0.167 HD
ATOM     49  C   UNL A   1      41.723  27.766  29.104  1.00  0.00     0.037 A 
ATOM     50  C   UNL A   1      39.779  31.531  34.733  1.00  0.00     0.037 A 
ATOM     51  C   UNL A   1      42.476  27.506  30.299  1.00  0.00     0.049 A 
ATOM     52  C   UNL A   1      40.867  30.488  34.793  1.00  0.00     0.074 A 
ATOM     53  C   UNL A   1      43.541  26.645  30.477  1.00  0.00     0.029 A 
ATOM     54  N   UNL A   1      42.235  28.112  31.524  1.00  0.00    -0.354 N 
ATOM     55  N   UNL A   1      41.361  29.744  33.831  1.00  0.00    -0.248 NA
ATOM     56  C   UNL A   1      41.487  30.256  36.104  1.00  0.00     0.031 C 
ATOM     57  C   UNL A   1      43.918  26.696  31.822  1.00  0.00     0.029 A 
ATOM     58  C   UNL A   1      43.125  27.632  32.468  1.00  0.00     0.049 A 
ATOM     59  H   UNL A   1      41.535  28.783  31.696  1.00  0.00     0.167 HD
ATOM     60  C   UNL A   1      42.369  28.984  34.411  1.00  0.00     0.074 A 
ATOM     61  C   UNL A   1      42.427  29.371  35.806  1.00  0.00     0.031 C 
ATOM     62  C   UNL A   1      43.172  28.049  33.846  1.00  0.00     0.037 A 
BRANCH  49  63
ATOM     63  C   UNL A   1      42.124  27.070  27.839  1.00  0.00     0.064 A 
ATOM     64  C   UNL A   1      43.064  27.634  26.965  1.00  0.00     0.173 A 
ATOM     65  C   UNL A   1      41.614  25.802  27.528  1.00  0.00     0.173 A 
ATOM     66  F   UNL A   1      43.562  28.856  27.205  1.00  0.00    -0.203 F 
ATOM     67  C   UNL A   1      43.481  26.952  25.824  1.00  0.00     0.198 A 
ATOM     68  C   UNL A   1      42.053  25.111  26.401  1.00  0.00     0.198 A 
ATOM     69  F   UNL A   1      40.705  25.223  28.327  1.00  0.00    -0.203 F 
ATOM     70  F   UNL A   1      44.360  27.521  24.989  1.00  0.00    -0.200 F 
ATOM     71  C   UNL A   1      42.985  25.685  25.552  1.00  0.00     0.200 A 
ATOM     72  F   UNL A   1      41.581  23.882  26.145  1.00  0.00    -0.200 F 
ATOM     73  F   UNL A   1      43.406  25.021  24.467  1.00  0.00    -0.200 F 
ENDBRANCH  49  63
BRANCH  50  74
ATOM     74  C   UNL A   1      39.422  32.330  35.934  1.00  0.00     0.064 A 
ATOM     75  C   UNL A   1      38.453  31.868  36.836  1.00  0.00     0.173 A 
ATOM     76  C   UNL A   1      40.013  33.574  36.196  1.00  0.00     0.173 A 
ATOM     77  F   UNL A   1      37.840  30.695  36.616  1.00  0.00    -0.203 F 
ATOM     78  C   UNL A   1      38.076  32.627  37.941  1.00  0.00     0.198 A 
ATOM     79  C   UNL A   1      39.658  34.319  37.319  1.00  0.00     0.198 A 
ATOM     80  F   UNL A   1      40.943  34.067  35.363  1.00  0.00    -0.203 F 
ATOM     81  F   UNL A   1      37.111  32.182  38.758  1.00  0.00    -0.200 F 
ATOM     82  C   UNL A   1      38.683  33.849  38.186  1.00  0.00     0.200 A 
ATOM     83  F   UNL A   1      40.255  35.495  37.559  1.00  0.00    -0.200 F 
ATOM     84  F   UNL A   1      38.321  34.578  39.251  1.00  0.00    -0.200 F 
ENDBRANCH  50  74
BRANCH  62  85
ATOM     85  C   UNL A   1      44.209  27.407  34.722  1.00  0.00     0.064 A 
ATOM     86  C   UNL A   1      45.467  27.992  34.924  1.00  0.00     0.173 A 
ATOM     87  C   UNL A   1      43.914  26.224  35.418  1.00  0.00     0.173 A 
ATOM     88  F   UNL A   1      45.800  29.119  34.275  1.00  0.00    -0.203 F 
ATOM     89  C   UNL A   1      46.403  27.401  35.768  1.00  0.00     0.198 A 
ATOM     90  C   UNL A   1      44.839  25.657  36.289  1.00  0.00     0.198 A 
ATOM     91  F   UNL A   1      42.720  25.631  35.271  1.00  0.00    -0.203 F 
ATOM     92  F   UNL A   1      47.618  27.950  35.906  1.00  0.00    -0.200 F 
ATOM     93  C   UNL A   1      46.085  26.240  36.457  1.00  0.00     0.200 A 
ATOM     94  F   UNL A   1      44.522  24.547  36.971  1.00  0.00    -0.200 F 
ATOM     95  F   UNL A   1      46.982  25.681  37.280  1.00  0.00    -0.200 F 
ENDBRANCH  62  85
ENDBRANCH  36  37
ENDBRANCH  29  31
ENDBRANCH  28  29
ENDBRANCH  27  28
ENDBRANCH  26  27
ENDBRANCH  25  26
ENDBRANCH  24  25
ENDBRANCH   1  24
TORSDOF 19
ENDMDL
