MODEL 1
REMARK VINA RESULT:     -11.2      0.000      0.000
REMARK SMILES COC(=O)[C@H]1CCN(S(=O)(=O)N2CCC[C@H](C(=O)OCCOCCOC(=O)c3ccc(-c4c5nc(c(-c6c(F)c(F)c(F)c(F)c6F)c6ccc([nH]6)c(-c6c(F)c(F)c(F)c(F)c6F)c6nc(c(-c7c(F)c(F)c(F)c(F)c7F)c7ccc4[nH]7)C=C6)C=C5)cc3)C2)C1
REMARK SMILES IDX 21 1 20 2 19 3 17 4 18 5 16 6 12 7 13 8 91 9 14 10 15 11
REMARK SMILES IDX 9 12 10 13 11 14 8 15 5 16 6 17 92 18 7 19 3 20 4 21 2 22
REMARK SMILES IDX 1 23 22 24 23 25 24 26 25 27 26 28 27 29 28 30 29 31 90 32
REMARK SMILES IDX 30 33 89 34 31 35 32 36 33 37 83 38 34 39 88 40 82 41 84 42
REMARK SMILES IDX 35 43 87 44 81 45 80 46 36 48 68 49 48 50 67 51 49 52 52 53
REMARK SMILES IDX 66 54 85 55 50 56 51 57 65 59 86 60 53 61 37 62 38 63 46 64
REMARK SMILES IDX 39 65 40 66 44 67 47 68 41 69 42 70 45 71 43 72 69 73 70 74
REMARK SMILES IDX 78 75 71 76 72 77 76 78 79 79 73 80 74 81 77 82 75 83 54 84
REMARK SMILES IDX 55 85 63 86 56 87 57 88 61 89 64 90 58 91 59 92 62 93 60 94
REMARK H PARENT 84 47 52 58
REMARK Flexibility Score: inf
ROOT
ATOM      1  C   UNL A   1      32.467  30.004  25.694  1.00  0.00     0.202 C 
ENDROOT
BRANCH   1   2
ATOM      2  C   UNL A   1      33.230  28.688  25.854  1.00  0.00     0.261 C 
BRANCH   2   3
ATOM      3  O   UNL A   1      32.494  27.598  25.283  1.00  0.00    -0.463 OA
BRANCH   3   4
ATOM      4  C   UNL A   1      31.458  27.154  26.033  1.00  0.00     0.310 C 
ATOM      5  O   UNL A   1      31.399  27.197  27.257  1.00  0.00    -0.252 OA
BRANCH   4   6
ATOM      6  C   UNL A   1      30.312  26.616  25.205  1.00  0.00     0.114 C 
ATOM      7  N   UNL A   1      30.837  24.233  25.434  1.00  0.00    -0.188 NA
ATOM      8  C   UNL A   1      30.898  23.982  23.982  1.00  0.00     0.103 C 
ATOM      9  C   UNL A   1      29.902  25.304  25.817  1.00  0.00     0.118 C 
ATOM     10  C   UNL A   1      31.298  25.270  23.259  1.00  0.00     0.018 C 
ATOM     11  C   UNL A   1      30.462  26.474  23.688  1.00  0.00     0.018 C 
BRANCH   7  12
ATOM     12  S   UNL A   1      31.003  22.931  26.479  1.00  0.00     0.282 S 
ATOM     13  O   UNL A   1      31.029  21.720  25.699  1.00  0.00    -0.195 OA
ATOM     14  O   UNL A   1      30.049  23.106  27.552  1.00  0.00    -0.195 OA
BRANCH  12  15
ATOM     15  N   UNL A   1      32.558  23.164  27.129  1.00  0.00    -0.188 NA
ATOM     16  C   UNL A   1      34.501  22.022  26.198  1.00  0.00     0.116 C 
ATOM     17  C   UNL A   1      34.261  23.327  25.469  1.00  0.00     0.033 C 
ATOM     18  C   UNL A   1      33.350  21.884  27.199  1.00  0.00     0.118 C 
ATOM     19  C   UNL A   1      33.474  24.131  26.471  1.00  0.00     0.104 C 
BRANCH  16  20
ATOM     20  C   UNL A   1      34.607  20.890  25.209  1.00  0.00     0.310 C 
ATOM     21  O   UNL A   1      33.660  20.167  24.925  1.00  0.00    -0.252 OA
BRANCH  20  22
ATOM     22  O   UNL A   1      35.874  20.729  24.754  1.00  0.00    -0.469 OA
ATOM     23  C   UNL A   1      36.862  21.467  25.471  1.00  0.00     0.282 C 
ENDBRANCH  20  22
ENDBRANCH  16  20
ENDBRANCH  12  15
ENDBRANCH   7  12
ENDBRANCH   4   6
ENDBRANCH   3   4
ENDBRANCH   2   3
ENDBRANCH   1   2
BRANCH   1  24
ATOM     24  O   UNL A   1      32.096  30.714  26.873  1.00  0.00    -0.374 OA
BRANCH  24  25
ATOM     25  C   UNL A   1      31.374  31.936  26.745  1.00  0.00     0.202 C 
BRANCH  25  26
ATOM     26  C   UNL A   1      32.139  33.261  26.880  1.00  0.00     0.261 C 
BRANCH  26  27
ATOM     27  O   UNL A   1      32.704  33.466  28.188  1.00  0.00    -0.460 OA
BRANCH  27  28
ATOM     28  C   UNL A   1      33.840  34.206  28.190  1.00  0.00     0.338 C 
ATOM     29  O   UNL A   1      33.930  35.421  28.133  1.00  0.00    -0.246 OA
BRANCH  28  30
ATOM     30  C   UNL A   1      35.014  33.359  28.466  1.00  0.00     0.060 A 
ATOM     31  C   UNL A   1      34.773  32.070  28.961  1.00  0.00     0.016 A 
ATOM     32  C   UNL A   1      36.316  33.854  28.376  1.00  0.00     0.016 A 
ATOM     33  C   UNL A   1      35.827  31.292  29.425  1.00  0.00     0.010 A 
ATOM     34  C   UNL A   1      37.375  33.070  28.850  1.00  0.00     0.010 A 
ATOM     35  C   UNL A   1      37.130  31.804  29.415  1.00  0.00    -0.014 A 
BRANCH  35  36
ATOM     36  C   UNL A   1      38.203  31.066  30.129  1.00  0.00     0.031 A 
ATOM     37  C   UNL A   1      38.446  31.352  31.586  1.00  0.00     0.074 A 
ATOM     38  C   UNL A   1      38.919  30.120  29.497  1.00  0.00     0.049 A 
ATOM     39  N   UNL A   1      39.349  30.853  32.391  1.00  0.00    -0.248 NA
ATOM     40  C   UNL A   1      37.553  32.334  32.222  1.00  0.00     0.031 C 
ATOM     41  C   UNL A   1      38.744  29.724  28.102  1.00  0.00     0.029 A 
ATOM     42  N   UNL A   1      39.943  29.326  29.949  1.00  0.00    -0.354 N 
ATOM     43  C   UNL A   1      39.146  31.470  33.619  1.00  0.00     0.074 A 
ATOM     44  C   UNL A   1      38.049  32.399  33.448  1.00  0.00     0.031 C 
ATOM     45  C   UNL A   1      39.641  28.769  27.805  1.00  0.00     0.029 A 
ATOM     46  C   UNL A   1      40.478  28.517  28.978  1.00  0.00     0.049 A 
ATOM     47  H   UNL A   1      40.263  29.336  30.879  1.00  0.00     0.167 HD
ATOM     48  C   UNL A   1      39.809  31.272  34.784  1.00  0.00     0.037 A 
ATOM     49  C   UNL A   1      41.540  27.690  29.022  1.00  0.00     0.037 A 
ATOM     50  C   UNL A   1      40.890  30.336  34.950  1.00  0.00     0.049 A 
ATOM     51  C   UNL A   1      42.302  27.538  30.314  1.00  0.00     0.074 A 
ATOM     52  C   UNL A   1      41.603  30.039  36.098  1.00  0.00     0.029 A 
ATOM     53  N   UNL A   1      41.422  29.553  33.937  1.00  0.00    -0.354 N 
ATOM     54  N   UNL A   1      42.085  28.101  31.478  1.00  0.00    -0.248 NA
ATOM     55  C   UNL A   1      43.458  26.629  30.299  1.00  0.00     0.031 C 
ATOM     56  C   UNL A   1      42.612  29.129  35.765  1.00  0.00     0.029 A 
ATOM     57  C   UNL A   1      42.479  28.800  34.425  1.00  0.00     0.049 A 
ATOM     58  H   UNL A   1      41.098  29.534  33.006  1.00  0.00     0.167 HD
ATOM     59  C   UNL A   1      43.051  27.593  32.338  1.00  0.00     0.074 A 
ATOM     60  C   UNL A   1      43.847  26.663  31.565  1.00  0.00     0.031 C 
ATOM     61  C   UNL A   1      43.259  27.870  33.648  1.00  0.00     0.037 A 
BRANCH  48  62
ATOM     62  C   UNL A   1      39.412  32.107  35.968  1.00  0.00     0.064 A 
ATOM     63  C   UNL A   1      39.981  33.365  36.219  1.00  0.00     0.173 A 
ATOM     64  C   UNL A   1      38.400  31.663  36.835  1.00  0.00     0.173 A 
ATOM     65  F   UNL A   1      40.959  33.832  35.428  1.00  0.00    -0.203 F 
ATOM     66  C   UNL A   1      39.568  34.135  37.303  1.00  0.00     0.198 A 
ATOM     67  C   UNL A   1      37.967  32.450  37.898  1.00  0.00     0.198 A 
ATOM     68  F   UNL A   1      37.818  30.469  36.639  1.00  0.00    -0.203 F 
ATOM     69  F   UNL A   1      40.156  35.315  37.547  1.00  0.00    -0.200 F 
ATOM     70  C   UNL A   1      38.556  33.682  38.136  1.00  0.00     0.200 A 
ATOM     71  F   UNL A   1      36.977  32.016  38.690  1.00  0.00    -0.200 F 
ATOM     72  F   UNL A   1      38.150  34.431  39.170  1.00  0.00    -0.200 F 
ENDBRANCH  48  62
BRANCH  49  73
ATOM     73  C   UNL A   1      41.969  26.963  27.797  1.00  0.00     0.064 A 
ATOM     74  C   UNL A   1      41.495  25.675  27.513  1.00  0.00     0.173 A 
ATOM     75  C   UNL A   1      42.885  27.533  26.899  1.00  0.00     0.173 A 
ATOM     76  F   UNL A   1      40.639  25.075  28.353  1.00  0.00    -0.203 F 
ATOM     77  C   UNL A   1      41.942  24.975  26.394  1.00  0.00     0.198 A 
ATOM     78  C   UNL A   1      43.304  26.846  25.763  1.00  0.00     0.198 A 
ATOM     79  F   UNL A   1      43.372  28.762  27.127  1.00  0.00    -0.203 F 
ATOM     80  F   UNL A   1      41.521  23.720  26.180  1.00  0.00    -0.200 F 
ATOM     81  C   UNL A   1      42.841  25.563  25.517  1.00  0.00     0.200 A 
ATOM     82  F   UNL A   1      44.164  27.423  24.913  1.00  0.00    -0.200 F 
ATOM     83  F   UNL A   1      43.271  24.888  24.442  1.00  0.00    -0.200 F 
ENDBRANCH  49  73
BRANCH  61  84
ATOM     84  C   UNL A   1      44.362  27.126  34.349  1.00  0.00     0.064 A 
ATOM     85  C   UNL A   1      44.162  25.855  34.906  1.00  0.00     0.173 A 
ATOM     86  C   UNL A   1      45.650  27.680  34.428  1.00  0.00     0.173 A 
ATOM     87  F   UNL A   1      42.948  25.284  34.870  1.00  0.00    -0.203 F 
ATOM     88  C   UNL A   1      45.201  25.180  35.543  1.00  0.00     0.198 A 
ATOM     89  C   UNL A   1      46.695  26.987  35.032  1.00  0.00     0.198 A 
ATOM     90  F   UNL A   1      45.900  28.889  33.903  1.00  0.00    -0.203 F 
ATOM     91  F   UNL A   1      44.973  23.990  36.117  1.00  0.00    -0.200 F 
ATOM     92  C   UNL A   1      46.468  25.743  35.598  1.00  0.00     0.200 A 
ATOM     93  F   UNL A   1      47.922  27.524  35.066  1.00  0.00    -0.200 F 
ATOM     94  F   UNL A   1      47.468  25.087  36.202  1.00  0.00    -0.200 F 
ENDBRANCH  61  84
ENDBRANCH  35  36
ENDBRANCH  28  30
ENDBRANCH  27  28
ENDBRANCH  26  27
ENDBRANCH  25  26
ENDBRANCH  24  25
ENDBRANCH   1  24
TORSDOF 18
ENDMDL
MODEL 2
REMARK VINA RESULT:     -11.1      4.322     10.382
REMARK SMILES COC(=O)[C@H]1CCN(S(=O)(=O)N2CCC[C@H](C(=O)OCCOCCOC(=O)c3ccc(-c4c5nc(c(-c6c(F)c(F)c(F)c(F)c6F)c6ccc([nH]6)c(-c6c(F)c(F)c(F)c(F)c6F)c6nc(c(-c7c(F)c(F)c(F)c(F)c7F)c7ccc4[nH]7)C=C6)C=C5)cc3)C2)C1
REMARK SMILES IDX 21 1 20 2 19 3 17 4 18 5 16 6 12 7 13 8 91 9 14 10 15 11
REMARK SMILES IDX 9 12 10 13 11 14 8 15 5 16 6 17 92 18 7 19 3 20 4 21 2 22
REMARK SMILES IDX 1 23 22 24 23 25 24 26 25 27 26 28 27 29 28 30 29 31 90 32
REMARK SMILES IDX 30 33 89 34 31 35 32 36 33 37 83 38 34 39 88 40 82 41 84 42
REMARK SMILES IDX 35 43 87 44 81 45 80 46 36 48 68 49 48 50 67 51 49 52 52 53
REMARK SMILES IDX 66 54 85 55 50 56 51 57 65 59 86 60 53 61 37 62 38 63 46 64
REMARK SMILES IDX 39 65 40 66 44 67 47 68 41 69 42 70 45 71 43 72 69 73 70 74
REMARK SMILES IDX 78 75 71 76 72 77 76 78 79 79 73 80 74 81 77 82 75 83 54 84
REMARK SMILES IDX 55 85 63 86 56 87 57 88 61 89 64 90 58 91 59 92 62 93 60 94
REMARK H PARENT 84 47 52 58
REMARK Flexibility Score: inf
ROOT
ATOM      1  C   UNL A   1      36.283  22.376  25.477  1.00  0.00     0.202 C 
ENDROOT
BRANCH   1   2
ATOM      2  C   UNL A   1      35.574  22.648  24.149  1.00  0.00     0.261 C 
BRANCH   2   3
ATOM      3  O   UNL A   1      34.361  23.383  24.358  1.00  0.00    -0.463 OA
BRANCH   3   4
ATOM      4  C   UNL A   1      33.593  23.543  23.254  1.00  0.00     0.310 C 
ATOM      5  O   UNL A   1      33.891  24.220  22.276  1.00  0.00    -0.252 OA
BRANCH   4   6
ATOM      6  C   UNL A   1      32.304  22.753  23.308  1.00  0.00     0.114 C 
ATOM      7  N   UNL A   1      31.021  24.322  24.686  1.00  0.00    -0.188 NA
ATOM      8  C   UNL A   1      30.688  23.329  25.724  1.00  0.00     0.103 C 
ATOM      9  C   UNL A   1      31.176  23.749  23.339  1.00  0.00     0.118 C 
ATOM     10  C   UNL A   1      31.777  22.254  25.767  1.00  0.00     0.018 C 
ATOM     11  C   UNL A   1      32.102  21.686  24.387  1.00  0.00     0.018 C 
BRANCH   7  12
ATOM     12  S   UNL A   1      30.360  25.860  24.809  1.00  0.00     0.282 S 
ATOM     13  O   UNL A   1      30.181  26.169  26.205  1.00  0.00    -0.195 OA
ATOM     14  O   UNL A   1      29.253  25.936  23.880  1.00  0.00    -0.195 OA
BRANCH  12  15
ATOM     15  N   UNL A   1      31.604  26.854  24.210  1.00  0.00    -0.188 NA
ATOM     16  C   UNL A   1      31.104  28.911  22.999  1.00  0.00     0.116 C 
ATOM     17  C   UNL A   1      31.168  29.181  24.487  1.00  0.00     0.033 C 
ATOM     18  C   UNL A   1      31.294  27.399  22.840  1.00  0.00     0.118 C 
ATOM     19  C   UNL A   1      32.014  28.044  24.998  1.00  0.00     0.104 C 
BRANCH  16  20
ATOM     20  C   UNL A   1      29.812  29.440  22.433  1.00  0.00     0.310 C 
ATOM     21  O   UNL A   1      29.712  29.857  21.285  1.00  0.00    -0.252 OA
BRANCH  20  22
ATOM     22  O   UNL A   1      28.825  29.472  23.362  1.00  0.00    -0.469 OA
ATOM     23  C   UNL A   1      27.597  28.876  22.947  1.00  0.00     0.282 C 
ENDBRANCH  20  22
ENDBRANCH  16  20
ENDBRANCH  12  15
ENDBRANCH   7  12
ENDBRANCH   4   6
ENDBRANCH   3   4
ENDBRANCH   2   3
ENDBRANCH   1   2
BRANCH   1  24
ATOM     24  O   UNL A   1      37.597  21.825  25.438  1.00  0.00    -0.374 OA
BRANCH  24  25
ATOM     25  C   UNL A   1      37.764  20.464  25.052  1.00  0.00     0.202 C 
BRANCH  25  26
ATOM     26  C   UNL A   1      38.996  19.700  25.560  1.00  0.00     0.261 C 
BRANCH  26  27
ATOM     27  O   UNL A   1      40.170  20.524  25.687  1.00  0.00    -0.460 OA
BRANCH  27  28
ATOM     28  C   UNL A   1      40.708  20.533  26.932  1.00  0.00     0.338 C 
ATOM     29  O   UNL A   1      41.147  19.579  27.553  1.00  0.00    -0.246 OA
BRANCH  28  30
ATOM     30  C   UNL A   1      40.884  21.913  27.415  1.00  0.00     0.060 A 
ATOM     31  C   UNL A   1      40.252  22.932  26.690  1.00  0.00     0.016 A 
ATOM     32  C   UNL A   1      41.753  22.221  28.463  1.00  0.00     0.016 A 
ATOM     33  C   UNL A   1      40.531  24.265  26.969  1.00  0.00     0.010 A 
ATOM     34  C   UNL A   1      42.038  23.564  28.737  1.00  0.00     0.010 A 
ATOM     35  C   UNL A   1      41.461  24.590  27.964  1.00  0.00    -0.014 A 
BRANCH  35  36
ATOM     36  C   UNL A   1      41.928  25.993  28.088  1.00  0.00     0.031 A 
ATOM     37  C   UNL A   1      43.252  26.383  27.489  1.00  0.00     0.074 A 
ATOM     38  C   UNL A   1      41.160  26.919  28.687  1.00  0.00     0.049 A 
ATOM     39  N   UNL A   1      43.867  27.538  27.510  1.00  0.00    -0.248 NA
ATOM     40  C   UNL A   1      43.983  25.328  26.769  1.00  0.00     0.031 C 
ATOM     41  C   UNL A   1      39.840  26.673  29.264  1.00  0.00     0.029 A 
ATOM     42  N   UNL A   1      41.384  28.254  28.913  1.00  0.00    -0.354 N 
ATOM     43  C   UNL A   1      45.060  27.346  26.825  1.00  0.00     0.074 A 
ATOM     44  C   UNL A   1      45.096  25.956  26.421  1.00  0.00     0.031 C 
ATOM     45  C   UNL A   1      39.376  27.817  29.793  1.00  0.00     0.029 A 
ATOM     46  C   UNL A   1      40.382  28.864  29.626  1.00  0.00     0.049 A 
ATOM     47  H   UNL A   1      42.186  28.728  28.596  1.00  0.00     0.167 HD
ATOM     48  C   UNL A   1      46.032  28.249  26.553  1.00  0.00     0.037 A 
ATOM     49  C   UNL A   1      40.300  30.117  30.114  1.00  0.00     0.037 A 
ATOM     50  C   UNL A   1      45.984  29.634  26.946  1.00  0.00     0.049 A 
ATOM     51  C   UNL A   1      41.426  31.085  29.852  1.00  0.00     0.074 A 
ATOM     52  C   UNL A   1      46.902  30.635  26.689  1.00  0.00     0.029 A 
ATOM     53  N   UNL A   1      44.964  30.209  27.691  1.00  0.00    -0.354 N 
ATOM     54  N   UNL A   1      42.537  30.905  29.179  1.00  0.00    -0.248 NA
ATOM     55  C   UNL A   1      41.285  32.435  30.418  1.00  0.00     0.031 C 
ATOM     56  C   UNL A   1      46.476  31.799  27.335  1.00  0.00     0.029 A 
ATOM     57  C   UNL A   1      45.252  31.544  27.933  1.00  0.00     0.049 A 
ATOM     58  H   UNL A   1      44.156  29.740  28.002  1.00  0.00     0.167 HD
ATOM     59  C   UNL A   1      43.208  32.121  29.211  1.00  0.00     0.074 A 
ATOM     60  C   UNL A   1      42.372  33.037  29.958  1.00  0.00     0.031 C 
ATOM     61  C   UNL A   1      44.407  32.450  28.670  1.00  0.00     0.037 A 
BRANCH  48  62
ATOM     62  C   UNL A   1      47.254  27.768  25.823  1.00  0.00     0.064 A 
ATOM     63  C   UNL A   1      47.315  27.718  24.423  1.00  0.00     0.173 A 
ATOM     64  C   UNL A   1      48.406  27.406  26.541  1.00  0.00     0.173 A 
ATOM     65  F   UNL A   1      46.240  28.043  23.689  1.00  0.00    -0.203 F 
ATOM     66  C   UNL A   1      48.473  27.303  23.769  1.00  0.00     0.198 A 
ATOM     67  C   UNL A   1      49.572  27.024  25.884  1.00  0.00     0.198 A 
ATOM     68  F   UNL A   1      48.405  27.440  27.883  1.00  0.00    -0.203 F 
ATOM     69  F   UNL A   1      48.493  27.223  22.432  1.00  0.00    -0.200 F 
ATOM     70  C   UNL A   1      49.603  26.965  24.500  1.00  0.00     0.200 A 
ATOM     71  F   UNL A   1      50.667  26.715  26.592  1.00  0.00    -0.200 F 
ATOM     72  F   UNL A   1      50.721  26.581  23.869  1.00  0.00    -0.200 F 
ENDBRANCH  48  62
BRANCH  49  73
ATOM     73  C   UNL A   1      39.122  30.524  30.926  1.00  0.00     0.064 A 
ATOM     74  C   UNL A   1      37.996  31.111  30.332  1.00  0.00     0.173 A 
ATOM     75  C   UNL A   1      39.112  30.360  32.320  1.00  0.00     0.173 A 
ATOM     76  F   UNL A   1      37.967  31.315  29.006  1.00  0.00    -0.203 F 
ATOM     77  C   UNL A   1      36.918  31.542  31.103  1.00  0.00     0.198 A 
ATOM     78  C   UNL A   1      38.019  30.759  33.085  1.00  0.00     0.198 A 
ATOM     79  F   UNL A   1      40.166  29.808  32.939  1.00  0.00    -0.203 F 
ATOM     80  F   UNL A   1      35.882  32.156  30.516  1.00  0.00    -0.200 F 
ATOM     81  C   UNL A   1      36.927  31.360  32.477  1.00  0.00     0.200 A 
ATOM     82  F   UNL A   1      38.029  30.572  34.412  1.00  0.00    -0.200 F 
ATOM     83  F   UNL A   1      35.892  31.776  33.218  1.00  0.00    -0.200 F 
ENDBRANCH  49  73
BRANCH  61  84
ATOM     84  C   UNL A   1      44.871  33.872  28.822  1.00  0.00     0.064 A 
ATOM     85  C   UNL A   1      45.691  34.275  29.886  1.00  0.00     0.173 A 
ATOM     86  C   UNL A   1      44.522  34.836  27.862  1.00  0.00     0.173 A 
ATOM     87  F   UNL A   1      46.044  33.397  30.838  1.00  0.00    -0.203 F 
ATOM     88  C   UNL A   1      46.117  35.597  30.002  1.00  0.00     0.198 A 
ATOM     89  C   UNL A   1      44.982  36.147  27.961  1.00  0.00     0.198 A 
ATOM     90  F   UNL A   1      43.749  34.503  26.818  1.00  0.00    -0.203 F 
ATOM     91  F   UNL A   1      46.853  35.971  31.057  1.00  0.00    -0.200 F 
ATOM     92  C   UNL A   1      45.769  36.528  29.035  1.00  0.00     0.200 A 
ATOM     93  F   UNL A   1      44.660  37.040  27.015  1.00  0.00    -0.200 F 
ATOM     94  F   UNL A   1      46.188  37.797  29.143  1.00  0.00    -0.200 F 
ENDBRANCH  61  84
ENDBRANCH  35  36
ENDBRANCH  28  30
ENDBRANCH  27  28
ENDBRANCH  26  27
ENDBRANCH  25  26
ENDBRANCH  24  25
ENDBRANCH   1  24
TORSDOF 18
ENDMDL
MODEL 3
REMARK VINA RESULT:     -11.0      1.517      7.637
REMARK SMILES COC(=O)[C@H]1CCN(S(=O)(=O)N2CCC[C@H](C(=O)OCCOCCOC(=O)c3ccc(-c4c5nc(c(-c6c(F)c(F)c(F)c(F)c6F)c6ccc([nH]6)c(-c6c(F)c(F)c(F)c(F)c6F)c6nc(c(-c7c(F)c(F)c(F)c(F)c7F)c7ccc4[nH]7)C=C6)C=C5)cc3)C2)C1
REMARK SMILES IDX 21 1 20 2 19 3 17 4 18 5 16 6 12 7 13 8 91 9 14 10 15 11
REMARK SMILES IDX 9 12 10 13 11 14 8 15 5 16 6 17 92 18 7 19 3 20 4 21 2 22
REMARK SMILES IDX 1 23 22 24 23 25 24 26 25 27 26 28 27 29 28 30 29 31 90 32
REMARK SMILES IDX 30 33 89 34 31 35 32 36 33 37 83 38 34 39 88 40 82 41 84 42
REMARK SMILES IDX 35 43 87 44 81 45 80 46 36 48 68 49 48 50 67 51 49 52 52 53
REMARK SMILES IDX 66 54 85 55 50 56 51 57 65 59 86 60 53 61 37 62 38 63 46 64
REMARK SMILES IDX 39 65 40 66 44 67 47 68 41 69 42 70 45 71 43 72 69 73 70 74
REMARK SMILES IDX 78 75 71 76 72 77 76 78 79 79 73 80 74 81 77 82 75 83 54 84
REMARK SMILES IDX 55 85 63 86 56 87 57 88 61 89 64 90 58 91 59 92 62 93 60 94
REMARK H PARENT 84 47 52 58
REMARK Flexibility Score: inf
ROOT
ATOM      1  C   UNL A   1      32.128  28.638  23.085  1.00  0.00     0.202 C 
ENDROOT
BRANCH   1   2
ATOM      2  C   UNL A   1      31.759  27.320  22.401  1.00  0.00     0.261 C 
BRANCH   2   3
ATOM      3  O   UNL A   1      32.223  26.201  23.167  1.00  0.00    -0.463 OA
BRANCH   3   4
ATOM      4  C   UNL A   1      31.252  25.500  23.800  1.00  0.00     0.310 C 
ATOM      5  O   UNL A   1      30.469  24.727  23.259  1.00  0.00    -0.252 OA
BRANCH   4   6
ATOM      6  C   UNL A   1      31.238  25.724  25.296  1.00  0.00     0.114 C 
ATOM      7  N   UNL A   1      32.898  24.022  25.893  1.00  0.00    -0.188 NA
ATOM      8  C   UNL A   1      32.014  23.316  26.838  1.00  0.00     0.103 C 
ATOM      9  C   UNL A   1      32.635  25.467  25.794  1.00  0.00     0.118 C 
ATOM     10  C   UNL A   1      30.555  23.525  26.424  1.00  0.00     0.018 C 
ATOM     11  C   UNL A   1      30.217  24.994  26.172  1.00  0.00     0.018 C 
BRANCH   7  12
ATOM     12  S   UNL A   1      34.488  23.506  25.747  1.00  0.00     0.282 S 
ATOM     13  O   UNL A   1      34.781  22.614  26.839  1.00  0.00    -0.195 OA
ATOM     14  O   UNL A   1      35.306  24.674  25.498  1.00  0.00    -0.195 OA
BRANCH  12  15
ATOM     15  N   UNL A   1      34.456  22.585  24.316  1.00  0.00    -0.188 NA
ATOM     16  C   UNL A   1      33.346  20.415  24.236  1.00  0.00     0.116 C 
ATOM     17  C   UNL A   1      32.359  21.521  23.925  1.00  0.00     0.033 C 
ATOM     18  C   UNL A   1      34.665  21.115  24.575  1.00  0.00     0.118 C 
ATOM     19  C   UNL A   1      33.249  22.641  23.453  1.00  0.00     0.104 C 
BRANCH  16  20
ATOM     20  C   UNL A   1      32.807  19.535  25.333  1.00  0.00     0.310 C 
ATOM     21  O   UNL A   1      33.020  19.750  26.521  1.00  0.00    -0.252 OA
BRANCH  20  22
ATOM     22  O   UNL A   1      32.147  18.457  24.843  1.00  0.00    -0.469 OA
ATOM     23  C   UNL A   1      32.605  17.201  25.342  1.00  0.00     0.282 C 
ENDBRANCH  20  22
ENDBRANCH  16  20
ENDBRANCH  12  15
ENDBRANCH   7  12
ENDBRANCH   4   6
ENDBRANCH   3   4
ENDBRANCH   2   3
ENDBRANCH   1   2
BRANCH   1  24
ATOM     24  O   UNL A   1      31.201  29.198  24.012  1.00  0.00    -0.374 OA
BRANCH  24  25
ATOM     25  C   UNL A   1      31.554  29.259  25.390  1.00  0.00     0.202 C 
BRANCH  25  26
ATOM     26  C   UNL A   1      32.707  30.180  25.815  1.00  0.00     0.261 C 
BRANCH  26  27
ATOM     27  O   UNL A   1      32.579  30.677  27.160  1.00  0.00    -0.460 OA
BRANCH  27  28
ATOM     28  C   UNL A   1      33.351  31.759  27.426  1.00  0.00     0.338 C 
ATOM     29  O   UNL A   1      32.995  32.924  27.484  1.00  0.00    -0.246 OA
BRANCH  28  30
ATOM     30  C   UNL A   1      34.704  31.347  27.841  1.00  0.00     0.060 A 
ATOM     31  C   UNL A   1      34.866  30.024  28.272  1.00  0.00     0.016 A 
ATOM     32  C   UNL A   1      35.755  32.260  27.939  1.00  0.00     0.016 A 
ATOM     33  C   UNL A   1      36.061  29.622  28.859  1.00  0.00     0.010 A 
ATOM     34  C   UNL A   1      36.954  31.855  28.536  1.00  0.00     0.010 A 
ATOM     35  C   UNL A   1      37.097  30.547  29.036  1.00  0.00    -0.014 A 
BRANCH  35  36
ATOM     36  C   UNL A   1      38.265  30.173  29.873  1.00  0.00     0.031 A 
ATOM     37  C   UNL A   1      39.280  29.206  29.328  1.00  0.00     0.074 A 
ATOM     38  C   UNL A   1      38.441  30.726  31.086  1.00  0.00     0.049 A 
ATOM     39  N   UNL A   1      40.352  28.717  29.899  1.00  0.00    -0.248 NA
ATOM     40  C   UNL A   1      39.059  28.724  27.956  1.00  0.00     0.031 C 
ATOM     41  C   UNL A   1      37.551  31.708  31.701  1.00  0.00     0.029 A 
ATOM     42  N   UNL A   1      39.429  30.533  32.019  1.00  0.00    -0.354 N 
ATOM     43  C   UNL A   1      40.921  27.859  28.965  1.00  0.00     0.074 A 
ATOM     44  C   UNL A   1      40.063  27.875  27.799  1.00  0.00     0.031 C 
ATOM     45  C   UNL A   1      38.025  32.022  32.919  1.00  0.00     0.029 A 
ATOM     46  C   UNL A   1      39.228  31.234  33.182  1.00  0.00     0.049 A 
ATOM     47  H   UNL A   1      40.205  29.947  31.870  1.00  0.00     0.167 HD
ATOM     48  C   UNL A   1      42.059  27.132  29.071  1.00  0.00     0.037 A 
ATOM     49  C   UNL A   1      39.919  31.218  34.338  1.00  0.00     0.037 A 
ATOM     50  C   UNL A   1      42.915  27.131  30.228  1.00  0.00     0.049 A 
ATOM     51  C   UNL A   1      41.145  30.349  34.451  1.00  0.00     0.074 A 
ATOM     52  C   UNL A   1      44.106  26.455  30.419  1.00  0.00     0.029 A 
ATOM     53  N   UNL A   1      42.664  27.834  31.398  1.00  0.00    -0.354 N 
ATOM     54  N   UNL A   1      41.694  29.565  33.555  1.00  0.00    -0.248 NA
ATOM     55  C   UNL A   1      41.854  30.367  35.740  1.00  0.00     0.031 C 
ATOM     56  C   UNL A   1      44.542  26.691  31.726  1.00  0.00     0.029 A 
ATOM     57  C   UNL A   1      43.661  27.577  32.327  1.00  0.00     0.049 A 
ATOM     58  H   UNL A   1      41.892  28.428  31.548  1.00  0.00     0.167 HD
ATOM     59  C   UNL A   1      42.824  29.024  34.157  1.00  0.00     0.074 A 
ATOM     60  C   UNL A   1      42.891  29.582  35.491  1.00  0.00     0.031 C 
ATOM     61  C   UNL A   1      43.723  28.146  33.650  1.00  0.00     0.037 A 
BRANCH  48  62
ATOM     62  C   UNL A   1      42.433  26.244  27.918  1.00  0.00     0.064 A 
ATOM     63  C   UNL A   1      41.846  24.985  27.724  1.00  0.00     0.173 A 
ATOM     64  C   UNL A   1      43.356  26.689  26.958  1.00  0.00     0.173 A 
ATOM     65  F   UNL A   1      40.966  24.507  28.617  1.00  0.00    -0.203 F 
ATOM     66  C   UNL A   1      42.183  24.197  26.627  1.00  0.00     0.198 A 
ATOM     67  C   UNL A   1      43.667  25.914  25.844  1.00  0.00     0.198 A 
ATOM     68  F   UNL A   1      43.946  27.888  27.091  1.00  0.00    -0.203 F 
ATOM     69  F   UNL A   1      41.641  22.980  26.485  1.00  0.00    -0.200 F 
ATOM     70  C   UNL A   1      43.086  24.666  25.683  1.00  0.00     0.200 A 
ATOM     71  F   UNL A   1      44.526  26.377  24.926  1.00  0.00    -0.200 F 
ATOM     72  F   UNL A   1      43.399  23.913  24.620  1.00  0.00    -0.200 F 
ENDBRANCH  48  62
BRANCH  49  73
ATOM     73  C   UNL A   1      39.453  32.030  35.495  1.00  0.00     0.064 A 
ATOM     74  C   UNL A   1      39.922  33.334  35.705  1.00  0.00     0.173 A 
ATOM     75  C   UNL A   1      38.549  31.504  36.431  1.00  0.00     0.173 A 
ATOM     76  F   UNL A   1      40.808  33.873  34.854  1.00  0.00    -0.203 F 
ATOM     77  C   UNL A   1      39.526  34.070  36.820  1.00  0.00     0.198 A 
ATOM     78  C   UNL A   1      38.128  32.254  37.526  1.00  0.00     0.198 A 
ATOM     79  F   UNL A   1      38.073  30.259  36.279  1.00  0.00    -0.203 F 
ATOM     80  F   UNL A   1      40.039  35.291  37.030  1.00  0.00    -0.200 F 
ATOM     81  C   UNL A   1      38.625  33.532  37.726  1.00  0.00     0.200 A 
ATOM     82  F   UNL A   1      37.248  31.733  38.393  1.00  0.00    -0.200 F 
ATOM     83  F   UNL A   1      38.247  34.239  38.798  1.00  0.00    -0.200 F 
ENDBRANCH  49  73
BRANCH  61  84
ATOM     84  C   UNL A   1      44.889  27.766  34.520  1.00  0.00     0.064 A 
ATOM     85  C   UNL A   1      46.055  28.543  34.581  1.00  0.00     0.173 A 
ATOM     86  C   UNL A   1      44.820  26.625  35.336  1.00  0.00     0.173 A 
ATOM     87  F   UNL A   1      46.179  29.637  33.812  1.00  0.00    -0.203 F 
ATOM     88  C   UNL A   1      47.119  28.176  35.401  1.00  0.00     0.198 A 
ATOM     89  C   UNL A   1      45.871  26.283  36.183  1.00  0.00     0.198 A 
ATOM     90  F   UNL A   1      43.725  25.850  35.326  1.00  0.00    -0.203 F 
ATOM     91  F   UNL A   1      48.244  28.905  35.401  1.00  0.00    -0.200 F 
ATOM     92  C   UNL A   1      47.023  27.052  36.207  1.00  0.00     0.200 A 
ATOM     93  F   UNL A   1      45.767  25.207  36.976  1.00  0.00    -0.200 F 
ATOM     94  F   UNL A   1      48.044  26.707  37.004  1.00  0.00    -0.200 F 
ENDBRANCH  61  84
ENDBRANCH  35  36
ENDBRANCH  28  30
ENDBRANCH  27  28
ENDBRANCH  26  27
ENDBRANCH  25  26
ENDBRANCH  24  25
ENDBRANCH   1  24
TORSDOF 18
ENDMDL
