MODEL 1
REMARK VINA RESULT:     -12.0      0.000      0.000
REMARK SMILES O=C(Cc1ccc(NC(=O)c2ccc(N3C(=O)c4ccccc4C3=O)cc2)cc1)OCCOCCOC(=O)c1ccc(-c2c3nc(c(-c4c(F)c(F)c(F)c(F)c4F)c4ccc([nH]4)c(-c4c(F)c(F)c(F)c(F)c4F)c4nc(c(-c5c(F)c(F)c(F)c(F)c5F)c5ccc2[nH]5)C=C4)C=C3)cc1
REMARK SMILES IDX 32 1 31 2 30 3 2 4 1 5 3 6 4 7 5 8 29 9 6 10 28 11 7 12 8 13
REMARK SMILES IDX 9 14 10 16 11 17 12 18 27 19 13 20 26 21 14 22 15 23 16 24
REMARK SMILES IDX 24 25 17 26 18 27 23 28 25 29 19 30 22 31 20 32 21 33 33 34
REMARK SMILES IDX 34 35 35 36 36 37 37 38 38 39 39 40 40 41 101 42 41 43
REMARK SMILES IDX 100 44 42 45 43 46 44 47 94 48 45 49 99 50 93 51 95 52 46 53
REMARK SMILES IDX 98 54 92 55 91 56 47 58 79 59 59 60 78 61 60 62 63 63 77 64
REMARK SMILES IDX 96 65 61 66 62 67 76 69 97 70 64 71 48 72 49 73 57 74 50 75
REMARK SMILES IDX 51 76 55 77 58 78 52 79 53 80 56 81 54 82 80 83 81 84 89 85
REMARK SMILES IDX 82 86 83 87 87 88 90 89 84 90 85 91 88 92 86 93 65 94 66 95
REMARK SMILES IDX 74 96 67 97 68 98 72 99 75 100 69 101 70 102 73 103 71 104
REMARK H PARENT 8 15 95 57 63 68
REMARK Flexibility Score: inf
ROOT
ATOM      1  C   UNL A   1      35.795  33.548  29.228  1.00  0.00     0.202 C 
ENDROOT
BRANCH   1   2
ATOM      2  C   UNL A   1      35.967  32.774  27.924  1.00  0.00     0.261 C 
BRANCH   2   3
ATOM      3  O   UNL A   1      35.638  31.378  28.017  1.00  0.00    -0.463 OA
BRANCH   3   4
ATOM      4  C   UNL A   1      34.406  30.854  27.800  1.00  0.00     0.310 C 
ATOM      5  O   UNL A   1      33.457  31.612  27.595  1.00  0.00    -0.252 OA
BRANCH   4   6
ATOM      6  C   UNL A   1      34.203  29.352  27.856  1.00  0.00     0.158 C 
BRANCH   6   7
ATOM      7  C   UNL A   1      33.524  28.765  26.647  1.00  0.00    -0.037 A 
ATOM      8  C   UNL A   1      32.156  28.493  26.678  1.00  0.00     0.006 A 
ATOM      9  C   UNL A   1      34.238  28.543  25.460  1.00  0.00     0.006 A 
ATOM     10  C   UNL A   1      31.493  28.148  25.508  1.00  0.00     0.026 A 
ATOM     11  C   UNL A   1      33.562  28.192  24.284  1.00  0.00     0.026 A 
ATOM     12  C   UNL A   1      32.171  28.081  24.289  1.00  0.00     0.041 A 
BRANCH  12  13
ATOM     13  N   UNL A   1      31.491  27.919  23.066  1.00  0.00    -0.322 N 
ATOM     14  C   UNL A   1      31.420  26.785  22.270  1.00  0.00     0.255 C 
ATOM     15  H   UNL A   1      31.004  28.708  22.735  1.00  0.00     0.170 HD
ATOM     16  O   UNL A   1      31.019  26.831  21.113  1.00  0.00    -0.269 OA
BRANCH  14  17
ATOM     17  C   UNL A   1      31.715  25.467  22.886  1.00  0.00     0.040 A 
ATOM     18  C   UNL A   1      30.723  24.751  23.552  1.00  0.00     0.016 A 
ATOM     19  C   UNL A   1      32.966  24.888  22.680  1.00  0.00     0.016 A 
ATOM     20  C   UNL A   1      30.946  23.402  23.886  1.00  0.00     0.028 A 
ATOM     21  C   UNL A   1      33.181  23.554  23.033  1.00  0.00     0.028 A 
ATOM     22  C   UNL A   1      32.163  22.758  23.590  1.00  0.00     0.052 A 
BRANCH  22  23
ATOM     23  N   UNL A   1      32.364  21.356  23.814  1.00  0.00    -0.242 N 
ATOM     24  C   UNL A   1      32.238  20.382  22.844  1.00  0.00     0.266 C 
ATOM     25  C   UNL A   1      32.660  20.768  25.032  1.00  0.00     0.266 C 
ATOM     26  O   UNL A   1      31.926  20.440  21.666  1.00  0.00    -0.268 OA
ATOM     27  C   UNL A   1      32.551  19.101  23.462  1.00  0.00     0.053 A 
ATOM     28  C   UNL A   1      32.797  19.330  24.795  1.00  0.00     0.053 A 
ATOM     29  O   UNL A   1      32.801  21.237  26.145  1.00  0.00    -0.268 OA
ATOM     30  C   UNL A   1      32.633  17.840  22.901  1.00  0.00     0.015 A 
ATOM     31  C   UNL A   1      33.126  18.296  25.653  1.00  0.00     0.015 A 
ATOM     32  C   UNL A   1      32.993  16.785  23.739  1.00  0.00     0.001 A 
ATOM     33  C   UNL A   1      33.230  17.011  25.108  1.00  0.00     0.001 A 
ENDBRANCH  22  23
ENDBRANCH  14  17
ENDBRANCH  12  13
ENDBRANCH   6   7
ENDBRANCH   4   6
ENDBRANCH   3   4
ENDBRANCH   2   3
ENDBRANCH   1   2
BRANCH   1  34
ATOM     34  O   UNL A   1      35.446  34.924  29.140  1.00  0.00    -0.374 OA
BRANCH  34  35
ATOM     35  C   UNL A   1      34.203  35.250  28.510  1.00  0.00     0.202 C 
BRANCH  35  36
ATOM     36  C   UNL A   1      33.036  35.685  29.405  1.00  0.00     0.261 C 
BRANCH  36  37
ATOM     37  O   UNL A   1      32.811  34.775  30.495  1.00  0.00    -0.460 OA
BRANCH  37  38
ATOM     38  C   UNL A   1      32.987  35.309  31.728  1.00  0.00     0.338 C 
ATOM     39  O   UNL A   1      32.215  36.027  32.340  1.00  0.00    -0.246 OA
BRANCH  38  40
ATOM     40  C   UNL A   1      34.189  34.721  32.348  1.00  0.00     0.060 A 
ATOM     41  C   UNL A   1      35.321  35.538  32.481  1.00  0.00     0.016 A 
ATOM     42  C   UNL A   1      34.224  33.387  32.753  1.00  0.00     0.016 A 
ATOM     43  C   UNL A   1      36.510  35.009  32.976  1.00  0.00     0.010 A 
ATOM     44  C   UNL A   1      35.420  32.857  33.242  1.00  0.00     0.010 A 
ATOM     45  C   UNL A   1      36.577  33.657  33.324  1.00  0.00    -0.014 A 
BRANCH  45  46
ATOM     46  C   UNL A   1      37.880  33.027  33.649  1.00  0.00     0.031 A 
ATOM     47  C   UNL A   1      38.393  31.930  32.764  1.00  0.00     0.074 A 
ATOM     48  C   UNL A   1      38.590  33.417  34.722  1.00  0.00     0.049 A 
ATOM     49  N   UNL A   1      39.433  31.153  32.928  1.00  0.00    -0.248 NA
ATOM     50  C   UNL A   1      37.646  31.686  31.520  1.00  0.00     0.031 C 
ATOM     51  C   UNL A   1      38.252  34.536  35.592  1.00  0.00     0.029 A 
ATOM     52  N   UNL A   1      39.724  32.887  35.286  1.00  0.00    -0.354 N 
ATOM     53  C   UNL A   1      39.473  30.341  31.802  1.00  0.00     0.074 A 
ATOM     54  C   UNL A   1      38.328  30.682  30.987  1.00  0.00     0.031 C 
ATOM     55  C   UNL A   1      39.098  34.556  36.635  1.00  0.00     0.029 A 
ATOM     56  C   UNL A   1      40.030  33.442  36.505  1.00  0.00     0.049 A 
ATOM     57  H   UNL A   1      40.263  32.181  34.861  1.00  0.00     0.167 HD
ATOM     58  C   UNL A   1      40.402  29.413  31.475  1.00  0.00     0.037 A 
ATOM     59  C   UNL A   1      40.931  33.063  37.430  1.00  0.00     0.037 A 
ATOM     60  C   UNL A   1      41.538  29.086  32.295  1.00  0.00     0.049 A 
ATOM     61  C   UNL A   1      41.857  31.920  37.116  1.00  0.00     0.074 A 
ATOM     62  C   UNL A   1      42.562  28.193  32.033  1.00  0.00     0.029 A 
ATOM     63  N   UNL A   1      41.791  29.629  33.547  1.00  0.00    -0.354 N 
ATOM     64  N   UNL A   1      41.917  31.181  36.036  1.00  0.00    -0.248 NA
ATOM     65  C   UNL A   1      42.858  31.578  38.135  1.00  0.00     0.031 C 
ATOM     66  C   UNL A   1      43.396  28.145  33.155  1.00  0.00     0.029 A 
ATOM     67  C   UNL A   1      42.931  29.056  34.089  1.00  0.00     0.049 A 
ATOM     68  H   UNL A   1      41.243  30.320  33.984  1.00  0.00     0.167 HD
ATOM     69  C   UNL A   1      42.992  30.322  36.220  1.00  0.00     0.074 A 
ATOM     70  C   UNL A   1      43.552  30.632  37.520  1.00  0.00     0.031 C 
ATOM     71  C   UNL A   1      43.478  29.374  35.383  1.00  0.00     0.037 A 
BRANCH  58  72
ATOM     72  C   UNL A   1      40.229  28.674  30.182  1.00  0.00     0.064 A 
ATOM     73  C   UNL A   1      40.807  29.130  28.987  1.00  0.00     0.173 A 
ATOM     74  C   UNL A   1      39.535  27.454  30.152  1.00  0.00     0.173 A 
ATOM     75  F   UNL A   1      41.468  30.297  28.959  1.00  0.00    -0.203 F 
ATOM     76  C   UNL A   1      40.687  28.397  27.809  1.00  0.00     0.198 A 
ATOM     77  C   UNL A   1      39.442  26.711  28.979  1.00  0.00     0.198 A 
ATOM     78  F   UNL A   1      38.964  26.975  31.268  1.00  0.00    -0.203 F 
ATOM     79  F   UNL A   1      41.219  28.866  26.672  1.00  0.00    -0.200 F 
ATOM     80  C   UNL A   1      40.014  27.183  27.809  1.00  0.00     0.200 A 
ATOM     81  F   UNL A   1      38.803  25.533  28.985  1.00  0.00    -0.200 F 
ATOM     82  F   UNL A   1      39.917  26.470  26.678  1.00  0.00    -0.200 F 
ENDBRANCH  58  72
BRANCH  59  83
ATOM     83  C   UNL A   1      40.977  33.739  38.753  1.00  0.00     0.064 A 
ATOM     84  C   UNL A   1      41.917  34.740  39.030  1.00  0.00     0.173 A 
ATOM     85  C   UNL A   1      40.106  33.356  39.784  1.00  0.00     0.173 A 
ATOM     86  F   UNL A   1      42.786  35.121  38.085  1.00  0.00    -0.203 F 
ATOM     87  C   UNL A   1      42.004  35.311  40.300  1.00  0.00     0.198 A 
ATOM     88  C   UNL A   1      40.174  33.949  41.043  1.00  0.00     0.198 A 
ATOM     89  F   UNL A   1      39.196  32.393  39.572  1.00  0.00    -0.203 F 
ATOM     90  F   UNL A   1      42.953  36.221  40.556  1.00  0.00    -0.200 F 
ATOM     91  C   UNL A   1      41.131  34.917  41.303  1.00  0.00     0.200 A 
ATOM     92  F   UNL A   1      39.323  33.570  42.007  1.00  0.00    -0.200 F 
ATOM     93  F   UNL A   1      41.223  35.459  42.525  1.00  0.00    -0.200 F 
ENDBRANCH  59  83
BRANCH  71  94
ATOM     94  C   UNL A   1      44.707  28.635  35.826  1.00  0.00     0.064 A 
ATOM     95  C   UNL A   1      44.627  27.436  36.548  1.00  0.00     0.173 A 
ATOM     96  C   UNL A   1      45.982  29.124  35.503  1.00  0.00     0.173 A 
ATOM     97  F   UNL A   1      43.433  26.936  36.899  1.00  0.00    -0.203 F 
ATOM     98  C   UNL A   1      45.780  26.770  36.957  1.00  0.00     0.198 A 
ATOM     99  C   UNL A   1      47.131  28.436  35.880  1.00  0.00     0.198 A 
ATOM    100  F   UNL A   1      46.113  30.265  34.809  1.00  0.00    -0.203 F 
ATOM    101  F   UNL A   1      45.681  25.658  37.698  1.00  0.00    -0.200 F 
ATOM    102  C   UNL A   1      47.029  27.266  36.616  1.00  0.00     0.200 A 
ATOM    103  F   UNL A   1      48.336  28.909  35.535  1.00  0.00    -0.200 F 
ATOM    104  F   UNL A   1      48.137  26.620  37.005  1.00  0.00    -0.200 F 
ENDBRANCH  71  94
ENDBRANCH  45  46
ENDBRANCH  38  40
ENDBRANCH  37  38
ENDBRANCH  36  37
ENDBRANCH  35  36
ENDBRANCH  34  35
ENDBRANCH   1  34
TORSDOF 18
ENDMDL
MODEL 2
REMARK VINA RESULT:     -11.6      3.681     10.063
REMARK SMILES O=C(Cc1ccc(NC(=O)c2ccc(N3C(=O)c4ccccc4C3=O)cc2)cc1)OCCOCCOC(=O)c1ccc(-c2c3nc(c(-c4c(F)c(F)c(F)c(F)c4F)c4ccc([nH]4)c(-c4c(F)c(F)c(F)c(F)c4F)c4nc(c(-c5c(F)c(F)c(F)c(F)c5F)c5ccc2[nH]5)C=C4)C=C3)cc1
REMARK SMILES IDX 32 1 31 2 30 3 2 4 1 5 3 6 4 7 5 8 29 9 6 10 28 11 7 12 8 13
REMARK SMILES IDX 9 14 10 16 11 17 12 18 27 19 13 20 26 21 14 22 15 23 16 24
REMARK SMILES IDX 24 25 17 26 18 27 23 28 25 29 19 30 22 31 20 32 21 33 33 34
REMARK SMILES IDX 34 35 35 36 36 37 37 38 38 39 39 40 40 41 101 42 41 43
REMARK SMILES IDX 100 44 42 45 43 46 44 47 94 48 45 49 99 50 93 51 95 52 46 53
REMARK SMILES IDX 98 54 92 55 91 56 47 58 79 59 59 60 78 61 60 62 63 63 77 64
REMARK SMILES IDX 96 65 61 66 62 67 76 69 97 70 64 71 48 72 49 73 57 74 50 75
REMARK SMILES IDX 51 76 55 77 58 78 52 79 53 80 56 81 54 82 80 83 81 84 89 85
REMARK SMILES IDX 82 86 83 87 87 88 90 89 84 90 85 91 88 92 86 93 65 94 66 95
REMARK SMILES IDX 74 96 67 97 68 98 72 99 75 100 69 101 70 102 73 103 71 104
REMARK H PARENT 8 15 95 57 63 68
REMARK Flexibility Score: inf
ROOT
ATOM      1  C   UNL A   1      41.743  22.116  26.335  1.00  0.00     0.202 C 
ENDROOT
BRANCH   1   2
ATOM      2  C   UNL A   1      40.281  21.674  26.333  1.00  0.00     0.261 C 
BRANCH   2   3
ATOM      3  O   UNL A   1      39.389  22.581  26.999  1.00  0.00    -0.463 OA
BRANCH   3   4
ATOM      4  C   UNL A   1      38.906  23.730  26.464  1.00  0.00     0.310 C 
ATOM      5  O   UNL A   1      39.391  24.807  26.810  1.00  0.00    -0.252 OA
BRANCH   4   6
ATOM      6  C   UNL A   1      37.750  23.678  25.481  1.00  0.00     0.158 C 
BRANCH   6   7
ATOM      7  C   UNL A   1      36.904  22.436  25.573  1.00  0.00    -0.037 A 
ATOM      8  C   UNL A   1      35.756  22.431  26.365  1.00  0.00     0.006 A 
ATOM      9  C   UNL A   1      37.219  21.296  24.819  1.00  0.00     0.006 A 
ATOM     10  C   UNL A   1      34.869  21.365  26.290  1.00  0.00     0.026 A 
ATOM     11  C   UNL A   1      36.321  20.223  24.751  1.00  0.00     0.026 A 
ATOM     12  C   UNL A   1      35.099  20.297  25.420  1.00  0.00     0.041 A 
BRANCH  12  13
ATOM     13  N   UNL A   1      34.128  19.303  25.189  1.00  0.00    -0.322 N 
ATOM     14  C   UNL A   1      32.766  19.467  24.988  1.00  0.00     0.255 C 
ATOM     15  H   UNL A   1      34.458  18.375  25.168  1.00  0.00     0.170 HD
ATOM     16  O   UNL A   1      31.984  18.525  25.054  1.00  0.00    -0.269 OA
BRANCH  14  17
ATOM     17  C   UNL A   1      32.268  20.796  24.555  1.00  0.00     0.040 A 
ATOM     18  C   UNL A   1      31.611  21.639  25.448  1.00  0.00     0.016 A 
ATOM     19  C   UNL A   1      32.578  21.252  23.275  1.00  0.00     0.016 A 
ATOM     20  C   UNL A   1      31.392  22.986  25.100  1.00  0.00     0.028 A 
ATOM     21  C   UNL A   1      32.339  22.585  22.934  1.00  0.00     0.028 A 
ATOM     22  C   UNL A   1      31.795  23.502  23.853  1.00  0.00     0.052 A 
BRANCH  22  23
ATOM     23  N   UNL A   1      31.689  24.895  23.528  1.00  0.00    -0.242 N 
ATOM     24  C   UNL A   1      30.516  25.622  23.573  1.00  0.00     0.266 C 
ATOM     25  C   UNL A   1      32.721  25.699  23.077  1.00  0.00     0.266 C 
ATOM     26  O   UNL A   1      29.370  25.304  23.844  1.00  0.00    -0.268 OA
ATOM     27  C   UNL A   1      30.834  26.994  23.204  1.00  0.00     0.053 A 
ATOM     28  C   UNL A   1      32.171  27.043  22.890  1.00  0.00     0.053 A 
ATOM     29  O   UNL A   1      33.890  25.460  22.839  1.00  0.00    -0.268 OA
ATOM     30  C   UNL A   1      30.024  28.114  23.163  1.00  0.00     0.015 A 
ATOM     31  C   UNL A   1      32.776  28.224  22.499  1.00  0.00     0.015 A 
ATOM     32  C   UNL A   1      30.616  29.323  22.802  1.00  0.00     0.001 A 
ATOM     33  C   UNL A   1      31.981  29.377  22.464  1.00  0.00     0.001 A 
ENDBRANCH  22  23
ENDBRANCH  14  17
ENDBRANCH  12  13
ENDBRANCH   6   7
ENDBRANCH   4   6
ENDBRANCH   3   4
ENDBRANCH   2   3
ENDBRANCH   1   2
BRANCH   1  34
ATOM     34  O   UNL A   1      42.617  21.518  25.386  1.00  0.00    -0.374 OA
BRANCH  34  35
ATOM     35  C   UNL A   1      43.666  22.331  24.852  1.00  0.00     0.202 C 
BRANCH  35  36
ATOM     36  C   UNL A   1      45.080  22.140  25.414  1.00  0.00     0.261 C 
BRANCH  36  37
ATOM     37  O   UNL A   1      45.362  23.028  26.509  1.00  0.00    -0.460 OA
BRANCH  37  38
ATOM     38  C   UNL A   1      45.624  24.308  26.151  1.00  0.00     0.338 C 
ATOM     39  O   UNL A   1      46.271  24.691  25.190  1.00  0.00    -0.246 OA
BRANCH  38  40
ATOM     40  C   UNL A   1      44.825  25.224  26.986  1.00  0.00     0.060 A 
ATOM     41  C   UNL A   1      45.152  26.587  26.959  1.00  0.00     0.016 A 
ATOM     42  C   UNL A   1      43.804  24.755  27.811  1.00  0.00     0.016 A 
ATOM     43  C   UNL A   1      44.491  27.482  27.796  1.00  0.00     0.010 A 
ATOM     44  C   UNL A   1      43.146  25.653  28.656  1.00  0.00     0.010 A 
ATOM     45  C   UNL A   1      43.510  27.015  28.676  1.00  0.00    -0.014 A 
BRANCH  45  46
ATOM     46  C   UNL A   1      42.948  27.907  29.718  1.00  0.00     0.031 A 
ATOM     47  C   UNL A   1      43.581  27.920  31.078  1.00  0.00     0.074 A 
ATOM     48  C   UNL A   1      41.881  28.685  29.463  1.00  0.00     0.049 A 
ATOM     49  N   UNL A   1      43.181  28.515  32.171  1.00  0.00    -0.248 NA
ATOM     50  C   UNL A   1      44.843  27.176  31.221  1.00  0.00     0.031 C 
ATOM     51  C   UNL A   1      41.246  28.839  28.161  1.00  0.00     0.029 A 
ATOM     52  N   UNL A   1      41.118  29.461  30.300  1.00  0.00    -0.354 N 
ATOM     53  C   UNL A   1      44.149  28.232  33.126  1.00  0.00     0.074 A 
ATOM     54  C   UNL A   1      45.128  27.371  32.501  1.00  0.00     0.031 C 
ATOM     55  C   UNL A   1      40.134  29.581  28.296  1.00  0.00     0.029 A 
ATOM     56  C   UNL A   1      39.980  29.942  29.700  1.00  0.00     0.049 A 
ATOM     57  H   UNL A   1      41.362  29.653  31.234  1.00  0.00     0.167 HD
ATOM     58  C   UNL A   1      44.218  28.677  34.402  1.00  0.00     0.037 A 
ATOM     59  C   UNL A   1      38.913  30.564  30.235  1.00  0.00     0.037 A 
ATOM     60  C   UNL A   1      43.236  29.536  35.010  1.00  0.00     0.049 A 
ATOM     61  C   UNL A   1      38.934  30.913  31.698  1.00  0.00     0.074 A 
ATOM     62  C   UNL A   1      43.237  30.080  36.283  1.00  0.00     0.029 A 
ATOM     63  N   UNL A   1      42.070  29.964  34.393  1.00  0.00    -0.354 N 
ATOM     64  N   UNL A   1      39.867  30.678  32.588  1.00  0.00    -0.248 NA
ATOM     65  C   UNL A   1      37.771  31.638  32.225  1.00  0.00     0.031 C 
ATOM     66  C   UNL A   1      42.038  30.778  36.458  1.00  0.00     0.029 A 
ATOM     67  C   UNL A   1      41.321  30.727  35.275  1.00  0.00     0.049 A 
ATOM     68  H   UNL A   1      41.813  29.756  33.466  1.00  0.00     0.167 HD
ATOM     69  C   UNL A   1      39.430  31.269  33.765  1.00  0.00     0.074 A 
ATOM     70  C   UNL A   1      38.145  31.872  33.474  1.00  0.00     0.031 C 
ATOM     71  C   UNL A   1      40.044  31.321  34.972  1.00  0.00     0.037 A 
BRANCH  58  72
ATOM     72  C   UNL A   1      45.384  28.237  35.235  1.00  0.00     0.064 A 
ATOM     73  C   UNL A   1      45.379  27.016  35.926  1.00  0.00     0.173 A 
ATOM     74  C   UNL A   1      46.551  29.015  35.286  1.00  0.00     0.173 A 
ATOM     75  F   UNL A   1      44.283  26.242  35.922  1.00  0.00    -0.203 F 
ATOM     76  C   UNL A   1      46.495  26.595  36.644  1.00  0.00     0.198 A 
ATOM     77  C   UNL A   1      47.674  28.578  35.981  1.00  0.00     0.198 A 
ATOM     78  F   UNL A   1      46.607  30.192  34.643  1.00  0.00    -0.203 F 
ATOM     79  F   UNL A   1      46.458  25.440  37.323  1.00  0.00    -0.200 F 
ATOM     80  C   UNL A   1      47.646  27.371  36.662  1.00  0.00     0.200 A 
ATOM     81  F   UNL A   1      48.788  29.323  35.986  1.00  0.00    -0.200 F 
ATOM     82  F   UNL A   1      48.726  26.955  37.338  1.00  0.00    -0.200 F 
ENDBRANCH  58  72
BRANCH  59  83
ATOM     83  C   UNL A   1      37.721  30.861  29.399  1.00  0.00     0.064 A 
ATOM     84  C   UNL A   1      37.470  32.151  28.914  1.00  0.00     0.173 A 
ATOM     85  C   UNL A   1      36.780  29.861  29.113  1.00  0.00     0.173 A 
ATOM     86  F   UNL A   1      38.328  33.145  29.184  1.00  0.00    -0.203 F 
ATOM     87  C   UNL A   1      36.308  32.435  28.198  1.00  0.00     0.198 A 
ATOM     88  C   UNL A   1      35.634  30.139  28.371  1.00  0.00     0.198 A 
ATOM     89  F   UNL A   1      36.968  28.612  29.565  1.00  0.00    -0.203 F 
ATOM     90  F   UNL A   1      36.063  33.690  27.800  1.00  0.00    -0.200 F 
ATOM     91  C   UNL A   1      35.393  31.429  27.926  1.00  0.00     0.200 A 
ATOM     92  F   UNL A   1      34.757  29.162  28.103  1.00  0.00    -0.200 F 
ATOM     93  F   UNL A   1      34.271  31.707  27.247  1.00  0.00    -0.200 F 
ENDBRANCH  59  83
BRANCH  71  94
ATOM     94  C   UNL A   1      39.355  32.096  36.057  1.00  0.00     0.064 A 
ATOM     95  C   UNL A   1      39.625  33.454  36.281  1.00  0.00     0.173 A 
ATOM     96  C   UNL A   1      38.394  31.474  36.869  1.00  0.00     0.173 A 
ATOM     97  F   UNL A   1      40.549  34.089  35.546  1.00  0.00    -0.203 F 
ATOM     98  C   UNL A   1      38.980  34.151  37.299  1.00  0.00     0.198 A 
ATOM     99  C   UNL A   1      37.724  32.184  37.860  1.00  0.00     0.198 A 
ATOM    100  F   UNL A   1      38.095  30.178  36.692  1.00  0.00    -0.203 F 
ATOM    101  F   UNL A   1      39.297  35.432  37.535  1.00  0.00    -0.200 F 
ATOM    102  C   UNL A   1      38.026  33.520  38.082  1.00  0.00     0.200 A 
ATOM    103  F   UNL A   1      36.791  31.575  38.603  1.00  0.00    -0.200 F 
ATOM    104  F   UNL A   1      37.402  34.195  39.056  1.00  0.00    -0.200 F 
ENDBRANCH  71  94
ENDBRANCH  45  46
ENDBRANCH  38  40
ENDBRANCH  37  38
ENDBRANCH  36  37
ENDBRANCH  35  36
ENDBRANCH  34  35
ENDBRANCH   1  34
TORSDOF 18
ENDMDL
MODEL 3
REMARK VINA RESULT:     -11.5      5.641     11.486
REMARK SMILES O=C(Cc1ccc(NC(=O)c2ccc(N3C(=O)c4ccccc4C3=O)cc2)cc1)OCCOCCOC(=O)c1ccc(-c2c3nc(c(-c4c(F)c(F)c(F)c(F)c4F)c4ccc([nH]4)c(-c4c(F)c(F)c(F)c(F)c4F)c4nc(c(-c5c(F)c(F)c(F)c(F)c5F)c5ccc2[nH]5)C=C4)C=C3)cc1
REMARK SMILES IDX 32 1 31 2 30 3 2 4 1 5 3 6 4 7 5 8 29 9 6 10 28 11 7 12 8 13
REMARK SMILES IDX 9 14 10 16 11 17 12 18 27 19 13 20 26 21 14 22 15 23 16 24
REMARK SMILES IDX 24 25 17 26 18 27 23 28 25 29 19 30 22 31 20 32 21 33 33 34
REMARK SMILES IDX 34 35 35 36 36 37 37 38 38 39 39 40 40 41 101 42 41 43
REMARK SMILES IDX 100 44 42 45 43 46 44 47 94 48 45 49 99 50 93 51 95 52 46 53
REMARK SMILES IDX 98 54 92 55 91 56 47 58 79 59 59 60 78 61 60 62 63 63 77 64
REMARK SMILES IDX 96 65 61 66 62 67 76 69 97 70 64 71 48 72 49 73 57 74 50 75
REMARK SMILES IDX 51 76 55 77 58 78 52 79 53 80 56 81 54 82 80 83 81 84 89 85
REMARK SMILES IDX 82 86 83 87 87 88 90 89 84 90 85 91 88 92 86 93 65 94 66 95
REMARK SMILES IDX 74 96 67 97 68 98 72 99 75 100 69 101 70 102 73 103 71 104
REMARK H PARENT 8 15 95 57 63 68
REMARK Flexibility Score: inf
ROOT
ATOM      1  C   UNL A   1      44.287  24.561  25.641  1.00  0.00     0.202 C 
ENDROOT
BRANCH   1   2
ATOM      2  C   UNL A   1      42.843  24.927  25.308  1.00  0.00     0.261 C 
BRANCH   2   3
ATOM      3  O   UNL A   1      42.390  26.151  25.908  1.00  0.00    -0.463 OA
BRANCH   3   4
ATOM      4  C   UNL A   1      41.094  26.454  26.175  1.00  0.00     0.310 C 
ATOM      5  O   UNL A   1      40.243  25.567  26.109  1.00  0.00    -0.252 OA
BRANCH   4   6
ATOM      6  C   UNL A   1      40.705  27.882  26.506  1.00  0.00     0.158 C 
BRANCH   6   7
ATOM      7  C   UNL A   1      40.383  28.124  27.957  1.00  0.00    -0.037 A 
ATOM      8  C   UNL A   1      39.403  27.358  28.591  1.00  0.00     0.006 A 
ATOM      9  C   UNL A   1      41.099  29.071  28.704  1.00  0.00     0.006 A 
ATOM     10  C   UNL A   1      39.249  27.437  29.969  1.00  0.00     0.026 A 
ATOM     11  C   UNL A   1      40.936  29.146  30.093  1.00  0.00     0.026 A 
ATOM     12  C   UNL A   1      40.071  28.262  30.739  1.00  0.00     0.041 A 
BRANCH  12  13
ATOM     13  N   UNL A   1      40.060  28.218  32.147  1.00  0.00    -0.322 N 
ATOM     14  C   UNL A   1      39.602  29.185  33.030  1.00  0.00     0.255 C 
ATOM     15  H   UNL A   1      40.422  27.399  32.556  1.00  0.00     0.170 HD
ATOM     16  O   UNL A   1      39.874  29.152  34.225  1.00  0.00    -0.269 OA
BRANCH  14  17
ATOM     17  C   UNL A   1      38.651  30.210  32.530  1.00  0.00     0.040 A 
ATOM     18  C   UNL A   1      37.305  29.904  32.342  1.00  0.00     0.016 A 
ATOM     19  C   UNL A   1      39.091  31.522  32.371  1.00  0.00     0.016 A 
ATOM     20  C   UNL A   1      36.380  30.944  32.132  1.00  0.00     0.028 A 
ATOM     21  C   UNL A   1      38.165  32.543  32.144  1.00  0.00     0.028 A 
ATOM     22  C   UNL A   1      36.782  32.292  32.077  1.00  0.00     0.052 A 
BRANCH  22  23
ATOM     23  N   UNL A   1      35.842  33.371  31.984  1.00  0.00    -0.242 N 
ATOM     24  C   UNL A   1      35.803  34.452  32.841  1.00  0.00     0.266 C 
ATOM     25  C   UNL A   1      34.811  33.466  31.064  1.00  0.00     0.266 C 
ATOM     26  O   UNL A   1      36.468  34.738  33.823  1.00  0.00    -0.268 OA
ATOM     27  C   UNL A   1      34.733  35.331  32.394  1.00  0.00     0.053 A 
ATOM     28  C   UNL A   1      34.119  34.730  31.320  1.00  0.00     0.053 A 
ATOM     29  O   UNL A   1      34.447  32.719  30.176  1.00  0.00    -0.268 OA
ATOM     30  C   UNL A   1      34.338  36.567  32.874  1.00  0.00     0.015 A 
ATOM     31  C   UNL A   1      33.056  35.330  30.670  1.00  0.00     0.015 A 
ATOM     32  C   UNL A   1      33.287  37.206  32.216  1.00  0.00     0.001 A 
ATOM     33  C   UNL A   1      32.645  36.588  31.127  1.00  0.00     0.001 A 
ENDBRANCH  22  23
ENDBRANCH  14  17
ENDBRANCH  12  13
ENDBRANCH   6   7
ENDBRANCH   4   6
ENDBRANCH   3   4
ENDBRANCH   2   3
ENDBRANCH   1   2
BRANCH   1  34
ATOM     34  O   UNL A   1      45.267  24.745  24.626  1.00  0.00    -0.374 OA
BRANCH  34  35
ATOM     35  C   UNL A   1      46.640  24.601  25.003  1.00  0.00     0.202 C 
BRANCH  35  36
ATOM     36  C   UNL A   1      47.696  25.329  24.163  1.00  0.00     0.261 C 
BRANCH  36  37
ATOM     37  O   UNL A   1      48.172  26.528  24.797  1.00  0.00    -0.460 OA
BRANCH  37  38
ATOM     38  C   UNL A   1      47.389  27.619  24.611  1.00  0.00     0.338 C 
ATOM     39  O   UNL A   1      47.106  28.156  23.554  1.00  0.00    -0.246 OA
BRANCH  38  40
ATOM     40  C   UNL A   1      46.726  27.967  25.882  1.00  0.00     0.060 A 
ATOM     41  C   UNL A   1      45.324  28.012  25.897  1.00  0.00     0.016 A 
ATOM     42  C   UNL A   1      47.459  28.284  27.025  1.00  0.00     0.016 A 
ATOM     43  C   UNL A   1      44.650  28.422  27.044  1.00  0.00     0.010 A 
ATOM     44  C   UNL A   1      46.780  28.704  28.173  1.00  0.00     0.010 A 
ATOM     45  C   UNL A   1      45.375  28.807  28.176  1.00  0.00    -0.014 A 
BRANCH  45  46
ATOM     46  C   UNL A   1      44.691  29.445  29.326  1.00  0.00     0.031 A 
ATOM     47  C   UNL A   1      44.420  30.920  29.278  1.00  0.00     0.074 A 
ATOM     48  C   UNL A   1      44.328  28.727  30.403  1.00  0.00     0.049 A 
ATOM     49  N   UNL A   1      43.959  31.707  30.215  1.00  0.00    -0.248 NA
ATOM     50  C   UNL A   1      44.688  31.596  27.998  1.00  0.00     0.031 C 
ATOM     51  C   UNL A   1      44.441  27.279  30.524  1.00  0.00     0.029 A 
ATOM     52  N   UNL A   1      43.829  29.125  31.619  1.00  0.00    -0.354 N 
ATOM     53  C   UNL A   1      43.866  32.965  29.634  1.00  0.00     0.074 A 
ATOM     54  C   UNL A   1      44.365  32.849  28.282  1.00  0.00     0.031 C 
ATOM     55  C   UNL A   1      44.115  26.913  31.775  1.00  0.00     0.029 A 
ATOM     56  C   UNL A   1      43.781  28.108  32.541  1.00  0.00     0.049 A 
ATOM     57  H   UNL A   1      43.535  30.045  31.810  1.00  0.00     0.167 HD
ATOM     58  C   UNL A   1      43.381  34.104  30.182  1.00  0.00     0.037 A 
ATOM     59  C   UNL A   1      43.540  28.147  33.865  1.00  0.00     0.037 A 
ATOM     60  C   UNL A   1      42.885  34.203  31.529  1.00  0.00     0.049 A 
ATOM     61  C   UNL A   1      43.155  29.459  34.494  1.00  0.00     0.074 A 
ATOM     62  C   UNL A   1      42.331  35.300  32.165  1.00  0.00     0.029 A 
ATOM     63  N   UNL A   1      42.898  33.168  32.453  1.00  0.00    -0.354 N 
ATOM     64  N   UNL A   1      43.031  30.637  33.934  1.00  0.00    -0.248 NA
ATOM     65  C   UNL A   1      42.849  29.441  35.930  1.00  0.00     0.031 C 
ATOM     66  C   UNL A   1      42.074  34.948  33.494  1.00  0.00     0.029 A 
ATOM     67  C   UNL A   1      42.404  33.615  33.669  1.00  0.00     0.049 A 
ATOM     68  H   UNL A   1      43.211  32.253  32.272  1.00  0.00     0.167 HD
ATOM     69  C   UNL A   1      42.584  31.489  34.933  1.00  0.00     0.074 A 
ATOM     70  C   UNL A   1      42.461  30.691  36.136  1.00  0.00     0.031 C 
ATOM     71  C   UNL A   1      42.287  32.810  34.857  1.00  0.00     0.037 A 
BRANCH  58  72
ATOM     72  C   UNL A   1      43.373  35.340  29.333  1.00  0.00     0.064 A 
ATOM     73  C   UNL A   1      44.510  36.153  29.201  1.00  0.00     0.173 A 
ATOM     74  C   UNL A   1      42.234  35.678  28.586  1.00  0.00     0.173 A 
ATOM     75  F   UNL A   1      45.619  35.882  29.905  1.00  0.00    -0.203 F 
ATOM     76  C   UNL A   1      44.502  37.262  28.360  1.00  0.00     0.198 A 
ATOM     77  C   UNL A   1      42.240  36.771  27.725  1.00  0.00     0.198 A 
ATOM     78  F   UNL A   1      41.121  34.934  28.677  1.00  0.00    -0.203 F 
ATOM     79  F   UNL A   1      45.589  38.043  28.272  1.00  0.00    -0.200 F 
ATOM     80  C   UNL A   1      43.372  37.564  27.614  1.00  0.00     0.200 A 
ATOM     81  F   UNL A   1      41.152  37.053  26.997  1.00  0.00    -0.200 F 
ATOM     82  F   UNL A   1      43.373  38.621  26.791  1.00  0.00    -0.200 F 
ENDBRANCH  58  72
BRANCH  59  83
ATOM     83  C   UNL A   1      43.691  26.922  34.691  1.00  0.00     0.064 A 
ATOM     84  C   UNL A   1      44.934  26.539  35.211  1.00  0.00     0.173 A 
ATOM     85  C   UNL A   1      42.595  26.081  34.933  1.00  0.00     0.173 A 
ATOM     86  F   UNL A   1      46.016  27.297  34.983  1.00  0.00    -0.203 F 
ATOM     87  C   UNL A   1      45.081  25.345  35.917  1.00  0.00     0.198 A 
ATOM     88  C   UNL A   1      42.736  24.904  35.665  1.00  0.00     0.198 A 
ATOM     89  F   UNL A   1      41.385  26.397  34.446  1.00  0.00    -0.203 F 
ATOM     90  F   UNL A   1      46.292  24.972  36.349  1.00  0.00    -0.200 F 
ATOM     91  C   UNL A   1      43.981  24.531  36.145  1.00  0.00     0.200 A 
ATOM     92  F   UNL A   1      41.669  24.125  35.890  1.00  0.00    -0.200 F 
ATOM     93  F   UNL A   1      44.126  23.379  36.814  1.00  0.00    -0.200 F 
ENDBRANCH  59  83
BRANCH  71  94
ATOM     94  C   UNL A   1      41.755  33.464  36.099  1.00  0.00     0.064 A 
ATOM     95  C   UNL A   1      42.603  34.078  37.032  1.00  0.00     0.173 A 
ATOM     96  C   UNL A   1      40.374  33.496  36.345  1.00  0.00     0.173 A 
ATOM     97  F   UNL A   1      43.932  34.058  36.852  1.00  0.00    -0.203 F 
ATOM     98  C   UNL A   1      42.089  34.672  38.181  1.00  0.00     0.198 A 
ATOM     99  C   UNL A   1      39.862  34.124  37.476  1.00  0.00     0.198 A 
ATOM    100  F   UNL A   1      39.519  32.928  35.482  1.00  0.00    -0.203 F 
ATOM    101  F   UNL A   1      42.923  35.199  39.089  1.00  0.00    -0.200 F 
ATOM    102  C   UNL A   1      40.720  34.702  38.399  1.00  0.00     0.200 A 
ATOM    103  F   UNL A   1      38.537  34.165  37.675  1.00  0.00    -0.200 F 
ATOM    104  F   UNL A   1      40.228  35.280  39.503  1.00  0.00    -0.200 F 
ENDBRANCH  71  94
ENDBRANCH  45  46
ENDBRANCH  38  40
ENDBRANCH  37  38
ENDBRANCH  36  37
ENDBRANCH  35  36
ENDBRANCH  34  35
ENDBRANCH   1  34
TORSDOF 18
ENDMDL
