MODEL 1
REMARK VINA RESULT:     -11.5      0.000      0.000
REMARK SMILES O=C(Cn1ccc(C(=O)NCCC[NH+]2CCOCC2)n1)OCCOCCOC(=O)c1ccc(-c2c3nc(c(-c4c(F)c(F)c(F)c(F)c4F)c4ccc([nH]4)c(-c4c(F)c(F)c(F)c(F)c4F)c4nc(c(-c5c(F)c(F)c(F)c(F)c5F)c5ccc2[nH]5)C=C4)C=C3)cc1
REMARK SMILES IDX 22 1 21 2 2 3 1 4 3 5 4 6 5 7 20 8 6 9 7 10 8 11 9 12 10 13
REMARK SMILES IDX 11 15 12 16 13 17 14 18 15 19 19 20 16 22 18 23 17 24 23 25
REMARK SMILES IDX 24 26 25 27 26 28 27 29 28 30 29 31 30 32 31 33 92 34 32 35
REMARK SMILES IDX 91 36 33 37 34 38 35 39 85 40 36 41 90 42 84 43 86 44 37 45
REMARK SMILES IDX 89 46 83 47 82 48 38 50 70 51 50 52 69 53 51 54 54 55 68 56
REMARK SMILES IDX 87 57 52 58 53 59 67 61 88 62 55 63 39 64 40 65 48 66 41 67
REMARK SMILES IDX 42 68 46 69 49 70 43 71 44 72 47 73 45 74 71 75 72 76 80 77
REMARK SMILES IDX 73 78 74 79 78 80 81 81 75 82 76 83 79 84 77 85 56 86 57 87
REMARK SMILES IDX 65 88 58 89 59 90 63 91 66 92 60 93 61 94 64 95 62 96
REMARK H PARENT 10 14 14 21 86 49 54 60
REMARK Flexibility Score: inf
ROOT
ATOM      1  C   UNL A   1      38.571  22.507  26.041  1.00  0.00     0.261 C 
ENDROOT
BRANCH   1   2
ATOM      2  O   UNL A   1      37.284  22.254  25.456  1.00  0.00    -0.462 OA
BRANCH   2   3
ATOM      3  C   UNL A   1      36.429  23.163  24.929  1.00  0.00     0.327 C 
ATOM      4  O   UNL A   1      36.035  24.070  25.668  1.00  0.00    -0.250 OA
BRANCH   3   5
ATOM      5  C   UNL A   1      35.841  23.005  23.541  1.00  0.00     0.266 C 
BRANCH   5   6
ATOM      6  N   UNL A   1      34.516  23.549  23.400  1.00  0.00    -0.261 N 
ATOM      7  C   UNL A   1      33.320  23.011  23.773  1.00  0.00     0.110 A 
ATOM      8  N   UNL A   1      34.386  24.681  22.718  1.00  0.00    -0.167 NA
ATOM      9  C   UNL A   1      32.375  23.722  23.060  1.00  0.00     0.056 A 
ATOM     10  C   UNL A   1      33.112  24.677  22.303  1.00  0.00     0.150 A 
BRANCH  10  11
ATOM     11  C   UNL A   1      32.640  25.551  21.221  1.00  0.00     0.271 C 
ATOM     12  O   UNL A   1      33.049  25.431  20.067  1.00  0.00    -0.267 OA
ATOM     13  N   UNL A   1      31.760  26.579  21.509  1.00  0.00    -0.350 N 
ATOM     14  H   UNL A   1      31.440  27.082  20.727  1.00  0.00     0.163 HD
BRANCH  13  15
ATOM     15  C   UNL A   1      31.232  27.036  22.791  1.00  0.00     0.122 C 
BRANCH  15  16
ATOM     16  C   UNL A   1      31.425  28.533  23.003  1.00  0.00     0.083 C 
BRANCH  16  17
ATOM     17  C   UNL A   1      30.148  29.268  23.412  1.00  0.00     0.264 C 
BRANCH  17  18
ATOM     18  N   UNL A   1      29.079  29.329  22.400  1.00  0.00    -0.331 N 
ATOM     19  C   UNL A   1      29.300  30.469  21.479  1.00  0.00     0.291 C 
ATOM     20  C   UNL A   1      27.704  29.451  22.933  1.00  0.00     0.291 C 
ATOM     21  H   UNL A   1      29.140  28.427  21.928  1.00  0.00     0.348 HD
ATOM     22  C   UNL A   1      28.954  31.839  22.098  1.00  0.00     0.221 C 
ATOM     23  C   UNL A   1      27.413  30.816  23.569  1.00  0.00     0.221 C 
ATOM     24  O   UNL A   1      27.621  31.872  22.623  1.00  0.00    -0.370 OA
ENDBRANCH  17  18
ENDBRANCH  16  17
ENDBRANCH  15  16
ENDBRANCH  13  15
ENDBRANCH  10  11
ENDBRANCH   5   6
ENDBRANCH   3   5
ENDBRANCH   2   3
ENDBRANCH   1   2
BRANCH   1  25
ATOM     25  C   UNL A   1      39.490  21.291  26.084  1.00  0.00     0.202 C 
BRANCH  25  26
ATOM     26  O   UNL A   1      40.893  21.547  26.038  1.00  0.00    -0.374 OA
BRANCH  26  27
ATOM     27  C   UNL A   1      41.775  20.586  26.628  1.00  0.00     0.202 C 
BRANCH  27  28
ATOM     28  C   UNL A   1      42.417  19.574  25.712  1.00  0.00     0.261 C 
BRANCH  28  29
ATOM     29  O   UNL A   1      43.811  19.791  25.691  1.00  0.00    -0.460 OA
BRANCH  29  30
ATOM     30  C   UNL A   1      44.291  20.297  24.536  1.00  0.00     0.338 C 
ATOM     31  O   UNL A   1      44.583  19.700  23.520  1.00  0.00    -0.246 OA
BRANCH  30  32
ATOM     32  C   UNL A   1      44.595  21.701  24.810  1.00  0.00     0.060 A 
ATOM     33  C   UNL A   1      45.392  21.928  25.929  1.00  0.00     0.016 A 
ATOM     34  C   UNL A   1      43.777  22.691  24.241  1.00  0.00     0.016 A 
ATOM     35  C   UNL A   1      45.156  23.074  26.644  1.00  0.00     0.010 A 
ATOM     36  C   UNL A   1      43.504  23.804  24.981  1.00  0.00     0.010 A 
ATOM     37  C   UNL A   1      44.140  23.935  26.209  1.00  0.00    -0.014 A 
BRANCH  37  38
ATOM     38  C   UNL A   1      43.895  25.128  26.973  1.00  0.00     0.031 A 
ATOM     39  C   UNL A   1      44.963  26.115  26.728  1.00  0.00     0.074 A 
ATOM     40  C   UNL A   1      42.792  25.310  27.716  1.00  0.00     0.049 A 
ATOM     41  N   UNL A   1      45.942  26.395  27.518  1.00  0.00    -0.248 NA
ATOM     42  C   UNL A   1      45.124  26.633  25.358  1.00  0.00     0.031 C 
ATOM     43  C   UNL A   1      41.581  24.492  27.780  1.00  0.00     0.029 A 
ATOM     44  N   UNL A   1      42.503  26.351  28.537  1.00  0.00    -0.354 N 
ATOM     45  C   UNL A   1      46.713  27.318  26.823  1.00  0.00     0.074 A 
ATOM     46  C   UNL A   1      46.321  27.213  25.446  1.00  0.00     0.031 C 
ATOM     47  C   UNL A   1      40.609  25.183  28.424  1.00  0.00     0.029 A 
ATOM     48  C   UNL A   1      41.171  26.424  28.930  1.00  0.00     0.049 A 
ATOM     49  H   UNL A   1      43.181  27.001  28.831  1.00  0.00     0.167 HD
ATOM     50  C   UNL A   1      47.347  28.309  27.502  1.00  0.00     0.037 A 
ATOM     51  C   UNL A   1      40.603  27.486  29.556  1.00  0.00     0.037 A 
ATOM     52  C   UNL A   1      47.462  27.962  28.901  1.00  0.00     0.049 A 
ATOM     53  C   UNL A   1      41.710  28.285  30.151  1.00  0.00     0.074 A 
ATOM     54  C   UNL A   1      48.069  26.936  29.599  1.00  0.00     0.029 A 
ATOM     55  N   UNL A   1      46.538  28.508  29.758  1.00  0.00    -0.354 N 
ATOM     56  N   UNL A   1      42.445  27.869  31.145  1.00  0.00    -0.248 NA
ATOM     57  C   UNL A   1      42.305  29.328  29.329  1.00  0.00     0.031 C 
ATOM     58  C   UNL A   1      47.180  26.635  30.674  1.00  0.00     0.029 A 
ATOM     59  C   UNL A   1      46.118  27.540  30.630  1.00  0.00     0.049 A 
ATOM     60  H   UNL A   1      46.228  29.443  29.748  1.00  0.00     0.167 HD
ATOM     61  C   UNL A   1      43.736  28.259  30.815  1.00  0.00     0.074 A 
ATOM     62  C   UNL A   1      43.575  29.225  29.731  1.00  0.00     0.031 C 
ATOM     63  C   UNL A   1      44.811  27.534  31.246  1.00  0.00     0.037 A 
BRANCH  50  64
ATOM     64  C   UNL A   1      47.420  29.740  27.013  1.00  0.00     0.064 A 
ATOM     65  C   UNL A   1      48.636  30.433  27.174  1.00  0.00     0.173 A 
ATOM     66  C   UNL A   1      46.308  30.551  26.688  1.00  0.00     0.173 A 
ATOM     67  F   UNL A   1      49.763  29.772  27.482  1.00  0.00    -0.203 F 
ATOM     68  C   UNL A   1      48.706  31.826  27.130  1.00  0.00     0.198 A 
ATOM     69  C   UNL A   1      46.392  31.938  26.596  1.00  0.00     0.198 A 
ATOM     70  F   UNL A   1      45.069  30.071  26.546  1.00  0.00    -0.203 F 
ATOM     71  F   UNL A   1      49.856  32.442  27.433  1.00  0.00    -0.200 F 
ATOM     72  C   UNL A   1      47.581  32.579  26.854  1.00  0.00     0.200 A 
ATOM     73  F   UNL A   1      45.282  32.647  26.339  1.00  0.00    -0.200 F 
ATOM     74  F   UNL A   1      47.629  33.917  26.879  1.00  0.00    -0.200 F 
ENDBRANCH  50  64
BRANCH  51  75
ATOM     75  C   UNL A   1      39.238  28.044  29.394  1.00  0.00     0.064 A 
ATOM     76  C   UNL A   1      38.406  28.246  30.509  1.00  0.00     0.173 A 
ATOM     77  C   UNL A   1      38.838  28.666  28.196  1.00  0.00     0.173 A 
ATOM     78  F   UNL A   1      38.738  27.727  31.700  1.00  0.00    -0.203 F 
ATOM     79  C   UNL A   1      37.263  29.050  30.439  1.00  0.00     0.198 A 
ATOM     80  C   UNL A   1      37.693  29.464  28.125  1.00  0.00     0.198 A 
ATOM     81  F   UNL A   1      39.600  28.596  27.096  1.00  0.00    -0.203 F 
ATOM     82  F   UNL A   1      36.535  29.275  31.541  1.00  0.00    -0.200 F 
ATOM     83  C   UNL A   1      36.916  29.668  29.249  1.00  0.00     0.200 A 
ATOM     84  F   UNL A   1      37.390  30.088  26.979  1.00  0.00    -0.200 F 
ATOM     85  F   UNL A   1      35.860  30.493  29.197  1.00  0.00    -0.200 F 
ENDBRANCH  51  75
BRANCH  63  86
ATOM     86  C   UNL A   1      44.573  26.507  32.318  1.00  0.00     0.064 A 
ATOM     87  C   UNL A   1      44.368  25.136  32.080  1.00  0.00     0.173 A 
ATOM     88  C   UNL A   1      44.699  26.916  33.653  1.00  0.00     0.173 A 
ATOM     89  F   UNL A   1      44.334  24.649  30.832  1.00  0.00    -0.203 F 
ATOM     90  C   UNL A   1      44.254  24.230  33.134  1.00  0.00     0.198 A 
ATOM     91  C   UNL A   1      44.625  26.004  34.701  1.00  0.00     0.198 A 
ATOM     92  F   UNL A   1      44.946  28.205  33.938  1.00  0.00    -0.203 F 
ATOM     93  F   UNL A   1      44.045  22.928  32.883  1.00  0.00    -0.200 F 
ATOM     94  C   UNL A   1      44.392  24.663  34.443  1.00  0.00     0.200 A 
ATOM     95  F   UNL A   1      44.810  26.423  35.960  1.00  0.00    -0.200 F 
ATOM     96  F   UNL A   1      44.326  23.787  35.454  1.00  0.00    -0.200 F 
ENDBRANCH  63  86
ENDBRANCH  37  38
ENDBRANCH  30  32
ENDBRANCH  29  30
ENDBRANCH  28  29
ENDBRANCH  27  28
ENDBRANCH  26  27
ENDBRANCH  25  26
ENDBRANCH   1  25
TORSDOF 20
ENDMDL
MODEL 2
REMARK VINA RESULT:     -11.4      3.382      4.591
REMARK SMILES O=C(Cn1ccc(C(=O)NCCC[NH+]2CCOCC2)n1)OCCOCCOC(=O)c1ccc(-c2c3nc(c(-c4c(F)c(F)c(F)c(F)c4F)c4ccc([nH]4)c(-c4c(F)c(F)c(F)c(F)c4F)c4nc(c(-c5c(F)c(F)c(F)c(F)c5F)c5ccc2[nH]5)C=C4)C=C3)cc1
REMARK SMILES IDX 22 1 21 2 2 3 1 4 3 5 4 6 5 7 20 8 6 9 7 10 8 11 9 12 10 13
REMARK SMILES IDX 11 15 12 16 13 17 14 18 15 19 19 20 16 22 18 23 17 24 23 25
REMARK SMILES IDX 24 26 25 27 26 28 27 29 28 30 29 31 30 32 31 33 92 34 32 35
REMARK SMILES IDX 91 36 33 37 34 38 35 39 85 40 36 41 90 42 84 43 86 44 37 45
REMARK SMILES IDX 89 46 83 47 82 48 38 50 70 51 50 52 69 53 51 54 54 55 68 56
REMARK SMILES IDX 87 57 52 58 53 59 67 61 88 62 55 63 39 64 40 65 48 66 41 67
REMARK SMILES IDX 42 68 46 69 49 70 43 71 44 72 47 73 45 74 71 75 72 76 80 77
REMARK SMILES IDX 73 78 74 79 78 80 81 81 75 82 76 83 79 84 77 85 56 86 57 87
REMARK SMILES IDX 65 88 58 89 59 90 63 91 66 92 60 93 61 94 64 95 62 96
REMARK H PARENT 10 14 14 21 86 49 54 60
REMARK Flexibility Score: inf
ROOT
ATOM      1  C   UNL A   1      41.166  21.454  26.984  1.00  0.00     0.261 C 
ENDROOT
BRANCH   1   2
ATOM      2  O   UNL A   1      40.379  22.180  26.026  1.00  0.00    -0.462 OA
BRANCH   2   3
ATOM      3  C   UNL A   1      39.033  22.337  26.019  1.00  0.00     0.327 C 
ATOM      4  O   UNL A   1      38.557  23.196  26.766  1.00  0.00    -0.250 OA
BRANCH   3   5
ATOM      5  C   UNL A   1      38.117  21.402  25.256  1.00  0.00     0.266 C 
BRANCH   5   6
ATOM      6  N   UNL A   1      36.775  21.896  25.097  1.00  0.00    -0.261 N 
ATOM      7  C   UNL A   1      36.345  23.044  24.501  1.00  0.00     0.110 A 
ATOM      8  N   UNL A   1      35.798  21.225  25.696  1.00  0.00    -0.167 NA
ATOM      9  C   UNL A   1      35.061  23.229  24.974  1.00  0.00     0.056 A 
ATOM     10  C   UNL A   1      34.812  22.121  25.834  1.00  0.00     0.150 A 
BRANCH  10  11
ATOM     11  C   UNL A   1      33.691  21.913  26.761  1.00  0.00     0.271 C 
ATOM     12  O   UNL A   1      33.840  21.981  27.981  1.00  0.00    -0.267 OA
ATOM     13  N   UNL A   1      32.447  21.572  26.262  1.00  0.00    -0.350 N 
ATOM     14  H   UNL A   1      31.733  21.510  26.935  1.00  0.00     0.163 HD
BRANCH  13  15
ATOM     15  C   UNL A   1      32.027  21.286  24.893  1.00  0.00     0.122 C 
BRANCH  15  16
ATOM     16  C   UNL A   1      32.711  20.052  24.317  1.00  0.00     0.083 C 
BRANCH  16  17
ATOM     17  C   UNL A   1      32.622  18.820  25.216  1.00  0.00     0.264 C 
BRANCH  17  18
ATOM     18  N   UNL A   1      32.180  17.572  24.570  1.00  0.00    -0.331 N 
ATOM     19  C   UNL A   1      32.480  16.405  25.433  1.00  0.00     0.291 C 
ATOM     20  C   UNL A   1      32.769  17.300  23.240  1.00  0.00     0.291 C 
ATOM     21  H   UNL A   1      31.179  17.711  24.434  1.00  0.00     0.348 HD
ATOM     22  C   UNL A   1      33.971  16.010  25.443  1.00  0.00     0.221 C 
ATOM     23  C   UNL A   1      34.260  16.944  23.292  1.00  0.00     0.221 C 
ATOM     24  O   UNL A   1      34.480  15.797  24.120  1.00  0.00    -0.370 OA
ENDBRANCH  17  18
ENDBRANCH  16  17
ENDBRANCH  15  16
ENDBRANCH  13  15
ENDBRANCH  10  11
ENDBRANCH   5   6
ENDBRANCH   3   5
ENDBRANCH   2   3
ENDBRANCH   1   2
BRANCH   1  25
ATOM     25  C   UNL A   1      40.928  19.948  26.976  1.00  0.00     0.202 C 
BRANCH  25  26
ATOM     26  O   UNL A   1      41.479  19.219  25.879  1.00  0.00    -0.374 OA
BRANCH  26  27
ATOM     27  C   UNL A   1      42.671  18.457  26.104  1.00  0.00     0.202 C 
BRANCH  27  28
ATOM     28  C   UNL A   1      43.874  18.778  25.253  1.00  0.00     0.261 C 
BRANCH  28  29
ATOM     29  O   UNL A   1      43.910  20.168  25.014  1.00  0.00    -0.460 OA
BRANCH  29  30
ATOM     30  C   UNL A   1      45.028  20.612  24.402  1.00  0.00     0.338 C 
ATOM     31  O   UNL A   1      45.952  19.958  23.964  1.00  0.00    -0.246 OA
BRANCH  30  32
ATOM     32  C   UNL A   1      45.016  22.066  24.550  1.00  0.00     0.060 A 
ATOM     33  C   UNL A   1      46.040  22.592  25.333  1.00  0.00     0.016 A 
ATOM     34  C   UNL A   1      43.822  22.760  24.287  1.00  0.00     0.016 A 
ATOM     35  C   UNL A   1      45.749  23.704  26.080  1.00  0.00     0.010 A 
ATOM     36  C   UNL A   1      43.515  23.834  25.070  1.00  0.00     0.010 A 
ATOM     37  C   UNL A   1      44.456  24.237  26.010  1.00  0.00    -0.014 A 
BRANCH  37  38
ATOM     38  C   UNL A   1      44.160  25.397  26.807  1.00  0.00     0.031 A 
ATOM     39  C   UNL A   1      45.178  26.440  26.579  1.00  0.00     0.074 A 
ATOM     40  C   UNL A   1      43.057  25.507  27.562  1.00  0.00     0.049 A 
ATOM     41  N   UNL A   1      46.150  26.747  27.368  1.00  0.00    -0.248 NA
ATOM     42  C   UNL A   1      45.301  27.000  25.222  1.00  0.00     0.031 C 
ATOM     43  C   UNL A   1      41.887  24.630  27.615  1.00  0.00     0.029 A 
ATOM     44  N   UNL A   1      42.725  26.511  28.412  1.00  0.00    -0.354 N 
ATOM     45  C   UNL A   1      46.869  27.723  26.692  1.00  0.00     0.074 A 
ATOM     46  C   UNL A   1      46.471  27.634  25.315  1.00  0.00     0.031 C 
ATOM     47  C   UNL A   1      40.889  25.258  28.283  1.00  0.00     0.029 A 
ATOM     48  C   UNL A   1      41.395  26.511  28.816  1.00  0.00     0.049 A 
ATOM     49  H   UNL A   1      43.374  27.186  28.718  1.00  0.00     0.167 HD
ATOM     50  C   UNL A   1      47.461  28.726  27.391  1.00  0.00     0.037 A 
ATOM     51  C   UNL A   1      40.782  27.528  29.474  1.00  0.00     0.037 A 
ATOM     52  C   UNL A   1      47.605  28.350  28.779  1.00  0.00     0.049 A 
ATOM     53  C   UNL A   1      41.855  28.364  30.081  1.00  0.00     0.074 A 
ATOM     54  C   UNL A   1      48.266  27.336  29.446  1.00  0.00     0.029 A 
ATOM     55  N   UNL A   1      46.663  28.828  29.657  1.00  0.00    -0.354 N 
ATOM     56  N   UNL A   1      42.618  27.959  31.058  1.00  0.00    -0.248 NA
ATOM     57  C   UNL A   1      42.393  29.455  29.282  1.00  0.00     0.031 C 
ATOM     58  C   UNL A   1      47.402  26.966  30.519  1.00  0.00     0.029 A 
ATOM     59  C   UNL A   1      46.298  27.819  30.507  1.00  0.00     0.049 A 
ATOM     60  H   UNL A   1      46.309  29.747  29.674  1.00  0.00     0.167 HD
ATOM     61  C   UNL A   1      43.885  28.419  30.728  1.00  0.00     0.074 A 
ATOM     62  C   UNL A   1      43.669  29.403  29.671  1.00  0.00     0.031 C 
ATOM     63  C   UNL A   1      44.998  27.736  31.132  1.00  0.00     0.037 A 
BRANCH  50  64
ATOM     64  C   UNL A   1      47.462  30.171  26.938  1.00  0.00     0.064 A 
ATOM     65  C   UNL A   1      48.660  30.901  27.060  1.00  0.00     0.173 A 
ATOM     66  C   UNL A   1      46.307  30.950  26.689  1.00  0.00     0.173 A 
ATOM     67  F   UNL A   1      49.822  30.274  27.295  1.00  0.00    -0.203 F 
ATOM     68  C   UNL A   1      48.680  32.297  27.051  1.00  0.00     0.198 A 
ATOM     69  C   UNL A   1      46.339  32.341  26.631  1.00  0.00     0.198 A 
ATOM     70  F   UNL A   1      45.080  30.430  26.594  1.00  0.00    -0.203 F 
ATOM     71  F   UNL A   1      49.822  32.945  27.315  1.00  0.00    -0.200 F 
ATOM     72  C   UNL A   1      47.518  33.016  26.849  1.00  0.00     0.200 A 
ATOM     73  F   UNL A   1      45.195  33.016  26.447  1.00  0.00    -0.200 F 
ATOM     74  F   UNL A   1      47.521  34.354  26.909  1.00  0.00    -0.200 F 
ENDBRANCH  50  64
BRANCH  51  75
ATOM     75  C   UNL A   1      39.391  28.023  29.337  1.00  0.00     0.064 A 
ATOM     76  C   UNL A   1      38.565  28.170  30.465  1.00  0.00     0.173 A 
ATOM     77  C   UNL A   1      38.947  28.644  28.154  1.00  0.00     0.173 A 
ATOM     78  F   UNL A   1      38.935  27.649  31.643  1.00  0.00    -0.203 F 
ATOM     79  C   UNL A   1      37.384  28.920  30.420  1.00  0.00     0.198 A 
ATOM     80  C   UNL A   1      37.766  29.388  28.109  1.00  0.00     0.198 A 
ATOM     81  F   UNL A   1      39.698  28.627  27.044  1.00  0.00    -0.203 F 
ATOM     82  F   UNL A   1      36.660  29.094  31.534  1.00  0.00    -0.200 F 
ATOM     83  C   UNL A   1      36.993  29.539  29.245  1.00  0.00     0.200 A 
ATOM     84  F   UNL A   1      37.419  30.015  26.976  1.00  0.00    -0.200 F 
ATOM     85  F   UNL A   1      35.900  30.314  29.218  1.00  0.00    -0.200 F 
ENDBRANCH  51  75
BRANCH  63  86
ATOM     86  C   UNL A   1      44.819  26.671  32.180  1.00  0.00     0.064 A 
ATOM     87  C   UNL A   1      44.537  25.321  31.907  1.00  0.00     0.173 A 
ATOM     88  C   UNL A   1      45.084  27.016  33.512  1.00  0.00     0.173 A 
ATOM     89  F   UNL A   1      44.367  24.891  30.649  1.00  0.00    -0.203 F 
ATOM     90  C   UNL A   1      44.484  24.373  32.929  1.00  0.00     0.198 A 
ATOM     91  C   UNL A   1      45.071  26.062  34.525  1.00  0.00     0.198 A 
ATOM     92  F   UNL A   1      45.410  28.281  33.825  1.00  0.00    -0.203 F 
ATOM     93  F   UNL A   1      44.200  23.093  32.646  1.00  0.00    -0.200 F 
ATOM     94  C   UNL A   1      44.761  24.743  34.235  1.00  0.00     0.200 A 
ATOM     95  F   UNL A   1      45.389  26.418  35.777  1.00  0.00    -0.200 F 
ATOM     96  F   UNL A   1      44.753  23.826  35.212  1.00  0.00    -0.200 F 
ENDBRANCH  63  86
ENDBRANCH  37  38
ENDBRANCH  30  32
ENDBRANCH  29  30
ENDBRANCH  28  29
ENDBRANCH  27  28
ENDBRANCH  26  27
ENDBRANCH  25  26
ENDBRANCH   1  25
TORSDOF 20
ENDMDL
MODEL 3
REMARK VINA RESULT:     -11.1      4.480      8.859
REMARK SMILES O=C(Cn1ccc(C(=O)NCCC[NH+]2CCOCC2)n1)OCCOCCOC(=O)c1ccc(-c2c3nc(c(-c4c(F)c(F)c(F)c(F)c4F)c4ccc([nH]4)c(-c4c(F)c(F)c(F)c(F)c4F)c4nc(c(-c5c(F)c(F)c(F)c(F)c5F)c5ccc2[nH]5)C=C4)C=C3)cc1
REMARK SMILES IDX 22 1 21 2 2 3 1 4 3 5 4 6 5 7 20 8 6 9 7 10 8 11 9 12 10 13
REMARK SMILES IDX 11 15 12 16 13 17 14 18 15 19 19 20 16 22 18 23 17 24 23 25
REMARK SMILES IDX 24 26 25 27 26 28 27 29 28 30 29 31 30 32 31 33 92 34 32 35
REMARK SMILES IDX 91 36 33 37 34 38 35 39 85 40 36 41 90 42 84 43 86 44 37 45
REMARK SMILES IDX 89 46 83 47 82 48 38 50 70 51 50 52 69 53 51 54 54 55 68 56
REMARK SMILES IDX 87 57 52 58 53 59 67 61 88 62 55 63 39 64 40 65 48 66 41 67
REMARK SMILES IDX 42 68 46 69 49 70 43 71 44 72 47 73 45 74 71 75 72 76 80 77
REMARK SMILES IDX 73 78 74 79 78 80 81 81 75 82 76 83 79 84 77 85 56 86 57 87
REMARK SMILES IDX 65 88 58 89 59 90 63 91 66 92 60 93 61 94 64 95 62 96
REMARK H PARENT 10 14 14 21 86 49 54 60
REMARK Flexibility Score: inf
ROOT
ATOM      1  C   UNL A   1      31.782  27.203  26.827  1.00  0.00     0.261 C 
ENDROOT
BRANCH   1   2
ATOM      2  O   UNL A   1      31.683  25.771  26.862  1.00  0.00    -0.462 OA
BRANCH   2   3
ATOM      3  C   UNL A   1      30.789  24.993  26.204  1.00  0.00     0.327 C 
ATOM      4  O   UNL A   1      29.590  25.232  26.379  1.00  0.00    -0.250 OA
BRANCH   3   5
ATOM      5  C   UNL A   1      31.212  23.775  25.408  1.00  0.00     0.266 C 
BRANCH   5   6
ATOM      6  N   UNL A   1      32.192  24.051  24.391  1.00  0.00    -0.261 N 
ATOM      7  C   UNL A   1      33.549  24.124  24.500  1.00  0.00     0.110 A 
ATOM      8  N   UNL A   1      31.749  24.397  23.188  1.00  0.00    -0.167 NA
ATOM      9  C   UNL A   1      33.959  24.800  23.368  1.00  0.00     0.056 A 
ATOM     10  C   UNL A   1      32.767  25.071  22.637  1.00  0.00     0.150 A 
BRANCH  10  11
ATOM     11  C   UNL A   1      32.586  25.940  21.466  1.00  0.00     0.271 C 
ATOM     12  O   UNL A   1      33.027  25.632  20.359  1.00  0.00    -0.267 OA
ATOM     13  N   UNL A   1      31.961  27.164  21.615  1.00  0.00    -0.350 N 
ATOM     14  H   UNL A   1      31.820  27.662  20.778  1.00  0.00     0.163 HD
BRANCH  13  15
ATOM     15  C   UNL A   1      31.477  27.836  22.817  1.00  0.00     0.122 C 
BRANCH  15  16
ATOM     16  C   UNL A   1      30.015  27.524  23.114  1.00  0.00     0.083 C 
BRANCH  16  17
ATOM     17  C   UNL A   1      29.153  28.764  23.341  1.00  0.00     0.264 C 
BRANCH  17  18
ATOM     18  N   UNL A   1      29.755  30.055  22.965  1.00  0.00    -0.331 N 
ATOM     19  C   UNL A   1      29.254  31.139  23.843  1.00  0.00     0.291 C 
ATOM     20  C   UNL A   1      29.529  30.480  21.565  1.00  0.00     0.291 C 
ATOM     21  H   UNL A   1      30.757  29.896  23.073  1.00  0.00     0.348 HD
ATOM     22  C   UNL A   1      27.813  31.583  23.516  1.00  0.00     0.221 C 
ATOM     23  C   UNL A   1      28.077  30.881  21.275  1.00  0.00     0.221 C 
ATOM     24  O   UNL A   1      27.661  31.946  22.138  1.00  0.00    -0.370 OA
ENDBRANCH  17  18
ENDBRANCH  16  17
ENDBRANCH  15  16
ENDBRANCH  13  15
ENDBRANCH  10  11
ENDBRANCH   5   6
ENDBRANCH   3   5
ENDBRANCH   2   3
ENDBRANCH   1   2
BRANCH   1  25
ATOM     25  C   UNL A   1      33.070  27.727  26.203  1.00  0.00     0.202 C 
BRANCH  25  26
ATOM     26  O   UNL A   1      33.299  29.133  26.294  1.00  0.00    -0.374 OA
BRANCH  26  27
ATOM     27  C   UNL A   1      32.348  30.013  25.684  1.00  0.00     0.202 C 
BRANCH  27  28
ATOM     28  C   UNL A   1      31.824  31.157  26.516  1.00  0.00     0.261 C 
BRANCH  28  29
ATOM     29  O   UNL A   1      32.841  31.592  27.392  1.00  0.00    -0.460 OA
BRANCH  29  30
ATOM     30  C   UNL A   1      32.799  32.903  27.708  1.00  0.00     0.338 C 
ATOM     31  O   UNL A   1      32.009  33.741  27.325  1.00  0.00    -0.246 OA
BRANCH  30  32
ATOM     32  C   UNL A   1      34.029  33.176  28.450  1.00  0.00     0.060 A 
ATOM     33  C   UNL A   1      35.014  33.853  27.737  1.00  0.00     0.016 A 
ATOM     34  C   UNL A   1      34.303  32.419  29.602  1.00  0.00     0.016 A 
ATOM     35  C   UNL A   1      36.319  33.543  28.023  1.00  0.00     0.010 A 
ATOM     36  C   UNL A   1      35.598  32.070  29.851  1.00  0.00     0.010 A 
ATOM     37  C   UNL A   1      36.576  32.577  29.004  1.00  0.00    -0.014 A 
BRANCH  37  38
ATOM     38  C   UNL A   1      37.948  32.253  29.288  1.00  0.00     0.031 A 
ATOM     39  C   UNL A   1      38.207  30.833  28.983  1.00  0.00     0.074 A 
ATOM     40  C   UNL A   1      38.851  33.164  29.683  1.00  0.00     0.049 A 
ATOM     41  N   UNL A   1      38.312  29.873  29.836  1.00  0.00    -0.248 NA
ATOM     42  C   UNL A   1      38.049  30.387  27.587  1.00  0.00     0.031 C 
ATOM     43  C   UNL A   1      38.724  34.620  29.737  1.00  0.00     0.029 A 
ATOM     44  N   UNL A   1      40.138  32.954  30.057  1.00  0.00    -0.354 N 
ATOM     45  C   UNL A   1      38.477  28.726  29.071  1.00  0.00     0.074 A 
ATOM     46  C   UNL A   1      38.043  29.062  27.745  1.00  0.00     0.031 C 
ATOM     47  C   UNL A   1      39.952  35.168  29.909  1.00  0.00     0.029 A 
ATOM     48  C   UNL A   1      40.919  34.103  30.112  1.00  0.00     0.049 A 
ATOM     49  H   UNL A   1      40.491  32.060  30.272  1.00  0.00     0.167 HD
ATOM     50  C   UNL A   1      39.274  27.725  29.527  1.00  0.00     0.037 A 
ATOM     51  C   UNL A   1      42.270  34.119  30.239  1.00  0.00     0.037 A 
ATOM     52  C   UNL A   1      39.465  27.848  30.954  1.00  0.00     0.049 A 
ATOM     53  C   UNL A   1      42.674  32.791  30.779  1.00  0.00     0.074 A 
ATOM     54  C   UNL A   1      38.623  27.837  32.050  1.00  0.00     0.029 A 
ATOM     55  N   UNL A   1      40.632  28.434  31.380  1.00  0.00    -0.354 N 
ATOM     56  N   UNL A   1      42.389  32.387  31.986  1.00  0.00    -0.248 NA
ATOM     57  C   UNL A   1      42.965  31.735  29.820  1.00  0.00     0.031 C 
ATOM     58  C   UNL A   1      39.163  28.806  32.948  1.00  0.00     0.029 A 
ATOM     59  C   UNL A   1      40.346  29.302  32.399  1.00  0.00     0.049 A 
ATOM     60  H   UNL A   1      41.529  28.257  31.013  1.00  0.00     0.167 HD
ATOM     61  C   UNL A   1      42.030  31.055  31.835  1.00  0.00     0.074 A 
ATOM     62  C   UNL A   1      42.485  30.687  30.496  1.00  0.00     0.031 C 
ATOM     63  C   UNL A   1      41.135  30.477  32.690  1.00  0.00     0.037 A 
BRANCH  50  64
ATOM     64  C   UNL A   1      40.233  26.954  28.644  1.00  0.00     0.064 A 
ATOM     65  C   UNL A   1      40.054  25.562  28.530  1.00  0.00     0.173 A 
ATOM     66  C   UNL A   1      41.472  27.440  28.165  1.00  0.00     0.173 A 
ATOM     67  F   UNL A   1      38.918  24.983  28.948  1.00  0.00    -0.203 F 
ATOM     68  C   UNL A   1      41.073  24.719  28.083  1.00  0.00     0.198 A 
ATOM     69  C   UNL A   1      42.468  26.600  27.674  1.00  0.00     0.198 A 
ATOM     70  F   UNL A   1      41.833  28.724  28.239  1.00  0.00    -0.203 F 
ATOM     71  F   UNL A   1      40.902  23.391  28.130  1.00  0.00    -0.200 F 
ATOM     72  C   UNL A   1      42.284  25.237  27.668  1.00  0.00     0.200 A 
ATOM     73  F   UNL A   1      43.640  27.127  27.289  1.00  0.00    -0.200 F 
ATOM     74  F   UNL A   1      43.287  24.427  27.306  1.00  0.00    -0.200 F 
ENDBRANCH  50  64
BRANCH  51  75
ATOM     75  C   UNL A   1      43.254  35.043  29.623  1.00  0.00     0.064 A 
ATOM     76  C   UNL A   1      43.614  34.912  28.271  1.00  0.00     0.173 A 
ATOM     77  C   UNL A   1      43.627  36.244  30.254  1.00  0.00     0.173 A 
ATOM     78  F   UNL A   1      43.257  33.819  27.581  1.00  0.00    -0.203 F 
ATOM     79  C   UNL A   1      44.277  35.935  27.583  1.00  0.00     0.198 A 
ATOM     80  C   UNL A   1      44.294  37.262  29.569  1.00  0.00     0.198 A 
ATOM     81  F   UNL A   1      43.267  36.497  31.520  1.00  0.00    -0.203 F 
ATOM     82  F   UNL A   1      44.541  35.800  26.276  1.00  0.00    -0.200 F 
ATOM     83  C   UNL A   1      44.605  37.114  28.231  1.00  0.00     0.200 A 
ATOM     84  F   UNL A   1      44.571  38.414  30.196  1.00  0.00    -0.200 F 
ATOM     85  F   UNL A   1      45.178  38.121  27.556  1.00  0.00    -0.200 F 
ENDBRANCH  51  75
BRANCH  63  86
ATOM     86  C   UNL A   1      40.796  31.223  33.953  1.00  0.00     0.064 A 
ATOM     87  C   UNL A   1      39.699  32.090  34.098  1.00  0.00     0.173 A 
ATOM     88  C   UNL A   1      41.543  30.931  35.102  1.00  0.00     0.173 A 
ATOM     89  F   UNL A   1      38.878  32.344  33.070  1.00  0.00    -0.203 F 
ATOM     90  C   UNL A   1      39.394  32.667  35.331  1.00  0.00     0.198 A 
ATOM     91  C   UNL A   1      41.213  31.476  36.339  1.00  0.00     0.198 A 
ATOM     92  F   UNL A   1      42.571  30.069  35.033  1.00  0.00    -0.203 F 
ATOM     93  F   UNL A   1      38.350  33.503  35.443  1.00  0.00    -0.200 F 
ATOM     94  C   UNL A   1      40.146  32.352  36.451  1.00  0.00     0.200 A 
ATOM     95  F   UNL A   1      41.913  31.127  37.427  1.00  0.00    -0.200 F 
ATOM     96  F   UNL A   1      39.828  32.872  37.645  1.00  0.00    -0.200 F 
ENDBRANCH  63  86
ENDBRANCH  37  38
ENDBRANCH  30  32
ENDBRANCH  29  30
ENDBRANCH  28  29
ENDBRANCH  27  28
ENDBRANCH  26  27
ENDBRANCH  25  26
ENDBRANCH   1  25
TORSDOF 20
ENDMDL
