MODEL 1
REMARK VINA RESULT:     -10.8      0.000      0.000
REMARK SMILES CC[N@@H+](C[C@@H](C)C(=O)OCCOCCOC(=O)c1ccc(-c2c3nc(c(-c4c(F)c(F)c(F)c(F)c4F)c4ccc([nH]4)c(-c4c(F)c(F)c(F)c(F)c4F)c4nc(c(-c5c(F)c(F)c(F)c(F)c5F)c5ccc2[nH]5)C=C4)C=C3)cc1)[C@@H]1CCC[C@H](S(C)(=O)=O)C1
REMARK SMILES IDX 11 1 10 2 9 3 7 4 8 5 5 6 6 7 4 8 3 9 2 11 1 12 81 13 82 14
REMARK SMILES IDX 90 15 83 16 85 17 84 18 86 19 87 20 88 21 89 22 12 23 13 24
REMARK SMILES IDX 14 25 15 26 16 27 17 28 18 29 19 30 80 31 20 32 79 33 21 34
REMARK SMILES IDX 22 35 23 36 73 37 24 38 78 39 72 40 74 41 25 42 77 43 71 44
REMARK SMILES IDX 70 45 26 47 58 48 38 49 57 50 39 51 42 52 56 53 75 54 40 55
REMARK SMILES IDX 41 56 55 58 76 59 43 60 27 61 28 62 36 63 29 64 30 65 34 66
REMARK SMILES IDX 37 67 31 68 32 69 35 70 33 71 59 72 60 73 68 74 61 75 62 76
REMARK SMILES IDX 66 77 69 78 63 79 64 80 67 81 65 82 44 83 45 84 53 85 46 86
REMARK SMILES IDX 47 87 51 88 54 89 48 90 49 91 52 92 50 93
REMARK H PARENT 3 10 74 46 42 57
REMARK Flexibility Score: inf
ROOT
ATOM      1  C   UNL A   1      31.768  29.152  25.122  1.00  0.00     0.202 C 
ENDROOT
BRANCH   1   2
ATOM      2  C   UNL A   1      32.057  28.189  26.279  1.00  0.00     0.261 C 
BRANCH   2   3
ATOM      3  O   UNL A   1      31.368  26.934  26.132  1.00  0.00    -0.463 OA
BRANCH   3   4
ATOM      4  C   UNL A   1      31.807  26.146  25.114  1.00  0.00     0.314 C 
ATOM      5  O   UNL A   1      31.110  25.745  24.189  1.00  0.00    -0.252 OA
BRANCH   4   6
ATOM      6  C   UNL A   1      33.256  25.726  25.276  1.00  0.00     0.151 C 
ATOM      7  C   UNL A   1      33.836  25.649  23.869  1.00  0.00     0.026 C 
BRANCH   6   8
ATOM      8  C   UNL A   1      33.436  24.485  26.201  1.00  0.00     0.277 C 
BRANCH   8   9
ATOM      9  N   UNL A   1      32.598  23.260  25.986  1.00  0.00    -0.332 N 
ATOM     10  H   UNL A   1      32.159  23.279  25.065  1.00  0.00     0.348 HD
BRANCH   9  11
ATOM     11  C   UNL A   1      31.516  23.278  27.002  1.00  0.00     0.259 C 
ATOM     12  C   UNL A   1      30.106  22.852  26.625  1.00  0.00     0.071 C 
ENDBRANCH   9  11
BRANCH   9  13
ATOM     13  C   UNL A   1      33.381  22.004  25.866  1.00  0.00     0.185 C 
ATOM     14  C   UNL A   1      34.805  22.234  25.278  1.00  0.00     0.065 C 
ATOM     15  C   UNL A   1      32.761  20.900  24.973  1.00  0.00     0.084 C 
ATOM     16  C   UNL A   1      35.662  20.977  25.373  1.00  0.00     0.007 C 
ATOM     17  C   UNL A   1      33.573  19.597  25.103  1.00  0.00     0.114 C 
ATOM     18  C   UNL A   1      35.022  19.797  24.661  1.00  0.00     0.020 C 
BRANCH  17  19
ATOM     19  S   UNL A   1      32.778  18.255  24.212  1.00  0.00     0.150 S 
ATOM     20  C   UNL A   1      34.120  17.162  23.798  1.00  0.00     0.158 C 
ATOM     21  O   UNL A   1      31.935  17.541  25.153  1.00  0.00    -0.229 OA
ATOM     22  O   UNL A   1      32.233  18.777  22.974  1.00  0.00    -0.229 OA
ENDBRANCH  17  19
ENDBRANCH   9  13
ENDBRANCH   8   9
ENDBRANCH   6   8
ENDBRANCH   4   6
ENDBRANCH   3   4
ENDBRANCH   2   3
ENDBRANCH   1   2
BRANCH   1  23
ATOM     23  O   UNL A   1      31.377  30.477  25.478  1.00  0.00    -0.374 OA
BRANCH  23  24
ATOM     24  C   UNL A   1      31.853  30.978  26.726  1.00  0.00     0.202 C 
BRANCH  24  25
ATOM     25  C   UNL A   1      31.716  32.488  26.949  1.00  0.00     0.261 C 
BRANCH  25  26
ATOM     26  O   UNL A   1      32.993  33.150  26.905  1.00  0.00    -0.460 OA
BRANCH  26  27
ATOM     27  C   UNL A   1      33.494  33.468  28.120  1.00  0.00     0.338 C 
ATOM     28  O   UNL A   1      32.930  34.080  29.018  1.00  0.00    -0.246 OA
BRANCH  27  29
ATOM     29  C   UNL A   1      34.805  32.826  28.329  1.00  0.00     0.060 A 
ATOM     30  C   UNL A   1      34.788  31.506  28.797  1.00  0.00     0.016 A 
ATOM     31  C   UNL A   1      36.013  33.512  28.182  1.00  0.00     0.016 A 
ATOM     32  C   UNL A   1      35.971  30.895  29.198  1.00  0.00     0.010 A 
ATOM     33  C   UNL A   1      37.205  32.895  28.590  1.00  0.00     0.010 A 
ATOM     34  C   UNL A   1      37.179  31.604  29.149  1.00  0.00    -0.014 A 
BRANCH  34  35
ATOM     35  C   UNL A   1      38.355  31.029  29.849  1.00  0.00     0.031 A 
ATOM     36  C   UNL A   1      38.582  31.371  31.297  1.00  0.00     0.074 A 
ATOM     37  C   UNL A   1      39.142  30.126  29.238  1.00  0.00     0.049 A 
ATOM     38  N   UNL A   1      39.457  30.881  32.140  1.00  0.00    -0.248 NA
ATOM     39  C   UNL A   1      37.699  32.396  31.876  1.00  0.00     0.031 C 
ATOM     40  C   UNL A   1      39.007  29.694  27.850  1.00  0.00     0.029 A 
ATOM     41  N   UNL A   1      40.199  29.395  29.720  1.00  0.00    -0.354 N 
ATOM     42  C   UNL A   1      39.223  31.529  33.346  1.00  0.00     0.074 A 
ATOM     43  C   UNL A   1      38.155  32.478  33.117  1.00  0.00     0.031 C 
ATOM     44  C   UNL A   1      39.940  28.760  27.593  1.00  0.00     0.029 A 
ATOM     45  C   UNL A   1      40.741  28.539  28.796  1.00  0.00     0.049 A 
ATOM     46  H   UNL A   1      40.535  29.478  30.642  1.00  0.00     0.167 HD
ATOM     47  C   UNL A   1      39.831  31.340  34.542  1.00  0.00     0.037 A 
ATOM     48  C   UNL A   1      41.763  27.670  28.911  1.00  0.00     0.037 A 
ATOM     49  C   UNL A   1      40.895  30.398  34.772  1.00  0.00     0.049 A 
ATOM     50  C   UNL A   1      42.450  27.505  30.242  1.00  0.00     0.074 A 
ATOM     51  C   UNL A   1      41.571  30.127  35.949  1.00  0.00     0.029 A 
ATOM     52  N   UNL A   1      41.442  29.574  33.799  1.00  0.00    -0.354 N 
ATOM     53  N   UNL A   1      42.196  28.094  31.385  1.00  0.00    -0.248 NA
ATOM     54  C   UNL A   1      43.557  26.539  30.300  1.00  0.00     0.031 C 
ATOM     55  C   UNL A   1      42.556  29.170  35.679  1.00  0.00     0.029 A 
ATOM     56  C   UNL A   1      42.460  28.808  34.346  1.00  0.00     0.049 A 
ATOM     57  H   UNL A   1      41.150  29.539  32.860  1.00  0.00     0.167 HD
ATOM     58  C   UNL A   1      43.087  27.550  32.302  1.00  0.00     0.074 A 
ATOM     59  C   UNL A   1      43.878  26.573  31.586  1.00  0.00     0.031 C 
ATOM     60  C   UNL A   1      43.234  27.834  33.620  1.00  0.00     0.037 A 
BRANCH  47  61
ATOM     61  C   UNL A   1      39.369  32.184  35.693  1.00  0.00     0.064 A 
ATOM     62  C   UNL A   1      38.405  31.722  36.602  1.00  0.00     0.173 A 
ATOM     63  C   UNL A   1      39.916  33.458  35.906  1.00  0.00     0.173 A 
ATOM     64  F   UNL A   1      37.840  30.517  36.434  1.00  0.00    -0.203 F 
ATOM     65  C   UNL A   1      37.990  32.514  37.670  1.00  0.00     0.198 A 
ATOM     66  C   UNL A   1      39.518  34.236  36.989  1.00  0.00     0.198 A 
ATOM     67  F   UNL A   1      40.843  33.944  35.068  1.00  0.00    -0.203 F 
ATOM     68  F   UNL A   1      37.038  32.071  38.501  1.00  0.00    -0.200 F 
ATOM     69  C   UNL A   1      38.551  33.767  37.866  1.00  0.00     0.200 A 
ATOM     70  F   UNL A   1      40.070  35.442  37.184  1.00  0.00    -0.200 F 
ATOM     71  F   UNL A   1      38.155  34.527  38.897  1.00  0.00    -0.200 F 
ENDBRANCH  47  61
BRANCH  48  72
ATOM     72  C   UNL A   1      42.188  26.867  27.735  1.00  0.00     0.064 A 
ATOM     73  C   UNL A   1      41.638  25.605  27.479  1.00  0.00     0.173 A 
ATOM     74  C   UNL A   1      43.168  27.345  26.851  1.00  0.00     0.173 A 
ATOM     75  F   UNL A   1      40.717  25.095  28.310  1.00  0.00    -0.203 F 
ATOM     76  C   UNL A   1      42.064  24.840  26.395  1.00  0.00     0.198 A 
ATOM     77  C   UNL A   1      43.572  26.592  25.751  1.00  0.00     0.198 A 
ATOM     78  F   UNL A   1      43.725  28.547  27.052  1.00  0.00    -0.203 F 
ATOM     79  F   UNL A   1      41.554  23.617  26.198  1.00  0.00    -0.200 F 
ATOM     80  C   UNL A   1      43.026  25.338  25.528  1.00  0.00     0.200 A 
ATOM     81  F   UNL A   1      44.493  27.081  24.910  1.00  0.00    -0.200 F 
ATOM     82  F   UNL A   1      43.432  24.604  24.482  1.00  0.00    -0.200 F 
ENDBRANCH  48  72
BRANCH  60  83
ATOM     83  C   UNL A   1      44.267  27.051  34.379  1.00  0.00     0.064 A 
ATOM     84  C   UNL A   1      43.968  25.814  34.969  1.00  0.00     0.173 A 
ATOM     85  C   UNL A   1      45.578  27.537  34.499  1.00  0.00     0.173 A 
ATOM     86  F   UNL A   1      42.726  25.313  34.893  1.00  0.00    -0.203 F 
ATOM     87  C   UNL A   1      44.934  25.110  35.683  1.00  0.00     0.198 A 
ATOM     88  C   UNL A   1      46.550  26.815  35.188  1.00  0.00     0.198 A 
ATOM     89  F   UNL A   1      45.919  28.710  33.947  1.00  0.00    -0.203 F 
ATOM     90  F   UNL A   1      44.611  23.958  36.286  1.00  0.00    -0.200 F 
ATOM     91  C   UNL A   1      46.225  25.607  35.788  1.00  0.00     0.200 A 
ATOM     92  F   UNL A   1      47.799  27.291  35.279  1.00  0.00    -0.200 F 
ATOM     93  F   UNL A   1      47.152  24.928  36.476  1.00  0.00    -0.200 F 
ENDBRANCH  60  83
ENDBRANCH  34  35
ENDBRANCH  27  29
ENDBRANCH  26  27
ENDBRANCH  25  26
ENDBRANCH  24  25
ENDBRANCH  23  24
ENDBRANCH   1  23
TORSDOF 19
ENDMDL
MODEL 2
REMARK VINA RESULT:     -10.7      0.813      2.059
REMARK SMILES CC[N@@H+](C[C@@H](C)C(=O)OCCOCCOC(=O)c1ccc(-c2c3nc(c(-c4c(F)c(F)c(F)c(F)c4F)c4ccc([nH]4)c(-c4c(F)c(F)c(F)c(F)c4F)c4nc(c(-c5c(F)c(F)c(F)c(F)c5F)c5ccc2[nH]5)C=C4)C=C3)cc1)[C@@H]1CCC[C@H](S(C)(=O)=O)C1
REMARK SMILES IDX 11 1 10 2 9 3 7 4 8 5 5 6 6 7 4 8 3 9 2 11 1 12 81 13 82 14
REMARK SMILES IDX 90 15 83 16 85 17 84 18 86 19 87 20 88 21 89 22 12 23 13 24
REMARK SMILES IDX 14 25 15 26 16 27 17 28 18 29 19 30 80 31 20 32 79 33 21 34
REMARK SMILES IDX 22 35 23 36 73 37 24 38 78 39 72 40 74 41 25 42 77 43 71 44
REMARK SMILES IDX 70 45 26 47 58 48 38 49 57 50 39 51 42 52 56 53 75 54 40 55
REMARK SMILES IDX 41 56 55 58 76 59 43 60 27 61 28 62 36 63 29 64 30 65 34 66
REMARK SMILES IDX 37 67 31 68 32 69 35 70 33 71 59 72 60 73 68 74 61 75 62 76
REMARK SMILES IDX 66 77 69 78 63 79 64 80 67 81 65 82 44 83 45 84 53 85 46 86
REMARK SMILES IDX 47 87 51 88 54 89 48 90 49 91 52 92 50 93
REMARK H PARENT 3 10 74 46 42 57
REMARK Flexibility Score: inf
ROOT
ATOM      1  C   UNL A   1      31.119  28.906  24.666  1.00  0.00     0.202 C 
ENDROOT
BRANCH   1   2
ATOM      2  C   UNL A   1      31.313  27.820  25.729  1.00  0.00     0.261 C 
BRANCH   2   3
ATOM      3  O   UNL A   1      31.446  26.507  25.153  1.00  0.00    -0.463 OA
BRANCH   3   4
ATOM      4  C   UNL A   1      31.359  25.474  26.033  1.00  0.00     0.314 C 
ATOM      5  O   UNL A   1      31.905  25.441  27.129  1.00  0.00    -0.252 OA
BRANCH   4   6
ATOM      6  C   UNL A   1      30.571  24.298  25.486  1.00  0.00     0.151 C 
ATOM      7  C   UNL A   1      30.174  23.455  26.693  1.00  0.00     0.026 C 
BRANCH   6   8
ATOM      8  C   UNL A   1      31.285  23.578  24.303  1.00  0.00     0.277 C 
BRANCH   8   9
ATOM      9  N   UNL A   1      32.770  23.701  24.135  1.00  0.00    -0.332 N 
ATOM     10  H   UNL A   1      33.136  24.464  24.705  1.00  0.00     0.348 HD
BRANCH   9  11
ATOM     11  C   UNL A   1      33.029  24.035  22.712  1.00  0.00     0.259 C 
ATOM     12  C   UNL A   1      33.401  25.456  22.316  1.00  0.00     0.071 C 
ENDBRANCH   9  11
BRANCH   9  13
ATOM     13  C   UNL A   1      33.540  22.567  24.705  1.00  0.00     0.185 C 
ATOM     14  C   UNL A   1      35.066  22.663  24.407  1.00  0.00     0.065 C 
ATOM     15  C   UNL A   1      33.132  21.155  24.215  1.00  0.00     0.084 C 
ATOM     16  C   UNL A   1      35.857  21.618  25.185  1.00  0.00     0.007 C 
ATOM     17  C   UNL A   1      33.872  20.078  25.033  1.00  0.00     0.114 C 
ATOM     18  C   UNL A   1      35.386  20.206  24.882  1.00  0.00     0.020 C 
BRANCH  17  19
ATOM     19  S   UNL A   1      33.290  18.434  24.601  1.00  0.00     0.150 S 
ATOM     20  C   UNL A   1      32.396  18.681  23.082  1.00  0.00     0.158 C 
ATOM     21  O   UNL A   1      34.452  17.629  24.273  1.00  0.00    -0.229 OA
ATOM     22  O   UNL A   1      32.343  17.997  25.607  1.00  0.00    -0.229 OA
ENDBRANCH  17  19
ENDBRANCH   9  13
ENDBRANCH   8   9
ENDBRANCH   6   8
ENDBRANCH   4   6
ENDBRANCH   3   4
ENDBRANCH   2   3
ENDBRANCH   1   2
BRANCH   1  23
ATOM     23  O   UNL A   1      31.248  30.258  25.104  1.00  0.00    -0.374 OA
BRANCH  23  24
ATOM     24  C   UNL A   1      31.800  30.465  26.404  1.00  0.00     0.202 C 
BRANCH  24  25
ATOM     25  C   UNL A   1      31.849  31.915  26.898  1.00  0.00     0.261 C 
BRANCH  25  26
ATOM     26  O   UNL A   1      33.170  32.475  26.774  1.00  0.00    -0.460 OA
BRANCH  26  27
ATOM     27  C   UNL A   1      33.683  32.944  27.933  1.00  0.00     0.338 C 
ATOM     28  O   UNL A   1      33.113  33.627  28.774  1.00  0.00    -0.246 OA
BRANCH  27  29
ATOM     29  C   UNL A   1      35.025  32.383  28.176  1.00  0.00     0.060 A 
ATOM     30  C   UNL A   1      35.086  31.024  28.506  1.00  0.00     0.016 A 
ATOM     31  C   UNL A   1      36.180  33.169  28.191  1.00  0.00     0.016 A 
ATOM     32  C   UNL A   1      36.284  30.464  28.932  1.00  0.00     0.010 A 
ATOM     33  C   UNL A   1      37.388  32.604  28.624  1.00  0.00     0.010 A 
ATOM     34  C   UNL A   1      37.430  31.262  29.046  1.00  0.00    -0.014 A 
BRANCH  34  35
ATOM     35  C   UNL A   1      38.600  30.706  29.772  1.00  0.00     0.031 A 
ATOM     36  C   UNL A   1      38.797  31.062  31.222  1.00  0.00     0.074 A 
ATOM     37  C   UNL A   1      39.407  29.807  29.184  1.00  0.00     0.049 A 
ATOM     38  N   UNL A   1      39.661  30.589  32.085  1.00  0.00    -0.248 NA
ATOM     39  C   UNL A   1      37.893  32.082  31.776  1.00  0.00     0.031 C 
ATOM     40  C   UNL A   1      39.303  29.362  27.797  1.00  0.00     0.029 A 
ATOM     41  N   UNL A   1      40.463  29.091  29.691  1.00  0.00    -0.354 N 
ATOM     42  C   UNL A   1      39.399  31.244  33.280  1.00  0.00     0.074 A 
ATOM     43  C   UNL A   1      38.325  32.179  33.024  1.00  0.00     0.031 C 
ATOM     44  C   UNL A   1      40.249  28.436  27.565  1.00  0.00     0.029 A 
ATOM     45  C   UNL A   1      41.031  28.233  28.784  1.00  0.00     0.049 A 
ATOM     46  H   UNL A   1      40.782  29.185  30.618  1.00  0.00     0.167 HD
ATOM     47  C   UNL A   1      39.987  31.071  34.488  1.00  0.00     0.037 A 
ATOM     48  C   UNL A   1      42.060  27.376  28.924  1.00  0.00     0.037 A 
ATOM     49  C   UNL A   1      41.056  30.142  34.746  1.00  0.00     0.049 A 
ATOM     50  C   UNL A   1      42.724  27.230  30.269  1.00  0.00     0.074 A 
ATOM     51  C   UNL A   1      41.713  29.888  35.937  1.00  0.00     0.029 A 
ATOM     52  N   UNL A   1      41.630  29.317  33.790  1.00  0.00    -0.354 N 
ATOM     53  N   UNL A   1      42.443  27.826  31.403  1.00  0.00    -0.248 NA
ATOM     54  C   UNL A   1      43.840  26.276  30.355  1.00  0.00     0.031 C 
ATOM     55  C   UNL A   1      42.713  28.940  35.693  1.00  0.00     0.029 A 
ATOM     56  C   UNL A   1      42.646  28.566  34.361  1.00  0.00     0.049 A 
ATOM     57  H   UNL A   1      41.356  29.271  32.846  1.00  0.00     0.167 HD
ATOM     58  C   UNL A   1      43.323  27.299  32.340  1.00  0.00     0.074 A 
ATOM     59  C   UNL A   1      44.137  26.324  31.646  1.00  0.00     0.031 C 
ATOM     60  C   UNL A   1      43.444  27.595  33.658  1.00  0.00     0.037 A 
BRANCH  47  61
ATOM     61  C   UNL A   1      39.495  31.919  35.624  1.00  0.00     0.064 A 
ATOM     62  C   UNL A   1      38.469  31.483  36.476  1.00  0.00     0.173 A 
ATOM     63  C   UNL A   1      40.075  33.170  35.881  1.00  0.00     0.173 A 
ATOM     64  F   UNL A   1      37.870  30.301  36.264  1.00  0.00    -0.203 F 
ATOM     65  C   UNL A   1      38.026  32.279  37.530  1.00  0.00     0.198 A 
ATOM     66  C   UNL A   1      39.649  33.951  36.952  1.00  0.00     0.198 A 
ATOM     67  F   UNL A   1      41.062  33.631  35.099  1.00  0.00    -0.203 F 
ATOM     68  F   UNL A   1      37.016  31.862  38.305  1.00  0.00    -0.200 F 
ATOM     69  C   UNL A   1      38.621  33.508  37.771  1.00  0.00     0.200 A 
ATOM     70  F   UNL A   1      40.232  35.134  37.190  1.00  0.00    -0.200 F 
ATOM     71  F   UNL A   1      38.198  34.272  38.789  1.00  0.00    -0.200 F 
ENDBRANCH  47  61
BRANCH  48  72
ATOM     72  C   UNL A   1      42.515  26.569  27.763  1.00  0.00     0.064 A 
ATOM     73  C   UNL A   1      43.465  27.064  26.861  1.00  0.00     0.173 A 
ATOM     74  C   UNL A   1      41.994  25.287  27.527  1.00  0.00     0.173 A 
ATOM     75  F   UNL A   1      43.973  28.293  27.031  1.00  0.00    -0.203 F 
ATOM     76  C   UNL A   1      43.864  26.317  25.754  1.00  0.00     0.198 A 
ATOM     77  C   UNL A   1      42.415  24.530  26.436  1.00  0.00     0.198 A 
ATOM     78  F   UNL A   1      41.083  24.768  28.362  1.00  0.00    -0.203 F 
ATOM     79  F   UNL A   1      44.741  26.832  24.881  1.00  0.00    -0.200 F 
ATOM     80  C   UNL A   1      43.343  25.048  25.547  1.00  0.00     0.200 A 
ATOM     81  F   UNL A   1      41.918  23.301  26.246  1.00  0.00    -0.200 F 
ATOM     82  F   UNL A   1      43.730  24.328  24.484  1.00  0.00    -0.200 F 
ENDBRANCH  48  72
BRANCH  60  83
ATOM     83  C   UNL A   1      44.471  26.829  34.442  1.00  0.00     0.064 A 
ATOM     84  C   UNL A   1      45.781  27.305  34.603  1.00  0.00     0.173 A 
ATOM     85  C   UNL A   1      44.133  25.614  35.056  1.00  0.00     0.173 A 
ATOM     86  F   UNL A   1      46.157  28.456  34.025  1.00  0.00    -0.203 F 
ATOM     87  C   UNL A   1      46.724  26.574  35.321  1.00  0.00     0.198 A 
ATOM     88  C   UNL A   1      45.071  24.900  35.798  1.00  0.00     0.198 A 
ATOM     89  F   UNL A   1      42.892  25.118  34.940  1.00  0.00    -0.203 F 
ATOM     90  F   UNL A   1      47.984  27.020  35.414  1.00  0.00    -0.200 F 
ATOM     91  C   UNL A   1      46.368  25.375  35.921  1.00  0.00     0.200 A 
ATOM     92  F   UNL A   1      44.722  23.748  36.387  1.00  0.00    -0.200 F 
ATOM     93  F   UNL A   1      47.278  24.673  36.609  1.00  0.00    -0.200 F 
ENDBRANCH  60  83
ENDBRANCH  34  35
ENDBRANCH  27  29
ENDBRANCH  26  27
ENDBRANCH  25  26
ENDBRANCH  24  25
ENDBRANCH  23  24
ENDBRANCH   1  23
TORSDOF 19
ENDMDL
MODEL 3
REMARK VINA RESULT:     -10.4      1.184      1.830
REMARK SMILES CC[N@@H+](C[C@@H](C)C(=O)OCCOCCOC(=O)c1ccc(-c2c3nc(c(-c4c(F)c(F)c(F)c(F)c4F)c4ccc([nH]4)c(-c4c(F)c(F)c(F)c(F)c4F)c4nc(c(-c5c(F)c(F)c(F)c(F)c5F)c5ccc2[nH]5)C=C4)C=C3)cc1)[C@@H]1CCC[C@H](S(C)(=O)=O)C1
REMARK SMILES IDX 11 1 10 2 9 3 7 4 8 5 5 6 6 7 4 8 3 9 2 11 1 12 81 13 82 14
REMARK SMILES IDX 90 15 83 16 85 17 84 18 86 19 87 20 88 21 89 22 12 23 13 24
REMARK SMILES IDX 14 25 15 26 16 27 17 28 18 29 19 30 80 31 20 32 79 33 21 34
REMARK SMILES IDX 22 35 23 36 73 37 24 38 78 39 72 40 74 41 25 42 77 43 71 44
REMARK SMILES IDX 70 45 26 47 58 48 38 49 57 50 39 51 42 52 56 53 75 54 40 55
REMARK SMILES IDX 41 56 55 58 76 59 43 60 27 61 28 62 36 63 29 64 30 65 34 66
REMARK SMILES IDX 37 67 31 68 32 69 35 70 33 71 59 72 60 73 68 74 61 75 62 76
REMARK SMILES IDX 66 77 69 78 63 79 64 80 67 81 65 82 44 83 45 84 53 85 46 86
REMARK SMILES IDX 47 87 51 88 54 89 48 90 49 91 52 92 50 93
REMARK H PARENT 3 10 74 46 42 57
REMARK Flexibility Score: inf
ROOT
ATOM      1  C   UNL A   1      31.889  29.331  27.020  1.00  0.00     0.202 C 
ENDROOT
BRANCH   1   2
ATOM      2  C   UNL A   1      32.887  28.179  26.865  1.00  0.00     0.261 C 
BRANCH   2   3
ATOM      3  O   UNL A   1      33.419  28.090  25.531  1.00  0.00    -0.463 OA
BRANCH   3   4
ATOM      4  C   UNL A   1      32.923  27.076  24.773  1.00  0.00     0.314 C 
ATOM      5  O   UNL A   1      31.778  27.020  24.341  1.00  0.00    -0.252 OA
BRANCH   4   6
ATOM      6  C   UNL A   1      33.917  25.946  24.576  1.00  0.00     0.151 C 
ATOM      7  C   UNL A   1      33.689  25.421  23.163  1.00  0.00     0.026 C 
BRANCH   6   8
ATOM      8  C   UNL A   1      33.911  24.913  25.742  1.00  0.00     0.277 C 
BRANCH   8   9
ATOM      9  N   UNL A   1      32.968  23.747  25.708  1.00  0.00    -0.332 N 
ATOM     10  H   UNL A   1      32.505  23.684  24.801  1.00  0.00     0.348 HD
BRANCH   9  11
ATOM     11  C   UNL A   1      31.923  23.992  26.733  1.00  0.00     0.259 C 
ATOM     12  C   UNL A   1      30.515  23.454  26.534  1.00  0.00     0.071 C 
ENDBRANCH   9  11
BRANCH   9  13
ATOM     13  C   UNL A   1      33.639  22.424  25.741  1.00  0.00     0.185 C 
ATOM     14  C   UNL A   1      35.126  22.489  25.280  1.00  0.00     0.065 C 
ATOM     15  C   UNL A   1      33.004  21.318  24.862  1.00  0.00     0.084 C 
ATOM     16  C   UNL A   1      35.852  21.172  25.534  1.00  0.00     0.007 C 
ATOM     17  C   UNL A   1      33.678  19.962  25.149  1.00  0.00     0.114 C 
ATOM     18  C   UNL A   1      35.173  20.005  24.837  1.00  0.00     0.020 C 
BRANCH  17  19
ATOM     19  S   UNL A   1      32.847  18.634  24.269  1.00  0.00     0.150 S 
ATOM     20  C   UNL A   1      34.159  17.503  23.862  1.00  0.00     0.158 C 
ATOM     21  O   UNL A   1      31.987  17.950  25.217  1.00  0.00    -0.229 OA
ATOM     22  O   UNL A   1      32.314  19.161  23.028  1.00  0.00    -0.229 OA
ENDBRANCH  17  19
ENDBRANCH   9  13
ENDBRANCH   8   9
ENDBRANCH   6   8
ENDBRANCH   4   6
ENDBRANCH   3   4
ENDBRANCH   2   3
ENDBRANCH   1   2
BRANCH   1  23
ATOM     23  O   UNL A   1      32.381  30.642  26.744  1.00  0.00    -0.374 OA
BRANCH  23  24
ATOM     24  C   UNL A   1      31.409  31.664  26.528  1.00  0.00     0.202 C 
BRANCH  24  25
ATOM     25  C   UNL A   1      31.827  33.089  26.904  1.00  0.00     0.261 C 
BRANCH  25  26
ATOM     26  O   UNL A   1      33.155  33.126  27.458  1.00  0.00    -0.460 OA
BRANCH  26  27
ATOM     27  C   UNL A   1      33.335  34.075  28.403  1.00  0.00     0.338 C 
ATOM     28  O   UNL A   1      32.619  35.042  28.629  1.00  0.00    -0.246 OA
BRANCH  27  29
ATOM     29  C   UNL A   1      34.455  33.721  29.293  1.00  0.00     0.060 A 
ATOM     30  C   UNL A   1      35.716  34.216  28.941  1.00  0.00     0.016 A 
ATOM     31  C   UNL A   1      34.313  32.848  30.375  1.00  0.00     0.016 A 
ATOM     32  C   UNL A   1      36.850  33.777  29.615  1.00  0.00     0.010 A 
ATOM     33  C   UNL A   1      35.458  32.403  31.052  1.00  0.00     0.010 A 
ATOM     34  C   UNL A   1      36.734  32.826  30.638  1.00  0.00    -0.014 A 
BRANCH  34  35
ATOM     35  C   UNL A   1      37.974  32.173  31.129  1.00  0.00     0.031 A 
ATOM     36  C   UNL A   1      38.459  32.480  32.520  1.00  0.00     0.074 A 
ATOM     37  C   UNL A   1      38.592  31.235  30.391  1.00  0.00     0.049 A 
ATOM     38  N   UNL A   1      39.432  31.928  33.202  1.00  0.00    -0.248 NA
ATOM     39  C   UNL A   1      37.749  33.546  33.243  1.00  0.00     0.031 C 
ATOM     40  C   UNL A   1      38.202  30.832  29.043  1.00  0.00     0.029 A 
ATOM     41  N   UNL A   1      39.669  30.436  30.686  1.00  0.00    -0.354 N 
ATOM     42  C   UNL A   1      39.442  32.571  34.433  1.00  0.00     0.074 A 
ATOM     43  C   UNL A   1      38.410  33.583  34.391  1.00  0.00     0.031 C 
ATOM     44  C   UNL A   1      39.020  29.848  28.629  1.00  0.00     0.029 A 
ATOM     45  C   UNL A   1      39.996  29.563  29.680  1.00  0.00     0.049 A 
ATOM     46  H   UNL A   1      40.158  30.485  31.539  1.00  0.00     0.167 HD
ATOM     47  C   UNL A   1      40.229  32.328  35.509  1.00  0.00     0.037 A 
ATOM     48  C   UNL A   1      40.969  28.634  29.618  1.00  0.00     0.037 A 
ATOM     49  C   UNL A   1      41.257  31.322  35.554  1.00  0.00     0.049 A 
ATOM     50  C   UNL A   1      41.857  28.410  30.814  1.00  0.00     0.074 A 
ATOM     51  C   UNL A   1      42.102  30.995  36.600  1.00  0.00     0.029 A 
ATOM     52  N   UNL A   1      41.584  30.482  34.500  1.00  0.00    -0.354 N 
ATOM     53  N   UNL A   1      41.833  28.996  31.987  1.00  0.00    -0.248 NA
ATOM     54  C   UNL A   1      42.898  27.380  30.681  1.00  0.00     0.031 C 
ATOM     55  C   UNL A   1      42.969  29.986  36.165  1.00  0.00     0.029 A 
ATOM     56  C   UNL A   1      42.631  29.649  34.864  1.00  0.00     0.049 A 
ATOM     57  H   UNL A   1      41.137  30.478  33.622  1.00  0.00     0.167 HD
ATOM     58  C   UNL A   1      42.830  28.388  32.739  1.00  0.00     0.074 A 
ATOM     59  C   UNL A   1      43.430  27.376  31.895  1.00  0.00     0.031 C 
ATOM     60  C   UNL A   1      43.213  28.643  34.014  1.00  0.00     0.037 A 
BRANCH  47  61
ATOM     61  C   UNL A   1      40.017  33.180  36.726  1.00  0.00     0.064 A 
ATOM     62  C   UNL A   1      39.047  32.861  37.688  1.00  0.00     0.173 A 
ATOM     63  C   UNL A   1      40.811  34.315  36.947  1.00  0.00     0.173 A 
ATOM     64  F   UNL A   1      38.250  31.794  37.516  1.00  0.00    -0.203 F 
ATOM     65  C   UNL A   1      38.866  33.658  38.816  1.00  0.00     0.198 A 
ATOM     66  C   UNL A   1      40.645  35.095  38.088  1.00  0.00     0.198 A 
ATOM     67  F   UNL A   1      41.755  34.663  36.059  1.00  0.00    -0.203 F 
ATOM     68  F   UNL A   1      37.905  33.358  39.699  1.00  0.00    -0.200 F 
ATOM     69  C   UNL A   1      39.669  34.770  39.018  1.00  0.00     0.200 A 
ATOM     70  F   UNL A   1      41.430  36.163  38.288  1.00  0.00    -0.200 F 
ATOM     71  F   UNL A   1      39.497  35.535  40.106  1.00  0.00    -0.200 F 
ENDBRANCH  47  61
BRANCH  48  72
ATOM     72  C   UNL A   1      41.143  27.825  28.384  1.00  0.00     0.064 A 
ATOM     73  C   UNL A   1      40.452  26.620  28.201  1.00  0.00     0.173 A 
ATOM     74  C   UNL A   1      42.018  28.238  27.368  1.00  0.00     0.173 A 
ATOM     75  F   UNL A   1      39.624  26.172  29.155  1.00  0.00    -0.203 F 
ATOM     76  C   UNL A   1      40.643  25.848  27.057  1.00  0.00     0.198 A 
ATOM     77  C   UNL A   1      42.187  27.479  26.212  1.00  0.00     0.198 A 
ATOM     78  F   UNL A   1      42.702  29.384  27.494  1.00  0.00    -0.203 F 
ATOM     79  F   UNL A   1      40.005  24.677  26.927  1.00  0.00    -0.200 F 
ATOM     80  C   UNL A   1      41.506  26.281  26.061  1.00  0.00     0.200 A 
ATOM     81  F   UNL A   1      43.012  27.907  25.247  1.00  0.00    -0.200 F 
ATOM     82  F   UNL A   1      41.687  25.539  24.959  1.00  0.00    -0.200 F 
ENDBRANCH  48  72
BRANCH  60  83
ATOM     83  C   UNL A   1      44.309  27.790  34.586  1.00  0.00     0.064 A 
ATOM     84  C   UNL A   1      45.656  28.176  34.518  1.00  0.00     0.173 A 
ATOM     85  C   UNL A   1      44.004  26.580  35.228  1.00  0.00     0.173 A 
ATOM     86  F   UNL A   1      46.000  29.318  33.903  1.00  0.00    -0.203 F 
ATOM     87  C   UNL A   1      46.660  27.364  35.040  1.00  0.00     0.198 A 
ATOM     88  C   UNL A   1      45.008  25.786  35.775  1.00  0.00     0.198 A 
ATOM     89  F   UNL A   1      42.731  26.168  35.328  1.00  0.00    -0.203 F 
ATOM     90  F   UNL A   1      47.944  27.726  34.913  1.00  0.00    -0.200 F 
ATOM     91  C   UNL A   1      46.336  26.173  35.672  1.00  0.00     0.200 A 
ATOM     92  F   UNL A   1      44.692  24.640  36.396  1.00  0.00    -0.200 F 
ATOM     93  F   UNL A   1      47.304  25.393  36.172  1.00  0.00    -0.200 F 
ENDBRANCH  60  83
ENDBRANCH  34  35
ENDBRANCH  27  29
ENDBRANCH  26  27
ENDBRANCH  25  26
ENDBRANCH  24  25
ENDBRANCH  23  24
ENDBRANCH   1  23
TORSDOF 19
ENDMDL
