MODEL 1
REMARK VINA RESULT:     -10.1      0.000      0.000
REMARK SMILES COc1ccc(CCN2C(=O)C[C@@H](C(=O)OCCOCCOC(=O)c3ccc(-c4c5nc(c(-c6c(F)c(F)c(F)c(F)c6F)c6ccc([nH]6)c(-c6c(F)c(F)c(F)c(F)c6F)c6nc(c(-c7c(F)c(F)c(F)c(F)c7F)c7ccc4[nH]7)C=C6)C=C5)cc3)S/C2=[NH+]\c2ccc(F)cc2)cc1OC
REMARK SMILES IDX 18 1 17 2 16 3 14 4 15 5 13 6 9 7 10 8 89 9 11 10 12 11
REMARK SMILES IDX 88 12 90 13 8 15 7 16 6 17 3 18 4 19 99 20 5 21 98 22 2 23
REMARK SMILES IDX 1 24 100 25 101 26 91 27 92 28 97 29 93 30 96 31 94 32 95 33
REMARK SMILES IDX 19 34 20 35 21 36 22 37 23 38 24 39 25 40 26 41 87 42 27 43
REMARK SMILES IDX 86 44 28 45 29 46 30 47 80 48 31 49 85 50 79 51 81 52 32 53
REMARK SMILES IDX 84 54 78 55 77 56 33 58 65 59 45 60 64 61 46 62 49 63 63 64
REMARK SMILES IDX 82 65 47 66 48 67 62 69 83 70 50 71 34 72 35 73 43 74 36 75
REMARK SMILES IDX 37 76 41 77 44 78 38 79 39 80 42 81 40 82 66 83 67 84 75 85
REMARK SMILES IDX 68 86 69 87 73 88 76 89 70 90 71 91 74 92 72 93 51 94 52 95
REMARK SMILES IDX 60 96 53 97 54 98 58 99 61 100 55 101 56 102 59 103 57 104
REMARK H PARENT 90 14 81 57 49 68
REMARK Flexibility Score: inf
ROOT
ATOM      1  C   UNL A   1      45.997  19.990  24.750  1.00  0.00     0.202 C 
ENDROOT
BRANCH   1   2
ATOM      2  C   UNL A   1      44.810  19.117  25.171  1.00  0.00     0.261 C 
BRANCH   2   3
ATOM      3  O   UNL A   1      43.573  19.805  24.907  1.00  0.00    -0.462 OA
BRANCH   3   4
ATOM      4  C   UNL A   1      42.659  19.857  25.913  1.00  0.00     0.320 C 
ATOM      5  O   UNL A   1      42.359  18.907  26.626  1.00  0.00    -0.251 OA
BRANCH   4   6
ATOM      6  C   UNL A   1      41.999  21.222  26.059  1.00  0.00     0.180 C 
ATOM      7  N   UNL A   1      41.013  23.672  27.336  1.00  0.00    -0.191 N 
ATOM      8  C   UNL A   1      42.384  23.500  27.162  1.00  0.00     0.311 C 
ATOM      9  C   UNL A   1      40.022  22.823  26.857  1.00  0.00     0.319 C 
ATOM     10  O   UNL A   1      43.184  24.427  27.324  1.00  0.00    -0.247 OA
ATOM     11  C   UNL A   1      42.927  22.134  26.814  1.00  0.00     0.155 C 
ATOM     12  S   UNL A   1      40.408  21.140  26.901  1.00  0.00    -0.022 SA
ATOM     13  N   UNL A   1      38.895  23.308  26.458  1.00  0.00    -0.235 N 
ATOM     14  H   UNL A   1      38.744  24.274  26.578  1.00  0.00     0.313 HD
BRANCH   7  15
ATOM     15  C   UNL A   1      40.603  24.866  28.088  1.00  0.00     0.251 C 
BRANCH  15  16
ATOM     16  C   UNL A   1      40.630  26.207  27.336  1.00  0.00     0.082 C 
BRANCH  16  17
ATOM     17  C   UNL A   1      40.357  27.379  28.246  1.00  0.00    -0.040 A 
ATOM     18  C   UNL A   1      39.576  29.660  29.694  1.00  0.00     0.160 A 
ATOM     19  C   UNL A   1      40.638  29.722  28.783  1.00  0.00     0.051 A 
ATOM     20  C   UNL A   1      38.939  28.435  29.930  1.00  0.00     0.160 A 
ATOM     21  C   UNL A   1      41.041  28.584  28.080  1.00  0.00     0.008 A 
ATOM     22  C   UNL A   1      39.327  27.308  29.197  1.00  0.00     0.054 A 
BRANCH  18  23
ATOM     23  O   UNL A   1      39.064  30.791  30.272  1.00  0.00    -0.493 OA
ATOM     24  C   UNL A   1      39.980  31.530  31.069  1.00  0.00     0.278 C 
ENDBRANCH  18  23
BRANCH  20  25
ATOM     25  O   UNL A   1      37.901  28.200  30.797  1.00  0.00    -0.493 OA
ATOM     26  C   UNL A   1      38.266  27.812  32.118  1.00  0.00     0.278 C 
ENDBRANCH  20  25
ENDBRANCH  16  17
ENDBRANCH  15  16
ENDBRANCH   7  15
BRANCH  13  27
ATOM     27  C   UNL A   1      37.872  22.557  25.868  1.00  0.00     0.125 A 
ATOM     28  C   UNL A   1      36.536  22.911  26.111  1.00  0.00     0.055 A 
ATOM     29  C   UNL A   1      38.143  21.370  25.185  1.00  0.00     0.055 A 
ATOM     30  C   UNL A   1      35.488  22.089  25.688  1.00  0.00     0.043 A 
ATOM     31  C   UNL A   1      37.098  20.550  24.747  1.00  0.00     0.043 A 
ATOM     32  C   UNL A   1      35.781  20.912  25.012  1.00  0.00     0.123 A 
ATOM     33  F   UNL A   1      34.782  20.108  24.624  1.00  0.00    -0.207 F 
ENDBRANCH  13  27
ENDBRANCH   4   6
ENDBRANCH   3   4
ENDBRANCH   2   3
ENDBRANCH   1   2
BRANCH   1  34
ATOM     34  O   UNL A   1      46.119  21.244  25.424  1.00  0.00    -0.374 OA
BRANCH  34  35
ATOM     35  C   UNL A   1      45.946  22.425  24.642  1.00  0.00     0.202 C 
BRANCH  35  36
ATOM     36  C   UNL A   1      46.246  23.759  25.339  1.00  0.00     0.261 C 
BRANCH  36  37
ATOM     37  O   UNL A   1      45.677  24.888  24.651  1.00  0.00    -0.460 OA
BRANCH  37  38
ATOM     38  C   UNL A   1      46.463  25.991  24.626  1.00  0.00     0.338 C 
ATOM     39  O   UNL A   1      47.404  26.215  23.885  1.00  0.00    -0.246 OA
BRANCH  38  40
ATOM     40  C   UNL A   1      45.927  27.021  25.536  1.00  0.00     0.060 A 
ATOM     41  C   UNL A   1      46.846  27.696  26.349  1.00  0.00     0.016 A 
ATOM     42  C   UNL A   1      44.557  27.251  25.673  1.00  0.00     0.016 A 
ATOM     43  C   UNL A   1      46.398  28.568  27.337  1.00  0.00     0.010 A 
ATOM     44  C   UNL A   1      44.107  28.121  26.674  1.00  0.00     0.010 A 
ATOM     45  C   UNL A   1      45.023  28.755  27.534  1.00  0.00    -0.014 A 
BRANCH  45  46
ATOM     46  C   UNL A   1      44.557  29.495  28.734  1.00  0.00     0.031 A 
ATOM     47  C   UNL A   1      44.366  30.985  28.646  1.00  0.00     0.074 A 
ATOM     48  C   UNL A   1      44.255  28.845  29.871  1.00  0.00     0.049 A 
ATOM     49  N   UNL A   1      43.974  31.829  29.567  1.00  0.00    -0.248 NA
ATOM     50  C   UNL A   1      44.652  31.606  27.343  1.00  0.00     0.031 C 
ATOM     51  C   UNL A   1      44.352  27.402  30.068  1.00  0.00     0.029 A 
ATOM     52  N   UNL A   1      43.805  29.322  31.077  1.00  0.00    -0.354 N 
ATOM     53  C   UNL A   1      43.968  33.077  28.957  1.00  0.00     0.074 A 
ATOM     54  C   UNL A   1      44.426  32.886  27.597  1.00  0.00     0.031 C 
ATOM     55  C   UNL A   1      43.979  27.108  31.325  1.00  0.00     0.029 A 
ATOM     56  C   UNL A   1      43.646  28.345  32.029  1.00  0.00     0.049 A 
ATOM     57  H   UNL A   1      43.614  30.274  31.244  1.00  0.00     0.167 HD
ATOM     58  C   UNL A   1      43.604  34.273  29.479  1.00  0.00     0.037 A 
ATOM     59  C   UNL A   1      43.291  28.443  33.325  1.00  0.00     0.037 A 
ATOM     60  C   UNL A   1      43.149  34.464  30.831  1.00  0.00     0.049 A 
ATOM     61  C   UNL A   1      42.962  29.795  33.905  1.00  0.00     0.074 A 
ATOM     62  C   UNL A   1      42.747  35.636  31.450  1.00  0.00     0.029 A 
ATOM     63  N   UNL A   1      43.041  33.456  31.778  1.00  0.00    -0.354 N 
ATOM     64  N   UNL A   1      42.943  30.966  33.316  1.00  0.00    -0.248 NA
ATOM     65  C   UNL A   1      42.604  29.836  35.330  1.00  0.00     0.031 C 
ATOM     66  C   UNL A   1      42.443  35.345  32.785  1.00  0.00     0.029 A 
ATOM     67  C   UNL A   1      42.603  33.983  32.983  1.00  0.00     0.049 A 
ATOM     68  H   UNL A   1      43.245  32.506  31.618  1.00  0.00     0.167 HD
ATOM     69  C   UNL A   1      42.545  31.876  34.288  1.00  0.00     0.074 A 
ATOM     70  C   UNL A   1      42.321  31.120  35.502  1.00  0.00     0.031 C 
ATOM     71  C   UNL A   1      42.378  33.218  34.183  1.00  0.00     0.037 A 
BRANCH  58  72
ATOM     72  C   UNL A   1      43.705  35.477  28.589  1.00  0.00     0.064 A 
ATOM     73  C   UNL A   1      42.579  36.018  27.952  1.00  0.00     0.173 A 
ATOM     74  C   UNL A   1      44.938  36.118  28.400  1.00  0.00     0.173 A 
ATOM     75  F   UNL A   1      41.379  35.434  28.090  1.00  0.00    -0.203 F 
ATOM     76  C   UNL A   1      42.688  37.143  27.137  1.00  0.00     0.198 A 
ATOM     77  C   UNL A   1      45.039  37.258  27.608  1.00  0.00     0.198 A 
ATOM     78  F   UNL A   1      46.045  35.644  28.991  1.00  0.00    -0.203 F 
ATOM     79  F   UNL A   1      41.608  37.617  26.501  1.00  0.00    -0.200 F 
ATOM     80  C   UNL A   1      43.917  37.765  26.971  1.00  0.00     0.200 A 
ATOM     81  F   UNL A   1      46.225  37.866  27.459  1.00  0.00    -0.200 F 
ATOM     82  F   UNL A   1      44.020  38.852  26.193  1.00  0.00    -0.200 F 
ENDBRANCH  58  72
BRANCH  59  83
ATOM     83  C   UNL A   1      43.236  27.222  34.171  1.00  0.00     0.064 A 
ATOM     84  C   UNL A   1      44.406  26.626  34.660  1.00  0.00     0.173 A 
ATOM     85  C   UNL A   1      42.011  26.620  34.495  1.00  0.00     0.173 A 
ATOM     86  F   UNL A   1      45.602  27.149  34.354  1.00  0.00    -0.203 F 
ATOM     87  C   UNL A   1      44.354  25.465  35.429  1.00  0.00     0.198 A 
ATOM     88  C   UNL A   1      41.959  25.475  35.287  1.00  0.00     0.198 A 
ATOM     89  F   UNL A   1      40.862  27.150  34.050  1.00  0.00    -0.203 F 
ATOM     90  F   UNL A   1      45.490  24.890  35.848  1.00  0.00    -0.200 F 
ATOM     91  C   UNL A   1      43.130  24.895  35.748  1.00  0.00     0.200 A 
ATOM     92  F   UNL A   1      40.775  24.935  35.602  1.00  0.00    -0.200 F 
ATOM     93  F   UNL A   1      43.082  23.781  36.491  1.00  0.00    -0.200 F 
ENDBRANCH  59  83
BRANCH  71  94
ATOM     94  C   UNL A   1      41.899  33.954  35.401  1.00  0.00     0.064 A 
ATOM     95  C   UNL A   1      40.534  34.092  35.691  1.00  0.00     0.173 A 
ATOM     96  C   UNL A   1      42.822  34.492  36.312  1.00  0.00     0.173 A 
ATOM     97  F   UNL A   1      39.612  33.608  34.845  1.00  0.00    -0.203 F 
ATOM     98  C   UNL A   1      40.111  34.761  36.837  1.00  0.00     0.198 A 
ATOM     99  C   UNL A   1      42.395  35.134  37.471  1.00  0.00     0.198 A 
ATOM    100  F   UNL A   1      44.139  34.382  36.085  1.00  0.00    -0.203 F 
ATOM    101  F   UNL A   1      38.800  34.921  37.071  1.00  0.00    -0.200 F 
ATOM    102  C   UNL A   1      41.040  35.275  37.728  1.00  0.00     0.200 A 
ATOM    103  F   UNL A   1      43.295  35.618  38.338  1.00  0.00    -0.200 F 
ATOM    104  F   UNL A   1      40.629  35.912  38.834  1.00  0.00    -0.200 F 
ENDBRANCH  71  94
ENDBRANCH  45  46
ENDBRANCH  38  40
ENDBRANCH  37  38
ENDBRANCH  36  37
ENDBRANCH  35  36
ENDBRANCH  34  35
ENDBRANCH   1  34
TORSDOF 20
ENDMDL
MODEL 2
REMARK VINA RESULT:     -10.0      0.471      1.565
REMARK SMILES COc1ccc(CCN2C(=O)C[C@@H](C(=O)OCCOCCOC(=O)c3ccc(-c4c5nc(c(-c6c(F)c(F)c(F)c(F)c6F)c6ccc([nH]6)c(-c6c(F)c(F)c(F)c(F)c6F)c6nc(c(-c7c(F)c(F)c(F)c(F)c7F)c7ccc4[nH]7)C=C6)C=C5)cc3)S/C2=[NH+]\c2ccc(F)cc2)cc1OC
REMARK SMILES IDX 18 1 17 2 16 3 14 4 15 5 13 6 9 7 10 8 89 9 11 10 12 11
REMARK SMILES IDX 88 12 90 13 8 15 7 16 6 17 3 18 4 19 99 20 5 21 98 22 2 23
REMARK SMILES IDX 1 24 100 25 101 26 91 27 92 28 97 29 93 30 96 31 94 32 95 33
REMARK SMILES IDX 19 34 20 35 21 36 22 37 23 38 24 39 25 40 26 41 87 42 27 43
REMARK SMILES IDX 86 44 28 45 29 46 30 47 80 48 31 49 85 50 79 51 81 52 32 53
REMARK SMILES IDX 84 54 78 55 77 56 33 58 65 59 45 60 64 61 46 62 49 63 63 64
REMARK SMILES IDX 82 65 47 66 48 67 62 69 83 70 50 71 34 72 35 73 43 74 36 75
REMARK SMILES IDX 37 76 41 77 44 78 38 79 39 80 42 81 40 82 66 83 67 84 75 85
REMARK SMILES IDX 68 86 69 87 73 88 76 89 70 90 71 91 74 92 72 93 51 94 52 95
REMARK SMILES IDX 60 96 53 97 54 98 58 99 61 100 55 101 56 102 59 103 57 104
REMARK H PARENT 90 14 81 57 49 68
REMARK Flexibility Score: inf
ROOT
ATOM      1  C   UNL A   1      45.835  20.298  24.453  1.00  0.00     0.202 C 
ENDROOT
BRANCH   1   2
ATOM      2  C   UNL A   1      44.764  19.369  25.033  1.00  0.00     0.261 C 
BRANCH   2   3
ATOM      3  O   UNL A   1      43.459  19.954  24.868  1.00  0.00    -0.462 OA
BRANCH   3   4
ATOM      4  C   UNL A   1      42.685  20.084  25.979  1.00  0.00     0.320 C 
ATOM      5  O   UNL A   1      42.473  19.184  26.784  1.00  0.00    -0.251 OA
BRANCH   4   6
ATOM      6  C   UNL A   1      42.064  21.467  26.124  1.00  0.00     0.180 C 
ATOM      7  N   UNL A   1      41.124  23.933  27.405  1.00  0.00    -0.191 N 
ATOM      8  C   UNL A   1      42.492  23.720  27.260  1.00  0.00     0.311 C 
ATOM      9  C   UNL A   1      40.118  23.120  26.894  1.00  0.00     0.319 C 
ATOM     10  O   UNL A   1      43.316  24.621  27.450  1.00  0.00    -0.247 OA
ATOM     11  C   UNL A   1      43.001  22.342  26.911  1.00  0.00     0.155 C 
ATOM     12  S   UNL A   1      40.452  21.425  26.928  1.00  0.00    -0.022 SA
ATOM     13  N   UNL A   1      39.017  23.643  26.475  1.00  0.00    -0.235 N 
ATOM     14  H   UNL A   1      38.892  24.612  26.601  1.00  0.00     0.313 HD
BRANCH   7  15
ATOM     15  C   UNL A   1      40.732  25.131  28.160  1.00  0.00     0.251 C 
BRANCH  15  16
ATOM     16  C   UNL A   1      40.772  26.472  27.408  1.00  0.00     0.082 C 
BRANCH  16  17
ATOM     17  C   UNL A   1      40.808  27.653  28.346  1.00  0.00    -0.040 A 
ATOM     18  C   UNL A   1      40.504  29.886  30.030  1.00  0.00     0.160 A 
ATOM     19  C   UNL A   1      40.904  30.046  28.697  1.00  0.00     0.051 A 
ATOM     20  C   UNL A   1      40.314  28.596  30.544  1.00  0.00     0.160 A 
ATOM     21  C   UNL A   1      41.077  28.936  27.866  1.00  0.00     0.008 A 
ATOM     22  C   UNL A   1      40.457  27.492  29.696  1.00  0.00     0.054 A 
BRANCH  18  23
ATOM     23  O   UNL A   1      40.176  30.961  30.811  1.00  0.00    -0.493 OA
ATOM     24  C   UNL A   1      38.804  31.333  30.782  1.00  0.00     0.278 C 
ENDBRANCH  18  23
BRANCH  20  25
ATOM     25  O   UNL A   1      39.942  28.266  31.823  1.00  0.00    -0.493 OA
ATOM     26  C   UNL A   1      38.613  27.780  31.983  1.00  0.00     0.278 C 
ENDBRANCH  20  25
ENDBRANCH  16  17
ENDBRANCH  15  16
ENDBRANCH   7  15
BRANCH  13  27
ATOM     27  C   UNL A   1      37.985  22.929  25.853  1.00  0.00     0.125 A 
ATOM     28  C   UNL A   1      36.668  23.402  25.955  1.00  0.00     0.055 A 
ATOM     29  C   UNL A   1      38.211  21.675  25.280  1.00  0.00     0.055 A 
ATOM     30  C   UNL A   1      35.593  22.632  25.502  1.00  0.00     0.043 A 
ATOM     31  C   UNL A   1      37.139  20.907  24.813  1.00  0.00     0.043 A 
ATOM     32  C   UNL A   1      35.840  21.389  24.938  1.00  0.00     0.123 A 
ATOM     33  F   UNL A   1      34.812  20.636  24.524  1.00  0.00    -0.207 F 
ENDBRANCH  13  27
ENDBRANCH   4   6
ENDBRANCH   3   4
ENDBRANCH   2   3
ENDBRANCH   1   2
BRANCH   1  34
ATOM     34  O   UNL A   1      46.078  21.502  25.183  1.00  0.00    -0.374 OA
BRANCH  34  35
ATOM     35  C   UNL A   1      45.969  22.733  24.469  1.00  0.00     0.202 C 
BRANCH  35  36
ATOM     36  C   UNL A   1      46.241  24.016  25.268  1.00  0.00     0.261 C 
BRANCH  36  37
ATOM     37  O   UNL A   1      45.670  25.185  24.654  1.00  0.00    -0.460 OA
BRANCH  37  38
ATOM     38  C   UNL A   1      46.469  26.279  24.671  1.00  0.00     0.338 C 
ATOM     39  O   UNL A   1      47.416  26.518  23.942  1.00  0.00    -0.246 OA
BRANCH  38  40
ATOM     40  C   UNL A   1      45.939  27.285  25.611  1.00  0.00     0.060 A 
ATOM     41  C   UNL A   1      46.864  27.941  26.433  1.00  0.00     0.016 A 
ATOM     42  C   UNL A   1      44.570  27.509  25.766  1.00  0.00     0.016 A 
ATOM     43  C   UNL A   1      46.422  28.786  27.447  1.00  0.00     0.010 A 
ATOM     44  C   UNL A   1      44.126  28.353  26.793  1.00  0.00     0.010 A 
ATOM     45  C   UNL A   1      45.048  28.966  27.661  1.00  0.00    -0.014 A 
BRANCH  45  46
ATOM     46  C   UNL A   1      44.592  29.674  28.883  1.00  0.00     0.031 A 
ATOM     47  C   UNL A   1      44.393  31.165  28.833  1.00  0.00     0.074 A 
ATOM     48  C   UNL A   1      44.305  28.995  30.007  1.00  0.00     0.049 A 
ATOM     49  N   UNL A   1      44.006  31.984  29.779  1.00  0.00    -0.248 NA
ATOM     50  C   UNL A   1      44.662  31.818  27.543  1.00  0.00     0.031 C 
ATOM     51  C   UNL A   1      44.411  27.548  30.168  1.00  0.00     0.029 A 
ATOM     52  N   UNL A   1      43.864  29.440  31.229  1.00  0.00    -0.354 N 
ATOM     53  C   UNL A   1      43.988  33.246  29.200  1.00  0.00     0.074 A 
ATOM     54  C   UNL A   1      44.432  33.091  27.831  1.00  0.00     0.031 C 
ATOM     55  C   UNL A   1      44.052  27.221  31.421  1.00  0.00     0.029 A 
ATOM     56  C   UNL A   1      43.720  28.439  32.158  1.00  0.00     0.049 A 
ATOM     57  H   UNL A   1      43.671  30.386  31.421  1.00  0.00     0.167 HD
ATOM     58  C   UNL A   1      43.624  34.427  29.755  1.00  0.00     0.037 A 
ATOM     59  C   UNL A   1      43.378  28.504  33.459  1.00  0.00     0.037 A 
ATOM     60  C   UNL A   1      43.182  34.583  31.115  1.00  0.00     0.049 A 
ATOM     61  C   UNL A   1      43.049  29.839  34.076  1.00  0.00     0.074 A 
ATOM     62  C   UNL A   1      42.781  35.737  31.767  1.00  0.00     0.029 A 
ATOM     63  N   UNL A   1      43.088  33.552  32.038  1.00  0.00    -0.354 N 
ATOM     64  N   UNL A   1      43.018  31.025  33.516  1.00  0.00    -0.248 NA
ATOM     65  C   UNL A   1      42.705  29.844  35.505  1.00  0.00     0.031 C 
ATOM     66  C   UNL A   1      42.492  35.413  33.097  1.00  0.00     0.029 A 
ATOM     67  C   UNL A   1      42.661  34.047  33.261  1.00  0.00     0.049 A 
ATOM     68  H   UNL A   1      43.296  32.607  31.853  1.00  0.00     0.167 HD
ATOM     69  C   UNL A   1      42.626  31.909  34.514  1.00  0.00     0.074 A 
ATOM     70  C   UNL A   1      42.418  31.121  35.712  1.00  0.00     0.031 C 
ATOM     71  C   UNL A   1      42.452  33.251  34.443  1.00  0.00     0.037 A 
BRANCH  58  72
ATOM     72  C   UNL A   1      43.710  35.653  28.893  1.00  0.00     0.064 A 
ATOM     73  C   UNL A   1      44.903  36.381  28.766  1.00  0.00     0.173 A 
ATOM     74  C   UNL A   1      42.596  36.084  28.158  1.00  0.00     0.173 A 
ATOM     75  F   UNL A   1      45.993  36.018  29.458  1.00  0.00    -0.203 F 
ATOM     76  C   UNL A   1      44.969  37.511  27.954  1.00  0.00     0.198 A 
ATOM     77  C   UNL A   1      42.674  37.197  27.326  1.00  0.00     0.198 A 
ATOM     78  F   UNL A   1      41.434  35.420  28.241  1.00  0.00    -0.203 F 
ATOM     79  F   UNL A   1      46.105  38.218  27.882  1.00  0.00    -0.200 F 
ATOM     80  C   UNL A   1      43.857  37.913  27.229  1.00  0.00     0.200 A 
ATOM     81  F   UNL A   1      41.601  37.577  26.617  1.00  0.00    -0.200 F 
ATOM     82  F   UNL A   1      43.924  38.996  26.442  1.00  0.00    -0.200 F 
ENDBRANCH  58  72
BRANCH  59  83
ATOM     83  C   UNL A   1      43.337  27.262  34.276  1.00  0.00     0.064 A 
ATOM     84  C   UNL A   1      42.120  26.648  34.600  1.00  0.00     0.173 A 
ATOM     85  C   UNL A   1      44.515  26.675  34.761  1.00  0.00     0.173 A 
ATOM     86  F   UNL A   1      40.966  27.186  34.183  1.00  0.00    -0.203 F 
ATOM     87  C   UNL A   1      42.083  25.500  35.390  1.00  0.00     0.198 A 
ATOM     88  C   UNL A   1      44.478  25.513  35.527  1.00  0.00     0.198 A 
ATOM     89  F   UNL A   1      45.705  27.227  34.481  1.00  0.00    -0.203 F 
ATOM     90  F   UNL A   1      40.903  24.956  35.722  1.00  0.00    -0.200 F 
ATOM     91  C   UNL A   1      43.262  24.930  35.847  1.00  0.00     0.200 A 
ATOM     92  F   UNL A   1      45.620  24.959  35.956  1.00  0.00    -0.200 F 
ATOM     93  F   UNL A   1      43.224  23.824  36.603  1.00  0.00    -0.200 F 
ENDBRANCH  59  83
BRANCH  71  94
ATOM     94  C   UNL A   1      41.982  33.955  35.684  1.00  0.00     0.064 A 
ATOM     95  C   UNL A   1      40.619  34.073  35.995  1.00  0.00     0.173 A 
ATOM     96  C   UNL A   1      42.911  34.481  36.596  1.00  0.00     0.173 A 
ATOM     97  F   UNL A   1      39.691  33.600  35.150  1.00  0.00    -0.203 F 
ATOM     98  C   UNL A   1      40.205  34.712  37.161  1.00  0.00     0.198 A 
ATOM     99  C   UNL A   1      42.493  35.093  37.774  1.00  0.00     0.198 A 
ATOM    100  F   UNL A   1      44.226  34.389  36.349  1.00  0.00    -0.203 F 
ATOM    101  F   UNL A   1      38.896  34.854  37.415  1.00  0.00    -0.200 F 
ATOM    102  C   UNL A   1      41.140  35.215  38.052  1.00  0.00     0.200 A 
ATOM    103  F   UNL A   1      43.400  35.565  38.641  1.00  0.00    -0.200 F 
ATOM    104  F   UNL A   1      40.739  35.823  39.177  1.00  0.00    -0.200 F 
ENDBRANCH  71  94
ENDBRANCH  45  46
ENDBRANCH  38  40
ENDBRANCH  37  38
ENDBRANCH  36  37
ENDBRANCH  35  36
ENDBRANCH  34  35
ENDBRANCH   1  34
TORSDOF 20
ENDMDL
MODEL 3
REMARK VINA RESULT:      -9.8      0.761      6.996
REMARK SMILES COc1ccc(CCN2C(=O)C[C@@H](C(=O)OCCOCCOC(=O)c3ccc(-c4c5nc(c(-c6c(F)c(F)c(F)c(F)c6F)c6ccc([nH]6)c(-c6c(F)c(F)c(F)c(F)c6F)c6nc(c(-c7c(F)c(F)c(F)c(F)c7F)c7ccc4[nH]7)C=C6)C=C5)cc3)S/C2=[NH+]\c2ccc(F)cc2)cc1OC
REMARK SMILES IDX 18 1 17 2 16 3 14 4 15 5 13 6 9 7 10 8 89 9 11 10 12 11
REMARK SMILES IDX 88 12 90 13 8 15 7 16 6 17 3 18 4 19 99 20 5 21 98 22 2 23
REMARK SMILES IDX 1 24 100 25 101 26 91 27 92 28 97 29 93 30 96 31 94 32 95 33
REMARK SMILES IDX 19 34 20 35 21 36 22 37 23 38 24 39 25 40 26 41 87 42 27 43
REMARK SMILES IDX 86 44 28 45 29 46 30 47 80 48 31 49 85 50 79 51 81 52 32 53
REMARK SMILES IDX 84 54 78 55 77 56 33 58 65 59 45 60 64 61 46 62 49 63 63 64
REMARK SMILES IDX 82 65 47 66 48 67 62 69 83 70 50 71 34 72 35 73 43 74 36 75
REMARK SMILES IDX 37 76 41 77 44 78 38 79 39 80 42 81 40 82 66 83 67 84 75 85
REMARK SMILES IDX 68 86 69 87 73 88 76 89 70 90 71 91 74 92 72 93 51 94 52 95
REMARK SMILES IDX 60 96 53 97 54 98 58 99 61 100 55 101 56 102 59 103 57 104
REMARK H PARENT 90 14 81 57 49 68
REMARK Flexibility Score: inf
ROOT
ATOM      1  C   UNL A   1      45.729  19.969  24.853  1.00  0.00     0.202 C 
ENDROOT
BRANCH   1   2
ATOM      2  C   UNL A   1      44.444  19.245  25.272  1.00  0.00     0.261 C 
BRANCH   2   3
ATOM      3  O   UNL A   1      43.300  20.081  25.015  1.00  0.00    -0.462 OA
BRANCH   3   4
ATOM      4  C   UNL A   1      42.483  20.364  26.064  1.00  0.00     0.320 C 
ATOM      5  O   UNL A   1      42.316  19.629  27.030  1.00  0.00    -0.251 OA
BRANCH   4   6
ATOM      6  C   UNL A   1      41.750  21.691  25.917  1.00  0.00     0.180 C 
ATOM      7  N   UNL A   1      40.736  24.358  26.601  1.00  0.00    -0.191 N 
ATOM      8  C   UNL A   1      42.089  24.196  26.320  1.00  0.00     0.311 C 
ATOM      9  C   UNL A   1      39.760  23.373  26.485  1.00  0.00     0.319 C 
ATOM     10  O   UNL A   1      42.837  25.162  26.134  1.00  0.00    -0.247 OA
ATOM     11  C   UNL A   1      42.686  22.809  26.288  1.00  0.00     0.155 C 
ATOM     12  S   UNL A   1      40.263  21.782  26.931  1.00  0.00    -0.022 SA
ATOM     13  N   UNL A   1      38.569  23.688  26.107  1.00  0.00    -0.235 N 
ATOM     14  H   UNL A   1      38.365  24.643  25.982  1.00  0.00     0.313 HD
BRANCH   7  15
ATOM     15  C   UNL A   1      40.324  25.695  27.051  1.00  0.00     0.251 C 
BRANCH  15  16
ATOM     16  C   UNL A   1      40.630  26.063  28.512  1.00  0.00     0.082 C 
BRANCH  16  17
ATOM     17  C   UNL A   1      40.147  27.448  28.866  1.00  0.00    -0.040 A 
ATOM     18  C   UNL A   1      39.008  29.857  29.768  1.00  0.00     0.160 A 
ATOM     19  C   UNL A   1      38.531  29.231  28.609  1.00  0.00     0.051 A 
ATOM     20  C   UNL A   1      40.104  29.308  30.448  1.00  0.00     0.160 A 
ATOM     21  C   UNL A   1      39.111  28.046  28.148  1.00  0.00     0.008 A 
ATOM     22  C   UNL A   1      40.657  28.104  29.998  1.00  0.00     0.054 A 
BRANCH  18  23
ATOM     23  O   UNL A   1      38.356  30.925  30.323  1.00  0.00    -0.493 OA
ATOM     24  C   UNL A   1      38.307  32.091  29.512  1.00  0.00     0.278 C 
ENDBRANCH  18  23
BRANCH  20  25
ATOM     25  O   UNL A   1      40.702  29.802  31.580  1.00  0.00    -0.493 OA
ATOM     26  C   UNL A   1      39.929  29.738  32.774  1.00  0.00     0.278 C 
ENDBRANCH  20  25
ENDBRANCH  16  17
ENDBRANCH  15  16
ENDBRANCH   7  15
BRANCH  13  27
ATOM     27  C   UNL A   1      37.544  22.766  25.863  1.00  0.00     0.125 A 
ATOM     28  C   UNL A   1      37.801  21.660  25.039  1.00  0.00     0.055 A 
ATOM     29  C   UNL A   1      36.233  23.009  26.278  1.00  0.00     0.055 A 
ATOM     30  C   UNL A   1      36.766  20.815  24.629  1.00  0.00     0.043 A 
ATOM     31  C   UNL A   1      35.195  22.159  25.882  1.00  0.00     0.043 A 
ATOM     32  C   UNL A   1      35.470  21.076  25.053  1.00  0.00     0.123 A 
ATOM     33  F   UNL A   1      34.470  20.285  24.644  1.00  0.00    -0.207 F 
ENDBRANCH  13  27
ENDBRANCH   4   6
ENDBRANCH   3   4
ENDBRANCH   2   3
ENDBRANCH   1   2
BRANCH   1  34
ATOM     34  O   UNL A   1      45.981  21.216  25.501  1.00  0.00    -0.374 OA
BRANCH  34  35
ATOM     35  C   UNL A   1      46.026  22.383  24.680  1.00  0.00     0.202 C 
BRANCH  35  36
ATOM     36  C   UNL A   1      46.362  23.705  25.383  1.00  0.00     0.261 C 
BRANCH  36  37
ATOM     37  O   UNL A   1      45.831  24.852  24.695  1.00  0.00    -0.460 OA
BRANCH  37  38
ATOM     38  C   UNL A   1      46.674  25.911  24.626  1.00  0.00     0.338 C 
ATOM     39  O   UNL A   1      47.638  26.045  23.893  1.00  0.00    -0.246 OA
BRANCH  38  40
ATOM     40  C   UNL A   1      46.175  27.016  25.466  1.00  0.00     0.060 A 
ATOM     41  C   UNL A   1      47.103  27.652  26.301  1.00  0.00     0.016 A 
ATOM     42  C   UNL A   1      44.823  27.356  25.521  1.00  0.00     0.016 A 
ATOM     43  C   UNL A   1      46.675  28.595  27.231  1.00  0.00     0.010 A 
ATOM     44  C   UNL A   1      44.393  28.300  26.463  1.00  0.00     0.010 A 
ATOM     45  C   UNL A   1      45.311  28.896  27.347  1.00  0.00    -0.014 A 
BRANCH  45  46
ATOM     46  C   UNL A   1      44.845  29.719  28.491  1.00  0.00     0.031 A 
ATOM     47  C   UNL A   1      44.587  29.053  29.815  1.00  0.00     0.074 A 
ATOM     48  C   UNL A   1      44.704  31.051  28.370  1.00  0.00     0.049 A 
ATOM     49  N   UNL A   1      44.172  29.576  30.942  1.00  0.00    -0.248 NA
ATOM     50  C   UNL A   1      44.834  27.605  29.878  1.00  0.00     0.031 C 
ATOM     51  C   UNL A   1      44.967  31.819  27.156  1.00  0.00     0.029 A 
ATOM     52  N   UNL A   1      44.303  31.992  29.286  1.00  0.00    -0.354 N 
ATOM     53  C   UNL A   1      44.107  28.522  31.844  1.00  0.00     0.074 A 
ATOM     54  C   UNL A   1      44.494  27.326  31.127  1.00  0.00     0.031 C 
ATOM     55  C   UNL A   1      44.713  33.116  27.399  1.00  0.00     0.029 A 
ATOM     56  C   UNL A   1      44.242  33.265  28.775  1.00  0.00     0.049 A 
ATOM     57  H   UNL A   1      44.080  31.774  30.220  1.00  0.00     0.167 HD
ATOM     58  C   UNL A   1      43.767  28.550  33.155  1.00  0.00     0.037 A 
ATOM     59  C   UNL A   1      43.835  34.413  29.349  1.00  0.00     0.037 A 
ATOM     60  C   UNL A   1      43.382  29.739  33.870  1.00  0.00     0.049 A 
ATOM     61  C   UNL A   1      43.388  34.407  30.788  1.00  0.00     0.074 A 
ATOM     62  C   UNL A   1      43.030  29.870  35.202  1.00  0.00     0.029 A 
ATOM     63  N   UNL A   1      43.293  31.004  33.307  1.00  0.00    -0.354 N 
ATOM     64  N   UNL A   1      43.347  33.410  31.638  1.00  0.00    -0.248 NA
ATOM     65  C   UNL A   1      42.935  35.688  31.348  1.00  0.00     0.031 C 
ATOM     66  C   UNL A   1      42.680  31.205  35.433  1.00  0.00     0.029 A 
ATOM     67  C   UNL A   1      42.867  31.917  34.259  1.00  0.00     0.049 A 
ATOM     68  H   UNL A   1      43.501  31.221  32.369  1.00  0.00     0.167 HD
ATOM     69  C   UNL A   1      42.890  33.946  32.836  1.00  0.00     0.074 A 
ATOM     70  C   UNL A   1      42.681  35.361  32.607  1.00  0.00     0.031 C 
ATOM     71  C   UNL A   1      42.668  33.323  34.020  1.00  0.00     0.037 A 
BRANCH  58  72
ATOM     72  C   UNL A   1      43.772  27.247  33.900  1.00  0.00     0.064 A 
ATOM     73  C   UNL A   1      42.584  26.557  34.185  1.00  0.00     0.173 A 
ATOM     74  C   UNL A   1      44.983  26.665  34.302  1.00  0.00     0.173 A 
ATOM     75  F   UNL A   1      41.400  27.078  33.833  1.00  0.00    -0.203 F 
ATOM     76  C   UNL A   1      42.608  25.343  34.868  1.00  0.00     0.198 A 
ATOM     77  C   UNL A   1      45.005  25.438  34.960  1.00  0.00     0.198 A 
ATOM     78  F   UNL A   1      46.147  27.281  34.049  1.00  0.00    -0.203 F 
ATOM     79  F   UNL A   1      41.459  24.722  35.170  1.00  0.00    -0.200 F 
ATOM     80  C   UNL A   1      43.818  24.782  35.248  1.00  0.00     0.200 A 
ATOM     81  F   UNL A   1      46.177  24.891  35.315  1.00  0.00    -0.200 F 
ATOM     82  F   UNL A   1      43.840  23.610  35.898  1.00  0.00    -0.200 F 
ENDBRANCH  58  72
BRANCH  59  83
ATOM     83  C   UNL A   1      43.820  35.671  28.557  1.00  0.00     0.064 A 
ATOM     84  C   UNL A   1      42.652  36.114  27.922  1.00  0.00     0.173 A 
ATOM     85  C   UNL A   1      44.979  36.447  28.407  1.00  0.00     0.173 A 
ATOM     86  F   UNL A   1      41.526  35.392  28.013  1.00  0.00    -0.203 F 
ATOM     87  C   UNL A   1      42.646  37.278  27.156  1.00  0.00     0.198 A 
ATOM     88  C   UNL A   1      44.965  37.625  27.664  1.00  0.00     0.198 A 
ATOM     89  F   UNL A   1      46.123  36.066  28.993  1.00  0.00    -0.203 F 
ATOM     90  F   UNL A   1      41.527  37.656  26.524  1.00  0.00    -0.200 F 
ATOM     91  C   UNL A   1      43.801  38.036  27.034  1.00  0.00     0.200 A 
ATOM     92  F   UNL A   1      46.080  38.360  27.558  1.00  0.00    -0.200 F 
ATOM     93  F   UNL A   1      43.794  39.158  26.300  1.00  0.00    -0.200 F 
ENDBRANCH  59  83
BRANCH  71  94
ATOM     94  C   UNL A   1      42.204  34.169  35.171  1.00  0.00     0.064 A 
ATOM     95  C   UNL A   1      43.108  34.867  35.985  1.00  0.00     0.173 A 
ATOM     96  C   UNL A   1      40.833  34.316  35.435  1.00  0.00     0.173 A 
ATOM     97  F   UNL A   1      44.428  34.749  35.783  1.00  0.00    -0.203 F 
ATOM     98  C   UNL A   1      42.656  35.662  37.036  1.00  0.00     0.198 A 
ATOM     99  C   UNL A   1      40.385  35.135  36.468  1.00  0.00     0.198 A 
ATOM    100  F   UNL A   1      39.927  33.675  34.682  1.00  0.00    -0.203 F 
ATOM    101  F   UNL A   1      43.540  36.284  37.830  1.00  0.00    -0.200 F 
ATOM    102  C   UNL A   1      41.297  35.801  37.272  1.00  0.00     0.200 A 
ATOM    103  F   UNL A   1      39.070  35.278  36.685  1.00  0.00    -0.200 F 
ATOM    104  F   UNL A   1      40.865  36.573  38.279  1.00  0.00    -0.200 F 
ENDBRANCH  71  94
ENDBRANCH  45  46
ENDBRANCH  38  40
ENDBRANCH  37  38
ENDBRANCH  36  37
ENDBRANCH  35  36
ENDBRANCH  34  35
ENDBRANCH   1  34
TORSDOF 20
ENDMDL
