MODEL 1
REMARK VINA RESULT:     -13.8      0.000      0.000
REMARK SMILES Cc1ccc(NC(=O)[C@H]2CC=CC[C@H]2C(=O)OCCOCCOC(=O)c2ccc(-c3c4nc(c(-c5c(F)c(F)c(F)c(F)c5F)c5ccc([nH]5)c(-c5c(F)c(F)c(F)c(F)c5F)c5nc(c(-c6c(F)c(F)c(F)c(F)c6F)c6ccc3[nH]6)C=C5)C=C4)cc2)cc1F
REMARK SMILES IDX 20 1 19 2 18 3 17 4 15 5 16 6 14 7 9 8 10 9 11 10 13 11
REMARK SMILES IDX 12 12 7 13 6 14 8 16 5 17 1 18 2 19 3 20 90 21 4 22 89 23
REMARK SMILES IDX 91 24 21 25 22 26 23 27 24 28 25 29 26 30 27 31 88 32 28 33
REMARK SMILES IDX 87 34 29 35 30 36 31 37 81 38 32 39 86 40 80 41 82 42 33 43
REMARK SMILES IDX 85 44 79 45 78 46 34 48 66 49 46 50 65 51 47 52 50 53 64 54
REMARK SMILES IDX 83 55 48 56 49 57 63 59 84 60 51 61 35 62 36 63 44 64 37 65
REMARK SMILES IDX 38 66 42 67 45 68 39 69 40 70 43 71 41 72 67 73 68 74 76 75
REMARK SMILES IDX 69 76 70 77 74 78 77 79 71 80 72 81 75 82 73 83 52 84 53 85
REMARK SMILES IDX 61 86 54 87 55 88 59 89 62 90 56 91 57 92 60 93 58 94
REMARK H PARENT 6 15 82 47 50 58
REMARK Flexibility Score: inf
ROOT
ATOM      1  O   UNL A   1      38.404  22.315  26.178  1.00  0.00    -0.374 OA
ENDROOT
BRANCH   1   2
ATOM      2  C   UNL A   1      37.061  22.204  25.614  1.00  0.00     0.202 C 
BRANCH   2   3
ATOM      3  C   UNL A   1      35.868  23.010  26.120  1.00  0.00     0.261 C 
BRANCH   3   4
ATOM      4  O   UNL A   1      35.691  24.279  25.473  1.00  0.00    -0.463 OA
BRANCH   4   5
ATOM      5  C   UNL A   1      34.409  24.683  25.304  1.00  0.00     0.310 C 
ATOM      6  O   UNL A   1      33.584  24.720  26.208  1.00  0.00    -0.252 OA
BRANCH   5   7
ATOM      7  C   UNL A   1      34.045  24.990  23.850  1.00  0.00     0.116 C 
ATOM      8  C   UNL A   1      32.935  24.220  23.106  1.00  0.00     0.097 C 
ATOM      9  C   UNL A   1      32.666  24.746  21.685  1.00  0.00     0.041 C 
ATOM     10  C   UNL A   1      32.994  26.184  21.462  1.00  0.00    -0.030 C 
ATOM     11  C   UNL A   1      33.764  26.491  23.807  1.00  0.00     0.043 C 
ATOM     12  C   UNL A   1      33.477  26.978  22.425  1.00  0.00    -0.030 C 
BRANCH   8  13
ATOM     13  C   UNL A   1      31.769  23.931  24.006  1.00  0.00     0.228 C 
ATOM     14  N   UNL A   1      31.705  22.682  24.583  1.00  0.00    -0.326 N 
ATOM     15  H   UNL A   1      31.159  22.648  25.401  1.00  0.00     0.169 HD
ATOM     16  O   UNL A   1      30.931  24.783  24.294  1.00  0.00    -0.274 OA
BRANCH  14  17
ATOM     17  C   UNL A   1      32.280  21.430  24.223  1.00  0.00     0.044 A 
ATOM     18  C   UNL A   1      33.952  16.751  23.098  1.00  0.00     0.047 C 
ATOM     19  C   UNL A   1      33.374  18.058  23.541  1.00  0.00    -0.015 A 
ATOM     20  C   UNL A   1      33.787  18.768  25.109  1.00  0.00     0.008 A 
ATOM     21  C   UNL A   1      32.511  18.985  22.340  1.00  0.00     0.128 A 
ATOM     22  C   UNL A   1      33.219  20.433  25.491  1.00  0.00     0.026 A 
ATOM     23  C   UNL A   1      31.922  20.617  22.650  1.00  0.00     0.065 A 
ATOM     24  F   UNL A   1      32.295  18.456  21.128  1.00  0.00    -0.207 F 
ENDBRANCH  14  17
ENDBRANCH   8  13
ENDBRANCH   5   7
ENDBRANCH   4   5
ENDBRANCH   3   4
ENDBRANCH   2   3
ENDBRANCH   1   2
BRANCH   1  25
ATOM     25  C   UNL A   1      39.342  23.683  26.406  1.00  0.00     0.202 C 
BRANCH  25  26
ATOM     26  C   UNL A   1      39.309  25.188  27.994  1.00  0.00     0.261 C 
BRANCH  26  27
ATOM     27  O   UNL A   1      39.194  26.894  27.735  1.00  0.00    -0.460 OA
BRANCH  27  28
ATOM     28  C   UNL A   1      39.125  27.849  28.726  1.00  0.00     0.338 C 
ATOM     29  O   UNL A   1      39.074  27.653  29.936  1.00  0.00    -0.246 OA
BRANCH  28  30
ATOM     30  C   UNL A   1      39.376  29.273  28.301  1.00  0.00     0.060 A 
ATOM     31  C   UNL A   1      39.790  29.232  26.958  1.00  0.00     0.016 A 
ATOM     32  C   UNL A   1      40.160  29.908  29.241  1.00  0.00     0.016 A 
ATOM     33  C   UNL A   1      41.103  28.885  26.790  1.00  0.00     0.010 A 
ATOM     34  C   UNL A   1      41.478  29.629  29.112  1.00  0.00     0.010 A 
ATOM     35  C   UNL A   1      41.895  28.983  27.930  1.00  0.00    -0.014 A 
BRANCH  35  36
ATOM     36  C   UNL A   1      43.299  28.749  27.877  1.00  0.00     0.031 A 
ATOM     37  C   UNL A   1      43.978  29.960  27.376  1.00  0.00     0.074 A 
ATOM     38  C   UNL A   1      43.682  27.635  28.537  1.00  0.00     0.049 A 
ATOM     39  N   UNL A   1      45.072  29.982  26.707  1.00  0.00    -0.248 NA
ATOM     40  C   UNL A   1      43.316  31.292  27.367  1.00  0.00     0.031 C 
ATOM     41  C   UNL A   1      44.899  27.374  29.278  1.00  0.00     0.029 A 
ATOM     42  N   UNL A   1      42.971  26.413  28.613  1.00  0.00    -0.354 N 
ATOM     43  C   UNL A   1      45.470  31.305  26.755  1.00  0.00     0.074 A 
ATOM     44  C   UNL A   1      44.261  32.063  26.833  1.00  0.00     0.031 C 
ATOM     45  C   UNL A   1      44.999  26.049  29.504  1.00  0.00     0.029 A 
ATOM     46  C   UNL A   1      43.911  25.377  28.799  1.00  0.00     0.049 A 
ATOM     47  H   UNL A   1      41.994  26.305  28.549  1.00  0.00     0.167 HD
ATOM     48  C   UNL A   1      46.748  31.566  27.153  1.00  0.00     0.037 A 
ATOM     49  C   UNL A   1      44.146  24.449  27.814  1.00  0.00     0.037 A 
ATOM     50  C   UNL A   1      47.420  30.284  27.407  1.00  0.00     0.049 A 
ATOM     51  C   UNL A   1      45.377  24.773  27.036  1.00  0.00     0.074 A 
ATOM     52  C   UNL A   1      47.656  29.582  28.578  1.00  0.00     0.029 A 
ATOM     53  N   UNL A   1      47.506  29.356  26.375  1.00  0.00    -0.354 N 
ATOM     54  N   UNL A   1      45.910  25.957  26.954  1.00  0.00    -0.248 NA
ATOM     55  C   UNL A   1      46.105  23.742  26.318  1.00  0.00     0.031 C 
ATOM     56  C   UNL A   1      47.856  28.215  28.233  1.00  0.00     0.029 A 
ATOM     57  C   UNL A   1      47.725  28.081  26.859  1.00  0.00     0.049 A 
ATOM     58  H   UNL A   1      47.421  29.578  25.419  1.00  0.00     0.167 HD
ATOM     59  C   UNL A   1      47.055  25.867  26.220  1.00  0.00     0.074 A 
ATOM     60  C   UNL A   1      47.151  24.457  25.882  1.00  0.00     0.031 C 
ATOM     61  C   UNL A   1      47.839  26.949  25.943  1.00  0.00     0.037 A 
BRANCH  48  62
ATOM     62  C   UNL A   1      47.275  32.897  27.652  1.00  0.00     0.064 A 
ATOM     63  C   UNL A   1      46.836  33.391  28.901  1.00  0.00     0.173 A 
ATOM     64  C   UNL A   1      48.198  33.736  26.991  1.00  0.00     0.173 A 
ATOM     65  F   UNL A   1      46.010  32.682  29.681  1.00  0.00    -0.203 F 
ATOM     66  C   UNL A   1      47.239  34.627  29.413  1.00  0.00     0.198 A 
ATOM     67  C   UNL A   1      48.587  34.984  27.494  1.00  0.00     0.198 A 
ATOM     68  F   UNL A   1      48.808  33.374  25.860  1.00  0.00    -0.203 F 
ATOM     69  F   UNL A   1      46.780  35.031  30.605  1.00  0.00    -0.200 F 
ATOM     70  C   UNL A   1      48.106  35.431  28.705  1.00  0.00     0.200 A 
ATOM     71  F   UNL A   1      49.446  35.743  26.798  1.00  0.00    -0.200 F 
ATOM     72  F   UNL A   1      48.496  36.613  29.198  1.00  0.00    -0.200 F 
ENDBRANCH  48  62
BRANCH  49  73
ATOM     73  C   UNL A   1      42.960  23.809  27.160  1.00  0.00     0.064 A 
ATOM     74  C   UNL A   1      42.983  23.907  25.760  1.00  0.00     0.173 A 
ATOM     75  C   UNL A   1      42.520  22.619  27.747  1.00  0.00     0.173 A 
ATOM     76  F   UNL A   1      43.256  25.072  25.159  1.00  0.00    -0.203 F 
ATOM     77  C   UNL A   1      43.115  22.757  25.029  1.00  0.00     0.198 A 
ATOM     78  C   UNL A   1      42.688  21.457  27.032  1.00  0.00     0.198 A 
ATOM     79  F   UNL A   1      42.259  22.554  29.060  1.00  0.00    -0.203 F 
ATOM     80  F   UNL A   1      43.559  22.789  23.764  1.00  0.00    -0.200 F 
ATOM     81  C   UNL A   1      43.151  21.574  25.723  1.00  0.00     0.200 A 
ATOM     82  F   UNL A   1      42.616  20.288  27.680  1.00  0.00    -0.200 F 
ATOM     83  F   UNL A   1      44.028  20.725  25.217  1.00  0.00    -0.200 F 
ENDBRANCH  49  73
BRANCH  61  84
ATOM     84  C   UNL A   1      48.872  26.974  24.843  1.00  0.00     0.064 A 
ATOM     85  C   UNL A   1      50.192  26.517  24.999  1.00  0.00     0.173 A 
ATOM     86  C   UNL A   1      48.534  27.380  23.532  1.00  0.00     0.173 A 
ATOM     87  F   UNL A   1      50.600  25.878  26.102  1.00  0.00    -0.203 F 
ATOM     88  C   UNL A   1      51.141  26.637  23.987  1.00  0.00     0.198 A 
ATOM     89  C   UNL A   1      49.453  27.378  22.489  1.00  0.00     0.198 A 
ATOM     90  F   UNL A   1      47.297  27.768  23.194  1.00  0.00    -0.203 F 
ATOM     91  F   UNL A   1      52.416  26.314  24.241  1.00  0.00    -0.200 F 
ATOM     92  C   UNL A   1      50.770  27.060  22.729  1.00  0.00     0.200 A 
ATOM     93  F   UNL A   1      49.046  27.684  21.250  1.00  0.00    -0.200 F 
ATOM     94  F   UNL A   1      51.672  27.130  21.744  1.00  0.00    -0.200 F 
ENDBRANCH  61  84
ENDBRANCH  35  36
ENDBRANCH  28  30
ENDBRANCH  27  28
ENDBRANCH  26  27
ENDBRANCH  25  26
ENDBRANCH   1  25
TORSDOF 16
ENDMDL
MODEL 2
REMARK VINA RESULT:     -13.8      5.340      9.867
REMARK SMILES Cc1ccc(NC(=O)[C@H]2CC=CC[C@H]2C(=O)OCCOCCOC(=O)c2ccc(-c3c4nc(c(-c5c(F)c(F)c(F)c(F)c5F)c5ccc([nH]5)c(-c5c(F)c(F)c(F)c(F)c5F)c5nc(c(-c6c(F)c(F)c(F)c(F)c6F)c6ccc3[nH]6)C=C5)C=C4)cc2)cc1F
REMARK SMILES IDX 20 1 19 2 18 3 17 4 15 5 16 6 14 7 9 8 10 9 11 10 13 11
REMARK SMILES IDX 12 12 7 13 6 14 8 16 5 17 1 18 2 19 3 20 90 21 4 22 89 23
REMARK SMILES IDX 91 24 21 25 22 26 23 27 24 28 25 29 26 30 27 31 88 32 28 33
REMARK SMILES IDX 87 34 29 35 30 36 31 37 81 38 32 39 86 40 80 41 82 42 33 43
REMARK SMILES IDX 85 44 79 45 78 46 34 48 66 49 46 50 65 51 47 52 50 53 64 54
REMARK SMILES IDX 83 55 48 56 49 57 63 59 84 60 51 61 35 62 36 63 44 64 37 65
REMARK SMILES IDX 38 66 42 67 45 68 39 69 40 70 43 71 41 72 67 73 68 74 76 75
REMARK SMILES IDX 69 76 70 77 74 78 77 79 71 80 72 81 75 82 73 83 52 84 53 85
REMARK SMILES IDX 61 86 54 87 55 88 59 89 62 90 56 91 57 92 60 93 58 94
REMARK H PARENT 6 15 82 47 50 58
REMARK Flexibility Score: inf
ROOT
ATOM      1  O   UNL A   1      31.750  32.996  27.249  1.00  0.00    -0.374 OA
ENDROOT
BRANCH   1   2
ATOM      2  C   UNL A   1      31.915  31.715  26.567  1.00  0.00     0.202 C 
BRANCH   2   3
ATOM      3  C   UNL A   1      32.550  30.490  27.220  1.00  0.00     0.261 C 
BRANCH   3   4
ATOM      4  O   UNL A   1      32.001  29.236  26.790  1.00  0.00    -0.463 OA
BRANCH   4   5
ATOM      5  C   UNL A   1      32.820  28.458  26.043  1.00  0.00     0.310 C 
ATOM      6  O   UNL A   1      33.989  28.231  26.330  1.00  0.00    -0.252 OA
BRANCH   5   7
ATOM      7  C   UNL A   1      32.187  27.966  24.740  1.00  0.00     0.116 C 
ATOM      8  C   UNL A   1      31.864  26.477  24.499  1.00  0.00     0.097 C 
ATOM      9  C   UNL A   1      31.148  26.210  23.163  1.00  0.00     0.041 C 
ATOM     10  C   UNL A   1      30.345  27.348  22.628  1.00  0.00    -0.030 C 
ATOM     11  C   UNL A   1      30.931  28.815  24.549  1.00  0.00     0.043 C 
ATOM     12  C   UNL A   1      30.234  28.522  23.261  1.00  0.00    -0.030 C 
BRANCH   8  13
ATOM     13  C   UNL A   1      31.345  25.820  25.744  1.00  0.00     0.228 C 
ATOM     14  N   UNL A   1      32.152  24.881  26.351  1.00  0.00    -0.326 N 
ATOM     15  H   UNL A   1      31.953  24.742  27.305  1.00  0.00     0.169 HD
ATOM     16  O   UNL A   1      30.281  26.143  26.267  1.00  0.00    -0.274 OA
BRANCH  14  17
ATOM     17  C   UNL A   1      33.218  24.076  25.861  1.00  0.00     0.044 A 
ATOM     18  C   UNL A   1      37.154  21.119  24.551  1.00  0.00     0.047 C 
ATOM     19  C   UNL A   1      36.078  22.020  25.068  1.00  0.00    -0.015 A 
ATOM     20  C   UNL A   1      36.318  23.769  25.196  1.00  0.00     0.008 A 
ATOM     21  C   UNL A   1      34.491  21.319  25.265  1.00  0.00     0.128 A 
ATOM     22  C   UNL A   1      34.918  24.813  25.631  1.00  0.00     0.026 A 
ATOM     23  C   UNL A   1      33.080  22.282  25.695  1.00  0.00     0.065 A 
ATOM     24  F   UNL A   1      34.322  20.004  25.069  1.00  0.00    -0.207 F 
ENDBRANCH  14  17
ENDBRANCH   8  13
ENDBRANCH   5   7
ENDBRANCH   4   5
ENDBRANCH   3   4
ENDBRANCH   2   3
ENDBRANCH   1   2
BRANCH   1  25
ATOM     25  C   UNL A   1      32.911  34.135  27.648  1.00  0.00     0.202 C 
BRANCH  25  26
ATOM     26  C   UNL A   1      33.663  34.782  29.597  1.00  0.00     0.261 C 
BRANCH  26  27
ATOM     27  O   UNL A   1      35.005  34.070  30.424  1.00  0.00    -0.460 OA
BRANCH  27  28
ATOM     28  C   UNL A   1      35.265  32.719  30.508  1.00  0.00     0.338 C 
ATOM     29  O   UNL A   1      35.081  31.993  31.480  1.00  0.00    -0.246 OA
BRANCH  28  30
ATOM     30  C   UNL A   1      35.578  32.015  29.212  1.00  0.00     0.060 A 
ATOM     31  C   UNL A   1      35.556  30.635  29.481  1.00  0.00     0.016 A 
ATOM     32  C   UNL A   1      36.692  32.583  28.631  1.00  0.00     0.016 A 
ATOM     33  C   UNL A   1      36.693  30.167  30.082  1.00  0.00     0.010 A 
ATOM     34  C   UNL A   1      37.855  32.140  29.162  1.00  0.00     0.010 A 
ATOM     35  C   UNL A   1      37.798  31.010  30.003  1.00  0.00    -0.014 A 
BRANCH  35  36
ATOM     36  C   UNL A   1      39.071  30.606  30.497  1.00  0.00     0.031 A 
ATOM     37  C   UNL A   1      39.437  29.305  29.904  1.00  0.00     0.074 A 
ATOM     38  C   UNL A   1      39.737  31.594  31.133  1.00  0.00     0.049 A 
ATOM     39  N   UNL A   1      40.168  28.409  30.457  1.00  0.00    -0.248 NA
ATOM     40  C   UNL A   1      38.768  28.776  28.685  1.00  0.00     0.031 C 
ATOM     41  C   UNL A   1      41.160  31.862  31.187  1.00  0.00     0.029 A 
ATOM     42  N   UNL A   1      39.173  32.598  31.957  1.00  0.00    -0.354 N 
ATOM     43  C   UNL A   1      40.493  27.552  29.422  1.00  0.00     0.074 A 
ATOM     44  C   UNL A   1      39.383  27.606  28.522  1.00  0.00     0.031 C 
ATOM     45  C   UNL A   1      41.402  32.748  32.174  1.00  0.00     0.029 A 
ATOM     46  C   UNL A   1      40.154  32.992  32.892  1.00  0.00     0.049 A 
ATOM     47  H   UNL A   1      38.258  32.958  31.890  1.00  0.00     0.167 HD
ATOM     48  C   UNL A   1      41.809  27.247  29.243  1.00  0.00     0.037 A 
ATOM     49  C   UNL A   1      40.016  32.706  34.228  1.00  0.00     0.037 A 
ATOM     50  C   UNL A   1      42.584  27.926  30.291  1.00  0.00     0.049 A 
ATOM     51  C   UNL A   1      40.815  31.508  34.619  1.00  0.00     0.074 A 
ATOM     52  C   UNL A   1      43.301  29.111  30.285  1.00  0.00     0.029 A 
ATOM     53  N   UNL A   1      42.290  27.657  31.624  1.00  0.00    -0.354 N 
ATOM     54  N   UNL A   1      41.216  30.585  33.794  1.00  0.00    -0.248 NA
ATOM     55  C   UNL A   1      41.239  31.303  35.992  1.00  0.00     0.031 C 
ATOM     56  C   UNL A   1      43.407  29.562  31.632  1.00  0.00     0.029 A 
ATOM     57  C   UNL A   1      42.742  28.664  32.453  1.00  0.00     0.049 A 
ATOM     58  H   UNL A   1      41.819  26.851  31.937  1.00  0.00     0.167 HD
ATOM     59  C   UNL A   1      41.973  29.686  34.484  1.00  0.00     0.074 A 
ATOM     60  C   UNL A   1      41.989  30.202  35.842  1.00  0.00     0.031 C 
ATOM     61  C   UNL A   1      42.530  28.587  33.896  1.00  0.00     0.037 A 
BRANCH  48  62
ATOM     62  C   UNL A   1      42.432  26.674  27.985  1.00  0.00     0.064 A 
ATOM     63  C   UNL A   1      42.377  25.280  27.759  1.00  0.00     0.173 A 
ATOM     64  C   UNL A   1      43.082  27.400  26.964  1.00  0.00     0.173 A 
ATOM     65  F   UNL A   1      41.736  24.460  28.602  1.00  0.00    -0.203 F 
ATOM     66  C   UNL A   1      42.962  24.668  26.647  1.00  0.00     0.198 A 
ATOM     67  C   UNL A   1      43.687  26.785  25.860  1.00  0.00     0.198 A 
ATOM     68  F   UNL A   1      43.121  28.735  26.952  1.00  0.00    -0.203 F 
ATOM     69  F   UNL A   1      42.870  23.340  26.499  1.00  0.00    -0.200 F 
ATOM     70  C   UNL A   1      43.627  25.418  25.702  1.00  0.00     0.200 A 
ATOM     71  F   UNL A   1      44.313  27.535  24.942  1.00  0.00    -0.200 F 
ATOM     72  F   UNL A   1      44.183  24.832  24.635  1.00  0.00    -0.200 F 
ENDBRANCH  48  62
BRANCH  49  73
ATOM     73  C   UNL A   1      38.698  33.003  34.873  1.00  0.00     0.064 A 
ATOM     74  C   UNL A   1      38.031  31.852  35.322  1.00  0.00     0.173 A 
ATOM     75  C   UNL A   1      38.663  34.155  35.664  1.00  0.00     0.173 A 
ATOM     76  F   UNL A   1      37.914  30.777  34.533  1.00  0.00    -0.203 F 
ATOM     77  C   UNL A   1      37.851  31.687  36.668  1.00  0.00     0.198 A 
ATOM     78  C   UNL A   1      38.522  33.990  37.022  1.00  0.00     0.198 A 
ATOM     79  F   UNL A   1      39.078  35.335  35.182  1.00  0.00    -0.203 F 
ATOM     80  F   UNL A   1      37.620  30.474  37.192  1.00  0.00    -0.200 F 
ATOM     81  C   UNL A   1      38.282  32.700  37.487  1.00  0.00     0.200 A 
ATOM     82  F   UNL A   1      38.837  35.011  37.829  1.00  0.00    -0.200 F 
ATOM     83  F   UNL A   1      38.846  32.243  38.592  1.00  0.00    -0.200 F 
ENDBRANCH  49  73
BRANCH  61  84
ATOM     84  C   UNL A   1      43.033  27.391  34.667  1.00  0.00     0.064 A 
ATOM     85  C   UNL A   1      42.209  26.341  35.108  1.00  0.00     0.173 A 
ATOM     86  C   UNL A   1      44.413  27.206  34.912  1.00  0.00     0.173 A 
ATOM     87  F   UNL A   1      40.924  26.242  34.745  1.00  0.00    -0.203 F 
ATOM     88  C   UNL A   1      42.695  25.298  35.892  1.00  0.00     0.198 A 
ATOM     89  C   UNL A   1      44.911  26.098  35.586  1.00  0.00     0.198 A 
ATOM     90  F   UNL A   1      45.342  28.074  34.487  1.00  0.00    -0.203 F 
ATOM     91  F   UNL A   1      41.837  24.403  36.399  1.00  0.00    -0.200 F 
ATOM     92  C   UNL A   1      44.048  25.171  36.124  1.00  0.00     0.200 A 
ATOM     93  F   UNL A   1      46.236  25.936  35.703  1.00  0.00    -0.200 F 
ATOM     94  F   UNL A   1      44.519  24.143  36.838  1.00  0.00    -0.200 F 
ENDBRANCH  61  84
ENDBRANCH  35  36
ENDBRANCH  28  30
ENDBRANCH  27  28
ENDBRANCH  26  27
ENDBRANCH  25  26
ENDBRANCH   1  25
TORSDOF 16
ENDMDL
MODEL 3
REMARK VINA RESULT:     -13.8      6.499     11.248
REMARK SMILES Cc1ccc(NC(=O)[C@H]2CC=CC[C@H]2C(=O)OCCOCCOC(=O)c2ccc(-c3c4nc(c(-c5c(F)c(F)c(F)c(F)c5F)c5ccc([nH]5)c(-c5c(F)c(F)c(F)c(F)c5F)c5nc(c(-c6c(F)c(F)c(F)c(F)c6F)c6ccc3[nH]6)C=C5)C=C4)cc2)cc1F
REMARK SMILES IDX 20 1 19 2 18 3 17 4 15 5 16 6 14 7 9 8 10 9 11 10 13 11
REMARK SMILES IDX 12 12 7 13 6 14 8 16 5 17 1 18 2 19 3 20 90 21 4 22 89 23
REMARK SMILES IDX 91 24 21 25 22 26 23 27 24 28 25 29 26 30 27 31 88 32 28 33
REMARK SMILES IDX 87 34 29 35 30 36 31 37 81 38 32 39 86 40 80 41 82 42 33 43
REMARK SMILES IDX 85 44 79 45 78 46 34 48 66 49 46 50 65 51 47 52 50 53 64 54
REMARK SMILES IDX 83 55 48 56 49 57 63 59 84 60 51 61 35 62 36 63 44 64 37 65
REMARK SMILES IDX 38 66 42 67 45 68 39 69 40 70 43 71 41 72 67 73 68 74 76 75
REMARK SMILES IDX 69 76 70 77 74 78 77 79 71 80 72 81 75 82 73 83 52 84 53 85
REMARK SMILES IDX 61 86 54 87 55 88 59 89 62 90 56 91 57 92 60 93 58 94
REMARK H PARENT 6 15 82 47 50 58
REMARK Flexibility Score: inf
ROOT
ATOM      1  O   UNL A   1      33.668  30.460  27.719  1.00  0.00    -0.374 OA
ENDROOT
BRANCH   1   2
ATOM      2  C   UNL A   1      33.036  29.730  26.623  1.00  0.00     0.202 C 
BRANCH   2   3
ATOM      3  C   UNL A   1      33.002  28.207  26.537  1.00  0.00     0.261 C 
BRANCH   3   4
ATOM      4  O   UNL A   1      34.034  27.635  25.719  1.00  0.00    -0.463 OA
BRANCH   4   5
ATOM      5  C   UNL A   1      33.687  26.529  25.018  1.00  0.00     0.310 C 
ATOM      6  O   UNL A   1      33.974  26.355  23.840  1.00  0.00    -0.252 OA
BRANCH   5   7
ATOM      7  C   UNL A   1      32.805  25.553  25.798  1.00  0.00     0.116 C 
ATOM      8  C   UNL A   1      31.451  25.058  25.250  1.00  0.00     0.097 C 
ATOM      9  C   UNL A   1      30.768  24.012  26.148  1.00  0.00     0.041 C 
ATOM     10  C   UNL A   1      31.687  23.198  26.996  1.00  0.00    -0.030 C 
ATOM     11  C   UNL A   1      33.706  24.364  26.130  1.00  0.00     0.043 C 
ATOM     12  C   UNL A   1      33.016  23.346  26.979  1.00  0.00    -0.030 C 
BRANCH   8  13
ATOM     13  C   UNL A   1      31.514  24.814  23.771  1.00  0.00     0.228 C 
ATOM     14  N   UNL A   1      31.165  25.856  22.939  1.00  0.00    -0.326 N 
ATOM     15  H   UNL A   1      31.540  25.785  22.032  1.00  0.00     0.169 HD
ATOM     16  O   UNL A   1      31.931  23.761  23.293  1.00  0.00    -0.274 OA
BRANCH  14  17
ATOM     17  C   UNL A   1      30.365  27.016  23.141  1.00  0.00     0.044 A 
ATOM     18  C   UNL A   1      27.399  31.148  23.415  1.00  0.00     0.047 C 
ATOM     19  C   UNL A   1      28.292  29.971  23.183  1.00  0.00    -0.015 A 
ATOM     20  C   UNL A   1      30.022  30.170  22.866  1.00  0.00     0.008 A 
ATOM     21  C   UNL A   1      27.621  28.395  23.521  1.00  0.00     0.128 A 
ATOM     22  C   UNL A   1      31.072  28.710  22.799  1.00  0.00     0.026 A 
ATOM     23  C   UNL A   1      28.591  26.924  23.468  1.00  0.00     0.065 A 
ATOM     24  F   UNL A   1      26.327  28.286  23.851  1.00  0.00    -0.207 F 
ENDBRANCH  14  17
ENDBRANCH   8  13
ENDBRANCH   5   7
ENDBRANCH   4   5
ENDBRANCH   3   4
ENDBRANCH   2   3
ENDBRANCH   1   2
BRANCH   1  25
ATOM     25  C   UNL A   1      35.132  31.273  27.740  1.00  0.00     0.202 C 
BRANCH  25  26
ATOM     26  C   UNL A   1      35.715  33.136  28.727  1.00  0.00     0.261 C 
BRANCH  26  27
ATOM     27  O   UNL A   1      34.832  33.893  30.007  1.00  0.00    -0.460 OA
BRANCH  27  28
ATOM     28  C   UNL A   1      34.543  33.319  31.227  1.00  0.00     0.338 C 
ATOM     29  O   UNL A   1      34.211  32.157  31.433  1.00  0.00    -0.246 OA
BRANCH  28  30
ATOM     30  C   UNL A   1      34.899  34.128  32.448  1.00  0.00     0.060 A 
ATOM     31  C   UNL A   1      35.932  35.004  32.072  1.00  0.00     0.016 A 
ATOM     32  C   UNL A   1      35.071  33.289  33.529  1.00  0.00     0.016 A 
ATOM     33  C   UNL A   1      37.168  34.418  32.023  1.00  0.00     0.010 A 
ATOM     34  C   UNL A   1      36.288  32.698  33.556  1.00  0.00     0.010 A 
ATOM     35  C   UNL A   1      37.274  33.197  32.682  1.00  0.00    -0.014 A 
BRANCH  35  36
ATOM     36  C   UNL A   1      38.526  32.527  32.797  1.00  0.00     0.031 A 
ATOM     37  C   UNL A   1      38.436  31.208  32.141  1.00  0.00     0.074 A 
ATOM     38  C   UNL A   1      39.530  33.333  33.204  1.00  0.00     0.049 A 
ATOM     39  N   UNL A   1      39.095  30.160  32.474  1.00  0.00    -0.248 NA
ATOM     40  C   UNL A   1      37.358  30.879  31.171  1.00  0.00     0.031 C 
ATOM     41  C   UNL A   1      40.934  33.310  32.846  1.00  0.00     0.029 A 
ATOM     42  N   UNL A   1      39.438  34.389  34.142  1.00  0.00    -0.354 N 
ATOM     43  C   UNL A   1      38.933  29.304  31.401  1.00  0.00     0.074 A 
ATOM     44  C   UNL A   1      37.650  29.619  30.854  1.00  0.00     0.031 C 
ATOM     45  C   UNL A   1      41.619  34.083  33.712  1.00  0.00     0.029 A 
ATOM     46  C   UNL A   1      40.702  34.537  34.752  1.00  0.00     0.049 A 
ATOM     47  H   UNL A   1      38.634  34.926  34.334  1.00  0.00     0.167 HD
ATOM     48  C   UNL A   1      40.055  28.752  30.857  1.00  0.00     0.037 A 
ATOM     49  C   UNL A   1      40.890  34.223  36.076  1.00  0.00     0.037 A 
ATOM     50  C   UNL A   1      41.215  29.214  31.631  1.00  0.00     0.049 A 
ATOM     51  C   UNL A   1      41.506  32.873  36.238  1.00  0.00     0.074 A 
ATOM     52  C   UNL A   1      42.127  30.232  31.406  1.00  0.00     0.029 A 
ATOM     53  N   UNL A   1      41.261  28.948  32.996  1.00  0.00    -0.354 N 
ATOM     54  N   UNL A   1      41.462  31.928  35.345  1.00  0.00    -0.248 NA
ATOM     55  C   UNL A   1      42.249  32.525  37.435  1.00  0.00     0.031 C 
ATOM     56  C   UNL A   1      42.698  30.590  32.661  1.00  0.00     0.029 A 
ATOM     57  C   UNL A   1      42.123  29.806  33.649  1.00  0.00     0.049 A 
ATOM     58  H   UNL A   1      40.743  28.238  33.441  1.00  0.00     0.167 HD
ATOM     59  C   UNL A   1      42.183  30.865  35.802  1.00  0.00     0.074 A 
ATOM     60  C   UNL A   1      42.685  31.305  37.092  1.00  0.00     0.031 C 
ATOM     61  C   UNL A   1      42.315  29.707  35.093  1.00  0.00     0.037 A 
BRANCH  48  62
ATOM     62  C   UNL A   1      40.167  28.125  29.481  1.00  0.00     0.064 A 
ATOM     63  C   UNL A   1      39.565  26.870  29.241  1.00  0.00     0.173 A 
ATOM     64  C   UNL A   1      40.826  28.674  28.359  1.00  0.00     0.173 A 
ATOM     65  F   UNL A   1      38.846  26.248  30.186  1.00  0.00    -0.203 F 
ATOM     66  C   UNL A   1      39.657  26.205  28.016  1.00  0.00     0.198 A 
ATOM     67  C   UNL A   1      40.936  27.999  27.137  1.00  0.00     0.198 A 
ATOM     68  F   UNL A   1      41.347  29.903  28.369  1.00  0.00    -0.203 F 
ATOM     69  F   UNL A   1      39.060  25.016  27.861  1.00  0.00    -0.200 F 
ATOM     70  C   UNL A   1      40.353  26.764  26.965  1.00  0.00     0.200 A 
ATOM     71  F   UNL A   1      41.602  28.568  26.121  1.00  0.00    -0.200 F 
ATOM     72  F   UNL A   1      40.437  26.129  25.789  1.00  0.00    -0.200 F 
ENDBRANCH  48  62
BRANCH  49  73
ATOM     73  C   UNL A   1      39.897  34.746  37.067  1.00  0.00     0.064 A 
ATOM     74  C   UNL A   1      38.956  33.783  37.466  1.00  0.00     0.173 A 
ATOM     75  C   UNL A   1      40.410  35.626  38.024  1.00  0.00     0.173 A 
ATOM     76  F   UNL A   1      38.330  33.020  36.561  1.00  0.00    -0.203 F 
ATOM     77  C   UNL A   1      38.968  33.362  38.768  1.00  0.00     0.198 A 
ATOM     78  C   UNL A   1      40.461  35.189  39.326  1.00  0.00     0.198 A 
ATOM     79  F   UNL A   1      41.124  36.700  37.660  1.00  0.00    -0.203 F 
ATOM     80  F   UNL A   1      38.419  32.189  39.120  1.00  0.00    -0.200 F 
ATOM     81  C   UNL A   1      39.866  33.963  39.613  1.00  0.00     0.200 A 
ATOM     82  F   UNL A   1      41.252  35.837  40.191  1.00  0.00    -0.200 F 
ATOM     83  F   UNL A   1      40.416  33.102  40.452  1.00  0.00    -0.200 F 
ENDBRANCH  49  73
BRANCH  61  84
ATOM     84  C   UNL A   1      42.761  28.400  35.704  1.00  0.00     0.064 A 
ATOM     85  C   UNL A   1      44.088  27.940  35.688  1.00  0.00     0.173 A 
ATOM     86  C   UNL A   1      41.860  27.587  36.430  1.00  0.00     0.173 A 
ATOM     87  F   UNL A   1      45.102  28.702  35.258  1.00  0.00    -0.203 F 
ATOM     88  C   UNL A   1      44.445  26.689  36.184  1.00  0.00     0.198 A 
ATOM     89  C   UNL A   1      42.247  26.398  37.035  1.00  0.00     0.198 A 
ATOM     90  F   UNL A   1      40.574  27.922  36.610  1.00  0.00    -0.203 F 
ATOM     91  F   UNL A   1      45.698  26.248  36.014  1.00  0.00    -0.200 F 
ATOM     92  C   UNL A   1      43.526  25.921  36.866  1.00  0.00     0.200 A 
ATOM     93  F   UNL A   1      41.367  25.723  37.788  1.00  0.00    -0.200 F 
ATOM     94  F   UNL A   1      43.881  24.740  37.384  1.00  0.00    -0.200 F 
ENDBRANCH  61  84
ENDBRANCH  35  36
ENDBRANCH  28  30
ENDBRANCH  27  28
ENDBRANCH  26  27
ENDBRANCH  25  26
ENDBRANCH   1  25
TORSDOF 16
ENDMDL
