MODEL 1
REMARK VINA RESULT:     -12.1      0.000      0.000
REMARK SMILES Cc1cc(=O)oc2cc(NC(=O)CC3(CC(=O)OCCOCCOC(=O)c4ccc(-c5c6nc(c(-c7c(F)c(F)c(F)c(F)c7F)c7ccc([nH]7)c(-c7c(F)c(F)c(F)c(F)c7F)c7nc(c(-c8c(F)c(F)c(F)c(F)c8F)c8ccc5[nH]8)C=C7)C=C6)cc4)CCCC3)ccc12
REMARK SMILES IDX 20 1 19 2 18 3 16 4 17 5 15 6 14 7 90 8 93 9 91 10 92 11
REMARK SMILES IDX 13 12 11 13 10 14 12 16 9 17 1 18 2 19 3 20 96 21 4 22 7 23
REMARK SMILES IDX 95 24 5 25 6 26 8 27 94 28 21 29 22 30 23 31 24 32 25 33
REMARK SMILES IDX 26 34 27 35 28 36 89 37 29 38 88 39 30 40 31 41 32 42 82 43
REMARK SMILES IDX 33 44 87 45 81 46 83 47 34 48 86 49 80 50 79 51 35 53 67 54
REMARK SMILES IDX 47 55 66 56 48 57 51 58 65 59 84 60 49 61 50 62 64 64 85 65
REMARK SMILES IDX 52 66 36 67 37 68 45 69 38 70 39 71 43 72 46 73 40 74 41 75
REMARK SMILES IDX 44 76 42 77 68 78 69 79 77 80 70 81 71 82 75 83 78 84 72 85
REMARK SMILES IDX 73 86 76 87 74 88 53 89 54 90 62 91 55 92 56 93 60 94 63 95
REMARK SMILES IDX 57 96 58 97 61 98 59 99
REMARK H PARENT 10 15 83 52 51 63
REMARK Flexibility Score: inf
ROOT
ATOM      1  C   UNL A   1      32.791  29.654  27.205  1.00  0.00     0.202 C 
ENDROOT
BRANCH   1   2
ATOM      2  C   UNL A   1      33.708  28.530  26.711  1.00  0.00     0.261 C 
BRANCH   2   3
ATOM      3  O   UNL A   1      33.006  27.271  26.572  1.00  0.00    -0.463 OA
BRANCH   3   4
ATOM      4  C   UNL A   1      33.270  26.556  25.448  1.00  0.00     0.306 C 
ATOM      5  O   UNL A   1      34.360  26.067  25.177  1.00  0.00    -0.252 OA
BRANCH   4   6
ATOM      6  C   UNL A   1      32.101  26.522  24.482  1.00  0.00     0.130 C 
BRANCH   6   7
ATOM      7  C   UNL A   1      32.183  27.208  23.084  1.00  0.00    -0.011 C 
ATOM      8  C   UNL A   1      32.357  28.721  23.347  1.00  0.00     0.008 C 
ATOM      9  C   UNL A   1      30.828  27.221  22.337  1.00  0.00     0.008 C 
ATOM     10  C   UNL A   1      30.964  29.255  23.674  1.00  0.00     0.001 C 
ATOM     11  C   UNL A   1      29.983  28.307  22.995  1.00  0.00     0.001 C 
BRANCH   7  12
ATOM     12  C   UNL A   1      33.268  26.573  22.173  1.00  0.00     0.108 C 
BRANCH  12  13
ATOM     13  C   UNL A   1      32.902  25.495  21.173  1.00  0.00     0.224 C 
ATOM     14  N   UNL A   1      32.806  24.170  21.477  1.00  0.00    -0.326 N 
ATOM     15  H   UNL A   1      32.671  23.592  20.692  1.00  0.00     0.169 HD
ATOM     16  O   UNL A   1      32.664  25.819  20.004  1.00  0.00    -0.275 OA
BRANCH  14  17
ATOM     17  C   UNL A   1      32.861  23.467  22.690  1.00  0.00     0.044 A 
ATOM     18  C   UNL A   1      34.281  22.470  27.588  1.00  0.00     0.045 C 
ATOM     19  C   UNL A   1      32.971  22.637  26.876  1.00  0.00    -0.033 A 
ATOM     20  C   UNL A   1      31.818  22.776  27.547  1.00  0.00     0.098 A 
ATOM     21  C   UNL A   1      32.940  22.748  25.413  1.00  0.00     0.021 A 
ATOM     22  C   UNL A   1      30.527  23.040  26.893  1.00  0.00     0.336 A 
ATOM     23  C   UNL A   1      31.750  23.130  24.798  1.00  0.00     0.140 A 
ATOM     24  C   UNL A   1      34.056  22.558  24.595  1.00  0.00     0.014 A 
ATOM     25  O   UNL A   1      29.493  23.098  27.548  1.00  0.00    -0.246 OA
ATOM     26  O   UNL A   1      30.553  23.257  25.527  1.00  0.00    -0.423 OA
ATOM     27  C   UNL A   1      31.690  23.471  23.448  1.00  0.00     0.074 A 
ATOM     28  C   UNL A   1      34.010  22.896  23.235  1.00  0.00     0.027 A 
ENDBRANCH  14  17
ENDBRANCH  12  13
ENDBRANCH   7  12
ENDBRANCH   6   7
ENDBRANCH   4   6
ENDBRANCH   3   4
ENDBRANCH   2   3
ENDBRANCH   1   2
BRANCH   1  29
ATOM     29  O   UNL A   1      32.687  30.799  26.352  1.00  0.00    -0.374 OA
BRANCH  29  30
ATOM     30  C   UNL A   1      31.533  31.610  26.552  1.00  0.00     0.202 C 
BRANCH  30  31
ATOM     31  C   UNL A   1      31.811  33.007  27.112  1.00  0.00     0.261 C 
BRANCH  31  32
ATOM     32  O   UNL A   1      33.214  33.323  27.031  1.00  0.00    -0.460 OA
BRANCH  32  33
ATOM     33  C   UNL A   1      33.752  33.763  28.193  1.00  0.00     0.338 C 
ATOM     34  O   UNL A   1      33.261  34.543  28.991  1.00  0.00    -0.246 OA
BRANCH  33  35
ATOM     35  C   UNL A   1      34.994  33.024  28.485  1.00  0.00     0.060 A 
ATOM     36  C   UNL A   1      34.850  31.729  28.998  1.00  0.00     0.016 A 
ATOM     37  C   UNL A   1      36.260  33.596  28.341  1.00  0.00     0.016 A 
ATOM     38  C   UNL A   1      35.970  31.021  29.425  1.00  0.00     0.010 A 
ATOM     39  C   UNL A   1      37.384  32.886  28.779  1.00  0.00     0.010 A 
ATOM     40  C   UNL A   1      37.238  31.613  29.360  1.00  0.00    -0.014 A 
BRANCH  40  41
ATOM     41  C   UNL A   1      38.369  30.950  30.057  1.00  0.00     0.031 A 
ATOM     42  C   UNL A   1      38.613  31.266  31.507  1.00  0.00     0.074 A 
ATOM     43  C   UNL A   1      39.117  30.026  29.431  1.00  0.00     0.049 A 
ATOM     44  N   UNL A   1      39.512  30.778  32.325  1.00  0.00    -0.248 NA
ATOM     45  C   UNL A   1      37.720  32.262  32.122  1.00  0.00     0.031 C 
ATOM     46  C   UNL A   1      38.949  29.605  28.042  1.00  0.00     0.029 A 
ATOM     47  N   UNL A   1      40.165  29.267  29.890  1.00  0.00    -0.354 N 
ATOM     48  C   UNL A   1      39.291  31.404  33.545  1.00  0.00     0.074 A 
ATOM     49  C   UNL A   1      38.197  32.332  33.355  1.00  0.00     0.031 C 
ATOM     50  C   UNL A   1      39.864  28.663  27.759  1.00  0.00     0.029 A 
ATOM     51  C   UNL A   1      40.696  28.432  28.939  1.00  0.00     0.049 A 
ATOM     52  H   UNL A   1      40.503  29.318  30.812  1.00  0.00     0.167 HD
ATOM     53  C   UNL A   1      39.932  31.209  34.722  1.00  0.00     0.037 A 
ATOM     54  C   UNL A   1      41.743  27.586  29.013  1.00  0.00     0.037 A 
ATOM     55  C   UNL A   1      41.015  30.281  34.912  1.00  0.00     0.049 A 
ATOM     56  C   UNL A   1      42.484  27.440  30.317  1.00  0.00     0.074 A 
ATOM     57  C   UNL A   1      41.718  30.001  36.070  1.00  0.00     0.029 A 
ATOM     58  N   UNL A   1      41.555  29.485  33.913  1.00  0.00    -0.354 N 
ATOM     59  N   UNL A   1      42.251  28.015  31.472  1.00  0.00    -0.248 NA
ATOM     60  C   UNL A   1      43.634  26.523  30.328  1.00  0.00     0.031 C 
ATOM     61  C   UNL A   1      42.716  29.070  35.762  1.00  0.00     0.029 A 
ATOM     62  C   UNL A   1      42.601  28.733  34.423  1.00  0.00     0.049 A 
ATOM     63  H   UNL A   1      41.241  29.458  32.981  1.00  0.00     0.167 HD
ATOM     64  C   UNL A   1      43.201  27.511  32.350  1.00  0.00     0.074 A 
ATOM     65  C   UNL A   1      44.009  26.573  31.599  1.00  0.00     0.031 C 
ATOM     66  C   UNL A   1      43.390  27.799  33.662  1.00  0.00     0.037 A 
BRANCH  53  67
ATOM     67  C   UNL A   1      39.491  32.032  35.897  1.00  0.00     0.064 A 
ATOM     68  C   UNL A   1      40.041  33.296  36.157  1.00  0.00     0.173 A 
ATOM     69  C   UNL A   1      38.479  31.567  36.749  1.00  0.00     0.173 A 
ATOM     70  F   UNL A   1      41.022  33.779  35.380  1.00  0.00    -0.203 F 
ATOM     71  C   UNL A   1      39.605  34.056  37.240  1.00  0.00     0.198 A 
ATOM     72  C   UNL A   1      38.027  32.340  37.814  1.00  0.00     0.198 A 
ATOM     73  F   UNL A   1      37.920  30.365  36.541  1.00  0.00    -0.203 F 
ATOM     74  F   UNL A   1      40.172  35.244  37.494  1.00  0.00    -0.200 F 
ATOM     75  C   UNL A   1      38.595  33.581  38.063  1.00  0.00     0.200 A 
ATOM     76  F   UNL A   1      37.045  31.884  38.602  1.00  0.00    -0.200 F 
ATOM     77  F   UNL A   1      38.171  34.317  39.100  1.00  0.00    -0.200 F 
ENDBRANCH  53  67
BRANCH  54  78
ATOM     78  C   UNL A   1      42.164  26.818  27.812  1.00  0.00     0.064 A 
ATOM     79  C   UNL A   1      41.651  25.542  27.548  1.00  0.00     0.173 A 
ATOM     80  C   UNL A   1      43.108  27.340  26.915  1.00  0.00     0.173 A 
ATOM     81  F   UNL A   1      40.765  24.989  28.391  1.00  0.00    -0.203 F 
ATOM     82  C   UNL A   1      42.078  24.808  26.443  1.00  0.00     0.198 A 
ATOM     83  C   UNL A   1      43.514  26.617  25.796  1.00  0.00     0.198 A 
ATOM     84  F   UNL A   1      43.632  28.557  27.123  1.00  0.00    -0.203 F 
ATOM     85  F   UNL A   1      41.608  23.570  26.240  1.00  0.00    -0.200 F 
ATOM     86  C   UNL A   1      43.006  25.348  25.565  1.00  0.00     0.200 A 
ATOM     87  F   UNL A   1      44.403  27.149  24.944  1.00  0.00    -0.200 F 
ATOM     88  F   UNL A   1      43.416  24.643  24.502  1.00  0.00    -0.200 F 
ENDBRANCH  54  78
BRANCH  66  89
ATOM     89  C   UNL A   1      44.493  27.075  34.377  1.00  0.00     0.064 A 
ATOM     90  C   UNL A   1      45.780  27.622  34.489  1.00  0.00     0.173 A 
ATOM     91  C   UNL A   1      44.245  25.841  34.998  1.00  0.00     0.173 A 
ATOM     92  F   UNL A   1      46.069  28.792  33.901  1.00  0.00    -0.203 F 
ATOM     93  C   UNL A   1      46.784  26.950  35.180  1.00  0.00     0.198 A 
ATOM     94  C   UNL A   1      45.246  25.185  35.712  1.00  0.00     0.198 A 
ATOM     95  F   UNL A   1      43.030  25.279  34.927  1.00  0.00    -0.203 F 
ATOM     96  F   UNL A   1      48.018  27.471  35.239  1.00  0.00    -0.200 F 
ATOM     97  C   UNL A   1      46.514  25.736  35.797  1.00  0.00     0.200 A 
ATOM     98  F   UNL A   1      44.979  24.021  36.320  1.00  0.00    -0.200 F 
ATOM     99  F   UNL A   1      47.481  25.096  36.469  1.00  0.00    -0.200 F 
ENDBRANCH  66  89
ENDBRANCH  40  41
ENDBRANCH  33  35
ENDBRANCH  32  33
ENDBRANCH  31  32
ENDBRANCH  30  31
ENDBRANCH  29  30
ENDBRANCH   1  29
TORSDOF 18
ENDMDL
MODEL 2
REMARK VINA RESULT:     -12.0      1.979      3.554
REMARK SMILES Cc1cc(=O)oc2cc(NC(=O)CC3(CC(=O)OCCOCCOC(=O)c4ccc(-c5c6nc(c(-c7c(F)c(F)c(F)c(F)c7F)c7ccc([nH]7)c(-c7c(F)c(F)c(F)c(F)c7F)c7nc(c(-c8c(F)c(F)c(F)c(F)c8F)c8ccc5[nH]8)C=C7)C=C6)cc4)CCCC3)ccc12
REMARK SMILES IDX 20 1 19 2 18 3 16 4 17 5 15 6 14 7 90 8 93 9 91 10 92 11
REMARK SMILES IDX 13 12 11 13 10 14 12 16 9 17 1 18 2 19 3 20 96 21 4 22 7 23
REMARK SMILES IDX 95 24 5 25 6 26 8 27 94 28 21 29 22 30 23 31 24 32 25 33
REMARK SMILES IDX 26 34 27 35 28 36 89 37 29 38 88 39 30 40 31 41 32 42 82 43
REMARK SMILES IDX 33 44 87 45 81 46 83 47 34 48 86 49 80 50 79 51 35 53 67 54
REMARK SMILES IDX 47 55 66 56 48 57 51 58 65 59 84 60 49 61 50 62 64 64 85 65
REMARK SMILES IDX 52 66 36 67 37 68 45 69 38 70 39 71 43 72 46 73 40 74 41 75
REMARK SMILES IDX 44 76 42 77 68 78 69 79 77 80 70 81 71 82 75 83 78 84 72 85
REMARK SMILES IDX 73 86 76 87 74 88 53 89 54 90 62 91 55 92 56 93 60 94 63 95
REMARK SMILES IDX 57 96 58 97 61 98 59 99
REMARK H PARENT 10 15 83 52 51 63
REMARK Flexibility Score: inf
ROOT
ATOM      1  C   UNL A   1      30.287  28.708  23.701  1.00  0.00     0.202 C 
ENDROOT
BRANCH   1   2
ATOM      2  C   UNL A   1      31.377  28.216  22.742  1.00  0.00     0.261 C 
BRANCH   2   3
ATOM      3  O   UNL A   1      30.912  27.142  21.889  1.00  0.00    -0.463 OA
BRANCH   3   4
ATOM      4  C   UNL A   1      31.726  26.059  21.787  1.00  0.00     0.306 C 
ATOM      5  O   UNL A   1      32.431  25.810  20.817  1.00  0.00    -0.252 OA
BRANCH   4   6
ATOM      6  C   UNL A   1      31.586  25.104  22.957  1.00  0.00     0.130 C 
BRANCH   6   7
ATOM      7  C   UNL A   1      32.837  24.533  23.694  1.00  0.00    -0.011 C 
ATOM      8  C   UNL A   1      32.440  24.380  25.179  1.00  0.00     0.008 C 
ATOM      9  C   UNL A   1      33.982  25.565  23.828  1.00  0.00     0.008 C 
ATOM     10  C   UNL A   1      32.552  25.775  25.791  1.00  0.00     0.001 C 
ATOM     11  C   UNL A   1      33.570  26.525  24.939  1.00  0.00     0.001 C 
BRANCH   7  12
ATOM     12  C   UNL A   1      33.381  23.242  23.026  1.00  0.00     0.108 C 
BRANCH  12  13
ATOM     13  C   UNL A   1      33.461  21.944  23.805  1.00  0.00     0.224 C 
ATOM     14  N   UNL A   1      34.558  21.536  24.502  1.00  0.00    -0.326 N 
ATOM     15  H   UNL A   1      34.485  20.621  24.856  1.00  0.00     0.169 HD
ATOM     16  O   UNL A   1      32.474  21.199  23.830  1.00  0.00    -0.275 OA
BRANCH  14  17
ATOM     17  C   UNL A   1      35.773  22.165  24.814  1.00  0.00     0.044 A 
ATOM     18  C   UNL A   1      39.284  24.607  27.764  1.00  0.00     0.045 C 
ATOM     19  C   UNL A   1      39.277  23.352  26.943  1.00  0.00    -0.033 A 
ATOM     20  C   UNL A   1      40.260  22.444  27.038  1.00  0.00     0.098 A 
ATOM     21  C   UNL A   1      38.131  23.046  26.080  1.00  0.00     0.021 A 
ATOM     22  C   UNL A   1      40.244  21.156  26.328  1.00  0.00     0.336 A 
ATOM     23  C   UNL A   1      38.044  21.777  25.511  1.00  0.00     0.140 A 
ATOM     24  C   UNL A   1      37.077  23.931  25.845  1.00  0.00     0.014 A 
ATOM     25  O   UNL A   1      41.196  20.388  26.401  1.00  0.00    -0.246 OA
ATOM     26  O   UNL A   1      39.096  20.849  25.618  1.00  0.00    -0.423 OA
ATOM     27  C   UNL A   1      36.892  21.333  24.865  1.00  0.00     0.074 A 
ATOM     28  C   UNL A   1      35.913  23.499  25.194  1.00  0.00     0.027 A 
ENDBRANCH  14  17
ENDBRANCH  12  13
ENDBRANCH   7  12
ENDBRANCH   6   7
ENDBRANCH   4   6
ENDBRANCH   3   4
ENDBRANCH   2   3
ENDBRANCH   1   2
BRANCH   1  29
ATOM     29  O   UNL A   1      30.661  29.770  24.583  1.00  0.00    -0.374 OA
BRANCH  29  30
ATOM     30  C   UNL A   1      31.595  29.422  25.602  1.00  0.00     0.202 C 
BRANCH  30  31
ATOM     31  C   UNL A   1      32.697  30.455  25.851  1.00  0.00     0.261 C 
BRANCH  31  32
ATOM     32  O   UNL A   1      32.954  30.601  27.261  1.00  0.00    -0.460 OA
BRANCH  32  33
ATOM     33  C   UNL A   1      33.662  31.710  27.583  1.00  0.00     0.338 C 
ATOM     34  O   UNL A   1      33.245  32.848  27.705  1.00  0.00    -0.246 OA
BRANCH  33  35
ATOM     35  C   UNL A   1      35.039  31.338  27.956  1.00  0.00     0.060 A 
ATOM     36  C   UNL A   1      35.269  29.989  28.254  1.00  0.00     0.016 A 
ATOM     37  C   UNL A   1      36.062  32.280  28.090  1.00  0.00     0.016 A 
ATOM     38  C   UNL A   1      36.507  29.585  28.744  1.00  0.00     0.010 A 
ATOM     39  C   UNL A   1      37.304  31.873  28.591  1.00  0.00     0.010 A 
ATOM     40  C   UNL A   1      37.517  30.532  28.959  1.00  0.00    -0.014 A 
BRANCH  40  41
ATOM     41  C   UNL A   1      38.724  30.125  29.721  1.00  0.00     0.031 A 
ATOM     42  C   UNL A   1      38.885  30.607  31.136  1.00  0.00     0.074 A 
ATOM     43  C   UNL A   1      39.622  29.278  29.188  1.00  0.00     0.049 A 
ATOM     44  N   UNL A   1      39.833  30.346  32.001  1.00  0.00    -0.248 NA
ATOM     45  C   UNL A   1      37.833  31.500  31.650  1.00  0.00     0.031 C 
ATOM     46  C   UNL A   1      39.551  28.711  27.843  1.00  0.00     0.029 A 
ATOM     47  N   UNL A   1      40.767  28.742  29.723  1.00  0.00    -0.354 N 
ATOM     48  C   UNL A   1      39.490  31.037  33.156  1.00  0.00     0.074 A 
ATOM     49  C   UNL A   1      38.268  31.758  32.874  1.00  0.00     0.031 C 
ATOM     50  C   UNL A   1      40.610  27.904  27.656  1.00  0.00     0.029 A 
ATOM     51  C   UNL A   1      41.443  27.918  28.857  1.00  0.00     0.049 A 
ATOM     52  H   UNL A   1      41.074  28.930  30.638  1.00  0.00     0.167 HD
ATOM     53  C   UNL A   1      40.130  31.056  34.350  1.00  0.00     0.037 A 
ATOM     54  C   UNL A   1      42.608  27.261  29.015  1.00  0.00     0.037 A 
ATOM     55  C   UNL A   1      41.342  30.333  34.633  1.00  0.00     0.049 A 
ATOM     56  C   UNL A   1      43.336  27.355  30.332  1.00  0.00     0.074 A 
ATOM     57  C   UNL A   1      42.056  30.276  35.816  1.00  0.00     0.029 A 
ATOM     58  N   UNL A   1      42.022  29.545  33.716  1.00  0.00    -0.354 N 
ATOM     59  N   UNL A   1      42.992  27.988  31.427  1.00  0.00    -0.248 NA
ATOM     60  C   UNL A   1      44.616  26.637  30.436  1.00  0.00     0.031 C 
ATOM     61  C   UNL A   1      43.195  29.493  35.602  1.00  0.00     0.029 A 
ATOM     62  C   UNL A   1      43.163  29.020  34.299  1.00  0.00     0.049 A 
ATOM     63  H   UNL A   1      41.735  29.384  32.788  1.00  0.00     0.167 HD
ATOM     64  C   UNL A   1      43.991  27.725  32.353  1.00  0.00     0.074 A 
ATOM     65  C   UNL A   1      44.952  26.863  31.698  1.00  0.00     0.031 C 
ATOM     66  C   UNL A   1      44.105  28.158  33.634  1.00  0.00     0.037 A 
BRANCH  53  67
ATOM     67  C   UNL A   1      39.540  31.902  35.440  1.00  0.00     0.064 A 
ATOM     68  C   UNL A   1      38.625  31.379  36.364  1.00  0.00     0.173 A 
ATOM     69  C   UNL A   1      39.927  33.243  35.583  1.00  0.00     0.173 A 
ATOM     70  F   UNL A   1      38.213  30.107  36.260  1.00  0.00    -0.203 F 
ATOM     71  C   UNL A   1      38.104  32.174  37.383  1.00  0.00     0.198 A 
ATOM     72  C   UNL A   1      39.425  34.027  36.617  1.00  0.00     0.198 A 
ATOM     73  F   UNL A   1      40.802  33.790  34.725  1.00  0.00    -0.203 F 
ATOM     74  F   UNL A   1      37.200  31.665  38.232  1.00  0.00    -0.200 F 
ATOM     75  C   UNL A   1      38.510  33.494  37.513  1.00  0.00     0.200 A 
ATOM     76  F   UNL A   1      39.825  35.299  36.748  1.00  0.00    -0.200 F 
ATOM     77  F   UNL A   1      38.013  34.255  38.498  1.00  0.00    -0.200 F 
ENDBRANCH  53  67
BRANCH  54  78
ATOM     78  C   UNL A   1      43.171  26.463  27.895  1.00  0.00     0.064 A 
ATOM     79  C   UNL A   1      43.869  27.073  26.845  1.00  0.00     0.173 A 
ATOM     80  C   UNL A   1      43.000  25.071  27.842  1.00  0.00     0.173 A 
ATOM     81  F   UNL A   1      44.035  28.405  26.837  1.00  0.00    -0.203 F 
ATOM     82  C   UNL A   1      44.360  26.327  25.776  1.00  0.00     0.198 A 
ATOM     83  C   UNL A   1      43.515  24.322  26.787  1.00  0.00     0.198 A 
ATOM     84  F   UNL A   1      42.337  24.437  28.820  1.00  0.00    -0.203 F 
ATOM     85  F   UNL A   1      44.983  26.941  24.761  1.00  0.00    -0.200 F 
ATOM     86  C   UNL A   1      44.187  24.951  25.750  1.00  0.00     0.200 A 
ATOM     87  F   UNL A   1      43.355  22.991  26.773  1.00  0.00    -0.200 F 
ATOM     88  F   UNL A   1      44.661  24.233  24.722  1.00  0.00    -0.200 F 
ENDBRANCH  54  78
BRANCH  66  89
ATOM     89  C   UNL A   1      45.294  27.687  34.420  1.00  0.00     0.064 A 
ATOM     90  C   UNL A   1      46.474  28.442  34.489  1.00  0.00     0.173 A 
ATOM     91  C   UNL A   1      45.232  26.491  35.151  1.00  0.00     0.173 A 
ATOM     92  F   UNL A   1      46.587  29.585  33.797  1.00  0.00    -0.203 F 
ATOM     93  C   UNL A   1      47.558  28.004  35.246  1.00  0.00     0.198 A 
ATOM     94  C   UNL A   1      46.309  26.071  35.929  1.00  0.00     0.198 A 
ATOM     95  F   UNL A   1      44.123  25.738  35.124  1.00  0.00    -0.203 F 
ATOM     96  F   UNL A   1      48.691  28.720  35.265  1.00  0.00    -0.200 F 
ATOM     97  C   UNL A   1      47.472  26.824  35.971  1.00  0.00     0.200 A 
ATOM     98  F   UNL A   1      46.218  24.939  36.640  1.00  0.00    -0.200 F 
ATOM     99  F   UNL A   1      48.513  26.410  36.705  1.00  0.00    -0.200 F 
ENDBRANCH  66  89
ENDBRANCH  40  41
ENDBRANCH  33  35
ENDBRANCH  32  33
ENDBRANCH  31  32
ENDBRANCH  30  31
ENDBRANCH  29  30
ENDBRANCH   1  29
TORSDOF 18
ENDMDL
MODEL 3
REMARK VINA RESULT:     -11.9      1.361      2.780
REMARK SMILES Cc1cc(=O)oc2cc(NC(=O)CC3(CC(=O)OCCOCCOC(=O)c4ccc(-c5c6nc(c(-c7c(F)c(F)c(F)c(F)c7F)c7ccc([nH]7)c(-c7c(F)c(F)c(F)c(F)c7F)c7nc(c(-c8c(F)c(F)c(F)c(F)c8F)c8ccc5[nH]8)C=C7)C=C6)cc4)CCCC3)ccc12
REMARK SMILES IDX 20 1 19 2 18 3 16 4 17 5 15 6 14 7 90 8 93 9 91 10 92 11
REMARK SMILES IDX 13 12 11 13 10 14 12 16 9 17 1 18 2 19 3 20 96 21 4 22 7 23
REMARK SMILES IDX 95 24 5 25 6 26 8 27 94 28 21 29 22 30 23 31 24 32 25 33
REMARK SMILES IDX 26 34 27 35 28 36 89 37 29 38 88 39 30 40 31 41 32 42 82 43
REMARK SMILES IDX 33 44 87 45 81 46 83 47 34 48 86 49 80 50 79 51 35 53 67 54
REMARK SMILES IDX 47 55 66 56 48 57 51 58 65 59 84 60 49 61 50 62 64 64 85 65
REMARK SMILES IDX 52 66 36 67 37 68 45 69 38 70 39 71 43 72 46 73 40 74 41 75
REMARK SMILES IDX 44 76 42 77 68 78 69 79 77 80 70 81 71 82 75 83 78 84 72 85
REMARK SMILES IDX 73 86 76 87 74 88 53 89 54 90 62 91 55 92 56 93 60 94 63 95
REMARK SMILES IDX 57 96 58 97 61 98 59 99
REMARK H PARENT 10 15 83 52 51 63
REMARK Flexibility Score: inf
ROOT
ATOM      1  C   UNL A   1      31.727  29.941  25.142  1.00  0.00     0.202 C 
ENDROOT
BRANCH   1   2
ATOM      2  C   UNL A   1      32.793  29.149  24.377  1.00  0.00     0.261 C 
BRANCH   2   3
ATOM      3  O   UNL A   1      32.416  28.913  22.999  1.00  0.00    -0.463 OA
BRANCH   3   4
ATOM      4  C   UNL A   1      32.942  27.806  22.413  1.00  0.00     0.306 C 
ATOM      5  O   UNL A   1      34.023  27.771  21.839  1.00  0.00    -0.252 OA
BRANCH   4   6
ATOM      6  C   UNL A   1      31.992  26.623  22.427  1.00  0.00     0.130 C 
BRANCH   6   7
ATOM      7  C   UNL A   1      31.974  25.610  23.614  1.00  0.00    -0.011 C 
ATOM      8  C   UNL A   1      33.376  25.668  24.261  1.00  0.00     0.008 C 
ATOM      9  C   UNL A   1      31.955  24.135  23.148  1.00  0.00     0.008 C 
ATOM     10  C   UNL A   1      34.285  24.818  23.376  1.00  0.00     0.001 C 
ATOM     11  C   UNL A   1      33.373  23.810  22.686  1.00  0.00     0.001 C 
BRANCH   7  12
ATOM     12  C   UNL A   1      30.792  25.859  24.588  1.00  0.00     0.108 C 
BRANCH  12  13
ATOM     13  C   UNL A   1      31.036  26.004  26.078  1.00  0.00     0.224 C 
ATOM     14  N   UNL A   1      31.422  24.983  26.893  1.00  0.00    -0.326 N 
ATOM     15  H   UNL A   1      31.427  25.219  27.848  1.00  0.00     0.169 HD
ATOM     16  O   UNL A   1      30.891  27.115  26.602  1.00  0.00    -0.275 OA
BRANCH  14  17
ATOM     17  C   UNL A   1      31.814  23.660  26.638  1.00  0.00     0.044 A 
ATOM     18  C   UNL A   1      32.643  19.366  23.833  1.00  0.00     0.045 C 
ATOM     19  C   UNL A   1      33.492  20.246  24.702  1.00  0.00    -0.033 A 
ATOM     20  C   UNL A   1      34.829  20.147  24.709  1.00  0.00     0.098 A 
ATOM     21  C   UNL A   1      32.870  21.310  25.498  1.00  0.00     0.021 A 
ATOM     22  C   UNL A   1      35.705  21.054  25.468  1.00  0.00     0.336 A 
ATOM     23  C   UNL A   1      33.694  22.253  26.110  1.00  0.00     0.140 A 
ATOM     24  C   UNL A   1      31.490  21.479  25.627  1.00  0.00     0.014 A 
ATOM     25  O   UNL A   1      36.917  20.883  25.490  1.00  0.00    -0.246 OA
ATOM     26  O   UNL A   1      35.094  22.117  26.111  1.00  0.00    -0.423 OA
ATOM     27  C   UNL A   1      33.185  23.411  26.695  1.00  0.00     0.074 A 
ATOM     28  C   UNL A   1      30.965  22.639  26.214  1.00  0.00     0.027 A 
ENDBRANCH  14  17
ENDBRANCH  12  13
ENDBRANCH   7  12
ENDBRANCH   6   7
ENDBRANCH   4   6
ENDBRANCH   3   4
ENDBRANCH   2   3
ENDBRANCH   1   2
BRANCH   1  29
ATOM     29  O   UNL A   1      32.185  30.664  26.288  1.00  0.00    -0.374 OA
BRANCH  29  30
ATOM     30  C   UNL A   1      31.352  31.742  26.707  1.00  0.00     0.202 C 
BRANCH  30  31
ATOM     31  C   UNL A   1      32.062  33.090  26.857  1.00  0.00     0.261 C 
BRANCH  31  32
ATOM     32  O   UNL A   1      32.708  33.191  28.140  1.00  0.00    -0.460 OA
BRANCH  32  33
ATOM     33  C   UNL A   1      33.785  34.012  28.156  1.00  0.00     0.338 C 
ATOM     34  O   UNL A   1      33.793  35.228  28.086  1.00  0.00    -0.246 OA
BRANCH  33  35
ATOM     35  C   UNL A   1      35.004  33.238  28.452  1.00  0.00     0.060 A 
ATOM     36  C   UNL A   1      34.823  31.957  28.988  1.00  0.00     0.016 A 
ATOM     37  C   UNL A   1      36.287  33.766  28.289  1.00  0.00     0.016 A 
ATOM     38  C   UNL A   1      35.923  31.221  29.419  1.00  0.00     0.010 A 
ATOM     39  C   UNL A   1      37.391  33.027  28.731  1.00  0.00     0.010 A 
ATOM     40  C   UNL A   1      37.208  31.769  29.335  1.00  0.00    -0.014 A 
BRANCH  40  41
ATOM     41  C   UNL A   1      38.322  31.083  30.036  1.00  0.00     0.031 A 
ATOM     42  C   UNL A   1      38.563  31.385  31.489  1.00  0.00     0.074 A 
ATOM     43  C   UNL A   1      39.058  30.148  29.409  1.00  0.00     0.049 A 
ATOM     44  N   UNL A   1      39.448  30.877  32.309  1.00  0.00    -0.248 NA
ATOM     45  C   UNL A   1      37.684  32.394  32.103  1.00  0.00     0.031 C 
ATOM     46  C   UNL A   1      38.892  29.738  28.016  1.00  0.00     0.029 A 
ATOM     47  N   UNL A   1      40.089  29.368  29.871  1.00  0.00    -0.354 N 
ATOM     48  C   UNL A   1      39.230  31.499  33.532  1.00  0.00     0.074 A 
ATOM     49  C   UNL A   1      38.155  32.449  33.341  1.00  0.00     0.031 C 
ATOM     50  C   UNL A   1      39.791  28.781  27.734  1.00  0.00     0.029 A 
ATOM     51  C   UNL A   1      40.611  28.529  28.918  1.00  0.00     0.049 A 
ATOM     52  H   UNL A   1      40.422  29.407  30.795  1.00  0.00     0.167 HD
ATOM     53  C   UNL A   1      39.860  31.287  34.712  1.00  0.00     0.037 A 
ATOM     54  C   UNL A   1      41.641  27.664  28.993  1.00  0.00     0.037 A 
ATOM     55  C   UNL A   1      40.925  30.338  34.904  1.00  0.00     0.049 A 
ATOM     56  C   UNL A   1      42.371  27.497  30.301  1.00  0.00     0.074 A 
ATOM     57  C   UNL A   1      41.615  30.038  36.064  1.00  0.00     0.029 A 
ATOM     58  N   UNL A   1      41.456  29.537  33.904  1.00  0.00    -0.354 N 
ATOM     59  N   UNL A   1      42.141  28.069  31.458  1.00  0.00    -0.248 NA
ATOM     60  C   UNL A   1      43.504  26.558  30.315  1.00  0.00     0.031 C 
ATOM     61  C   UNL A   1      42.598  29.092  35.757  1.00  0.00     0.029 A 
ATOM     62  C   UNL A   1      42.486  28.764  34.415  1.00  0.00     0.049 A 
ATOM     63  H   UNL A   1      41.148  29.522  32.969  1.00  0.00     0.167 HD
ATOM     64  C   UNL A   1      43.077  27.543  32.339  1.00  0.00     0.074 A 
ATOM     65  C   UNL A   1      43.872  26.595  31.588  1.00  0.00     0.031 C 
ATOM     66  C   UNL A   1      43.262  27.820  33.654  1.00  0.00     0.037 A 
BRANCH  53  67
ATOM     67  C   UNL A   1      39.427  32.111  35.888  1.00  0.00     0.064 A 
ATOM     68  C   UNL A   1      38.447  31.658  36.783  1.00  0.00     0.173 A 
ATOM     69  C   UNL A   1      40.028  33.352  36.144  1.00  0.00     0.173 A 
ATOM     70  F   UNL A   1      37.831  30.486  36.574  1.00  0.00    -0.203 F 
ATOM     71  C   UNL A   1      38.072  32.428  37.883  1.00  0.00     0.198 A 
ATOM     72  C   UNL A   1      39.671  34.106  37.258  1.00  0.00     0.198 A 
ATOM     73  F   UNL A   1      40.973  33.829  35.318  1.00  0.00    -0.203 F 
ATOM     74  F   UNL A   1      37.105  31.995  38.703  1.00  0.00    -0.200 F 
ATOM     75  C   UNL A   1      38.689  33.647  38.122  1.00  0.00     0.200 A 
ATOM     76  F   UNL A   1      40.274  35.279  37.494  1.00  0.00    -0.200 F 
ATOM     77  F   UNL A   1      38.332  34.382  39.185  1.00  0.00    -0.200 F 
ENDBRANCH  53  67
BRANCH  54  78
ATOM     78  C   UNL A   1      42.056  26.894  27.791  1.00  0.00     0.064 A 
ATOM     79  C   UNL A   1      41.523  25.629  27.517  1.00  0.00     0.173 A 
ATOM     80  C   UNL A   1      43.014  27.405  26.902  1.00  0.00     0.173 A 
ATOM     81  F   UNL A   1      40.624  25.086  28.352  1.00  0.00    -0.203 F 
ATOM     82  C   UNL A   1      41.945  24.893  26.411  1.00  0.00     0.198 A 
ATOM     83  C   UNL A   1      43.414  26.681  25.781  1.00  0.00     0.198 A 
ATOM     84  F   UNL A   1      43.558  28.611  27.120  1.00  0.00    -0.203 F 
ATOM     85  F   UNL A   1      41.454  23.665  26.199  1.00  0.00    -0.200 F 
ATOM     86  C   UNL A   1      42.886  25.423  25.541  1.00  0.00     0.200 A 
ATOM     87  F   UNL A   1      44.317  27.202  24.938  1.00  0.00    -0.200 F 
ATOM     88  F   UNL A   1      43.290  24.716  24.476  1.00  0.00    -0.200 F 
ENDBRANCH  54  78
BRANCH  66  89
ATOM     89  C   UNL A   1      44.347  27.072  34.372  1.00  0.00     0.064 A 
ATOM     90  C   UNL A   1      44.116  25.811  34.941  1.00  0.00     0.173 A 
ATOM     91  C   UNL A   1      45.644  27.601  34.448  1.00  0.00     0.173 A 
ATOM     92  F   UNL A   1      42.890  25.269  34.907  1.00  0.00    -0.203 F 
ATOM     93  C   UNL A   1      45.141  25.117  35.579  1.00  0.00     0.198 A 
ATOM     94  C   UNL A   1      46.673  26.891  35.062  1.00  0.00     0.198 A 
ATOM     95  F   UNL A   1      45.918  28.800  33.912  1.00  0.00    -0.203 F 
ATOM     96  F   UNL A   1      44.888  23.932  36.153  1.00  0.00    -0.200 F 
ATOM     97  C   UNL A   1      46.419  25.653  35.632  1.00  0.00     0.200 A 
ATOM     98  F   UNL A   1      47.910  27.405  35.100  1.00  0.00    -0.200 F 
ATOM     99  F   UNL A   1      47.405  24.979  36.240  1.00  0.00    -0.200 F 
ENDBRANCH  66  89
ENDBRANCH  40  41
ENDBRANCH  33  35
ENDBRANCH  32  33
ENDBRANCH  31  32
ENDBRANCH  30  31
ENDBRANCH  29  30
ENDBRANCH   1  29
TORSDOF 18
ENDMDL
