MODEL 1
REMARK VINA RESULT:     -11.0      0.000      0.000
REMARK SMILES O=C(C[C@H]1C[C@H]2CC[C@@H](C1)N2C(=O)NCCC1CC1)OCCOCCOC(=O)c1ccc(-c2c3nc(c(-c4c(F)c(F)c(F)c(F)c4F)c4ccc([nH]4)c(-c4c(F)c(F)c(F)c(F)c4F)c4nc(c(-c5c(F)c(F)c(F)c(F)c5F)c5ccc2[nH]5)C=C4)C=C3)cc1
REMARK SMILES IDX 21 1 20 2 2 3 1 4 3 5 4 6 5 7 10 8 6 9 9 10 7 11 11 12 8 13
REMARK SMILES IDX 12 14 13 15 14 16 15 18 16 19 17 20 18 21 19 22 22 23 23 24
REMARK SMILES IDX 24 25 25 26 26 27 27 28 28 29 29 30 30 31 91 32 31 33 90 34
REMARK SMILES IDX 32 35 33 36 34 37 84 38 35 39 89 40 83 41 85 42 36 43 88 44
REMARK SMILES IDX 82 45 81 46 37 48 69 49 49 50 68 51 50 52 53 53 67 54 86 55
REMARK SMILES IDX 51 56 52 57 66 59 87 60 54 61 38 62 39 63 47 64 40 65 41 66
REMARK SMILES IDX 45 67 48 68 42 69 43 70 46 71 44 72 70 73 71 74 79 75 72 76
REMARK SMILES IDX 73 77 77 78 80 79 74 80 75 81 78 82 76 83 55 84 56 85 64 86
REMARK SMILES IDX 57 87 58 88 62 89 65 90 59 91 60 92 63 93 61 94
REMARK H PARENT 14 17 85 47 53 58
REMARK Flexibility Score: inf
ROOT
ATOM      1  C   UNL A   1      35.608  32.224  28.000  1.00  0.00     0.261 C 
ENDROOT
BRANCH   1   2
ATOM      2  O   UNL A   1      34.726  31.199  27.512  1.00  0.00    -0.463 OA
BRANCH   2   3
ATOM      3  C   UNL A   1      35.298  29.967  27.478  1.00  0.00     0.306 C 
ATOM      4  O   UNL A   1      36.499  29.763  27.636  1.00  0.00    -0.252 OA
BRANCH   3   5
ATOM      5  C   UNL A   1      34.340  28.872  27.044  1.00  0.00     0.126 C 
BRANCH   5   6
ATOM      6  C   UNL A   1      33.561  29.038  25.720  1.00  0.00     0.004 C 
ATOM      7  C   UNL A   1      33.991  28.120  24.550  1.00  0.00     0.029 C 
ATOM      8  C   UNL A   1      32.029  28.929  25.958  1.00  0.00     0.029 C 
ATOM      9  C   UNL A   1      33.205  26.815  24.406  1.00  0.00     0.087 C 
ATOM     10  C   UNL A   1      31.398  27.555  25.624  1.00  0.00     0.087 C 
ATOM     11  C   UNL A   1      33.186  25.928  25.652  1.00  0.00     0.027 C 
ATOM     12  N   UNL A   1      31.801  27.150  24.284  1.00  0.00    -0.319 N 
ATOM     13  C   UNL A   1      31.991  26.427  26.476  1.00  0.00     0.027 C 
BRANCH  12  14
ATOM     14  C   UNL A   1      31.160  26.795  23.145  1.00  0.00     0.317 C 
ATOM     15  O   UNL A   1      31.063  25.614  22.795  1.00  0.00    -0.249 OA
ATOM     16  N   UNL A   1      30.552  27.676  22.341  1.00  0.00    -0.338 N 
ATOM     17  H   UNL A   1      30.082  27.240  21.592  1.00  0.00     0.165 HD
BRANCH  16  18
ATOM     18  C   UNL A   1      30.422  29.113  22.311  1.00  0.00     0.118 C 
BRANCH  18  19
ATOM     19  C   UNL A   1      28.949  29.521  22.376  1.00  0.00     0.025 C 
BRANCH  19  20
ATOM     20  C   UNL A   1      28.825  30.985  22.708  1.00  0.00    -0.009 C 
ATOM     21  C   UNL A   1      27.758  31.801  22.023  1.00  0.00     0.004 C 
ATOM     22  C   UNL A   1      27.657  31.514  23.496  1.00  0.00     0.004 C 
ENDBRANCH  19  20
ENDBRANCH  18  19
ENDBRANCH  16  18
ENDBRANCH  12  14
ENDBRANCH   5   6
ENDBRANCH   3   5
ENDBRANCH   2   3
ENDBRANCH   1   2
BRANCH   1  23
ATOM     23  C   UNL A   1      34.803  33.458  28.442  1.00  0.00     0.202 C 
BRANCH  23  24
ATOM     24  O   UNL A   1      34.217  33.275  29.731  1.00  0.00    -0.374 OA
BRANCH  24  25
ATOM     25  C   UNL A   1      34.698  34.112  30.780  1.00  0.00     0.202 C 
BRANCH  25  26
ATOM     26  C   UNL A   1      34.477  33.441  32.138  1.00  0.00     0.261 C 
BRANCH  26  27
ATOM     27  O   UNL A   1      35.166  32.182  32.140  1.00  0.00    -0.460 OA
BRANCH  27  28
ATOM     28  C   UNL A   1      36.247  32.101  32.951  1.00  0.00     0.338 C 
ATOM     29  O   UNL A   1      36.296  32.335  34.146  1.00  0.00    -0.246 OA
BRANCH  28  30
ATOM     30  C   UNL A   1      37.362  31.497  32.180  1.00  0.00     0.060 A 
ATOM     31  C   UNL A   1      38.352  30.790  32.876  1.00  0.00     0.016 A 
ATOM     32  C   UNL A   1      37.397  31.560  30.782  1.00  0.00     0.016 A 
ATOM     33  C   UNL A   1      39.387  30.167  32.178  1.00  0.00     0.010 A 
ATOM     34  C   UNL A   1      38.420  30.927  30.084  1.00  0.00     0.010 A 
ATOM     35  C   UNL A   1      39.435  30.252  30.781  1.00  0.00    -0.014 A 
BRANCH  35  36
ATOM     36  C   UNL A   1      40.618  29.787  30.028  1.00  0.00     0.031 A 
ATOM     37  C   UNL A   1      41.704  30.780  29.734  1.00  0.00     0.074 A 
ATOM     38  C   UNL A   1      40.692  28.527  29.569  1.00  0.00     0.049 A 
ATOM     39  N   UNL A   1      42.781  30.645  29.008  1.00  0.00    -0.248 NA
ATOM     40  C   UNL A   1      41.540  32.118  30.328  1.00  0.00     0.031 C 
ATOM     41  C   UNL A   1      39.694  27.483  29.796  1.00  0.00     0.029 A 
ATOM     42  N   UNL A   1      41.646  27.920  28.794  1.00  0.00    -0.354 N 
ATOM     43  C   UNL A   1      43.418  31.878  29.051  1.00  0.00     0.074 A 
ATOM     44  C   UNL A   1      42.589  32.761  29.840  1.00  0.00     0.031 C 
ATOM     45  C   UNL A   1      40.084  26.363  29.161  1.00  0.00     0.029 A 
ATOM     46  C   UNL A   1      41.343  26.624  28.465  1.00  0.00     0.049 A 
ATOM     47  H   UNL A   1      42.471  28.372  28.501  1.00  0.00     0.167 HD
ATOM     48  C   UNL A   1      44.598  32.235  28.492  1.00  0.00     0.037 A 
ATOM     49  C   UNL A   1      42.005  25.756  27.675  1.00  0.00     0.037 A 
ATOM     50  C   UNL A   1      45.416  31.351  27.709  1.00  0.00     0.049 A 
ATOM     51  C   UNL A   1      43.297  26.190  27.033  1.00  0.00     0.074 A 
ATOM     52  C   UNL A   1      46.639  31.601  27.116  1.00  0.00     0.029 A 
ATOM     53  N   UNL A   1      45.083  30.037  27.407  1.00  0.00    -0.354 N 
ATOM     54  N   UNL A   1      43.916  27.344  27.112  1.00  0.00    -0.248 NA
ATOM     55  C   UNL A   1      43.986  25.198  26.196  1.00  0.00     0.031 C 
ATOM     56  C   UNL A   1      47.030  30.451  26.421  1.00  0.00     0.029 A 
ATOM     57  C   UNL A   1      46.071  29.470  26.621  1.00  0.00     0.049 A 
ATOM     58  H   UNL A   1      44.266  29.578  27.708  1.00  0.00     0.167 HD
ATOM     59  C   UNL A   1      45.079  27.206  26.365  1.00  0.00     0.074 A 
ATOM     60  C   UNL A   1      45.085  25.854  25.848  1.00  0.00     0.031 C 
ATOM     61  C   UNL A   1      46.057  28.115  26.128  1.00  0.00     0.037 A 
BRANCH  48  62
ATOM     62  C   UNL A   1      45.056  33.648  28.701  1.00  0.00     0.064 A 
ATOM     63  C   UNL A   1      44.690  34.676  27.817  1.00  0.00     0.173 A 
ATOM     64  C   UNL A   1      45.862  33.980  29.798  1.00  0.00     0.173 A 
ATOM     65  F   UNL A   1      43.937  34.405  26.741  1.00  0.00    -0.203 F 
ATOM     66  C   UNL A   1      45.139  35.980  28.012  1.00  0.00     0.198 A 
ATOM     67  C   UNL A   1      46.285  35.291  30.006  1.00  0.00     0.198 A 
ATOM     68  F   UNL A   1      46.241  33.035  30.671  1.00  0.00    -0.203 F 
ATOM     69  F   UNL A   1      44.820  36.935  27.127  1.00  0.00    -0.200 F 
ATOM     70  C   UNL A   1      45.930  36.287  29.108  1.00  0.00     0.200 A 
ATOM     71  F   UNL A   1      47.044  35.588  31.069  1.00  0.00    -0.200 F 
ATOM     72  F   UNL A   1      46.360  37.542  29.295  1.00  0.00    -0.200 F 
ENDBRANCH  48  62
BRANCH  49  73
ATOM     73  C   UNL A   1      41.467  24.388  27.454  1.00  0.00     0.064 A 
ATOM     74  C   UNL A   1      40.322  24.183  26.672  1.00  0.00     0.173 A 
ATOM     75  C   UNL A   1      42.074  23.263  28.030  1.00  0.00     0.173 A 
ATOM     76  F   UNL A   1      39.693  25.232  26.120  1.00  0.00    -0.203 F 
ATOM     77  C   UNL A   1      39.794  22.907  26.490  1.00  0.00     0.198 A 
ATOM     78  C   UNL A   1      41.558  21.985  27.827  1.00  0.00     0.198 A 
ATOM     79  F   UNL A   1      43.171  23.405  28.788  1.00  0.00    -0.203 F 
ATOM     80  F   UNL A   1      38.671  22.745  25.775  1.00  0.00    -0.200 F 
ATOM     81  C   UNL A   1      40.414  21.808  27.063  1.00  0.00     0.200 A 
ATOM     82  F   UNL A   1      42.166  20.924  28.375  1.00  0.00    -0.200 F 
ATOM     83  F   UNL A   1      39.905  20.581  26.888  1.00  0.00    -0.200 F 
ENDBRANCH  49  73
BRANCH  61  84
ATOM     84  C   UNL A   1      47.231  27.665  25.311  1.00  0.00     0.064 A 
ATOM     85  C   UNL A   1      47.264  27.828  23.918  1.00  0.00     0.173 A 
ATOM     86  C   UNL A   1      48.356  27.107  25.936  1.00  0.00     0.173 A 
ATOM     87  F   UNL A   1      46.206  28.344  23.274  1.00  0.00    -0.203 F 
ATOM     88  C   UNL A   1      48.372  27.425  23.179  1.00  0.00     0.198 A 
ATOM     89  C   UNL A   1      49.474  26.732  25.196  1.00  0.00     0.198 A 
ATOM     90  F   UNL A   1      48.377  26.939  27.267  1.00  0.00    -0.203 F 
ATOM     91  F   UNL A   1      48.365  27.548  21.844  1.00  0.00    -0.200 F 
ATOM     92  C   UNL A   1      49.478  26.885  23.818  1.00  0.00     0.200 A 
ATOM     93  F   UNL A   1      50.547  26.222  25.817  1.00  0.00    -0.200 F 
ATOM     94  F   UNL A   1      50.547  26.505  23.104  1.00  0.00    -0.200 F 
ENDBRANCH  61  84
ENDBRANCH  35  36
ENDBRANCH  28  30
ENDBRANCH  27  28
ENDBRANCH  26  27
ENDBRANCH  25  26
ENDBRANCH  24  25
ENDBRANCH  23  24
ENDBRANCH   1  23
TORSDOF 19
ENDMDL
MODEL 2
REMARK VINA RESULT:     -11.0      1.288      2.827
REMARK SMILES O=C(C[C@H]1C[C@H]2CC[C@@H](C1)N2C(=O)NCCC1CC1)OCCOCCOC(=O)c1ccc(-c2c3nc(c(-c4c(F)c(F)c(F)c(F)c4F)c4ccc([nH]4)c(-c4c(F)c(F)c(F)c(F)c4F)c4nc(c(-c5c(F)c(F)c(F)c(F)c5F)c5ccc2[nH]5)C=C4)C=C3)cc1
REMARK SMILES IDX 21 1 20 2 2 3 1 4 3 5 4 6 5 7 10 8 6 9 9 10 7 11 11 12 8 13
REMARK SMILES IDX 12 14 13 15 14 16 15 18 16 19 17 20 18 21 19 22 22 23 23 24
REMARK SMILES IDX 24 25 25 26 26 27 27 28 28 29 29 30 30 31 91 32 31 33 90 34
REMARK SMILES IDX 32 35 33 36 34 37 84 38 35 39 89 40 83 41 85 42 36 43 88 44
REMARK SMILES IDX 82 45 81 46 37 48 69 49 49 50 68 51 50 52 53 53 67 54 86 55
REMARK SMILES IDX 51 56 52 57 66 59 87 60 54 61 38 62 39 63 47 64 40 65 41 66
REMARK SMILES IDX 45 67 48 68 42 69 43 70 46 71 44 72 70 73 71 74 79 75 72 76
REMARK SMILES IDX 73 77 77 78 80 79 74 80 75 81 78 82 76 83 55 84 56 85 64 86
REMARK SMILES IDX 57 87 58 88 62 89 65 90 59 91 60 92 63 93 61 94
REMARK H PARENT 14 17 85 47 53 58
REMARK Flexibility Score: inf
ROOT
ATOM      1  C   UNL A   1      34.194  31.398  27.909  1.00  0.00     0.261 C 
ENDROOT
BRANCH   1   2
ATOM      2  O   UNL A   1      32.952  30.795  27.509  1.00  0.00    -0.463 OA
BRANCH   2   3
ATOM      3  C   UNL A   1      33.080  29.494  27.138  1.00  0.00     0.306 C 
ATOM      4  O   UNL A   1      33.886  28.714  27.637  1.00  0.00    -0.252 OA
BRANCH   3   5
ATOM      5  C   UNL A   1      32.254  29.135  25.915  1.00  0.00     0.126 C 
BRANCH   5   6
ATOM      6  C   UNL A   1      32.305  27.688  25.376  1.00  0.00     0.004 C 
ATOM      7  C   UNL A   1      31.250  27.315  24.306  1.00  0.00     0.029 C 
ATOM      8  C   UNL A   1      33.732  27.332  24.874  1.00  0.00     0.029 C 
ATOM      9  C   UNL A   1      31.695  27.469  22.850  1.00  0.00     0.087 C 
ATOM     10  C   UNL A   1      33.943  27.422  23.342  1.00  0.00     0.087 C 
ATOM     11  C   UNL A   1      32.205  28.860  22.472  1.00  0.00     0.027 C 
ATOM     12  N   UNL A   1      32.892  26.675  22.663  1.00  0.00    -0.319 N 
ATOM     13  C   UNL A   1      33.702  28.840  22.812  1.00  0.00     0.027 C 
BRANCH  12  14
ATOM     14  C   UNL A   1      32.849  25.662  21.766  1.00  0.00     0.317 C 
ATOM     15  O   UNL A   1      33.086  25.845  20.567  1.00  0.00    -0.249 OA
ATOM     16  N   UNL A   1      32.591  24.393  22.106  1.00  0.00    -0.338 N 
ATOM     17  H   UNL A   1      32.662  23.777  21.340  1.00  0.00     0.165 HD
BRANCH  16  18
ATOM     18  C   UNL A   1      32.236  23.713  23.328  1.00  0.00     0.118 C 
BRANCH  18  19
ATOM     19  C   UNL A   1      33.407  22.869  23.834  1.00  0.00     0.025 C 
BRANCH  19  20
ATOM     20  C   UNL A   1      34.558  23.755  24.232  1.00  0.00    -0.009 C 
ATOM     21  C   UNL A   1      35.478  23.305  25.339  1.00  0.00     0.004 C 
ATOM     22  C   UNL A   1      35.982  23.375  23.925  1.00  0.00     0.004 C 
ENDBRANCH  19  20
ENDBRANCH  18  19
ENDBRANCH  16  18
ENDBRANCH  12  14
ENDBRANCH   5   6
ENDBRANCH   3   5
ENDBRANCH   2   3
ENDBRANCH   1   2
BRANCH   1  23
ATOM     23  C   UNL A   1      34.050  32.928  27.973  1.00  0.00     0.202 C 
BRANCH  23  24
ATOM     24  O   UNL A   1      33.579  33.364  29.248  1.00  0.00    -0.374 OA
BRANCH  24  25
ATOM     25  C   UNL A   1      34.416  34.266  29.969  1.00  0.00     0.202 C 
BRANCH  25  26
ATOM     26  C   UNL A   1      34.453  33.887  31.450  1.00  0.00     0.261 C 
BRANCH  26  27
ATOM     27  O   UNL A   1      34.853  32.513  31.558  1.00  0.00    -0.460 OA
BRANCH  27  28
ATOM     28  C   UNL A   1      35.789  32.241  32.499  1.00  0.00     0.338 C 
ATOM     29  O   UNL A   1      35.676  32.346  33.707  1.00  0.00    -0.246 OA
BRANCH  28  30
ATOM     30  C   UNL A   1      36.952  31.610  31.828  1.00  0.00     0.060 A 
ATOM     31  C   UNL A   1      37.924  30.984  32.621  1.00  0.00     0.016 A 
ATOM     32  C   UNL A   1      37.050  31.565  30.432  1.00  0.00     0.016 A 
ATOM     33  C   UNL A   1      39.004  30.338  32.021  1.00  0.00     0.010 A 
ATOM     34  C   UNL A   1      38.120  30.908  29.833  1.00  0.00     0.010 A 
ATOM     35  C   UNL A   1      39.116  30.316  30.626  1.00  0.00    -0.014 A 
BRANCH  35  36
ATOM     36  C   UNL A   1      40.344  29.826  29.965  1.00  0.00     0.031 A 
ATOM     37  C   UNL A   1      41.460  30.802  29.734  1.00  0.00     0.074 A 
ATOM     38  C   UNL A   1      40.434  28.558  29.531  1.00  0.00     0.049 A 
ATOM     39  N   UNL A   1      42.584  30.643  29.087  1.00  0.00    -0.248 NA
ATOM     40  C   UNL A   1      41.270  32.151  30.294  1.00  0.00     0.031 C 
ATOM     41  C   UNL A   1      39.410  27.529  29.702  1.00  0.00     0.029 A 
ATOM     42  N   UNL A   1      41.433  27.928  28.834  1.00  0.00    -0.354 N 
ATOM     43  C   UNL A   1      43.231  31.869  29.157  1.00  0.00     0.074 A 
ATOM     44  C   UNL A   1      42.359  32.774  29.872  1.00  0.00     0.031 C 
ATOM     45  C   UNL A   1      39.831  26.395  29.113  1.00  0.00     0.029 A 
ATOM     46  C   UNL A   1      41.138  26.630  28.504  1.00  0.00     0.049 A 
ATOM     47  H   UNL A   1      42.282  28.366  28.594  1.00  0.00     0.167 HD
ATOM     48  C   UNL A   1      44.452  32.205  28.678  1.00  0.00     0.037 A 
ATOM     49  C   UNL A   1      41.843  25.743  27.776  1.00  0.00     0.037 A 
ATOM     50  C   UNL A   1      45.312  31.299  27.968  1.00  0.00     0.049 A 
ATOM     51  C   UNL A   1      43.183  26.153  27.221  1.00  0.00     0.074 A 
ATOM     52  C   UNL A   1      46.577  31.527  27.460  1.00  0.00     0.029 A 
ATOM     53  N   UNL A   1      44.985  29.985  27.663  1.00  0.00    -0.354 N 
ATOM     54  N   UNL A   1      43.809  27.300  27.326  1.00  0.00    -0.248 NA
ATOM     55  C   UNL A   1      43.917  25.140  26.450  1.00  0.00     0.031 C 
ATOM     56  C   UNL A   1      47.001  30.361  26.811  1.00  0.00     0.029 A 
ATOM     57  C   UNL A   1      46.019  29.394  26.957  1.00  0.00     0.049 A 
ATOM     58  H   UNL A   1      44.143  29.539  27.912  1.00  0.00     0.167 HD
ATOM     59  C   UNL A   1      45.020  27.138  26.666  1.00  0.00     0.074 A 
ATOM     60  C   UNL A   1      45.045  25.778  26.170  1.00  0.00     0.031 C 
ATOM     61  C   UNL A   1      46.023  28.033  26.485  1.00  0.00     0.037 A 
BRANCH  48  62
ATOM     62  C   UNL A   1      44.911  33.616  28.897  1.00  0.00     0.064 A 
ATOM     63  C   UNL A   1      44.689  34.617  27.939  1.00  0.00     0.173 A 
ATOM     64  C   UNL A   1      45.573  33.973  30.080  1.00  0.00     0.173 A 
ATOM     65  F   UNL A   1      44.077  34.321  26.783  1.00  0.00    -0.203 F 
ATOM     66  C   UNL A   1      45.138  35.919  28.148  1.00  0.00     0.198 A 
ATOM     67  C   UNL A   1      45.996  35.282  30.298  1.00  0.00     0.198 A 
ATOM     68  F   UNL A   1      45.811  33.053  31.027  1.00  0.00    -0.203 F 
ATOM     69  F   UNL A   1      44.961  36.846  27.196  1.00  0.00    -0.200 F 
ATOM     70  C   UNL A   1      45.786  36.251  29.327  1.00  0.00     0.200 A 
ATOM     71  F   UNL A   1      46.615  35.604  31.441  1.00  0.00    -0.200 F 
ATOM     72  F   UNL A   1      46.216  37.504  29.528  1.00  0.00    -0.200 F 
ENDBRANCH  48  62
BRANCH  49  73
ATOM     73  C   UNL A   1      41.306  24.378  27.538  1.00  0.00     0.064 A 
ATOM     74  C   UNL A   1      41.859  23.264  28.184  1.00  0.00     0.173 A 
ATOM     75  C   UNL A   1      40.242  24.157  26.653  1.00  0.00     0.173 A 
ATOM     76  F   UNL A   1      42.895  23.424  29.022  1.00  0.00    -0.203 F 
ATOM     77  C   UNL A   1      41.382  21.979  27.939  1.00  0.00     0.198 A 
ATOM     78  C   UNL A   1      39.749  22.873  26.427  1.00  0.00     0.198 A 
ATOM     79  F   UNL A   1      39.677  25.189  26.009  1.00  0.00    -0.203 F 
ATOM     80  F   UNL A   1      41.960  20.927  28.535  1.00  0.00    -0.200 F 
ATOM     81  C   UNL A   1      40.324  21.784  27.064  1.00  0.00     0.200 A 
ATOM     82  F   UNL A   1      38.720  22.690  25.588  1.00  0.00    -0.200 F 
ATOM     83  F   UNL A   1      39.865  20.547  26.828  1.00  0.00    -0.200 F 
ENDBRANCH  49  73
BRANCH  61  84
ATOM     84  C   UNL A   1      47.247  27.556  25.759  1.00  0.00     0.064 A 
ATOM     85  C   UNL A   1      47.363  27.661  24.366  1.00  0.00     0.173 A 
ATOM     86  C   UNL A   1      48.334  27.032  26.474  1.00  0.00     0.173 A 
ATOM     87  F   UNL A   1      46.344  28.143  23.638  1.00  0.00    -0.203 F 
ATOM     88  C   UNL A   1      48.515  27.235  23.712  1.00  0.00     0.198 A 
ATOM     89  C   UNL A   1      49.496  26.634  25.819  1.00  0.00     0.198 A 
ATOM     90  F   UNL A   1      48.275  26.920  27.810  1.00  0.00    -0.203 F 
ATOM     91  F   UNL A   1      48.588  27.302  22.375  1.00  0.00    -0.200 F 
ATOM     92  C   UNL A   1      49.583  26.729  24.439  1.00  0.00     0.200 A 
ATOM     93  F   UNL A   1      50.531  26.157  26.525  1.00  0.00    -0.200 F 
ATOM     94  F   UNL A   1      50.694  26.327  23.807  1.00  0.00    -0.200 F 
ENDBRANCH  61  84
ENDBRANCH  35  36
ENDBRANCH  28  30
ENDBRANCH  27  28
ENDBRANCH  26  27
ENDBRANCH  25  26
ENDBRANCH  24  25
ENDBRANCH  23  24
ENDBRANCH   1  23
TORSDOF 19
ENDMDL
MODEL 3
REMARK VINA RESULT:     -11.0      3.044      8.392
REMARK SMILES O=C(C[C@H]1C[C@H]2CC[C@@H](C1)N2C(=O)NCCC1CC1)OCCOCCOC(=O)c1ccc(-c2c3nc(c(-c4c(F)c(F)c(F)c(F)c4F)c4ccc([nH]4)c(-c4c(F)c(F)c(F)c(F)c4F)c4nc(c(-c5c(F)c(F)c(F)c(F)c5F)c5ccc2[nH]5)C=C4)C=C3)cc1
REMARK SMILES IDX 21 1 20 2 2 3 1 4 3 5 4 6 5 7 10 8 6 9 9 10 7 11 11 12 8 13
REMARK SMILES IDX 12 14 13 15 14 16 15 18 16 19 17 20 18 21 19 22 22 23 23 24
REMARK SMILES IDX 24 25 25 26 26 27 27 28 28 29 29 30 30 31 91 32 31 33 90 34
REMARK SMILES IDX 32 35 33 36 34 37 84 38 35 39 89 40 83 41 85 42 36 43 88 44
REMARK SMILES IDX 82 45 81 46 37 48 69 49 49 50 68 51 50 52 53 53 67 54 86 55
REMARK SMILES IDX 51 56 52 57 66 59 87 60 54 61 38 62 39 63 47 64 40 65 41 66
REMARK SMILES IDX 45 67 48 68 42 69 43 70 46 71 44 72 70 73 71 74 79 75 72 76
REMARK SMILES IDX 73 77 77 78 80 79 74 80 75 81 78 82 76 83 55 84 56 85 64 86
REMARK SMILES IDX 57 87 58 88 62 89 65 90 59 91 60 92 63 93 61 94
REMARK H PARENT 14 17 85 47 53 58
REMARK Flexibility Score: inf
ROOT
ATOM      1  C   UNL A   1      35.643  21.892  24.588  1.00  0.00     0.261 C 
ENDROOT
BRANCH   1   2
ATOM      2  O   UNL A   1      34.759  22.796  25.272  1.00  0.00    -0.463 OA
BRANCH   2   3
ATOM      3  C   UNL A   1      33.600  23.024  24.603  1.00  0.00     0.306 C 
ATOM      4  O   UNL A   1      33.447  22.818  23.402  1.00  0.00    -0.252 OA
BRANCH   3   5
ATOM      5  C   UNL A   1      32.552  23.736  25.442  1.00  0.00     0.126 C 
BRANCH   5   6
ATOM      6  C   UNL A   1      32.757  25.227  25.789  1.00  0.00     0.004 C 
ATOM      7  C   UNL A   1      33.472  26.090  24.721  1.00  0.00     0.029 C 
ATOM      8  C   UNL A   1      31.415  25.889  26.209  1.00  0.00     0.029 C 
ATOM      9  C   UNL A   1      32.557  26.836  23.747  1.00  0.00     0.087 C 
ATOM     10  C   UNL A   1      30.706  26.716  25.109  1.00  0.00     0.087 C 
ATOM     11  C   UNL A   1      31.568  25.954  22.983  1.00  0.00     0.027 C 
ATOM     12  N   UNL A   1      31.651  27.657  24.524  1.00  0.00    -0.319 N 
ATOM     13  C   UNL A   1      30.336  25.859  23.894  1.00  0.00     0.027 C 
BRANCH  12  14
ATOM     14  C   UNL A   1      31.699  28.999  24.344  1.00  0.00     0.317 C 
ATOM     15  O   UNL A   1      32.443  29.718  25.018  1.00  0.00    -0.249 OA
ATOM     16  N   UNL A   1      30.986  29.639  23.409  1.00  0.00    -0.338 N 
ATOM     17  H   UNL A   1      31.190  30.603  23.376  1.00  0.00     0.165 HD
BRANCH  16  18
ATOM     18  C   UNL A   1      29.992  29.252  22.437  1.00  0.00     0.118 C 
BRANCH  18  19
ATOM     19  C   UNL A   1      28.640  29.018  23.114  1.00  0.00     0.025 C 
BRANCH  19  20
ATOM     20  C   UNL A   1      27.664  30.096  22.722  1.00  0.00    -0.009 C 
ATOM     21  C   UNL A   1      27.597  31.357  23.547  1.00  0.00     0.004 C 
ATOM     22  C   UNL A   1      28.132  31.404  22.142  1.00  0.00     0.004 C 
ENDBRANCH  19  20
ENDBRANCH  18  19
ENDBRANCH  16  18
ENDBRANCH  12  14
ENDBRANCH   5   6
ENDBRANCH   3   5
ENDBRANCH   2   3
ENDBRANCH   1   2
BRANCH   1  23
ATOM     23  C   UNL A   1      35.688  20.535  25.313  1.00  0.00     0.202 C 
BRANCH  23  24
ATOM     24  O   UNL A   1      36.778  19.730  24.866  1.00  0.00    -0.374 OA
BRANCH  24  25
ATOM     25  C   UNL A   1      38.066  20.343  24.852  1.00  0.00     0.202 C 
BRANCH  25  26
ATOM     26  C   UNL A   1      39.030  19.572  25.756  1.00  0.00     0.261 C 
BRANCH  26  27
ATOM     27  O   UNL A   1      40.231  20.343  25.902  1.00  0.00    -0.460 OA
BRANCH  27  28
ATOM     28  C   UNL A   1      40.688  20.493  27.168  1.00  0.00     0.338 C 
ATOM     29  O   UNL A   1      40.949  19.614  27.970  1.00  0.00    -0.246 OA
BRANCH  28  30
ATOM     30  C   UNL A   1      41.001  21.927  27.383  1.00  0.00     0.060 A 
ATOM     31  C   UNL A   1      40.371  22.879  26.569  1.00  0.00     0.016 A 
ATOM     32  C   UNL A   1      41.845  22.340  28.421  1.00  0.00     0.016 A 
ATOM     33  C   UNL A   1      40.603  24.238  26.776  1.00  0.00     0.010 A 
ATOM     34  C   UNL A   1      42.065  23.696  28.637  1.00  0.00     0.010 A 
ATOM     35  C   UNL A   1      41.468  24.649  27.798  1.00  0.00    -0.014 A 
BRANCH  35  36
ATOM     36  C   UNL A   1      41.898  26.059  27.914  1.00  0.00     0.031 A 
ATOM     37  C   UNL A   1      43.239  26.437  27.356  1.00  0.00     0.074 A 
ATOM     38  C   UNL A   1      41.136  26.962  28.551  1.00  0.00     0.049 A 
ATOM     39  N   UNL A   1      43.879  27.573  27.427  1.00  0.00    -0.248 NA
ATOM     40  C   UNL A   1      43.966  25.377  26.637  1.00  0.00     0.031 C 
ATOM     41  C   UNL A   1      39.819  26.702  29.129  1.00  0.00     0.029 A 
ATOM     42  N   UNL A   1      41.376  28.282  28.837  1.00  0.00    -0.354 N 
ATOM     43  C   UNL A   1      45.084  27.365  26.769  1.00  0.00     0.074 A 
ATOM     44  C   UNL A   1      45.105  25.983  26.341  1.00  0.00     0.031 C 
ATOM     45  C   UNL A   1      39.371  27.827  29.715  1.00  0.00     0.029 A 
ATOM     46  C   UNL A   1      40.381  28.874  29.573  1.00  0.00     0.049 A 
ATOM     47  H   UNL A   1      42.186  28.758  28.543  1.00  0.00     0.167 HD
ATOM     48  C   UNL A   1      46.077  28.252  26.532  1.00  0.00     0.037 A 
ATOM     49  C   UNL A   1      40.309  30.118  30.084  1.00  0.00     0.037 A 
ATOM     50  C   UNL A   1      46.049  29.623  26.961  1.00  0.00     0.049 A 
ATOM     51  C   UNL A   1      41.446  31.077  29.839  1.00  0.00     0.074 A 
ATOM     52  C   UNL A   1      46.990  30.615  26.754  1.00  0.00     0.029 A 
ATOM     53  N   UNL A   1      45.016  30.194  27.693  1.00  0.00    -0.354 N 
ATOM     54  N   UNL A   1      42.564  30.887  29.179  1.00  0.00    -0.248 NA
ATOM     55  C   UNL A   1      41.307  32.426  30.404  1.00  0.00     0.031 C 
ATOM     56  C   UNL A   1      46.546  31.776  27.396  1.00  0.00     0.029 A 
ATOM     57  C   UNL A   1      45.306  31.520  27.961  1.00  0.00     0.049 A 
ATOM     58  H   UNL A   1      44.199  29.724  27.978  1.00  0.00     0.167 HD
ATOM     59  C   UNL A   1      43.244  32.096  29.223  1.00  0.00     0.074 A 
ATOM     60  C   UNL A   1      42.410  33.017  29.966  1.00  0.00     0.031 C 
ATOM     61  C   UNL A   1      44.451  32.419  28.695  1.00  0.00     0.037 A 
BRANCH  48  62
ATOM     62  C   UNL A   1      47.281  27.753  25.788  1.00  0.00     0.064 A 
ATOM     63  C   UNL A   1      47.320  27.734  24.385  1.00  0.00     0.173 A 
ATOM     64  C   UNL A   1      48.408  27.296  26.484  1.00  0.00     0.173 A 
ATOM     65  F   UNL A   1      46.259  28.141  23.674  1.00  0.00    -0.203 F 
ATOM     66  C   UNL A   1      48.437  27.249  23.708  1.00  0.00     0.198 A 
ATOM     67  C   UNL A   1      49.534  26.838  25.804  1.00  0.00     0.198 A 
ATOM     68  F   UNL A   1      48.420  27.292  27.826  1.00  0.00    -0.203 F 
ATOM     69  F   UNL A   1      48.432  27.191  22.369  1.00  0.00    -0.200 F 
ATOM     70  C   UNL A   1      49.543  26.807  24.417  1.00  0.00     0.200 A 
ATOM     71  F   UNL A   1      50.606  26.419  26.489  1.00  0.00    -0.200 F 
ATOM     72  F   UNL A   1      50.617  26.342  23.764  1.00  0.00    -0.200 F 
ENDBRANCH  48  62
BRANCH  49  73
ATOM     73  C   UNL A   1      39.118  30.535  30.869  1.00  0.00     0.064 A 
ATOM     74  C   UNL A   1      39.077  30.364  32.260  1.00  0.00     0.173 A 
ATOM     75  C   UNL A   1      37.994  31.096  30.247  1.00  0.00     0.173 A 
ATOM     76  F   UNL A   1      40.119  29.808  32.896  1.00  0.00    -0.203 F 
ATOM     77  C   UNL A   1      37.950  30.720  32.996  1.00  0.00     0.198 A 
ATOM     78  C   UNL A   1      36.877  31.475  30.988  1.00  0.00     0.198 A 
ATOM     79  F   UNL A   1      37.983  31.281  28.919  1.00  0.00    -0.203 F 
ATOM     80  F   UNL A   1      37.919  30.503  34.318  1.00  0.00    -0.200 F 
ATOM     81  C   UNL A   1      36.852  31.281  32.361  1.00  0.00     0.200 A 
ATOM     82  F   UNL A   1      35.821  32.025  30.371  1.00  0.00    -0.200 F 
ATOM     83  F   UNL A   1      35.767  31.623  33.069  1.00  0.00    -0.200 F 
ENDBRANCH  49  73
BRANCH  61  84
ATOM     84  C   UNL A   1      44.920  33.834  28.865  1.00  0.00     0.064 A 
ATOM     85  C   UNL A   1      44.614  34.828  27.924  1.00  0.00     0.173 A 
ATOM     86  C   UNL A   1      45.643  34.207  30.007  1.00  0.00     0.173 A 
ATOM     87  F   UNL A   1      43.937  34.517  26.809  1.00  0.00    -0.203 F 
ATOM     88  C   UNL A   1      45.038  36.141  28.110  1.00  0.00     0.198 A 
ATOM     89  C   UNL A   1      46.040  35.527  30.203  1.00  0.00     0.198 A 
ATOM     90  F   UNL A   1      45.952  33.294  30.940  1.00  0.00    -0.203 F 
ATOM     91  F   UNL A   1      44.774  37.066  27.177  1.00  0.00    -0.200 F 
ATOM     92  C   UNL A   1      45.743  36.490  29.252  1.00  0.00     0.200 A 
ATOM     93  F   UNL A   1      46.711  35.865  31.314  1.00  0.00    -0.200 F 
ATOM     94  F   UNL A   1      46.143  37.757  29.432  1.00  0.00    -0.200 F 
ENDBRANCH  61  84
ENDBRANCH  35  36
ENDBRANCH  28  30
ENDBRANCH  27  28
ENDBRANCH  26  27
ENDBRANCH  25  26
ENDBRANCH  24  25
ENDBRANCH  23  24
ENDBRANCH   1  23
TORSDOF 19
ENDMDL
