MODEL 1
REMARK VINA RESULT:     -13.3      0.000      0.000
REMARK SMILES O=C(OCCOCCOC(=O)c1cc2c(c(S(=O)(=O)Nc3cc(C(F)(F)F)ccc3-n3cccn3)c1)CCC2)c1ccc(-c2c3nc(c(-c4c(F)c(F)c(F)c(F)c4F)c4ccc([nH]4)c(-c4c(F)c(F)c(F)c(F)c4F)c4nc(c(-c5c(F)c(F)c(F)c(F)c5F)c5ccc2[nH]5)C=C4)C=C3)cc1
REMARK SMILES IDX 7 1 6 2 5 3 4 4 3 5 2 6 1 7 40 8 41 9 102 10 42 11 101 12
REMARK SMILES IDX 43 13 44 14 45 15 95 16 46 17 100 18 94 19 96 20 47 21 99 22
REMARK SMILES IDX 93 23 92 24 48 26 80 27 60 28 79 29 61 30 64 31 78 32 97 33
REMARK SMILES IDX 62 34 63 35 77 37 98 38 65 39 49 40 50 41 58 42 51 43 52 44
REMARK SMILES IDX 56 45 59 46 53 47 54 48 57 49 55 50 81 51 82 52 90 53 83 54
REMARK SMILES IDX 84 55 88 56 91 57 85 58 86 59 89 60 87 61 66 62 67 63 75 64
REMARK SMILES IDX 68 65 69 66 73 67 76 68 70 69 71 70 74 71 72 72 8 73 9 74
REMARK SMILES IDX 10 75 11 76 12 77 13 78 36 79 14 80 16 81 15 82 39 83 37 84
REMARK SMILES IDX 38 85 17 86 18 87 19 88 20 89 21 91 22 92 30 93 23 94 29 95
REMARK SMILES IDX 28 96 31 97 32 98 35 99 33 100 34 101 24 102 25 103 26 104
REMARK SMILES IDX 27 105
REMARK H PARENT 96 25 64 36 20 90
REMARK Flexibility Score: inf
ROOT
ATOM      1  C   UNL A   1      35.360  29.277  27.616  1.00  0.00     0.202 C 
ENDROOT
BRANCH   1   2
ATOM      2  O   UNL A   1      35.926  30.438  28.222  1.00  0.00    -0.374 OA
BRANCH   2   3
ATOM      3  C   UNL A   1      35.893  30.457  29.651  1.00  0.00     0.202 C 
BRANCH   3   4
ATOM      4  C   UNL A   1      37.044  30.141  30.602  1.00  0.00     0.261 C 
BRANCH   4   5
ATOM      5  O   UNL A   1      37.459  28.774  30.586  1.00  0.00    -0.460 OA
BRANCH   5   6
ATOM      6  C   UNL A   1      38.536  28.282  29.932  1.00  0.00     0.338 C 
ATOM      7  O   UNL A   1      38.937  27.164  30.271  1.00  0.00    -0.246 OA
BRANCH   6   8
ATOM      8  C   UNL A   1      39.358  29.016  28.894  1.00  0.00     0.060 A 
ATOM      9  C   UNL A   1      39.168  29.406  27.595  1.00  0.00     0.016 A 
ATOM     10  C   UNL A   1      40.692  29.072  29.269  1.00  0.00     0.016 A 
ATOM     11  C   UNL A   1      40.296  28.970  26.712  1.00  0.00     0.010 A 
ATOM     12  C   UNL A   1      41.746  29.082  28.362  1.00  0.00     0.010 A 
ATOM     13  C   UNL A   1      41.616  28.216  27.299  1.00  0.00    -0.014 A 
BRANCH  13  14
ATOM     14  C   UNL A   1      43.351  27.586  26.915  1.00  0.00     0.031 A 
ATOM     15  C   UNL A   1      42.287  25.978  26.865  1.00  0.00     0.074 A 
ATOM     16  C   UNL A   1      45.017  28.172  26.665  1.00  0.00     0.049 A 
ATOM     17  N   UNL A   1      41.692  25.398  27.934  1.00  0.00    -0.248 NA
ATOM     18  C   UNL A   1      41.003  25.219  25.826  1.00  0.00     0.031 C 
ATOM     19  C   UNL A   1      46.213  29.520  26.259  1.00  0.00     0.029 A 
ATOM     20  N   UNL A   1      46.578  27.654  26.844  1.00  0.00    -0.354 N 
ATOM     21  C   UNL A   1      41.484  24.049  27.509  1.00  0.00     0.074 A 
ATOM     22  C   UNL A   1      40.806  23.961  26.294  1.00  0.00     0.031 C 
ATOM     23  C   UNL A   1      47.618  29.472  25.821  1.00  0.00     0.029 A 
ATOM     24  C   UNL A   1      47.830  28.039  25.988  1.00  0.00     0.049 A 
ATOM     25  H   UNL A   1      46.740  27.024  27.583  1.00  0.00     0.167 HD
ATOM     26  C   UNL A   1      42.528  23.222  27.644  1.00  0.00     0.037 A 
ATOM     27  C   UNL A   1      48.867  27.215  25.435  1.00  0.00     0.037 A 
ATOM     28  C   UNL A   1      43.414  23.842  28.552  1.00  0.00     0.049 A 
ATOM     29  C   UNL A   1      48.321  25.959  25.981  1.00  0.00     0.074 A 
ATOM     30  C   UNL A   1      43.159  24.409  29.785  1.00  0.00     0.029 A 
ATOM     31  N   UNL A   1      44.379  24.579  27.960  1.00  0.00    -0.354 N 
ATOM     32  N   UNL A   1      48.265  25.717  27.274  1.00  0.00    -0.248 NA
ATOM     33  C   UNL A   1      47.223  25.505  25.125  1.00  0.00     0.031 C 
ATOM     34  C   UNL A   1      44.083  25.446  29.961  1.00  0.00     0.029 A 
ATOM     35  C   UNL A   1      44.912  25.440  28.856  1.00  0.00     0.049 A 
ATOM     36  H   UNL A   1      44.653  24.502  27.018  1.00  0.00     0.167 HD
ATOM     37  C   UNL A   1      46.913  25.453  27.513  1.00  0.00     0.074 A 
ATOM     38  C   UNL A   1      46.335  25.232  26.088  1.00  0.00     0.031 C 
ATOM     39  C   UNL A   1      46.195  25.982  28.610  1.00  0.00     0.037 A 
BRANCH  26  40
ATOM     40  C   UNL A   1      42.899  22.116  26.745  1.00  0.00     0.064 A 
ATOM     41  C   UNL A   1      42.300  20.952  27.194  1.00  0.00     0.173 A 
ATOM     42  C   UNL A   1      43.795  22.043  25.650  1.00  0.00     0.173 A 
ATOM     43  F   UNL A   1      41.373  21.017  28.162  1.00  0.00    -0.203 F 
ATOM     44  C   UNL A   1      42.633  19.737  26.661  1.00  0.00     0.198 A 
ATOM     45  C   UNL A   1      44.046  20.818  25.042  1.00  0.00     0.198 A 
ATOM     46  F   UNL A   1      44.434  23.115  25.149  1.00  0.00    -0.203 F 
ATOM     47  F   UNL A   1      42.162  18.636  27.250  1.00  0.00    -0.200 F 
ATOM     48  C   UNL A   1      43.461  19.669  25.555  1.00  0.00     0.200 A 
ATOM     49  F   UNL A   1      44.873  20.738  23.988  1.00  0.00    -0.200 F 
ATOM     50  F   UNL A   1      43.675  18.486  24.972  1.00  0.00    -0.200 F 
ENDBRANCH  26  40
BRANCH  27  51
ATOM     51  C   UNL A   1      49.550  27.314  23.979  1.00  0.00     0.064 A 
ATOM     52  C   UNL A   1      50.902  27.088  23.554  1.00  0.00     0.173 A 
ATOM     53  C   UNL A   1      48.673  27.488  22.882  1.00  0.00     0.173 A 
ATOM     54  F   UNL A   1      51.882  26.877  24.445  1.00  0.00    -0.203 F 
ATOM     55  C   UNL A   1      51.294  27.049  22.170  1.00  0.00     0.198 A 
ATOM     56  C   UNL A   1      49.045  27.379  21.524  1.00  0.00     0.198 A 
ATOM     57  F   UNL A   1      47.379  27.718  23.123  1.00  0.00    -0.203 F 
ATOM     58  F   UNL A   1      52.587  26.931  21.815  1.00  0.00    -0.200 F 
ATOM     59  C   UNL A   1      50.349  27.127  21.164  1.00  0.00     0.200 A 
ATOM     60  F   UNL A   1      48.107  27.498  20.570  1.00  0.00    -0.200 F 
ATOM     61  F   UNL A   1      50.677  26.931  19.875  1.00  0.00    -0.200 F 
ENDBRANCH  27  51
BRANCH  39  62
ATOM     62  C   UNL A   1      46.723  26.919  29.749  1.00  0.00     0.064 A 
ATOM     63  C   UNL A   1      46.310  28.217  30.200  1.00  0.00     0.173 A 
ATOM     64  C   UNL A   1      47.712  26.343  30.528  1.00  0.00     0.173 A 
ATOM     65  F   UNL A   1      45.179  28.806  29.800  1.00  0.00    -0.203 F 
ATOM     66  C   UNL A   1      47.063  28.980  31.096  1.00  0.00     0.198 A 
ATOM     67  C   UNL A   1      48.368  27.046  31.533  1.00  0.00     0.198 A 
ATOM     68  F   UNL A   1      48.013  25.051  30.347  1.00  0.00    -0.203 F 
ATOM     69  F   UNL A   1      46.840  30.300  31.227  1.00  0.00    -0.200 F 
ATOM     70  C   UNL A   1      48.079  28.376  31.790  1.00  0.00     0.200 A 
ATOM     71  F   UNL A   1      49.334  26.428  32.220  1.00  0.00    -0.200 F 
ATOM     72  F   UNL A   1      48.760  29.056  32.721  1.00  0.00    -0.200 F 
ENDBRANCH  39  62
ENDBRANCH  13  14
ENDBRANCH   6   8
ENDBRANCH   5   6
ENDBRANCH   4   5
ENDBRANCH   3   4
ENDBRANCH   2   3
ENDBRANCH   1   2
BRANCH   1  73
ATOM     73  C   UNL A   1      33.888  29.035  27.394  1.00  0.00     0.261 C 
BRANCH  73  74
ATOM     74  O   UNL A   1      33.660  27.906  26.548  1.00  0.00    -0.460 OA
BRANCH  74  75
ATOM     75  C   UNL A   1      32.719  28.050  25.560  1.00  0.00     0.338 C 
ATOM     76  O   UNL A   1      32.394  29.061  24.974  1.00  0.00    -0.246 OA
BRANCH  75  77
ATOM     77  C   UNL A   1      32.325  26.664  25.187  1.00  0.00     0.061 A 
ATOM     78  C   UNL A   1      32.513  26.610  23.831  1.00  0.00     0.019 A 
ATOM     79  C   UNL A   1      31.895  25.517  26.003  1.00  0.00     0.038 A 
ATOM     80  C   UNL A   1      32.270  25.442  23.246  1.00  0.00    -0.043 A 
ATOM     81  C   UNL A   1      31.619  24.287  25.384  1.00  0.00     0.092 A 
ATOM     82  C   UNL A   1      31.783  24.348  23.988  1.00  0.00    -0.024 A 
ATOM     83  C   UNL A   1      32.834  25.132  21.902  1.00  0.00     0.036 C 
ATOM     84  C   UNL A   1      32.008  23.246  23.070  1.00  0.00     0.037 C 
ATOM     85  C   UNL A   1      33.131  23.709  22.138  1.00  0.00     0.010 C 
BRANCH  81  86
ATOM     86  S   UNL A   1      31.445  22.704  26.415  1.00  0.00     0.262 S 
ATOM     87  O   UNL A   1      31.699  23.009  27.811  1.00  0.00    -0.201 OA
ATOM     88  O   UNL A   1      30.114  22.203  26.121  1.00  0.00    -0.201 OA
BRANCH  86  89
ATOM     89  N   UNL A   1      32.516  21.396  26.042  1.00  0.00    -0.277 N 
ATOM     90  H   UNL A   1      32.160  20.510  26.279  1.00  0.00     0.180 HD
BRANCH  89  91
ATOM     91  C   UNL A   1      33.845  21.355  25.443  1.00  0.00     0.075 A 
ATOM     92  C   UNL A   1      34.639  22.526  25.781  1.00  0.00     0.042 A 
ATOM     93  C   UNL A   1      34.520  20.166  24.938  1.00  0.00     0.089 A 
ATOM     94  C   UNL A   1      36.049  22.527  25.665  1.00  0.00     0.058 A 
ATOM     95  C   UNL A   1      35.940  20.219  24.829  1.00  0.00     0.031 A 
ATOM     96  C   UNL A   1      36.677  21.348  25.260  1.00  0.00     0.015 A 
BRANCH  93  97
ATOM     97  N   UNL A   1      33.874  18.846  25.022  1.00  0.00    -0.239 N 
ATOM     98  C   UNL A   1      34.391  17.703  24.483  1.00  0.00     0.115 A 
ATOM     99  N   UNL A   1      32.573  18.598  25.430  1.00  0.00    -0.177 NA
ATOM    100  C   UNL A   1      33.410  16.742  24.437  1.00  0.00     0.042 A 
ATOM    101  C   UNL A   1      32.275  17.376  24.946  1.00  0.00     0.135 A 
ENDBRANCH  93  97
BRANCH  94 102
ATOM    102  C   UNL A   1      36.914  23.764  25.783  1.00  0.00     0.416 C 
ATOM    103  F   UNL A   1      36.109  24.860  25.847  1.00  0.00    -0.166 F 
ATOM    104  F   UNL A   1      37.743  23.829  26.856  1.00  0.00    -0.166 F 
ATOM    105  F   UNL A   1      37.709  23.964  24.689  1.00  0.00    -0.166 F 
ENDBRANCH  94 102
ENDBRANCH  89  91
ENDBRANCH  86  89
ENDBRANCH  81  86
ENDBRANCH  75  77
ENDBRANCH  74  75
ENDBRANCH  73  74
ENDBRANCH   1  73
TORSDOF 19
ENDMDL
MODEL 2
REMARK VINA RESULT:     -13.1      6.500     12.458
REMARK SMILES O=C(OCCOCCOC(=O)c1cc2c(c(S(=O)(=O)Nc3cc(C(F)(F)F)ccc3-n3cccn3)c1)CCC2)c1ccc(-c2c3nc(c(-c4c(F)c(F)c(F)c(F)c4F)c4ccc([nH]4)c(-c4c(F)c(F)c(F)c(F)c4F)c4nc(c(-c5c(F)c(F)c(F)c(F)c5F)c5ccc2[nH]5)C=C4)C=C3)cc1
REMARK SMILES IDX 7 1 6 2 5 3 4 4 3 5 2 6 1 7 40 8 41 9 102 10 42 11 101 12
REMARK SMILES IDX 43 13 44 14 45 15 95 16 46 17 100 18 94 19 96 20 47 21 99 22
REMARK SMILES IDX 93 23 92 24 48 26 80 27 60 28 79 29 61 30 64 31 78 32 97 33
REMARK SMILES IDX 62 34 63 35 77 37 98 38 65 39 49 40 50 41 58 42 51 43 52 44
REMARK SMILES IDX 56 45 59 46 53 47 54 48 57 49 55 50 81 51 82 52 90 53 83 54
REMARK SMILES IDX 84 55 88 56 91 57 85 58 86 59 89 60 87 61 66 62 67 63 75 64
REMARK SMILES IDX 68 65 69 66 73 67 76 68 70 69 71 70 74 71 72 72 8 73 9 74
REMARK SMILES IDX 10 75 11 76 12 77 13 78 36 79 14 80 16 81 15 82 39 83 37 84
REMARK SMILES IDX 38 85 17 86 18 87 19 88 20 89 21 91 22 92 30 93 23 94 29 95
REMARK SMILES IDX 28 96 31 97 32 98 35 99 33 100 34 101 24 102 25 103 26 104
REMARK SMILES IDX 27 105
REMARK H PARENT 96 25 64 36 20 90
REMARK Flexibility Score: inf
ROOT
ATOM      1  C   UNL A   1      38.322  24.385  26.503  1.00  0.00     0.202 C 
ENDROOT
BRANCH   1   2
ATOM      2  O   UNL A   1      39.708  24.418  26.843  1.00  0.00    -0.374 OA
BRANCH   2   3
ATOM      3  C   UNL A   1      40.536  25.167  25.952  1.00  0.00     0.202 C 
BRANCH   3   4
ATOM      4  C   UNL A   1      41.573  26.223  26.326  1.00  0.00     0.261 C 
BRANCH   4   5
ATOM      5  O   UNL A   1      41.080  27.564  26.293  1.00  0.00    -0.460 OA
BRANCH   5   6
ATOM      6  C   UNL A   1      40.268  28.130  27.216  1.00  0.00     0.338 C 
ATOM      7  O   UNL A   1      39.662  29.153  26.878  1.00  0.00    -0.246 OA
BRANCH   6   8
ATOM      8  C   UNL A   1      40.111  27.687  28.654  1.00  0.00     0.060 A 
ATOM      9  C   UNL A   1      39.278  26.835  29.328  1.00  0.00     0.016 A 
ATOM     10  C   UNL A   1      40.800  28.533  29.510  1.00  0.00     0.016 A 
ATOM     11  C   UNL A   1      38.656  27.492  30.522  1.00  0.00     0.010 A 
ATOM     12  C   UNL A   1      40.393  28.808  30.812  1.00  0.00     0.010 A 
ATOM     13  C   UNL A   1      39.041  29.008  30.977  1.00  0.00    -0.014 A 
BRANCH  13  14
ATOM     14  C   UNL A   1      38.861  30.328  32.310  1.00  0.00     0.031 A 
ATOM     15  C   UNL A   1      37.553  30.861  30.996  1.00  0.00     0.074 A 
ATOM     16  C   UNL A   1      39.496  30.776  33.916  1.00  0.00     0.049 A 
ATOM     17  N   UNL A   1      37.832  31.333  29.758  1.00  0.00    -0.248 NA
ATOM     18  C   UNL A   1      35.960  30.283  30.340  1.00  0.00     0.031 C 
ATOM     19  C   UNL A   1      40.344  30.339  35.498  1.00  0.00     0.029 A 
ATOM     20  N   UNL A   1      39.754  32.123  34.841  1.00  0.00    -0.354 N 
ATOM     21  C   UNL A   1      36.642  32.035  29.392  1.00  0.00     0.074 A 
ATOM     22  C   UNL A   1      35.493  31.255  29.517  1.00  0.00     0.031 C 
ATOM     23  C   UNL A   1      40.382  31.027  36.800  1.00  0.00     0.029 A 
ATOM     24  C   UNL A   1      39.700  32.252  36.400  1.00  0.00     0.049 A 
ATOM     25  H   UNL A   1      39.970  32.947  34.350  1.00  0.00     0.167 HD
ATOM     26  C   UNL A   1      36.535  33.290  29.844  1.00  0.00     0.037 A 
ATOM     27  C   UNL A   1      39.081  33.246  37.229  1.00  0.00     0.037 A 
ATOM     28  C   UNL A   1      37.836  33.689  30.223  1.00  0.00     0.049 A 
ATOM     29  C   UNL A   1      38.575  34.044  36.097  1.00  0.00     0.074 A 
ATOM     30  C   UNL A   1      39.026  33.587  29.531  1.00  0.00     0.029 A 
ATOM     31  N   UNL A   1      38.111  33.494  31.532  1.00  0.00    -0.354 N 
ATOM     32  N   UNL A   1      39.377  34.666  35.259  1.00  0.00    -0.248 NA
ATOM     33  C   UNL A   1      37.355  33.420  35.582  1.00  0.00     0.031 C 
ATOM     34  C   UNL A   1      40.044  33.435  30.481  1.00  0.00     0.029 A 
ATOM     35  C   UNL A   1      39.449  33.510  31.725  1.00  0.00     0.049 A 
ATOM     36  H   UNL A   1      37.439  33.360  32.237  1.00  0.00     0.167 HD
ATOM     37  C   UNL A   1      39.017  34.163  34.005  1.00  0.00     0.074 A 
ATOM     38  C   UNL A   1      37.659  33.460  34.279  1.00  0.00     0.031 C 
ATOM     39  C   UNL A   1      39.953  33.769  33.021  1.00  0.00     0.037 A 
BRANCH  26  40
ATOM     40  C   UNL A   1      35.301  33.975  30.263  1.00  0.00     0.064 A 
ATOM     41  C   UNL A   1      34.824  34.727  29.205  1.00  0.00     0.173 A 
ATOM     42  C   UNL A   1      34.646  34.067  31.516  1.00  0.00     0.173 A 
ATOM     43  F   UNL A   1      35.368  34.576  27.988  1.00  0.00    -0.203 F 
ATOM     44  C   UNL A   1      33.800  35.618  29.378  1.00  0.00     0.198 A 
ATOM     45  C   UNL A   1      33.537  34.894  31.657  1.00  0.00     0.198 A 
ATOM     46  F   UNL A   1      35.040  33.386  32.606  1.00  0.00    -0.203 F 
ATOM     47  F   UNL A   1      33.502  36.444  28.373  1.00  0.00    -0.200 F 
ATOM     48  C   UNL A   1      33.121  35.667  30.583  1.00  0.00     0.200 A 
ATOM     49  F   UNL A   1      32.890  34.972  32.831  1.00  0.00    -0.200 F 
ATOM     50  F   UNL A   1      32.046  36.453  30.694  1.00  0.00    -0.200 F 
ENDBRANCH  26  40
BRANCH  27  51
ATOM     51  C   UNL A   1      38.246  33.031  38.590  1.00  0.00     0.064 A 
ATOM     52  C   UNL A   1      37.400  31.953  39.018  1.00  0.00     0.173 A 
ATOM     53  C   UNL A   1      38.491  33.956  39.632  1.00  0.00     0.173 A 
ATOM     54  F   UNL A   1      37.069  30.958  38.181  1.00  0.00    -0.203 F 
ATOM     55  C   UNL A   1      36.875  31.850  40.353  1.00  0.00     0.198 A 
ATOM     56  C   UNL A   1      38.034  33.818  40.962  1.00  0.00     0.198 A 
ATOM     57  F   UNL A   1      39.257  35.022  39.381  1.00  0.00    -0.203 F 
ATOM     58  F   UNL A   1      36.008  30.876  40.688  1.00  0.00    -0.200 F 
ATOM     59  C   UNL A   1      37.252  32.748  41.335  1.00  0.00     0.200 A 
ATOM     60  F   UNL A   1      38.388  34.729  41.881  1.00  0.00    -0.200 F 
ATOM     61  F   UNL A   1      36.901  32.573  42.621  1.00  0.00    -0.200 F 
ENDBRANCH  27  51
BRANCH  39  62
ATOM     62  C   UNL A   1      41.517  33.816  33.101  1.00  0.00     0.064 A 
ATOM     63  C   UNL A   1      42.526  32.826  32.862  1.00  0.00     0.173 A 
ATOM     64  C   UNL A   1      42.021  35.080  33.360  1.00  0.00     0.173 A 
ATOM     65  F   UNL A   1      42.271  31.643  32.294  1.00  0.00    -0.203 F 
ATOM     66  C   UNL A   1      43.867  33.014  33.207  1.00  0.00     0.198 A 
ATOM     67  C   UNL A   1      43.379  35.310  33.555  1.00  0.00     0.198 A 
ATOM     68  F   UNL A   1      41.185  36.125  33.371  1.00  0.00    -0.203 F 
ATOM     69  F   UNL A   1      44.705  31.965  33.293  1.00  0.00    -0.200 F 
ATOM     70  C   UNL A   1      44.299  34.275  33.525  1.00  0.00     0.200 A 
ATOM     71  F   UNL A   1      43.783  36.554  33.831  1.00  0.00    -0.200 F 
ATOM     72  F   UNL A   1      45.595  34.504  33.772  1.00  0.00    -0.200 F 
ENDBRANCH  39  62
ENDBRANCH  13  14
ENDBRANCH   6   8
ENDBRANCH   5   6
ENDBRANCH   4   5
ENDBRANCH   3   4
ENDBRANCH   2   3
ENDBRANCH   1   2
BRANCH   1  73
ATOM     73  C   UNL A   1      37.620  23.247  25.808  1.00  0.00     0.261 C 
BRANCH  73  74
ATOM     74  O   UNL A   1      36.361  23.655  25.266  1.00  0.00    -0.460 OA
BRANCH  74  75
ATOM     75  C   UNL A   1      35.600  22.685  24.663  1.00  0.00     0.338 C 
ATOM     76  O   UNL A   1      35.796  21.489  24.630  1.00  0.00    -0.246 OA
BRANCH  75  77
ATOM     77  C   UNL A   1      34.352  23.374  24.237  1.00  0.00     0.061 A 
ATOM     78  C   UNL A   1      33.416  22.981  25.158  1.00  0.00     0.019 A 
ATOM     79  C   UNL A   1      34.085  24.331  23.151  1.00  0.00     0.038 A 
ATOM     80  C   UNL A   1      32.200  23.502  25.025  1.00  0.00    -0.043 A 
ATOM     81  C   UNL A   1      32.796  24.869  22.997  1.00  0.00     0.092 A 
ATOM     82  C   UNL A   1      31.894  24.361  23.950  1.00  0.00    -0.024 A 
ATOM     83  C   UNL A   1      31.246  23.505  26.169  1.00  0.00     0.036 C 
ATOM     84  C   UNL A   1      30.642  24.948  24.392  1.00  0.00     0.037 C 
ATOM     85  C   UNL A   1      30.644  24.826  25.917  1.00  0.00     0.010 C 
BRANCH  81  86
ATOM     86  S   UNL A   1      32.503  26.373  21.880  1.00  0.00     0.262 S 
ATOM     87  O   UNL A   1      33.774  27.009  21.587  1.00  0.00    -0.201 OA
ATOM     88  O   UNL A   1      31.786  25.856  20.728  1.00  0.00    -0.201 OA
BRANCH  86  89
ATOM     89  N   UNL A   1      31.504  27.640  22.507  1.00  0.00    -0.277 N 
ATOM     90  H   UNL A   1      30.829  27.967  21.870  1.00  0.00     0.180 HD
BRANCH  89  91
ATOM     91  C   UNL A   1      31.469  28.316  23.799  1.00  0.00     0.075 A 
ATOM     92  C   UNL A   1      32.664  28.061  24.587  1.00  0.00     0.042 A 
ATOM     93  C   UNL A   1      30.618  29.445  24.152  1.00  0.00     0.089 A 
ATOM     94  C   UNL A   1      33.039  28.902  25.662  1.00  0.00     0.058 A 
ATOM     95  C   UNL A   1      31.031  30.256  25.248  1.00  0.00     0.031 A 
ATOM     96  C   UNL A   1      32.253  30.024  25.925  1.00  0.00     0.015 A 
BRANCH  93  97
ATOM     97  N   UNL A   1      29.696  30.025  23.162  1.00  0.00    -0.239 N 
ATOM     98  C   UNL A   1      28.933  31.136  23.383  1.00  0.00     0.115 A 
ATOM     99  N   UNL A   1      29.283  29.428  21.981  1.00  0.00    -0.177 NA
ATOM    100  C   UNL A   1      27.957  31.212  22.418  1.00  0.00     0.042 A 
ATOM    101  C   UNL A   1      28.157  30.077  21.629  1.00  0.00     0.135 A 
ENDBRANCH  93  97
BRANCH  94 102
ATOM    102  C   UNL A   1      34.134  28.577  26.657  1.00  0.00     0.416 C 
ATOM    103  F   UNL A   1      33.638  28.709  27.917  1.00  0.00    -0.166 F 
ATOM    104  F   UNL A   1      34.677  27.335  26.581  1.00  0.00    -0.166 F 
ATOM    105  F   UNL A   1      35.188  29.446  26.590  1.00  0.00    -0.166 F 
ENDBRANCH  94 102
ENDBRANCH  89  91
ENDBRANCH  86  89
ENDBRANCH  81  86
ENDBRANCH  75  77
ENDBRANCH  74  75
ENDBRANCH  73  74
ENDBRANCH   1  73
TORSDOF 19
ENDMDL
MODEL 3
REMARK VINA RESULT:     -12.4      6.611     12.378
REMARK SMILES O=C(OCCOCCOC(=O)c1cc2c(c(S(=O)(=O)Nc3cc(C(F)(F)F)ccc3-n3cccn3)c1)CCC2)c1ccc(-c2c3nc(c(-c4c(F)c(F)c(F)c(F)c4F)c4ccc([nH]4)c(-c4c(F)c(F)c(F)c(F)c4F)c4nc(c(-c5c(F)c(F)c(F)c(F)c5F)c5ccc2[nH]5)C=C4)C=C3)cc1
REMARK SMILES IDX 7 1 6 2 5 3 4 4 3 5 2 6 1 7 40 8 41 9 102 10 42 11 101 12
REMARK SMILES IDX 43 13 44 14 45 15 95 16 46 17 100 18 94 19 96 20 47 21 99 22
REMARK SMILES IDX 93 23 92 24 48 26 80 27 60 28 79 29 61 30 64 31 78 32 97 33
REMARK SMILES IDX 62 34 63 35 77 37 98 38 65 39 49 40 50 41 58 42 51 43 52 44
REMARK SMILES IDX 56 45 59 46 53 47 54 48 57 49 55 50 81 51 82 52 90 53 83 54
REMARK SMILES IDX 84 55 88 56 91 57 85 58 86 59 89 60 87 61 66 62 67 63 75 64
REMARK SMILES IDX 68 65 69 66 73 67 76 68 70 69 71 70 74 71 72 72 8 73 9 74
REMARK SMILES IDX 10 75 11 76 12 77 13 78 36 79 14 80 16 81 15 82 39 83 37 84
REMARK SMILES IDX 38 85 17 86 18 87 19 88 20 89 21 91 22 92 30 93 23 94 29 95
REMARK SMILES IDX 28 96 31 97 32 98 35 99 33 100 34 101 24 102 25 103 26 104
REMARK SMILES IDX 27 105
REMARK H PARENT 96 25 64 36 20 90
REMARK Flexibility Score: inf
ROOT
ATOM      1  C   UNL A   1      39.981  23.342  26.917  1.00  0.00     0.202 C 
ENDROOT
BRANCH   1   2
ATOM      2  O   UNL A   1      41.303  23.466  26.394  1.00  0.00    -0.374 OA
BRANCH   2   3
ATOM      3  C   UNL A   1      41.738  24.804  26.145  1.00  0.00     0.202 C 
BRANCH   3   4
ATOM      4  C   UNL A   1      40.865  26.052  26.045  1.00  0.00     0.261 C 
BRANCH   4   5
ATOM      5  O   UNL A   1      41.382  27.184  26.748  1.00  0.00    -0.460 OA
BRANCH   5   6
ATOM      6  C   UNL A   1      40.680  27.982  27.587  1.00  0.00     0.338 C 
ATOM      7  O   UNL A   1      40.353  29.094  27.161  1.00  0.00    -0.246 OA
BRANCH   6   8
ATOM      8  C   UNL A   1      40.347  27.678  29.031  1.00  0.00     0.060 A 
ATOM      9  C   UNL A   1      39.366  26.978  29.681  1.00  0.00     0.016 A 
ATOM     10  C   UNL A   1      41.047  28.516  29.886  1.00  0.00     0.016 A 
ATOM     11  C   UNL A   1      38.718  27.793  30.757  1.00  0.00     0.010 A 
ATOM     12  C   UNL A   1      40.560  28.939  31.119  1.00  0.00     0.010 A 
ATOM     13  C   UNL A   1      39.230  29.293  31.136  1.00  0.00    -0.014 A 
BRANCH  13  14
ATOM     14  C   UNL A   1      39.081  30.731  32.346  1.00  0.00     0.031 A 
ATOM     15  C   UNL A   1      37.663  31.078  31.086  1.00  0.00     0.074 A 
ATOM     16  C   UNL A   1      39.805  31.360  33.850  1.00  0.00     0.049 A 
ATOM     17  N   UNL A   1      37.833  31.436  29.792  1.00  0.00    -0.248 NA
ATOM     18  C   UNL A   1      36.056  30.375  30.608  1.00  0.00     0.031 C 
ATOM     19  C   UNL A   1      40.780  31.117  35.400  1.00  0.00     0.029 A 
ATOM     20  N   UNL A   1      40.064  32.802  34.620  1.00  0.00    -0.354 N 
ATOM     21  C   UNL A   1      36.589  32.050  29.448  1.00  0.00     0.074 A 
ATOM     22  C   UNL A   1      35.489  31.242  29.732  1.00  0.00     0.031 C 
ATOM     23  C   UNL A   1      40.876  31.931  36.624  1.00  0.00     0.029 A 
ATOM     24  C   UNL A   1      40.113  33.082  36.159  1.00  0.00     0.049 A 
ATOM     25  H   UNL A   1      40.207  33.581  34.037  1.00  0.00     0.167 HD
ATOM     26  C   UNL A   1      36.455  33.339  29.784  1.00  0.00     0.037 A 
ATOM     27  C   UNL A   1      39.506  34.129  36.931  1.00  0.00     0.037 A 
ATOM     28  C   UNL A   1      37.760  33.825  30.026  1.00  0.00     0.049 A 
ATOM     29  C   UNL A   1      38.887  34.790  35.768  1.00  0.00     0.074 A 
ATOM     30  C   UNL A   1      38.902  33.701  29.262  1.00  0.00     0.029 A 
ATOM     31  N   UNL A   1      38.133  33.771  31.324  1.00  0.00    -0.354 N 
ATOM     32  N   UNL A   1      39.599  35.357  34.817  1.00  0.00    -0.248 NA
ATOM     33  C   UNL A   1      37.664  34.070  35.407  1.00  0.00     0.031 C 
ATOM     34  C   UNL A   1      39.990  33.684  30.144  1.00  0.00     0.029 A 
ATOM     35  C   UNL A   1      39.479  33.859  31.415  1.00  0.00     0.049 A 
ATOM     36  H   UNL A   1      37.518  33.682  32.086  1.00  0.00     0.167 HD
ATOM     37  C   UNL A   1      39.177  34.717  33.647  1.00  0.00     0.074 A 
ATOM     38  C   UNL A   1      37.875  33.993  34.087  1.00  0.00     0.031 C 
ATOM     39  C   UNL A   1      40.059  34.265  32.640  1.00  0.00     0.037 A 
BRANCH  26  40
ATOM     40  C   UNL A   1      35.223  34.013  30.225  1.00  0.00     0.064 A 
ATOM     41  C   UNL A   1      34.699  34.729  29.164  1.00  0.00     0.173 A 
ATOM     42  C   UNL A   1      34.606  34.126  31.496  1.00  0.00     0.173 A 
ATOM     43  F   UNL A   1      35.207  34.555  27.935  1.00  0.00    -0.203 F 
ATOM     44  C   UNL A   1      33.665  35.606  29.347  1.00  0.00     0.198 A 
ATOM     45  C   UNL A   1      33.487  34.937  31.651  1.00  0.00     0.198 A 
ATOM     46  F   UNL A   1      35.047  33.480  32.589  1.00  0.00    -0.203 F 
ATOM     47  F   UNL A   1      33.319  36.400  28.332  1.00  0.00    -0.200 F 
ATOM     48  C   UNL A   1      33.024  35.675  30.571  1.00  0.00     0.200 A 
ATOM     49  F   UNL A   1      32.877  35.034  32.842  1.00  0.00    -0.200 F 
ATOM     50  F   UNL A   1      31.938  36.444  30.697  1.00  0.00    -0.200 F 
ENDBRANCH  26  40
BRANCH  27  51
ATOM     51  C   UNL A   1      38.779  34.017  38.365  1.00  0.00     0.064 A 
ATOM     52  C   UNL A   1      38.021  32.953  38.958  1.00  0.00     0.173 A 
ATOM     53  C   UNL A   1      39.047  35.054  39.289  1.00  0.00     0.173 A 
ATOM     54  F   UNL A   1      37.686  31.863  38.250  1.00  0.00    -0.203 F 
ATOM     55  C   UNL A   1      37.595  32.963  40.332  1.00  0.00     0.198 A 
ATOM     56  C   UNL A   1      38.689  35.033  40.656  1.00  0.00     0.198 A 
ATOM     57  F   UNL A   1      39.737  36.122  38.878  1.00  0.00    -0.203 F 
ATOM     58  F   UNL A   1      36.804  31.991  40.824  1.00  0.00    -0.200 F 
ATOM     59  C   UNL A   1      37.991  33.973  41.189  1.00  0.00     0.200 A 
ATOM     60  F   UNL A   1      39.058  36.049  41.452  1.00  0.00    -0.200 F 
ATOM     61  F   UNL A   1      37.738  33.915  42.509  1.00  0.00    -0.200 F 
ENDBRANCH  27  51
BRANCH  39  62
ATOM     62  C   UNL A   1      41.621  34.382  32.600  1.00  0.00     0.064 A 
ATOM     63  C   UNL A   1      42.524  35.411  33.029  1.00  0.00     0.173 A 
ATOM     64  C   UNL A   1      42.252  33.233  32.154  1.00  0.00     0.173 A 
ATOM     65  F   UNL A   1      42.145  36.454  33.774  1.00  0.00    -0.203 F 
ATOM     66  C   UNL A   1      43.881  35.412  32.697  1.00  0.00     0.198 A 
ATOM     67  C   UNL A   1      43.628  33.168  31.965  1.00  0.00     0.198 A 
ATOM     68  F   UNL A   1      41.523  32.129  31.947  1.00  0.00    -0.203 F 
ATOM     69  F   UNL A   1      44.612  36.535  32.809  1.00  0.00    -0.200 F 
ATOM     70  C   UNL A   1      44.440  34.267  32.191  1.00  0.00     0.200 A 
ATOM     71  F   UNL A   1      44.158  32.032  31.502  1.00  0.00    -0.200 F 
ATOM     72  F   UNL A   1      45.756  34.207  31.949  1.00  0.00    -0.200 F 
ENDBRANCH  39  62
ENDBRANCH  13  14
ENDBRANCH   6   8
ENDBRANCH   5   6
ENDBRANCH   4   5
ENDBRANCH   3   4
ENDBRANCH   2   3
ENDBRANCH   1   2
BRANCH   1  73
ATOM     73  C   UNL A   1      38.812  22.716  26.201  1.00  0.00     0.261 C 
BRANCH  73  74
ATOM     74  O   UNL A   1      37.836  23.691  25.828  1.00  0.00    -0.460 OA
BRANCH  74  75
ATOM     75  C   UNL A   1      37.020  23.382  24.769  1.00  0.00     0.338 C 
ATOM     76  O   UNL A   1      37.292  22.747  23.772  1.00  0.00    -0.246 OA
BRANCH  75  77
ATOM     77  C   UNL A   1      35.654  23.798  25.190  1.00  0.00     0.061 A 
ATOM     78  C   UNL A   1      35.078  22.646  25.657  1.00  0.00     0.019 A 
ATOM     79  C   UNL A   1      34.998  25.115  25.216  1.00  0.00     0.038 A 
ATOM     80  C   UNL A   1      33.846  22.756  26.144  1.00  0.00    -0.043 A 
ATOM     81  C   UNL A   1      33.689  25.230  25.712  1.00  0.00     0.092 A 
ATOM     82  C   UNL A   1      33.163  23.988  26.112  1.00  0.00    -0.024 A 
ATOM     83  C   UNL A   1      33.291  21.714  27.052  1.00  0.00     0.036 C 
ATOM     84  C   UNL A   1      32.067  23.740  27.031  1.00  0.00     0.037 C 
ATOM     85  C   UNL A   1      32.547  22.614  27.950  1.00  0.00     0.010 C 
BRANCH  81  86
ATOM     86  S   UNL A   1      32.958  26.932  26.124  1.00  0.00     0.262 S 
ATOM     87  O   UNL A   1      31.839  26.767  27.032  1.00  0.00    -0.201 OA
ATOM     88  O   UNL A   1      34.070  27.708  26.643  1.00  0.00    -0.201 OA
BRANCH  86  89
ATOM     89  N   UNL A   1      32.329  27.861  24.806  1.00  0.00    -0.277 N 
ATOM     90  H   UNL A   1      33.023  28.296  24.259  1.00  0.00     0.180 HD
BRANCH  89  91
ATOM     91  C   UNL A   1      30.970  28.124  24.349  1.00  0.00     0.075 A 
ATOM     92  C   UNL A   1      30.650  29.543  24.354  1.00  0.00     0.042 A 
ATOM     93  C   UNL A   1      30.138  27.217  23.569  1.00  0.00     0.089 A 
ATOM     94  C   UNL A   1      29.577  30.067  23.595  1.00  0.00     0.058 A 
ATOM     95  C   UNL A   1      29.063  27.790  22.829  1.00  0.00     0.031 A 
ATOM     96  C   UNL A   1      28.851  29.189  22.791  1.00  0.00     0.015 A 
BRANCH  93  97
ATOM     97  N   UNL A   1      30.654  25.903  23.149  1.00  0.00    -0.239 N 
ATOM     98  C   UNL A   1      30.224  24.712  23.659  1.00  0.00     0.115 A 
ATOM     99  N   UNL A   1      31.783  25.677  22.378  1.00  0.00    -0.177 NA
ATOM    100  C   UNL A   1      31.119  23.726  23.318  1.00  0.00     0.042 A 
ATOM    101  C   UNL A   1      32.118  24.393  22.606  1.00  0.00     0.135 A 
ENDBRANCH  93  97
BRANCH  94 102
ATOM    102  C   UNL A   1      29.052  31.481  23.724  1.00  0.00     0.416 C 
ATOM    103  F   UNL A   1      27.722  31.434  24.007  1.00  0.00    -0.166 F 
ATOM    104  F   UNL A   1      29.625  32.259  24.678  1.00  0.00    -0.166 F 
ATOM    105  F   UNL A   1      29.149  32.193  22.560  1.00  0.00    -0.166 F 
ENDBRANCH  94 102
ENDBRANCH  89  91
ENDBRANCH  86  89
ENDBRANCH  81  86
ENDBRANCH  75  77
ENDBRANCH  74  75
ENDBRANCH  73  74
ENDBRANCH   1  73
TORSDOF 19
ENDMDL
