MODEL 1
REMARK VINA RESULT:     -11.3      0.000      0.000
REMARK SMILES O=C(OCCOCCOC(=O)[C@H]1CCCCN1S(=O)(=O)c1cc[nH]c1)c1ccc(-c2c3nc(c(-c4c(F)c(F)c(F)c(F)c4F)c4ccc([nH]4)c(-c4c(F)c(F)c(F)c(F)c4F)c4nc(c(-c5c(F)c(F)c(F)c(F)c5F)c5ccc2[nH]5)C=C4)C=C3)cc1
REMARK SMILES IDX 6 1 5 2 4 3 3 4 2 5 1 6 26 7 27 8 88 9 28 10 87 11 29 12
REMARK SMILES IDX 30 13 31 14 81 15 32 16 86 17 80 18 82 19 33 20 85 21 79 22
REMARK SMILES IDX 78 23 34 25 66 26 46 27 65 28 47 29 50 30 64 31 83 32 48 33
REMARK SMILES IDX 49 34 63 36 84 37 51 38 35 39 36 40 44 41 37 42 38 43 42 44
REMARK SMILES IDX 45 45 39 46 40 47 43 48 41 49 67 50 68 51 76 52 69 53 70 54
REMARK SMILES IDX 74 55 77 56 71 57 72 58 75 59 73 60 52 61 53 62 61 63 54 64
REMARK SMILES IDX 55 65 59 66 62 67 56 68 57 69 60 70 58 71 7 72 8 73 9 74
REMARK SMILES IDX 10 75 11 76 12 77 13 78 17 79 14 80 16 81 15 82 18 83 19 84
REMARK SMILES IDX 20 85 21 86 22 87 25 88 23 89 24 90
REMARK H PARENT 82 24 50 35 24 91
REMARK Flexibility Score: inf
ROOT
ATOM      1  O   UNL A   1      31.965  29.550  26.004  1.00  0.00    -0.374 OA
ENDROOT
BRANCH   1   2
ATOM      2  C   UNL A   1      32.971  30.087  26.854  1.00  0.00     0.202 C 
BRANCH   2   3
ATOM      3  C   UNL A   1      34.358  29.423  26.837  1.00  0.00     0.261 C 
BRANCH   3   4
ATOM      4  O   UNL A   1      35.204  29.763  27.942  1.00  0.00    -0.460 OA
BRANCH   4   5
ATOM      5  C   UNL A   1      36.397  30.396  27.861  1.00  0.00     0.338 C 
ATOM      6  O   UNL A   1      36.485  31.615  27.766  1.00  0.00    -0.246 OA
BRANCH   5   7
ATOM      7  C   UNL A   1      37.609  29.603  28.076  1.00  0.00     0.060 A 
ATOM      8  C   UNL A   1      38.739  29.729  27.267  1.00  0.00     0.016 A 
ATOM      9  C   UNL A   1      37.597  28.714  29.158  1.00  0.00     0.016 A 
ATOM     10  C   UNL A   1      39.778  28.838  27.404  1.00  0.00     0.010 A 
ATOM     11  C   UNL A   1      38.699  27.910  29.392  1.00  0.00     0.010 A 
ATOM     12  C   UNL A   1      39.778  27.970  28.500  1.00  0.00    -0.014 A 
BRANCH  12  13
ATOM     13  C   UNL A   1      41.088  27.405  28.858  1.00  0.00     0.031 A 
ATOM     14  C   UNL A   1      41.183  25.943  28.400  1.00  0.00     0.074 A 
ATOM     15  C   UNL A   1      41.944  28.210  29.542  1.00  0.00     0.049 A 
ATOM     16  N   UNL A   1      41.843  24.945  28.902  1.00  0.00    -0.248 NA
ATOM     17  C   UNL A   1      40.305  25.503  27.273  1.00  0.00     0.031 C 
ATOM     18  C   UNL A   1      41.648  29.604  29.914  1.00  0.00     0.029 A 
ATOM     19  N   UNL A   1      43.203  28.035  30.069  1.00  0.00    -0.354 N 
ATOM     20  C   UNL A   1      41.633  23.854  28.034  1.00  0.00     0.074 A 
ATOM     21  C   UNL A   1      40.521  24.192  27.206  1.00  0.00     0.031 C 
ATOM     22  C   UNL A   1      42.655  30.125  30.642  1.00  0.00     0.029 A 
ATOM     23  C   UNL A   1      43.710  29.141  30.794  1.00  0.00     0.049 A 
ATOM     24  H   UNL A   1      43.714  27.201  29.952  1.00  0.00     0.167 HD
ATOM     25  C   UNL A   1      42.526  22.835  27.879  1.00  0.00     0.037 A 
ATOM     26  C   UNL A   1      44.882  29.245  31.493  1.00  0.00     0.037 A 
ATOM     27  C   UNL A   1      43.609  22.983  28.791  1.00  0.00     0.049 A 
ATOM     28  C   UNL A   1      45.624  28.002  31.208  1.00  0.00     0.074 A 
ATOM     29  C   UNL A   1      43.738  22.811  30.144  1.00  0.00     0.029 A 
ATOM     30  N   UNL A   1      44.707  23.668  28.329  1.00  0.00    -0.354 N 
ATOM     31  N   UNL A   1      46.185  27.725  30.067  1.00  0.00    -0.248 NA
ATOM     32  C   UNL A   1      45.657  26.940  32.220  1.00  0.00     0.031 C 
ATOM     33  C   UNL A   1      44.739  23.735  30.522  1.00  0.00     0.029 A 
ATOM     34  C   UNL A   1      45.246  24.366  29.381  1.00  0.00     0.049 A 
ATOM     35  H   UNL A   1      45.047  23.659  27.406  1.00  0.00     0.167 HD
ATOM     36  C   UNL A   1      46.342  26.358  30.134  1.00  0.00     0.074 A 
ATOM     37  C   UNL A   1      46.308  26.006  31.533  1.00  0.00     0.031 C 
ATOM     38  C   UNL A   1      45.966  25.586  29.082  1.00  0.00     0.037 A 
BRANCH  25  39
ATOM     39  C   UNL A   1      42.696  21.860  26.741  1.00  0.00     0.064 A 
ATOM     40  C   UNL A   1      42.206  20.544  26.923  1.00  0.00     0.173 A 
ATOM     41  C   UNL A   1      43.599  22.036  25.681  1.00  0.00     0.173 A 
ATOM     42  F   UNL A   1      41.301  20.276  27.878  1.00  0.00    -0.203 F 
ATOM     43  C   UNL A   1      42.706  19.463  26.200  1.00  0.00     0.198 A 
ATOM     44  C   UNL A   1      44.053  20.957  24.918  1.00  0.00     0.198 A 
ATOM     45  F   UNL A   1      44.155  23.223  25.414  1.00  0.00    -0.203 F 
ATOM     46  F   UNL A   1      42.330  18.217  26.519  1.00  0.00    -0.200 F 
ATOM     47  C   UNL A   1      43.646  19.668  25.210  1.00  0.00     0.200 A 
ATOM     48  F   UNL A   1      44.957  21.167  23.951  1.00  0.00    -0.200 F 
ATOM     49  F   UNL A   1      44.189  18.628  24.566  1.00  0.00    -0.200 F 
ENDBRANCH  25  39
BRANCH  26  50
ATOM     50  C   UNL A   1      45.508  30.228  32.459  1.00  0.00     0.064 A 
ATOM     51  C   UNL A   1      45.439  30.171  33.859  1.00  0.00     0.173 A 
ATOM     52  C   UNL A   1      46.296  31.308  31.970  1.00  0.00     0.173 A 
ATOM     53  F   UNL A   1      44.625  29.317  34.483  1.00  0.00    -0.203 F 
ATOM     54  C   UNL A   1      46.190  31.026  34.686  1.00  0.00     0.198 A 
ATOM     55  C   UNL A   1      47.063  32.141  32.788  1.00  0.00     0.198 A 
ATOM     56  F   UNL A   1      46.357  31.603  30.665  1.00  0.00    -0.203 F 
ATOM     57  F   UNL A   1      46.101  30.903  36.019  1.00  0.00    -0.200 F 
ATOM     58  C   UNL A   1      47.027  31.986  34.151  1.00  0.00     0.200 A 
ATOM     59  F   UNL A   1      47.847  33.076  32.233  1.00  0.00    -0.200 F 
ATOM     60  F   UNL A   1      47.777  32.765  34.941  1.00  0.00    -0.200 F 
ENDBRANCH  26  50
BRANCH  38  61
ATOM     61  C   UNL A   1      45.952  26.335  27.762  1.00  0.00     0.064 A 
ATOM     62  C   UNL A   1      44.745  26.561  27.085  1.00  0.00     0.173 A 
ATOM     63  C   UNL A   1      47.117  26.713  27.078  1.00  0.00     0.173 A 
ATOM     64  F   UNL A   1      43.581  26.252  27.676  1.00  0.00    -0.203 F 
ATOM     65  C   UNL A   1      44.717  27.102  25.795  1.00  0.00     0.198 A 
ATOM     66  C   UNL A   1      47.098  27.253  25.791  1.00  0.00     0.198 A 
ATOM     67  F   UNL A   1      48.307  26.577  27.654  1.00  0.00    -0.203 F 
ATOM     68  F   UNL A   1      43.543  27.299  25.180  1.00  0.00    -0.200 F 
ATOM     69  C   UNL A   1      45.893  27.440  25.146  1.00  0.00     0.200 A 
ATOM     70  F   UNL A   1      48.248  27.593  25.190  1.00  0.00    -0.200 F 
ATOM     71  F   UNL A   1      45.867  27.959  23.909  1.00  0.00    -0.200 F 
ENDBRANCH  38  61
ENDBRANCH  12  13
ENDBRANCH   5   7
ENDBRANCH   4   5
ENDBRANCH   3   4
ENDBRANCH   2   3
ENDBRANCH   1   2
BRANCH   1  72
ATOM     72  C   UNL A   1      32.074  28.177  25.613  1.00  0.00     0.202 C 
BRANCH  72  73
ATOM     73  C   UNL A   1      31.473  27.115  26.531  1.00  0.00     0.261 C 
BRANCH  73  74
ATOM     74  O   UNL A   1      32.206  25.875  26.493  1.00  0.00    -0.462 OA
BRANCH  74  75
ATOM     75  C   UNL A   1      31.466  24.788  26.144  1.00  0.00     0.324 C 
ATOM     76  O   UNL A   1      30.552  24.346  26.835  1.00  0.00    -0.250 OA
BRANCH  75  77
ATOM     77  C   UNL A   1      31.898  24.154  24.818  1.00  0.00     0.183 C 
ATOM     78  C   UNL A   1      30.699  24.171  23.863  1.00  0.00     0.032 C 
ATOM     79  N   UNL A   1      33.132  24.724  24.158  1.00  0.00    -0.184 NA
ATOM     80  C   UNL A   1      30.492  25.567  23.300  1.00  0.00     0.004 C 
ATOM     81  C   UNL A   1      33.011  25.652  23.009  1.00  0.00     0.103 C 
ATOM     82  C   UNL A   1      31.647  25.854  22.375  1.00  0.00     0.017 C 
BRANCH  79  83
ATOM     83  S   UNL A   1      34.455  23.639  24.169  1.00  0.00     0.245 S 
ATOM     84  O   UNL A   1      34.931  23.521  22.801  1.00  0.00    -0.207 OA
ATOM     85  O   UNL A   1      35.332  24.062  25.230  1.00  0.00    -0.207 OA
BRANCH  83  86
ATOM     86  C   UNL A   1      34.045  22.002  24.606  1.00  0.00     0.100 A 
ATOM     87  C   UNL A   1      33.127  21.102  24.001  1.00  0.00     0.041 A 
ATOM     88  C   UNL A   1      34.593  21.334  25.689  1.00  0.00     0.104 A 
ATOM     89  C   UNL A   1      33.093  19.957  24.772  1.00  0.00     0.083 A 
ATOM     90  N   UNL A   1      33.999  20.103  25.788  1.00  0.00    -0.366 N 
ATOM     91  H   UNL A   1      34.194  19.431  26.480  1.00  0.00     0.165 HD
ENDBRANCH  83  86
ENDBRANCH  79  83
ENDBRANCH  75  77
ENDBRANCH  74  75
ENDBRANCH  73  74
ENDBRANCH  72  73
ENDBRANCH   1  72
TORSDOF 16
ENDMDL
MODEL 2
REMARK VINA RESULT:     -11.2      0.790      2.342
REMARK SMILES O=C(OCCOCCOC(=O)[C@H]1CCCCN1S(=O)(=O)c1cc[nH]c1)c1ccc(-c2c3nc(c(-c4c(F)c(F)c(F)c(F)c4F)c4ccc([nH]4)c(-c4c(F)c(F)c(F)c(F)c4F)c4nc(c(-c5c(F)c(F)c(F)c(F)c5F)c5ccc2[nH]5)C=C4)C=C3)cc1
REMARK SMILES IDX 6 1 5 2 4 3 3 4 2 5 1 6 26 7 27 8 88 9 28 10 87 11 29 12
REMARK SMILES IDX 30 13 31 14 81 15 32 16 86 17 80 18 82 19 33 20 85 21 79 22
REMARK SMILES IDX 78 23 34 25 66 26 46 27 65 28 47 29 50 30 64 31 83 32 48 33
REMARK SMILES IDX 49 34 63 36 84 37 51 38 35 39 36 40 44 41 37 42 38 43 42 44
REMARK SMILES IDX 45 45 39 46 40 47 43 48 41 49 67 50 68 51 76 52 69 53 70 54
REMARK SMILES IDX 74 55 77 56 71 57 72 58 75 59 73 60 52 61 53 62 61 63 54 64
REMARK SMILES IDX 55 65 59 66 62 67 56 68 57 69 60 70 58 71 7 72 8 73 9 74
REMARK SMILES IDX 10 75 11 76 12 77 13 78 17 79 14 80 16 81 15 82 18 83 19 84
REMARK SMILES IDX 20 85 21 86 22 87 25 88 23 89 24 90
REMARK H PARENT 82 24 50 35 24 91
REMARK Flexibility Score: inf
ROOT
ATOM      1  O   UNL A   1      32.130  28.728  26.642  1.00  0.00    -0.374 OA
ENDROOT
BRANCH   1   2
ATOM      2  C   UNL A   1      33.139  29.608  26.163  1.00  0.00     0.202 C 
BRANCH   2   3
ATOM      3  C   UNL A   1      33.966  30.386  27.200  1.00  0.00     0.261 C 
BRANCH   3   4
ATOM      4  O   UNL A   1      35.217  29.783  27.551  1.00  0.00    -0.460 OA
BRANCH   4   5
ATOM      5  C   UNL A   1      36.384  30.439  27.750  1.00  0.00     0.338 C 
ATOM      6  O   UNL A   1      36.435  31.656  27.881  1.00  0.00    -0.246 OA
BRANCH   5   7
ATOM      7  C   UNL A   1      37.586  29.638  27.995  1.00  0.00     0.060 A 
ATOM      8  C   UNL A   1      38.715  29.716  27.178  1.00  0.00     0.016 A 
ATOM      9  C   UNL A   1      37.565  28.794  29.111  1.00  0.00     0.016 A 
ATOM     10  C   UNL A   1      39.743  28.818  27.349  1.00  0.00     0.010 A 
ATOM     11  C   UNL A   1      38.657  27.986  29.375  1.00  0.00     0.010 A 
ATOM     12  C   UNL A   1      39.734  27.995  28.479  1.00  0.00    -0.014 A 
BRANCH  12  13
ATOM     13  C   UNL A   1      41.037  27.427  28.856  1.00  0.00     0.031 A 
ATOM     14  C   UNL A   1      41.133  25.963  28.405  1.00  0.00     0.074 A 
ATOM     15  C   UNL A   1      41.887  28.232  29.548  1.00  0.00     0.049 A 
ATOM     16  N   UNL A   1      41.784  24.964  28.920  1.00  0.00    -0.248 NA
ATOM     17  C   UNL A   1      40.269  25.521  27.269  1.00  0.00     0.031 C 
ATOM     18  C   UNL A   1      41.591  29.629  29.910  1.00  0.00     0.029 A 
ATOM     19  N   UNL A   1      43.139  28.055  30.093  1.00  0.00    -0.354 N 
ATOM     20  C   UNL A   1      41.581  23.871  28.054  1.00  0.00     0.074 A 
ATOM     21  C   UNL A   1      40.481  24.209  27.210  1.00  0.00     0.031 C 
ATOM     22  C   UNL A   1      42.590  30.149  30.649  1.00  0.00     0.029 A 
ATOM     23  C   UNL A   1      43.640  29.163  30.819  1.00  0.00     0.049 A 
ATOM     24  H   UNL A   1      43.648  27.219  29.985  1.00  0.00     0.167 HD
ATOM     25  C   UNL A   1      42.472  22.848  27.915  1.00  0.00     0.037 A 
ATOM     26  C   UNL A   1      44.802  29.265  31.534  1.00  0.00     0.037 A 
ATOM     27  C   UNL A   1      43.544  22.996  28.841  1.00  0.00     0.049 A 
ATOM     28  C   UNL A   1      45.544  28.018  31.263  1.00  0.00     0.074 A 
ATOM     29  C   UNL A   1      43.655  22.830  30.196  1.00  0.00     0.029 A 
ATOM     30  N   UNL A   1      44.650  23.676  28.390  1.00  0.00    -0.354 N 
ATOM     31  N   UNL A   1      46.120  27.735  30.130  1.00  0.00    -0.248 NA
ATOM     32  C   UNL A   1      45.560  26.961  32.279  1.00  0.00     0.031 C 
ATOM     33  C   UNL A   1      44.654  23.752  30.583  1.00  0.00     0.029 A 
ATOM     34  C   UNL A   1      45.177  24.376  29.446  1.00  0.00     0.049 A 
ATOM     35  H   UNL A   1      45.003  23.662  27.471  1.00  0.00     0.167 HD
ATOM     36  C   UNL A   1      46.271  26.368  30.205  1.00  0.00     0.074 A 
ATOM     37  C   UNL A   1      46.217  26.022  31.604  1.00  0.00     0.031 C 
ATOM     38  C   UNL A   1      45.905  25.593  29.151  1.00  0.00     0.037 A 
BRANCH  25  39
ATOM     39  C   UNL A   1      42.654  21.868  26.783  1.00  0.00     0.064 A 
ATOM     40  C   UNL A   1      42.156  20.555  26.963  1.00  0.00     0.173 A 
ATOM     41  C   UNL A   1      43.573  22.036  25.735  1.00  0.00     0.173 A 
ATOM     42  F   UNL A   1      41.236  20.294  27.906  1.00  0.00    -0.203 F 
ATOM     43  C   UNL A   1      42.661  19.469  26.252  1.00  0.00     0.198 A 
ATOM     44  C   UNL A   1      44.032  20.952  24.983  1.00  0.00     0.198 A 
ATOM     45  F   UNL A   1      44.138  23.219  25.472  1.00  0.00    -0.203 F 
ATOM     46  F   UNL A   1      42.275  18.226  26.571  1.00  0.00    -0.200 F 
ATOM     47  C   UNL A   1      43.616  19.666  25.274  1.00  0.00     0.200 A 
ATOM     48  F   UNL A   1      44.950  21.154  24.028  1.00  0.00    -0.200 F 
ATOM     49  F   UNL A   1      44.163  18.620  24.642  1.00  0.00    -0.200 F 
ENDBRANCH  25  39
BRANCH  26  50
ATOM     50  C   UNL A   1      45.420  30.250  32.503  1.00  0.00     0.064 A 
ATOM     51  C   UNL A   1      46.333  31.265  32.182  1.00  0.00     0.173 A 
ATOM     52  C   UNL A   1      45.044  30.233  33.876  1.00  0.00     0.173 A 
ATOM     53  F   UNL A   1      46.904  31.335  30.978  1.00  0.00    -0.203 F 
ATOM     54  C   UNL A   1      46.728  32.245  33.111  1.00  0.00     0.198 A 
ATOM     55  C   UNL A   1      45.413  31.219  34.793  1.00  0.00     0.198 A 
ATOM     56  F   UNL A   1      44.296  29.249  34.391  1.00  0.00    -0.203 F 
ATOM     57  F   UNL A   1      47.584  33.207  32.735  1.00  0.00    -0.200 F 
ATOM     58  C   UNL A   1      46.242  32.243  34.404  1.00  0.00     0.200 A 
ATOM     59  F   UNL A   1      44.940  31.171  36.046  1.00  0.00    -0.200 F 
ATOM     60  F   UNL A   1      46.582  33.205  35.272  1.00  0.00    -0.200 F 
ENDBRANCH  26  50
BRANCH  38  61
ATOM     61  C   UNL A   1      45.911  26.336  27.828  1.00  0.00     0.064 A 
ATOM     62  C   UNL A   1      44.714  26.567  27.137  1.00  0.00     0.173 A 
ATOM     63  C   UNL A   1      47.087  26.703  27.156  1.00  0.00     0.173 A 
ATOM     64  F   UNL A   1      43.541  26.270  27.716  1.00  0.00    -0.203 F 
ATOM     65  C   UNL A   1      44.704  27.104  25.844  1.00  0.00     0.198 A 
ATOM     66  C   UNL A   1      47.086  27.238  25.867  1.00  0.00     0.198 A 
ATOM     67  F   UNL A   1      48.269  26.562  27.746  1.00  0.00    -0.203 F 
ATOM     68  F   UNL A   1      43.539  27.306  25.216  1.00  0.00    -0.200 F 
ATOM     69  C   UNL A   1      45.890  27.431  25.207  1.00  0.00     0.200 A 
ATOM     70  F   UNL A   1      48.245  27.568  25.277  1.00  0.00    -0.200 F 
ATOM     71  F   UNL A   1      45.880  27.945  23.968  1.00  0.00    -0.200 F 
ENDBRANCH  38  61
ENDBRANCH  12  13
ENDBRANCH   5   7
ENDBRANCH   4   5
ENDBRANCH   3   4
ENDBRANCH   2   3
ENDBRANCH   1   2
BRANCH   1  72
ATOM     72  C   UNL A   1      32.240  27.336  26.321  1.00  0.00     0.202 C 
BRANCH  72  73
ATOM     73  C   UNL A   1      30.960  26.566  25.998  1.00  0.00     0.261 C 
BRANCH  73  74
ATOM     74  O   UNL A   1      31.226  25.298  25.369  1.00  0.00    -0.462 OA
BRANCH  74  75
ATOM     75  C   UNL A   1      31.905  24.410  26.146  1.00  0.00     0.324 C 
ATOM     76  O   UNL A   1      31.497  24.022  27.238  1.00  0.00    -0.250 OA
BRANCH  75  77
ATOM     77  C   UNL A   1      33.238  23.961  25.540  1.00  0.00     0.183 C 
ATOM     78  C   UNL A   1      34.129  23.439  26.673  1.00  0.00     0.032 C 
ATOM     79  N   UNL A   1      33.171  22.975  24.397  1.00  0.00    -0.184 NA
ATOM     80  C   UNL A   1      33.684  22.050  27.098  1.00  0.00     0.004 C 
ATOM     81  C   UNL A   1      33.451  21.537  24.625  1.00  0.00     0.103 C 
ATOM     82  C   UNL A   1      34.009  21.107  25.969  1.00  0.00     0.017 C 
BRANCH  79  83
ATOM     83  S   UNL A   1      33.655  23.653  22.902  1.00  0.00     0.245 S 
ATOM     84  O   UNL A   1      35.097  23.825  22.951  1.00  0.00    -0.207 OA
ATOM     85  O   UNL A   1      33.031  22.869  21.868  1.00  0.00    -0.207 OA
BRANCH  83  86
ATOM     86  C   UNL A   1      33.055  25.263  22.611  1.00  0.00     0.100 A 
ATOM     87  C   UNL A   1      33.588  26.519  23.013  1.00  0.00     0.041 A 
ATOM     88  C   UNL A   1      31.890  25.538  21.914  1.00  0.00     0.104 A 
ATOM     89  C   UNL A   1      32.699  27.498  22.615  1.00  0.00     0.083 A 
ATOM     90  N   UNL A   1      31.676  26.890  21.935  1.00  0.00    -0.366 N 
ATOM     91  H   UNL A   1      30.910  27.353  21.526  1.00  0.00     0.165 HD
ENDBRANCH  83  86
ENDBRANCH  79  83
ENDBRANCH  75  77
ENDBRANCH  74  75
ENDBRANCH  73  74
ENDBRANCH  72  73
ENDBRANCH   1  72
TORSDOF 16
ENDMDL
MODEL 3
REMARK VINA RESULT:     -11.2      4.818      9.610
REMARK SMILES O=C(OCCOCCOC(=O)[C@H]1CCCCN1S(=O)(=O)c1cc[nH]c1)c1ccc(-c2c3nc(c(-c4c(F)c(F)c(F)c(F)c4F)c4ccc([nH]4)c(-c4c(F)c(F)c(F)c(F)c4F)c4nc(c(-c5c(F)c(F)c(F)c(F)c5F)c5ccc2[nH]5)C=C4)C=C3)cc1
REMARK SMILES IDX 6 1 5 2 4 3 3 4 2 5 1 6 26 7 27 8 88 9 28 10 87 11 29 12
REMARK SMILES IDX 30 13 31 14 81 15 32 16 86 17 80 18 82 19 33 20 85 21 79 22
REMARK SMILES IDX 78 23 34 25 66 26 46 27 65 28 47 29 50 30 64 31 83 32 48 33
REMARK SMILES IDX 49 34 63 36 84 37 51 38 35 39 36 40 44 41 37 42 38 43 42 44
REMARK SMILES IDX 45 45 39 46 40 47 43 48 41 49 67 50 68 51 76 52 69 53 70 54
REMARK SMILES IDX 74 55 77 56 71 57 72 58 75 59 73 60 52 61 53 62 61 63 54 64
REMARK SMILES IDX 55 65 59 66 62 67 56 68 57 69 60 70 58 71 7 72 8 73 9 74
REMARK SMILES IDX 10 75 11 76 12 77 13 78 17 79 14 80 16 81 15 82 18 83 19 84
REMARK SMILES IDX 20 85 21 86 22 87 25 88 23 89 24 90
REMARK H PARENT 82 24 50 35 24 91
REMARK Flexibility Score: inf
ROOT
ATOM      1  O   UNL A   1      36.360  22.243  24.831  1.00  0.00    -0.374 OA
ENDROOT
BRANCH   1   2
ATOM      2  C   UNL A   1      37.616  22.843  25.123  1.00  0.00     0.202 C 
BRANCH   2   3
ATOM      3  C   UNL A   1      37.639  24.014  26.119  1.00  0.00     0.261 C 
BRANCH   3   4
ATOM      4  O   UNL A   1      38.369  23.766  27.327  1.00  0.00    -0.460 OA
BRANCH   4   5
ATOM      5  C   UNL A   1      39.564  24.309  27.655  1.00  0.00     0.338 C 
ATOM      6  O   UNL A   1      40.627  23.760  27.391  1.00  0.00    -0.246 OA
BRANCH   5   7
ATOM      7  C   UNL A   1      39.573  25.678  28.179  1.00  0.00     0.060 A 
ATOM      8  C   UNL A   1      39.255  25.973  29.505  1.00  0.00     0.016 A 
ATOM      9  C   UNL A   1      39.940  26.692  27.286  1.00  0.00     0.016 A 
ATOM     10  C   UNL A   1      39.108  27.284  29.895  1.00  0.00     0.010 A 
ATOM     11  C   UNL A   1      39.933  28.009  27.710  1.00  0.00     0.010 A 
ATOM     12  C   UNL A   1      39.501  28.295  29.012  1.00  0.00    -0.014 A 
BRANCH  12  13
ATOM     13  C   UNL A   1      39.773  29.601  29.630  1.00  0.00     0.031 A 
ATOM     14  C   UNL A   1      38.606  30.566  29.378  1.00  0.00     0.074 A 
ATOM     15  C   UNL A   1      40.972  29.754  30.254  1.00  0.00     0.049 A 
ATOM     16  N   UNL A   1      38.593  31.858  29.254  1.00  0.00    -0.248 NA
ATOM     17  C   UNL A   1      37.260  29.979  29.100  1.00  0.00     0.031 C 
ATOM     18  C   UNL A   1      41.984  28.692  30.369  1.00  0.00     0.029 A 
ATOM     19  N   UNL A   1      41.586  30.806  30.896  1.00  0.00    -0.354 N 
ATOM     20  C   UNL A   1      37.240  32.229  29.114  1.00  0.00     0.074 A 
ATOM     21  C   UNL A   1      36.515  31.041  28.801  1.00  0.00     0.031 C 
ATOM     22  C   UNL A   1      43.092  29.156  30.979  1.00  0.00     0.029 A 
ATOM     23  C   UNL A   1      42.904  30.547  31.344  1.00  0.00     0.049 A 
ATOM     24  H   UNL A   1      41.142  31.673  31.033  1.00  0.00     0.167 HD
ATOM     25  C   UNL A   1      36.752  33.444  29.495  1.00  0.00     0.037 A 
ATOM     26  C   UNL A   1      43.793  31.403  31.937  1.00  0.00     0.037 A 
ATOM     27  C   UNL A   1      37.812  34.290  29.930  1.00  0.00     0.049 A 
ATOM     28  C   UNL A   1      43.038  32.647  32.182  1.00  0.00     0.074 A 
ATOM     29  C   UNL A   1      38.813  34.962  29.280  1.00  0.00     0.029 A 
ATOM     30  N   UNL A   1      38.094  34.273  31.274  1.00  0.00    -0.354 N 
ATOM     31  N   UNL A   1      42.113  32.782  33.088  1.00  0.00    -0.248 NA
ATOM     32  C   UNL A   1      43.243  33.795  31.291  1.00  0.00     0.031 C 
ATOM     33  C   UNL A   1      39.872  35.006  30.217  1.00  0.00     0.029 A 
ATOM     34  C   UNL A   1      39.447  34.446  31.426  1.00  0.00     0.049 A 
ATOM     35  H   UNL A   1      37.441  34.158  32.001  1.00  0.00     0.167 HD
ATOM     36  C   UNL A   1      41.429  33.896  32.654  1.00  0.00     0.074 A 
ATOM     37  C   UNL A   1      42.326  34.621  31.787  1.00  0.00     0.031 C 
ATOM     38  C   UNL A   1      40.072  33.873  32.600  1.00  0.00     0.037 A 
BRANCH  25  39
ATOM     39  C   UNL A   1      35.341  33.859  29.830  1.00  0.00     0.064 A 
ATOM     40  C   UNL A   1      34.651  34.664  28.891  1.00  0.00     0.173 A 
ATOM     41  C   UNL A   1      34.795  33.822  31.123  1.00  0.00     0.173 A 
ATOM     42  F   UNL A   1      35.062  34.732  27.615  1.00  0.00    -0.203 F 
ATOM     43  C   UNL A   1      33.592  35.489  29.262  1.00  0.00     0.198 A 
ATOM     44  C   UNL A   1      33.693  34.606  31.476  1.00  0.00     0.198 A 
ATOM     45  F   UNL A   1      35.360  33.120  32.111  1.00  0.00    -0.203 F 
ATOM     46  F   UNL A   1      33.078  36.352  28.375  1.00  0.00    -0.200 F 
ATOM     47  C   UNL A   1      33.126  35.475  30.562  1.00  0.00     0.200 A 
ATOM     48  F   UNL A   1      33.240  34.578  32.736  1.00  0.00    -0.200 F 
ATOM     49  F   UNL A   1      32.162  36.322  30.944  1.00  0.00    -0.200 F 
ENDBRANCH  25  39
BRANCH  26  50
ATOM     50  C   UNL A   1      45.260  31.389  32.309  1.00  0.00     0.064 A 
ATOM     51  C   UNL A   1      46.324  31.801  31.494  1.00  0.00     0.173 A 
ATOM     52  C   UNL A   1      45.664  30.977  33.611  1.00  0.00     0.173 A 
ATOM     53  F   UNL A   1      46.145  32.076  30.200  1.00  0.00    -0.203 F 
ATOM     54  C   UNL A   1      47.641  31.917  31.974  1.00  0.00     0.198 A 
ATOM     55  C   UNL A   1      46.965  31.115  34.098  1.00  0.00     0.198 A 
ATOM     56  F   UNL A   1      44.805  30.418  34.473  1.00  0.00    -0.203 F 
ATOM     57  F   UNL A   1      48.611  32.343  31.151  1.00  0.00    -0.200 F 
ATOM     58  C   UNL A   1      47.955  31.608  33.284  1.00  0.00     0.200 A 
ATOM     59  F   UNL A   1      47.236  30.784  35.369  1.00  0.00    -0.200 F 
ATOM     60  F   UNL A   1      49.200  31.765  33.751  1.00  0.00    -0.200 F 
ENDBRANCH  26  50
BRANCH  38  61
ATOM     61  C   UNL A   1      39.451  32.857  33.541  1.00  0.00     0.064 A 
ATOM     62  C   UNL A   1      39.509  33.046  34.929  1.00  0.00     0.173 A 
ATOM     63  C   UNL A   1      38.923  31.630  33.111  1.00  0.00     0.173 A 
ATOM     64  F   UNL A   1      39.977  34.200  35.427  1.00  0.00    -0.203 F 
ATOM     65  C   UNL A   1      39.092  32.053  35.823  1.00  0.00     0.198 A 
ATOM     66  C   UNL A   1      38.504  30.635  33.996  1.00  0.00     0.198 A 
ATOM     67  F   UNL A   1      38.788  31.376  31.815  1.00  0.00    -0.203 F 
ATOM     68  F   UNL A   1      39.167  32.270  37.143  1.00  0.00    -0.200 F 
ATOM     69  C   UNL A   1      38.597  30.846  35.356  1.00  0.00     0.200 A 
ATOM     70  F   UNL A   1      38.009  29.482  33.522  1.00  0.00    -0.200 F 
ATOM     71  F   UNL A   1      38.197  29.895  36.213  1.00  0.00    -0.200 F 
ENDBRANCH  38  61
ENDBRANCH  12  13
ENDBRANCH   5   7
ENDBRANCH   4   5
ENDBRANCH   3   4
ENDBRANCH   2   3
ENDBRANCH   1   2
BRANCH   1  72
ATOM     72  C   UNL A   1      35.204  23.088  24.778  1.00  0.00     0.202 C 
BRANCH  72  73
ATOM     73  C   UNL A   1      34.910  23.827  23.474  1.00  0.00     0.261 C 
BRANCH  73  74
ATOM     74  O   UNL A   1      34.267  25.098  23.696  1.00  0.00    -0.462 OA
BRANCH  74  75
ATOM     75  C   UNL A   1      33.220  25.356  22.867  1.00  0.00     0.324 C 
ATOM     76  O   UNL A   1      33.352  25.592  21.669  1.00  0.00    -0.250 OA
BRANCH  75  77
ATOM     77  C   UNL A   1      31.862  25.350  23.576  1.00  0.00     0.183 C 
ATOM     78  C   UNL A   1      31.095  24.098  23.134  1.00  0.00     0.032 C 
ATOM     79  N   UNL A   1      31.877  25.479  25.082  1.00  0.00    -0.184 NA
ATOM     80  C   UNL A   1      31.638  22.868  23.841  1.00  0.00     0.004 C 
ATOM     81  C   UNL A   1      31.683  24.288  25.942  1.00  0.00     0.103 C 
ATOM     82  C   UNL A   1      31.262  22.982  25.296  1.00  0.00     0.017 C 
BRANCH  79  83
ATOM     83  S   UNL A   1      31.238  26.969  25.629  1.00  0.00     0.245 S 
ATOM     84  O   UNL A   1      30.537  27.577  24.512  1.00  0.00    -0.207 OA
ATOM     85  O   UNL A   1      30.567  26.701  26.875  1.00  0.00    -0.207 OA
BRANCH  83  86
ATOM     86  C   UNL A   1      32.438  28.156  26.060  1.00  0.00     0.100 A 
ATOM     87  C   UNL A   1      32.305  29.350  26.820  1.00  0.00     0.041 A 
ATOM     88  C   UNL A   1      33.766  28.087  25.671  1.00  0.00     0.104 A 
ATOM     89  C   UNL A   1      33.526  29.996  26.804  1.00  0.00     0.083 A 
ATOM     90  N   UNL A   1      34.411  29.211  26.113  1.00  0.00    -0.366 N 
ATOM     91  H   UNL A   1      35.360  29.421  25.960  1.00  0.00     0.165 HD
ENDBRANCH  83  86
ENDBRANCH  79  83
ENDBRANCH  75  77
ENDBRANCH  74  75
ENDBRANCH  73  74
ENDBRANCH  72  73
ENDBRANCH   1  72
TORSDOF 16
ENDMDL
