MODEL 1
REMARK VINA RESULT:     -12.0      0.000      0.000
REMARK SMILES CCc1ccnc(C(=O)c2[nH]c3ccc(OC(F)(F)F)cc3c2CC(=O)OCCOCCOC(=O)c2ccc(-c3c4nc(c(-c5c(F)c(F)c(F)c(F)c5F)c5ccc([nH]5)c(-c5c(F)c(F)c(F)c(F)c5F)c5nc(c(-c6c(F)c(F)c(F)c(F)c6F)c6ccc3[nH]6)C=C5)C=C4)cc2)c1
REMARK SMILES IDX 29 1 28 2 27 3 25 4 26 5 24 6 23 7 10 8 11 9 12 10 22 12
REMARK SMILES IDX 13 13 21 14 14 15 15 16 8 17 9 18 7 19 3 20 4 21 99 22 5 23
REMARK SMILES IDX 6 24 2 25 1 26 16 27 17 28 18 29 19 30 20 31 30 32 31 33
REMARK SMILES IDX 32 34 33 35 34 36 35 37 36 38 37 39 98 40 38 41 97 42 39 43
REMARK SMILES IDX 40 44 41 45 91 46 42 47 96 48 90 49 92 50 43 51 95 52 89 53
REMARK SMILES IDX 88 54 44 56 76 57 56 58 75 59 57 60 60 61 74 62 93 63 58 64
REMARK SMILES IDX 59 65 73 67 94 68 61 69 45 70 46 71 54 72 47 73 48 74 52 75
REMARK SMILES IDX 55 76 49 77 50 78 53 79 51 80 77 81 78 82 86 83 79 84 80 85
REMARK SMILES IDX 84 86 87 87 81 88 82 89 85 90 83 91 62 92 63 93 71 94 64 95
REMARK SMILES IDX 65 96 69 97 72 98 66 99 67 100 70 101 68 102
REMARK H PARENT 11 11 92 55 60 66
REMARK Flexibility Score: inf
ROOT
ATOM      1  C   UNL A   1      32.808  29.298  26.607  1.00  0.00     0.202 C 
ENDROOT
BRANCH   1   2
ATOM      2  C   UNL A   1      32.915  29.335  25.079  1.00  0.00     0.261 C 
BRANCH   2   3
ATOM      3  O   UNL A   1      33.495  28.128  24.533  1.00  0.00    -0.463 OA
BRANCH   3   4
ATOM      4  C   UNL A   1      33.684  28.141  23.184  1.00  0.00     0.310 C 
ATOM      5  O   UNL A   1      34.403  28.953  22.604  1.00  0.00    -0.252 OA
BRANCH   4   6
ATOM      6  C   UNL A   1      32.865  27.141  22.400  1.00  0.00     0.161 C 
BRANCH   6   7
ATOM      7  C   UNL A   1      31.624  26.552  23.023  1.00  0.00     0.000 A 
ATOM      8  C   UNL A   1      31.390  25.215  23.363  1.00  0.00     0.093 A 
ATOM      9  N   UNL A   1      30.118  25.162  23.898  1.00  0.00    -0.352 N 
ATOM     10  C   UNL A   1      29.447  26.343  23.671  1.00  0.00     0.046 A 
ATOM     11  H   UNL A   1      29.744  24.387  24.377  1.00  0.00     0.167 HD
ATOM     12  C   UNL A   1      30.372  27.238  23.148  1.00  0.00     0.008 A 
ATOM     13  C   UNL A   1      28.102  26.682  23.868  1.00  0.00     0.030 A 
ATOM     14  C   UNL A   1      29.929  28.529  22.792  1.00  0.00     0.057 A 
ATOM     15  C   UNL A   1      27.679  27.959  23.459  1.00  0.00     0.049 A 
ATOM     16  C   UNL A   1      28.576  28.870  22.907  1.00  0.00     0.130 A 
BRANCH   8  17
ATOM     17  C   UNL A   1      32.310  24.093  23.192  1.00  0.00     0.227 C 
ATOM     18  O   UNL A   1      32.598  23.657  22.078  1.00  0.00    -0.285 OA
BRANCH  17  19
ATOM     19  C   UNL A   1      32.925  23.396  24.361  1.00  0.00     0.113 A 
ATOM     20  C   UNL A   1      34.646  22.023  25.330  1.00  0.00    -0.044 A 
ATOM     21  C   UNL A   1      34.228  22.485  26.582  1.00  0.00     0.024 A 
ATOM     22  C   UNL A   1      33.964  22.487  24.194  1.00  0.00     0.036 A 
ATOM     23  C   UNL A   1      33.167  23.374  26.654  1.00  0.00     0.112 A 
ATOM     24  N   UNL A   1      32.503  23.831  25.576  1.00  0.00    -0.253 NA
BRANCH  20  25
ATOM     25  C   UNL A   1      35.810  21.076  25.142  1.00  0.00     0.032 C 
ATOM     26  C   UNL A   1      37.125  21.691  24.678  1.00  0.00     0.009 C 
ENDBRANCH  20  25
ENDBRANCH  17  19
ENDBRANCH   8  17
BRANCH  16  27
ATOM     27  O   UNL A   1      28.280  30.118  22.434  1.00  0.00    -0.406 OA
BRANCH  27  28
ATOM     28  C   UNL A   1      28.197  31.178  23.370  1.00  0.00     0.573 C 
ATOM     29  F   UNL A   1      28.186  32.382  22.759  1.00  0.00    -0.132 F 
ATOM     30  F   UNL A   1      27.094  31.053  24.139  1.00  0.00    -0.132 F 
ATOM     31  F   UNL A   1      29.281  31.129  24.177  1.00  0.00    -0.132 F 
ENDBRANCH  27  28
ENDBRANCH  16  27
ENDBRANCH   6   7
ENDBRANCH   4   6
ENDBRANCH   3   4
ENDBRANCH   2   3
ENDBRANCH   1   2
BRANCH   1  32
ATOM     32  O   UNL A   1      32.446  30.516  27.259  1.00  0.00    -0.374 OA
BRANCH  32  33
ATOM     33  C   UNL A   1      31.634  31.423  26.512  1.00  0.00     0.202 C 
BRANCH  33  34
ATOM     34  C   UNL A   1      31.752  32.899  26.903  1.00  0.00     0.261 C 
BRANCH  34  35
ATOM     35  O   UNL A   1      33.093  33.272  27.255  1.00  0.00    -0.460 OA
BRANCH  35  36
ATOM     36  C   UNL A   1      33.162  34.218  28.215  1.00  0.00     0.338 C 
ATOM     37  O   UNL A   1      32.386  35.146  28.412  1.00  0.00    -0.246 OA
BRANCH  36  38
ATOM     38  C   UNL A   1      34.265  33.926  29.143  1.00  0.00     0.060 A 
ATOM     39  C   UNL A   1      35.542  34.345  28.754  1.00  0.00     0.016 A 
ATOM     40  C   UNL A   1      34.078  33.174  30.304  1.00  0.00     0.016 A 
ATOM     41  C   UNL A   1      36.654  33.931  29.475  1.00  0.00     0.010 A 
ATOM     42  C   UNL A   1      35.199  32.755  31.029  1.00  0.00     0.010 A 
ATOM     43  C   UNL A   1      36.490  33.083  30.579  1.00  0.00    -0.014 A 
BRANCH  43  44
ATOM     44  C   UNL A   1      37.683  32.382  31.106  1.00  0.00     0.031 A 
ATOM     45  C   UNL A   1      38.148  32.711  32.498  1.00  0.00     0.074 A 
ATOM     46  C   UNL A   1      38.276  31.410  30.394  1.00  0.00     0.049 A 
ATOM     47  N   UNL A   1      39.123  32.188  33.197  1.00  0.00    -0.248 NA
ATOM     48  C   UNL A   1      37.412  33.775  33.202  1.00  0.00     0.031 C 
ATOM     49  C   UNL A   1      37.878  30.987  29.054  1.00  0.00     0.029 A 
ATOM     50  N   UNL A   1      39.333  30.595  30.708  1.00  0.00    -0.354 N 
ATOM     51  C   UNL A   1      39.115  32.856  34.415  1.00  0.00     0.074 A 
ATOM     52  C   UNL A   1      38.069  33.850  34.349  1.00  0.00     0.031 C 
ATOM     53  C   UNL A   1      38.680  29.983  28.659  1.00  0.00     0.029 A 
ATOM     54  C   UNL A   1      39.657  29.710  29.711  1.00  0.00     0.049 A 
ATOM     55  H   UNL A   1      39.813  30.641  31.566  1.00  0.00     0.167 HD
ATOM     56  C   UNL A   1      39.903  32.648  35.496  1.00  0.00     0.037 A 
ATOM     57  C   UNL A   1      40.638  28.789  29.659  1.00  0.00     0.037 A 
ATOM     58  C   UNL A   1      40.938  31.651  35.553  1.00  0.00     0.049 A 
ATOM     59  C   UNL A   1      41.531  28.607  30.859  1.00  0.00     0.074 A 
ATOM     60  C   UNL A   1      41.795  31.351  36.596  1.00  0.00     0.029 A 
ATOM     61  N   UNL A   1      41.257  30.791  34.511  1.00  0.00    -0.354 N 
ATOM     62  N   UNL A   1      41.504  29.228  32.014  1.00  0.00    -0.248 NA
ATOM     63  C   UNL A   1      42.583  27.587  30.753  1.00  0.00     0.031 C 
ATOM     64  C   UNL A   1      42.662  30.340  36.170  1.00  0.00     0.029 A 
ATOM     65  C   UNL A   1      42.311  29.972  34.880  1.00  0.00     0.049 A 
ATOM     66  H   UNL A   1      40.802  30.767  33.638  1.00  0.00     0.167 HD
ATOM     67  C   UNL A   1      42.508  28.654  32.782  1.00  0.00     0.074 A 
ATOM     68  C   UNL A   1      43.119  27.626  31.964  1.00  0.00     0.031 C 
ATOM     69  C   UNL A   1      42.891  28.947  34.051  1.00  0.00     0.037 A 
BRANCH  56  70
ATOM     70  C   UNL A   1      39.687  33.531  36.691  1.00  0.00     0.064 A 
ATOM     71  C   UNL A   1      38.812  33.172  37.729  1.00  0.00     0.173 A 
ATOM     72  C   UNL A   1      40.377  34.747  36.809  1.00  0.00     0.173 A 
ATOM     73  F   UNL A   1      38.115  32.027  37.658  1.00  0.00    -0.203 F 
ATOM     74  C   UNL A   1      38.615  34.010  38.823  1.00  0.00     0.198 A 
ATOM     75  C   UNL A   1      40.199  35.569  37.919  1.00  0.00     0.198 A 
ATOM     76  F   UNL A   1      41.226  35.139  35.847  1.00  0.00    -0.203 F 
ATOM     77  F   UNL A   1      37.735  33.671  39.775  1.00  0.00    -0.200 F 
ATOM     78  C   UNL A   1      39.313  35.205  38.920  1.00  0.00     0.200 A 
ATOM     79  F   UNL A   1      40.883  36.717  38.015  1.00  0.00    -0.200 F 
ATOM     80  F   UNL A   1      39.124  36.009  39.976  1.00  0.00    -0.200 F 
ENDBRANCH  56  70
BRANCH  57  81
ATOM     81  C   UNL A   1      40.817  27.963  28.436  1.00  0.00     0.064 A 
ATOM     82  C   UNL A   1      41.609  28.407  27.368  1.00  0.00     0.173 A 
ATOM     83  C   UNL A   1      40.193  26.713  28.309  1.00  0.00     0.173 A 
ATOM     84  F   UNL A   1      42.210  29.605  27.432  1.00  0.00    -0.203 F 
ATOM     85  C   UNL A   1      41.755  27.641  26.213  1.00  0.00     0.198 A 
ATOM     86  C   UNL A   1      40.363  25.935  27.166  1.00  0.00     0.198 A 
ATOM     87  F   UNL A   1      39.425  26.242  29.302  1.00  0.00    -0.203 F 
ATOM     88  F   UNL A   1      42.482  28.109  25.189  1.00  0.00    -0.200 F 
ATOM     89  C   UNL A   1      41.137  26.404  26.115  1.00  0.00     0.200 A 
ATOM     90  F   UNL A   1      39.773  24.735  27.081  1.00  0.00    -0.200 F 
ATOM     91  F   UNL A   1      41.281  25.665  25.006  1.00  0.00    -0.200 F 
ENDBRANCH  57  81
BRANCH  69  92
ATOM     92  C   UNL A   1      43.989  28.114  34.646  1.00  0.00     0.064 A 
ATOM     93  C   UNL A   1      45.337  28.489  34.546  1.00  0.00     0.173 A 
ATOM     94  C   UNL A   1      43.681  26.948  35.364  1.00  0.00     0.173 A 
ATOM     95  F   UNL A   1      45.683  29.588  33.861  1.00  0.00    -0.203 F 
ATOM     96  C   UNL A   1      46.338  27.709  35.119  1.00  0.00     0.198 A 
ATOM     97  C   UNL A   1      44.682  26.189  35.961  1.00  0.00     0.198 A 
ATOM     98  F   UNL A   1      42.406  26.553  35.496  1.00  0.00    -0.203 F 
ATOM     99  F   UNL A   1      47.623  28.060  34.968  1.00  0.00    -0.200 F 
ATOM    100  C   UNL A   1      46.010  26.565  35.831  1.00  0.00     0.200 A 
ATOM    101  F   UNL A   1      44.362  25.092  36.662  1.00  0.00    -0.200 F 
ATOM    102  F   UNL A   1      46.976  25.820  36.386  1.00  0.00    -0.200 F 
ENDBRANCH  69  92
ENDBRANCH  43  44
ENDBRANCH  36  38
ENDBRANCH  35  36
ENDBRANCH  34  35
ENDBRANCH  33  34
ENDBRANCH  32  33
ENDBRANCH   1  32
TORSDOF 20
ENDMDL
MODEL 2
REMARK VINA RESULT:     -12.0      5.156     10.866
REMARK SMILES CCc1ccnc(C(=O)c2[nH]c3ccc(OC(F)(F)F)cc3c2CC(=O)OCCOCCOC(=O)c2ccc(-c3c4nc(c(-c5c(F)c(F)c(F)c(F)c5F)c5ccc([nH]5)c(-c5c(F)c(F)c(F)c(F)c5F)c5nc(c(-c6c(F)c(F)c(F)c(F)c6F)c6ccc3[nH]6)C=C5)C=C4)cc2)c1
REMARK SMILES IDX 29 1 28 2 27 3 25 4 26 5 24 6 23 7 10 8 11 9 12 10 22 12
REMARK SMILES IDX 13 13 21 14 14 15 15 16 8 17 9 18 7 19 3 20 4 21 99 22 5 23
REMARK SMILES IDX 6 24 2 25 1 26 16 27 17 28 18 29 19 30 20 31 30 32 31 33
REMARK SMILES IDX 32 34 33 35 34 36 35 37 36 38 37 39 98 40 38 41 97 42 39 43
REMARK SMILES IDX 40 44 41 45 91 46 42 47 96 48 90 49 92 50 43 51 95 52 89 53
REMARK SMILES IDX 88 54 44 56 76 57 56 58 75 59 57 60 60 61 74 62 93 63 58 64
REMARK SMILES IDX 59 65 73 67 94 68 61 69 45 70 46 71 54 72 47 73 48 74 52 75
REMARK SMILES IDX 55 76 49 77 50 78 53 79 51 80 77 81 78 82 86 83 79 84 80 85
REMARK SMILES IDX 84 86 87 87 81 88 82 89 85 90 83 91 62 92 63 93 71 94 64 95
REMARK SMILES IDX 65 96 69 97 72 98 66 99 67 100 70 101 68 102
REMARK H PARENT 11 11 92 55 60 66
REMARK Flexibility Score: inf
ROOT
ATOM      1  C   UNL A   1      38.311  21.906  25.748  1.00  0.00     0.202 C 
ENDROOT
BRANCH   1   2
ATOM      2  C   UNL A   1      37.442  23.168  25.786  1.00  0.00     0.261 C 
BRANCH   2   3
ATOM      3  O   UNL A   1      36.185  22.957  26.468  1.00  0.00    -0.463 OA
BRANCH   3   4
ATOM      4  C   UNL A   1      35.126  23.633  25.942  1.00  0.00     0.310 C 
ATOM      5  O   UNL A   1      34.114  23.917  26.580  1.00  0.00    -0.252 OA
BRANCH   4   6
ATOM      6  C   UNL A   1      35.215  23.939  24.463  1.00  0.00     0.161 C 
BRANCH   6   7
ATOM      7  C   UNL A   1      34.137  23.433  23.538  1.00  0.00     0.000 A 
ATOM      8  C   UNL A   1      33.282  24.188  22.727  1.00  0.00     0.093 A 
ATOM      9  N   UNL A   1      32.468  23.289  22.068  1.00  0.00    -0.352 N 
ATOM     10  C   UNL A   1      32.590  22.032  22.617  1.00  0.00     0.046 A 
ATOM     11  H   UNL A   1      31.883  23.515  21.310  1.00  0.00     0.167 HD
ATOM     12  C   UNL A   1      33.644  22.087  23.522  1.00  0.00     0.008 A 
ATOM     13  C   UNL A   1      31.846  20.864  22.403  1.00  0.00     0.030 A 
ATOM     14  C   UNL A   1      33.961  20.925  24.255  1.00  0.00     0.057 A 
ATOM     15  C   UNL A   1      32.153  19.736  23.183  1.00  0.00     0.049 A 
ATOM     16  C   UNL A   1      33.186  19.767  24.116  1.00  0.00     0.130 A 
BRANCH   8  17
ATOM     17  C   UNL A   1      33.257  25.643  22.596  1.00  0.00     0.227 C 
ATOM     18  O   UNL A   1      33.748  26.213  21.623  1.00  0.00    -0.285 OA
BRANCH  17  19
ATOM     19  C   UNL A   1      32.662  26.516  23.652  1.00  0.00     0.113 A 
ATOM     20  C   UNL A   1      32.796  28.377  25.171  1.00  0.00    -0.044 A 
ATOM     21  C   UNL A   1      31.402  28.321  25.270  1.00  0.00     0.024 A 
ATOM     22  C   UNL A   1      33.438  27.438  24.346  1.00  0.00     0.036 A 
ATOM     23  C   UNL A   1      30.713  27.351  24.558  1.00  0.00     0.112 A 
ATOM     24  N   UNL A   1      31.310  26.445  23.761  1.00  0.00    -0.253 NA
BRANCH  20  25
ATOM     25  C   UNL A   1      33.636  29.413  25.883  1.00  0.00     0.032 C 
ATOM     26  C   UNL A   1      34.385  28.952  27.127  1.00  0.00     0.009 C 
ENDBRANCH  20  25
ENDBRANCH  17  19
ENDBRANCH   8  17
BRANCH  16  27
ATOM     27  O   UNL A   1      33.551  18.755  24.959  1.00  0.00    -0.406 OA
BRANCH  27  28
ATOM     28  C   UNL A   1      34.366  17.720  24.438  1.00  0.00     0.573 C 
ATOM     29  F   UNL A   1      34.185  16.560  25.106  1.00  0.00    -0.132 F 
ATOM     30  F   UNL A   1      34.113  17.527  23.125  1.00  0.00    -0.132 F 
ATOM     31  F   UNL A   1      35.661  18.080  24.569  1.00  0.00    -0.132 F 
ENDBRANCH  27  28
ENDBRANCH  16  27
ENDBRANCH   6   7
ENDBRANCH   4   6
ENDBRANCH   3   4
ENDBRANCH   2   3
ENDBRANCH   1   2
BRANCH   1  32
ATOM     32  O   UNL A   1      37.754  20.757  25.108  1.00  0.00    -0.374 OA
BRANCH  32  33
ATOM     33  C   UNL A   1      38.552  19.573  25.114  1.00  0.00     0.202 C 
BRANCH  33  34
ATOM     34  C   UNL A   1      39.751  19.582  26.068  1.00  0.00     0.261 C 
BRANCH  34  35
ATOM     35  O   UNL A   1      41.006  19.502  25.376  1.00  0.00    -0.460 OA
BRANCH  35  36
ATOM     36  C   UNL A   1      42.073  19.809  26.145  1.00  0.00     0.338 C 
ATOM     37  O   UNL A   1      43.078  19.136  26.336  1.00  0.00    -0.246 OA
BRANCH  36  38
ATOM     38  C   UNL A   1      41.956  21.182  26.657  1.00  0.00     0.060 A 
ATOM     39  C   UNL A   1      41.756  22.193  25.711  1.00  0.00     0.016 A 
ATOM     40  C   UNL A   1      42.141  21.490  28.007  1.00  0.00     0.016 A 
ATOM     41  C   UNL A   1      41.837  23.525  26.094  1.00  0.00     0.010 A 
ATOM     42  C   UNL A   1      42.225  22.831  28.393  1.00  0.00     0.010 A 
ATOM     43  C   UNL A   1      42.134  23.847  27.425  1.00  0.00    -0.014 A 
BRANCH  43  44
ATOM     44  C   UNL A   1      42.558  25.233  27.732  1.00  0.00     0.031 A 
ATOM     45  C   UNL A   1      43.945  25.659  27.336  1.00  0.00     0.074 A 
ATOM     46  C   UNL A   1      41.694  26.111  28.265  1.00  0.00     0.049 A 
ATOM     47  N   UNL A   1      44.520  26.831  27.443  1.00  0.00    -0.248 NA
ATOM     48  C   UNL A   1      44.804  24.624  26.736  1.00  0.00     0.031 C 
ATOM     49  C   UNL A   1      40.316  25.810  28.647  1.00  0.00     0.029 A 
ATOM     50  N   UNL A   1      41.847  27.440  28.565  1.00  0.00    -0.354 N 
ATOM     51  C   UNL A   1      45.799  26.671  26.925  1.00  0.00     0.074 A 
ATOM     52  C   UNL A   1      45.935  25.284  26.542  1.00  0.00     0.031 C 
ATOM     53  C   UNL A   1      39.744  26.928  29.128  1.00  0.00     0.029 A 
ATOM     54  C   UNL A   1      40.723  28.013  29.105  1.00  0.00     0.049 A 
ATOM     55  H   UNL A   1      42.683  27.936  28.407  1.00  0.00     0.167 HD
ATOM     56  C   UNL A   1      46.768  27.604  26.769  1.00  0.00     0.037 A 
ATOM     57  C   UNL A   1      40.517  29.272  29.536  1.00  0.00     0.037 A 
ATOM     58  C   UNL A   1      46.619  28.983  27.148  1.00  0.00     0.049 A 
ATOM     59  C   UNL A   1      41.627  30.282  29.394  1.00  0.00     0.074 A 
ATOM     60  C   UNL A   1      47.533  30.016  27.035  1.00  0.00     0.029 A 
ATOM     61  N   UNL A   1      45.475  29.522  27.720  1.00  0.00    -0.354 N 
ATOM     62  N   UNL A   1      42.826  30.129  28.884  1.00  0.00    -0.248 NA
ATOM     63  C   UNL A   1      41.350  31.642  29.875  1.00  0.00     0.031 C 
ATOM     64  C   UNL A   1      46.957  31.168  27.580  1.00  0.00     0.029 A 
ATOM     65  C   UNL A   1      45.665  30.868  27.983  1.00  0.00     0.049 A 
ATOM     66  H   UNL A   1      44.650  29.020  27.911  1.00  0.00     0.167 HD
ATOM     67  C   UNL A   1      43.434  31.376  28.952  1.00  0.00     0.074 A 
ATOM     68  C   UNL A   1      42.465  32.277  29.543  1.00  0.00     0.031 C 
ATOM     69  C   UNL A   1      44.679  31.745  28.559  1.00  0.00     0.037 A 
BRANCH  56  70
ATOM     70  C   UNL A   1      48.076  27.154  26.187  1.00  0.00     0.064 A 
ATOM     71  C   UNL A   1      48.316  27.171  24.804  1.00  0.00     0.173 A 
ATOM     72  C   UNL A   1      49.112  26.714  27.025  1.00  0.00     0.173 A 
ATOM     73  F   UNL A   1      47.354  27.566  23.957  1.00  0.00    -0.203 F 
ATOM     74  C   UNL A   1      49.532  26.736  24.281  1.00  0.00     0.198 A 
ATOM     75  C   UNL A   1      50.337  26.308  26.501  1.00  0.00     0.198 A 
ATOM     76  F   UNL A   1      48.938  26.679  28.355  1.00  0.00    -0.203 F 
ATOM     77  F   UNL A   1      49.719  26.711  22.955  1.00  0.00    -0.200 F 
ATOM     78  C   UNL A   1      50.543  26.312  25.130  1.00  0.00     0.200 A 
ATOM     79  F   UNL A   1      51.316  25.909  27.324  1.00  0.00    -0.200 F 
ATOM     80  F   UNL A   1      51.714  25.897  24.626  1.00  0.00    -0.200 F 
ENDBRANCH  56  70
BRANCH  57  81
ATOM     81  C   UNL A   1      39.207  29.650  30.128  1.00  0.00     0.064 A 
ATOM     82  C   UNL A   1      38.939  29.450  31.489  1.00  0.00     0.173 A 
ATOM     83  C   UNL A   1      38.193  30.214  29.340  1.00  0.00     0.173 A 
ATOM     84  F   UNL A   1      39.869  28.894  32.280  1.00  0.00    -0.203 F 
ATOM     85  C   UNL A   1      37.701  29.783  32.035  1.00  0.00     0.198 A 
ATOM     86  C   UNL A   1      36.965  30.572  29.893  1.00  0.00     0.198 A 
ATOM     87  F   UNL A   1      38.397  30.426  28.031  1.00  0.00    -0.203 F 
ATOM     88  F   UNL A   1      37.456  29.539  33.330  1.00  0.00    -0.200 F 
ATOM     89  C   UNL A   1      36.718  30.349  31.239  1.00  0.00     0.200 A 
ATOM     90  F   UNL A   1      36.023  31.130  29.121  1.00  0.00    -0.200 F 
ATOM     91  F   UNL A   1      35.529  30.673  31.765  1.00  0.00    -0.200 F 
ENDBRANCH  57  81
BRANCH  69  92
ATOM     92  C   UNL A   1      45.046  33.193  28.712  1.00  0.00     0.064 A 
ATOM     93  C   UNL A   1      45.746  33.662  29.833  1.00  0.00     0.173 A 
ATOM     94  C   UNL A   1      44.729  34.113  27.700  1.00  0.00     0.173 A 
ATOM     95  F   UNL A   1      46.061  32.825  30.832  1.00  0.00    -0.203 F 
ATOM     96  C   UNL A   1      46.089  35.007  29.948  1.00  0.00     0.198 A 
ATOM     97  C   UNL A   1      45.101  35.449  27.805  1.00  0.00     0.198 A 
ATOM     98  F   UNL A   1      44.068  33.710  26.604  1.00  0.00    -0.203 F 
ATOM     99  F   UNL A   1      46.715  35.443  31.051  1.00  0.00    -0.200 F 
ATOM    100  C   UNL A   1      45.774  35.896  28.932  1.00  0.00     0.200 A 
ATOM    101  F   UNL A   1      44.809  36.304  26.815  1.00  0.00    -0.200 F 
ATOM    102  F   UNL A   1      46.111  37.189  29.042  1.00  0.00    -0.200 F 
ENDBRANCH  69  92
ENDBRANCH  43  44
ENDBRANCH  36  38
ENDBRANCH  35  36
ENDBRANCH  34  35
ENDBRANCH  33  34
ENDBRANCH  32  33
ENDBRANCH   1  32
TORSDOF 20
ENDMDL
MODEL 3
REMARK VINA RESULT:     -11.8      1.258      7.233
REMARK SMILES CCc1ccnc(C(=O)c2[nH]c3ccc(OC(F)(F)F)cc3c2CC(=O)OCCOCCOC(=O)c2ccc(-c3c4nc(c(-c5c(F)c(F)c(F)c(F)c5F)c5ccc([nH]5)c(-c5c(F)c(F)c(F)c(F)c5F)c5nc(c(-c6c(F)c(F)c(F)c(F)c6F)c6ccc3[nH]6)C=C5)C=C4)cc2)c1
REMARK SMILES IDX 29 1 28 2 27 3 25 4 26 5 24 6 23 7 10 8 11 9 12 10 22 12
REMARK SMILES IDX 13 13 21 14 14 15 15 16 8 17 9 18 7 19 3 20 4 21 99 22 5 23
REMARK SMILES IDX 6 24 2 25 1 26 16 27 17 28 18 29 19 30 20 31 30 32 31 33
REMARK SMILES IDX 32 34 33 35 34 36 35 37 36 38 37 39 98 40 38 41 97 42 39 43
REMARK SMILES IDX 40 44 41 45 91 46 42 47 96 48 90 49 92 50 43 51 95 52 89 53
REMARK SMILES IDX 88 54 44 56 76 57 56 58 75 59 57 60 60 61 74 62 93 63 58 64
REMARK SMILES IDX 59 65 73 67 94 68 61 69 45 70 46 71 54 72 47 73 48 74 52 75
REMARK SMILES IDX 55 76 49 77 50 78 53 79 51 80 77 81 78 82 86 83 79 84 80 85
REMARK SMILES IDX 84 86 87 87 81 88 82 89 85 90 83 91 62 92 63 93 71 94 64 95
REMARK SMILES IDX 65 96 69 97 72 98 66 99 67 100 70 101 68 102
REMARK H PARENT 11 11 92 55 60 66
REMARK Flexibility Score: inf
ROOT
ATOM      1  C   UNL A   1      34.223  29.886  26.912  1.00  0.00     0.202 C 
ENDROOT
BRANCH   1   2
ATOM      2  C   UNL A   1      33.379  29.370  25.742  1.00  0.00     0.261 C 
BRANCH   2   3
ATOM      3  O   UNL A   1      34.143  28.557  24.821  1.00  0.00    -0.463 OA
BRANCH   3   4
ATOM      4  C   UNL A   1      33.722  27.267  24.709  1.00  0.00     0.310 C 
ATOM      5  O   UNL A   1      33.946  26.560  23.728  1.00  0.00    -0.252 OA
BRANCH   4   6
ATOM      6  C   UNL A   1      32.856  26.761  25.841  1.00  0.00     0.161 C 
BRANCH   6   7
ATOM      7  C   UNL A   1      31.446  26.314  25.549  1.00  0.00     0.000 A 
ATOM      8  C   UNL A   1      30.882  25.055  25.786  1.00  0.00     0.093 A 
ATOM      9  N   UNL A   1      29.573  25.123  25.352  1.00  0.00    -0.352 N 
ATOM     10  C   UNL A   1      29.364  26.269  24.619  1.00  0.00     0.046 A 
ATOM     11  H   UNL A   1      28.884  24.445  25.542  1.00  0.00     0.167 HD
ATOM     12  C   UNL A   1      30.511  27.044  24.746  1.00  0.00     0.008 A 
ATOM     13  C   UNL A   1      28.268  26.672  23.843  1.00  0.00     0.030 A 
ATOM     14  C   UNL A   1      30.571  28.272  24.055  1.00  0.00     0.057 A 
ATOM     15  C   UNL A   1      28.376  27.876  23.128  1.00  0.00     0.049 A 
ATOM     16  C   UNL A   1      29.522  28.663  23.213  1.00  0.00     0.130 A 
BRANCH   8  17
ATOM     17  C   UNL A   1      31.543  23.896  26.381  1.00  0.00     0.227 C 
ATOM     18  O   UNL A   1      31.494  23.674  27.590  1.00  0.00    -0.285 OA
BRANCH  17  19
ATOM     19  C   UNL A   1      32.339  22.938  25.558  1.00  0.00     0.113 A 
ATOM     20  C   UNL A   1      34.399  22.260  24.516  1.00  0.00    -0.044 A 
ATOM     21  C   UNL A   1      33.852  20.978  24.404  1.00  0.00     0.024 A 
ATOM     22  C   UNL A   1      33.611  23.266  25.100  1.00  0.00     0.036 A 
ATOM     23  C   UNL A   1      32.566  20.749  24.869  1.00  0.00     0.112 A 
ATOM     24  N   UNL A   1      31.797  21.700  25.433  1.00  0.00    -0.253 NA
BRANCH  20  25
ATOM     25  C   UNL A   1      35.802  22.605  24.068  1.00  0.00     0.032 C 
ATOM     26  C   UNL A   1      36.613  23.507  24.989  1.00  0.00     0.009 C 
ENDBRANCH  20  25
ENDBRANCH  17  19
ENDBRANCH   8  17
BRANCH  16  27
ATOM     27  O   UNL A   1      29.763  29.827  22.537  1.00  0.00    -0.406 OA
BRANCH  27  28
ATOM     28  C   UNL A   1      28.779  30.844  22.599  1.00  0.00     0.573 C 
ATOM     29  F   UNL A   1      27.676  30.513  21.894  1.00  0.00    -0.132 F 
ATOM     30  F   UNL A   1      28.434  31.099  23.880  1.00  0.00    -0.132 F 
ATOM     31  F   UNL A   1      29.291  31.975  22.067  1.00  0.00    -0.132 F 
ENDBRANCH  27  28
ENDBRANCH  16  27
ENDBRANCH   6   7
ENDBRANCH   4   6
ENDBRANCH   3   4
ENDBRANCH   2   3
ENDBRANCH   1   2
BRANCH   1  32
ATOM     32  O   UNL A   1      33.723  31.024  27.617  1.00  0.00    -0.374 OA
BRANCH  32  33
ATOM     33  C   UNL A   1      32.445  31.515  27.212  1.00  0.00     0.202 C 
BRANCH  33  34
ATOM     34  C   UNL A   1      32.264  33.035  27.275  1.00  0.00     0.261 C 
BRANCH  34  35
ATOM     35  O   UNL A   1      33.492  33.725  27.551  1.00  0.00    -0.460 OA
BRANCH  35  36
ATOM     36  C   UNL A   1      33.406  34.607  28.570  1.00  0.00     0.338 C 
ATOM     37  O   UNL A   1      32.537  35.449  28.762  1.00  0.00    -0.246 OA
BRANCH  36  38
ATOM     38  C   UNL A   1      34.461  34.348  29.561  1.00  0.00     0.060 A 
ATOM     39  C   UNL A   1      35.784  34.457  29.116  1.00  0.00     0.016 A 
ATOM     40  C   UNL A   1      34.173  33.909  30.855  1.00  0.00     0.016 A 
ATOM     41  C   UNL A   1      36.824  34.034  29.932  1.00  0.00     0.010 A 
ATOM     42  C   UNL A   1      35.221  33.481  31.676  1.00  0.00     0.010 A 
ATOM     43  C   UNL A   1      36.541  33.487  31.191  1.00  0.00    -0.014 A 
BRANCH  43  44
ATOM     44  C   UNL A   1      37.610  32.732  31.883  1.00  0.00     0.031 A 
ATOM     45  C   UNL A   1      38.261  31.587  31.156  1.00  0.00     0.074 A 
ATOM     46  C   UNL A   1      38.050  33.119  33.091  1.00  0.00     0.049 A 
ATOM     47  N   UNL A   1      39.256  30.820  31.528  1.00  0.00    -0.248 NA
ATOM     48  C   UNL A   1      37.719  31.260  29.826  1.00  0.00     0.031 C 
ATOM     49  C   UNL A   1      37.515  34.239  33.861  1.00  0.00     0.029 A 
ATOM     50  N   UNL A   1      39.058  32.619  33.874  1.00  0.00    -0.354 N 
ATOM     51  C   UNL A   1      39.455  29.928  30.482  1.00  0.00     0.074 A 
ATOM     52  C   UNL A   1      38.456  30.216  29.478  1.00  0.00     0.031 C 
ATOM     53  C   UNL A   1      38.206  34.346  35.010  1.00  0.00     0.029 A 
ATOM     54  C   UNL A   1      39.215  33.289  35.060  1.00  0.00     0.049 A 
ATOM     55  H   UNL A   1      39.616  31.852  33.609  1.00  0.00     0.167 HD
ATOM     56  C   UNL A   1      40.398  28.964  30.364  1.00  0.00     0.037 A 
ATOM     57  C   UNL A   1      40.075  33.066  36.072  1.00  0.00     0.037 A 
ATOM     58  C   UNL A   1      41.391  28.690  31.367  1.00  0.00     0.049 A 
ATOM     59  C   UNL A   1      41.086  31.957  35.937  1.00  0.00     0.074 A 
ATOM     60  C   UNL A   1      42.396  27.738  31.353  1.00  0.00     0.029 A 
ATOM     61  N   UNL A   1      41.501  29.372  32.572  1.00  0.00    -0.354 N 
ATOM     62  N   UNL A   1      41.282  31.131  34.937  1.00  0.00    -0.248 NA
ATOM     63  C   UNL A   1      42.004  31.757  37.066  1.00  0.00     0.031 C 
ATOM     64  C   UNL A   1      43.084  27.815  32.569  1.00  0.00     0.029 A 
ATOM     65  C   UNL A   1      42.545  28.850  33.317  1.00  0.00     0.049 A 
ATOM     66  H   UNL A   1      40.921  30.115  32.854  1.00  0.00     0.167 HD
ATOM     67  C   UNL A   1      42.363  30.338  35.300  1.00  0.00     0.074 A 
ATOM     68  C   UNL A   1      42.787  30.790  36.609  1.00  0.00     0.031 C 
ATOM     69  C   UNL A   1      42.954  29.328  34.612  1.00  0.00     0.037 A 
BRANCH  56  70
ATOM     70  C   UNL A   1      40.380  28.124  29.120  1.00  0.00     0.064 A 
ATOM     71  C   UNL A   1      41.115  28.478  27.977  1.00  0.00     0.173 A 
ATOM     72  C   UNL A   1      39.628  26.941  29.073  1.00  0.00     0.173 A 
ATOM     73  F   UNL A   1      41.837  29.609  27.963  1.00  0.00    -0.203 F 
ATOM     74  C   UNL A   1      41.075  27.694  26.827  1.00  0.00     0.198 A 
ATOM     75  C   UNL A   1      39.615  26.143  27.932  1.00  0.00     0.198 A 
ATOM     76  F   UNL A   1      38.908  26.554  30.137  1.00  0.00    -0.203 F 
ATOM     77  F   UNL A   1      41.743  28.079  25.732  1.00  0.00    -0.200 F 
ATOM     78  C   UNL A   1      40.330  26.524  26.807  1.00  0.00     0.200 A 
ATOM     79  F   UNL A   1      38.902  25.008  27.919  1.00  0.00    -0.200 F 
ATOM     80  F   UNL A   1      40.295  25.768  25.701  1.00  0.00    -0.200 F 
ENDBRANCH  56  70
BRANCH  57  81
ATOM     81  C   UNL A   1      40.025  33.915  37.291  1.00  0.00     0.064 A 
ATOM     82  C   UNL A   1      39.204  33.583  38.376  1.00  0.00     0.173 A 
ATOM     83  C   UNL A   1      40.797  35.083  37.390  1.00  0.00     0.173 A 
ATOM     84  F   UNL A   1      38.431  32.488  38.321  1.00  0.00    -0.203 F 
ATOM     85  C   UNL A   1      39.142  34.395  39.507  1.00  0.00     0.198 A 
ATOM     86  C   UNL A   1      40.755  35.879  38.533  1.00  0.00     0.198 A 
ATOM     87  F   UNL A   1      41.600  35.447  36.380  1.00  0.00    -0.203 F 
ATOM     88  F   UNL A   1      38.314  34.078  40.512  1.00  0.00    -0.200 F 
ATOM     89  C   UNL A   1      39.922  35.539  39.587  1.00  0.00     0.200 A 
ATOM     90  F   UNL A   1      41.520  36.977  38.610  1.00  0.00    -0.200 F 
ATOM     91  F   UNL A   1      39.865  36.317  40.677  1.00  0.00    -0.200 F 
ENDBRANCH  57  81
BRANCH  69  92
ATOM     92  C   UNL A   1      44.151  28.677  35.243  1.00  0.00     0.064 A 
ATOM     93  C   UNL A   1      44.026  27.572  36.097  1.00  0.00     0.173 A 
ATOM     94  C   UNL A   1      45.443  29.143  34.952  1.00  0.00     0.173 A 
ATOM     95  F   UNL A   1      42.813  27.099  36.415  1.00  0.00    -0.203 F 
ATOM     96  C   UNL A   1      45.151  26.975  36.660  1.00  0.00     0.198 A 
ATOM     97  C   UNL A   1      46.566  28.523  35.492  1.00  0.00     0.198 A 
ATOM     98  F   UNL A   1      45.616  30.191  34.133  1.00  0.00    -0.203 F 
ATOM     99  F   UNL A   1      45.005  25.951  37.513  1.00  0.00    -0.200 F 
ATOM    100  C   UNL A   1      46.419  27.445  36.351  1.00  0.00     0.200 A 
ATOM    101  F   UNL A   1      47.791  28.969  35.181  1.00  0.00    -0.200 F 
ATOM    102  F   UNL A   1      47.500  26.864  36.889  1.00  0.00    -0.200 F 
ENDBRANCH  69  92
ENDBRANCH  43  44
ENDBRANCH  36  38
ENDBRANCH  35  36
ENDBRANCH  34  35
ENDBRANCH  33  34
ENDBRANCH  32  33
ENDBRANCH   1  32
TORSDOF 20
ENDMDL
