MODEL 1
REMARK VINA RESULT:     -11.0      0.000      0.000
REMARK SMILES COc1cc(/C=N/NC(=O)c2cccnc2)ccc1OCC(=O)OCCOCCOC(=O)c1ccc(-c2c3nc(c(-c4c(F)c(F)c(F)c(F)c4F)c4ccc([nH]4)c(-c4c(F)c(F)c(F)c(F)c4F)c4nc(c(-c5c(F)c(F)c(F)c(F)c5F)c5ccc2[nH]5)C=C4)C=C3)cc1
REMARK SMILES IDX 25 1 24 2 22 3 23 4 21 5 20 6 19 7 3 8 4 9 5 10 18 11 17 12
REMARK SMILES IDX 2 13 1 14 6 15 7 16 8 17 9 18 10 20 11 21 12 22 16 23 13 24
REMARK SMILES IDX 15 25 14 26 26 27 27 28 28 29 29 30 30 31 31 32 32 33 33 34
REMARK SMILES IDX 34 35 95 36 35 37 94 38 36 39 37 40 38 41 88 42 39 43 93 44
REMARK SMILES IDX 87 45 89 46 40 47 92 48 86 49 85 50 41 52 73 53 53 54 72 55
REMARK SMILES IDX 54 56 57 57 71 58 90 59 55 60 56 61 70 63 91 64 58 65 42 66
REMARK SMILES IDX 43 67 51 68 44 69 45 70 49 71 52 72 46 73 47 74 50 75 48 76
REMARK SMILES IDX 74 77 75 78 83 79 76 80 77 81 81 82 84 83 78 84 79 85 82 86
REMARK SMILES IDX 80 87 59 88 60 89 68 90 61 91 62 92 66 93 69 94 63 95 64 96
REMARK SMILES IDX 67 97 65 98
REMARK H PARENT 8 19 89 51 57 62
REMARK Flexibility Score: inf
ROOT
ATOM      1  C   UNL A   1      34.159  34.325  28.997  1.00  0.00     0.261 C 
ENDROOT
BRANCH   1   2
ATOM      2  O   UNL A   1      33.892  32.905  29.048  1.00  0.00    -0.461 OA
BRANCH   2   3
ATOM      3  C   UNL A   1      34.390  32.173  28.009  1.00  0.00     0.344 C 
ATOM      4  O   UNL A   1      35.427  32.440  27.410  1.00  0.00    -0.248 OA
BRANCH   3   5
ATOM      5  C   UNL A   1      33.487  31.006  27.586  1.00  0.00     0.352 C 
BRANCH   5   6
ATOM      6  O   UNL A   1      33.726  30.246  26.423  1.00  0.00    -0.478 OA
BRANCH   6   7
ATOM      7  C   UNL A   1      33.013  29.120  26.133  1.00  0.00     0.162 A 
ATOM      8  C   UNL A   1      31.836  28.969  25.380  1.00  0.00     0.161 A 
ATOM      9  C   UNL A   1      31.336  27.678  25.102  1.00  0.00     0.060 A 
ATOM     10  C   UNL A   1      32.011  26.552  25.599  1.00  0.00    -0.002 A 
ATOM     11  C   UNL A   1      33.603  27.984  26.702  1.00  0.00     0.051 A 
ATOM     12  C   UNL A   1      33.111  26.710  26.443  1.00  0.00     0.014 A 
BRANCH   8  13
ATOM     13  O   UNL A   1      31.077  30.067  25.080  1.00  0.00    -0.493 OA
ATOM     14  C   UNL A   1      30.273  29.951  23.909  1.00  0.00     0.278 C 
ENDBRANCH   8  13
BRANCH  10  15
ATOM     15  C   UNL A   1      31.707  25.159  25.210  1.00  0.00     0.141 C 
ATOM     16  N   UNL A   1      31.686  24.156  26.029  1.00  0.00    -0.180 NA
BRANCH  16  17
ATOM     17  N   UNL A   1      31.469  22.912  25.477  1.00  0.00    -0.243 N 
ATOM     18  C   UNL A   1      32.288  22.120  24.680  1.00  0.00     0.272 C 
ATOM     19  H   UNL A   1      30.590  22.518  25.682  1.00  0.00     0.194 HD
ATOM     20  O   UNL A   1      31.860  21.071  24.200  1.00  0.00    -0.267 OA
BRANCH  18  21
ATOM     21  C   UNL A   1      33.681  22.507  24.381  1.00  0.00     0.059 A 
ATOM     22  C   UNL A   1      34.685  22.568  25.347  1.00  0.00     0.017 A 
ATOM     23  C   UNL A   1      34.008  22.865  23.077  1.00  0.00     0.124 A 
ATOM     24  C   UNL A   1      35.936  23.076  25.002  1.00  0.00     0.021 A 
ATOM     25  N   UNL A   1      35.220  23.357  22.715  1.00  0.00    -0.264 NA
ATOM     26  C   UNL A   1      36.151  23.462  23.688  1.00  0.00     0.111 A 
ENDBRANCH  18  21
ENDBRANCH  16  17
ENDBRANCH  10  15
ENDBRANCH   6   7
ENDBRANCH   5   6
ENDBRANCH   3   5
ENDBRANCH   2   3
ENDBRANCH   1   2
BRANCH   1  27
ATOM     27  C   UNL A   1      34.102  34.992  30.376  1.00  0.00     0.202 C 
BRANCH  27  28
ATOM     28  O   UNL A   1      33.574  34.189  31.433  1.00  0.00    -0.374 OA
BRANCH  28  29
ATOM     29  C   UNL A   1      33.998  34.524  32.752  1.00  0.00     0.202 C 
BRANCH  29  30
ATOM     30  C   UNL A   1      34.577  33.378  33.571  1.00  0.00     0.261 C 
BRANCH  30  31
ATOM     31  O   UNL A   1      35.393  32.531  32.758  1.00  0.00    -0.460 OA
BRANCH  31  32
ATOM     32  C   UNL A   1      36.506  32.099  33.386  1.00  0.00     0.338 C 
ATOM     33  O   UNL A   1      36.770  32.158  34.572  1.00  0.00    -0.246 OA
BRANCH  32  34
ATOM     34  C   UNL A   1      37.321  31.341  32.432  1.00  0.00     0.060 A 
ATOM     35  C   UNL A   1      38.341  30.555  32.976  1.00  0.00     0.016 A 
ATOM     36  C   UNL A   1      37.140  31.453  31.052  1.00  0.00     0.016 A 
ATOM     37  C   UNL A   1      39.254  29.946  32.131  1.00  0.00     0.010 A 
ATOM     38  C   UNL A   1      38.058  30.839  30.203  1.00  0.00     0.010 A 
ATOM     39  C   UNL A   1      39.145  30.136  30.747  1.00  0.00    -0.014 A 
BRANCH  39  40
ATOM     40  C   UNL A   1      40.298  29.758  29.907  1.00  0.00     0.031 A 
ATOM     41  C   UNL A   1      41.396  30.762  29.711  1.00  0.00     0.074 A 
ATOM     42  C   UNL A   1      40.391  28.507  29.429  1.00  0.00     0.049 A 
ATOM     43  N   UNL A   1      42.536  30.635  29.086  1.00  0.00    -0.248 NA
ATOM     44  C   UNL A   1      41.180  32.093  30.305  1.00  0.00     0.031 C 
ATOM     45  C   UNL A   1      39.389  27.460  29.620  1.00  0.00     0.029 A 
ATOM     46  N   UNL A   1      41.382  27.904  28.707  1.00  0.00    -0.354 N 
ATOM     47  C   UNL A   1      43.173  31.863  29.215  1.00  0.00     0.074 A 
ATOM     48  C   UNL A   1      42.276  32.737  29.934  1.00  0.00     0.031 C 
ATOM     49  C   UNL A   1      39.828  26.329  29.040  1.00  0.00     0.029 A 
ATOM     50  C   UNL A   1      41.122  26.588  28.419  1.00  0.00     0.049 A 
ATOM     51  H   UNL A   1      42.203  28.367  28.423  1.00  0.00     0.167 HD
ATOM     52  C   UNL A   1      44.406  32.217  28.782  1.00  0.00     0.037 A 
ATOM     53  C   UNL A   1      41.858  25.702  27.723  1.00  0.00     0.037 A 
ATOM     54  C   UNL A   1      45.276  31.329  28.059  1.00  0.00     0.049 A 
ATOM     55  C   UNL A   1      43.194  26.145  27.187  1.00  0.00     0.074 A 
ATOM     56  C   UNL A   1      46.542  31.570  27.559  1.00  0.00     0.029 A 
ATOM     57  N   UNL A   1      44.956  30.018  27.727  1.00  0.00    -0.354 N 
ATOM     58  N   UNL A   1      43.799  27.302  27.323  1.00  0.00    -0.248 NA
ATOM     59  C   UNL A   1      43.950  25.158  26.408  1.00  0.00     0.031 C 
ATOM     60  C   UNL A   1      46.966  30.423  26.879  1.00  0.00     0.029 A 
ATOM     61  C   UNL A   1      45.990  29.445  27.007  1.00  0.00     0.049 A 
ATOM     62  H   UNL A   1      44.117  29.563  27.970  1.00  0.00     0.167 HD
ATOM     63  C   UNL A   1      45.018  27.175  26.673  1.00  0.00     0.074 A 
ATOM     64  C   UNL A   1      45.071  25.819  26.159  1.00  0.00     0.031 C 
ATOM     65  C   UNL A   1      46.008  28.090  26.511  1.00  0.00     0.037 A 
BRANCH  52  66
ATOM     66  C   UNL A   1      44.855  33.627  29.052  1.00  0.00     0.064 A 
ATOM     67  C   UNL A   1      44.524  34.688  28.194  1.00  0.00     0.173 A 
ATOM     68  C   UNL A   1      45.636  33.919  30.180  1.00  0.00     0.173 A 
ATOM     69  F   UNL A   1      43.795  34.461  27.091  1.00  0.00    -0.203 F 
ATOM     70  C   UNL A   1      44.986  35.980  28.437  1.00  0.00     0.198 A 
ATOM     71  C   UNL A   1      46.070  35.218  30.437  1.00  0.00     0.198 A 
ATOM     72  F   UNL A   1      45.984  32.944  31.034  1.00  0.00    -0.203 F 
ATOM     73  F   UNL A   1      44.709  36.963  27.570  1.00  0.00    -0.200 F 
ATOM     74  C   UNL A   1      45.754  36.245  29.560  1.00  0.00     0.200 A 
ATOM     75  F   UNL A   1      46.804  35.474  31.529  1.00  0.00    -0.200 F 
ATOM     76  F   UNL A   1      46.200  37.487  29.793  1.00  0.00    -0.200 F 
ENDBRANCH  52  66
BRANCH  53  77
ATOM     77  C   UNL A   1      41.355  24.320  27.514  1.00  0.00     0.064 A 
ATOM     78  C   UNL A   1      41.958  23.225  28.148  1.00  0.00     0.173 A 
ATOM     79  C   UNL A   1      40.254  24.065  26.682  1.00  0.00     0.173 A 
ATOM     80  F   UNL A   1      43.024  23.414  28.940  1.00  0.00    -0.203 F 
ATOM     81  C   UNL A   1      41.491  21.928  27.946  1.00  0.00     0.198 A 
ATOM     82  C   UNL A   1      39.768  22.771  26.504  1.00  0.00     0.198 A 
ATOM     83  F   UNL A   1      39.636  25.077  26.055  1.00  0.00    -0.203 F 
ATOM     84  F   UNL A   1      42.111  20.896  28.532  1.00  0.00    -0.200 F 
ATOM     85  C   UNL A   1      40.392  21.703  27.130  1.00  0.00     0.200 A 
ATOM     86  F   UNL A   1      38.696  22.561  25.729  1.00  0.00    -0.200 F 
ATOM     87  F   UNL A   1      39.938  20.456  26.942  1.00  0.00    -0.200 F 
ENDBRANCH  53  77
BRANCH  65  88
ATOM     88  C   UNL A   1      47.237  27.636  25.779  1.00  0.00     0.064 A 
ATOM     89  C   UNL A   1      47.333  27.710  24.382  1.00  0.00     0.173 A 
ATOM     90  C   UNL A   1      48.342  27.143  26.490  1.00  0.00     0.173 A 
ATOM     91  F   UNL A   1      46.298  28.160  23.657  1.00  0.00    -0.203 F 
ATOM     92  C   UNL A   1      48.475  27.269  23.721  1.00  0.00     0.198 A 
ATOM     93  C   UNL A   1      49.496  26.739  25.829  1.00  0.00     0.198 A 
ATOM     94  F   UNL A   1      48.304  27.062  27.829  1.00  0.00    -0.203 F 
ATOM     95  F   UNL A   1      48.521  27.289  22.382  1.00  0.00    -0.200 F 
ATOM     96  C   UNL A   1      49.558  26.790  24.445  1.00  0.00     0.200 A 
ATOM     97  F   UNL A   1      50.547  26.292  26.530  1.00  0.00    -0.200 F 
ATOM     98  F   UNL A   1      50.658  26.370  23.806  1.00  0.00    -0.200 F 
ENDBRANCH  65  88
ENDBRANCH  39  40
ENDBRANCH  32  34
ENDBRANCH  31  32
ENDBRANCH  30  31
ENDBRANCH  29  30
ENDBRANCH  28  29
ENDBRANCH  27  28
ENDBRANCH   1  27
TORSDOF 20
ENDMDL
MODEL 2
REMARK VINA RESULT:     -10.6      4.098      7.567
REMARK SMILES COc1cc(/C=N/NC(=O)c2cccnc2)ccc1OCC(=O)OCCOCCOC(=O)c1ccc(-c2c3nc(c(-c4c(F)c(F)c(F)c(F)c4F)c4ccc([nH]4)c(-c4c(F)c(F)c(F)c(F)c4F)c4nc(c(-c5c(F)c(F)c(F)c(F)c5F)c5ccc2[nH]5)C=C4)C=C3)cc1
REMARK SMILES IDX 25 1 24 2 22 3 23 4 21 5 20 6 19 7 3 8 4 9 5 10 18 11 17 12
REMARK SMILES IDX 2 13 1 14 6 15 7 16 8 17 9 18 10 20 11 21 12 22 16 23 13 24
REMARK SMILES IDX 15 25 14 26 26 27 27 28 28 29 29 30 30 31 31 32 32 33 33 34
REMARK SMILES IDX 34 35 95 36 35 37 94 38 36 39 37 40 38 41 88 42 39 43 93 44
REMARK SMILES IDX 87 45 89 46 40 47 92 48 86 49 85 50 41 52 73 53 53 54 72 55
REMARK SMILES IDX 54 56 57 57 71 58 90 59 55 60 56 61 70 63 91 64 58 65 42 66
REMARK SMILES IDX 43 67 51 68 44 69 45 70 49 71 52 72 46 73 47 74 50 75 48 76
REMARK SMILES IDX 74 77 75 78 83 79 76 80 77 81 81 82 84 83 78 84 79 85 82 86
REMARK SMILES IDX 80 87 59 88 60 89 68 90 61 91 62 92 66 93 69 94 63 95 64 96
REMARK SMILES IDX 67 97 65 98
REMARK H PARENT 8 19 89 51 57 62
REMARK Flexibility Score: inf
ROOT
ATOM      1  C   UNL A   1      35.598  32.932  30.780  1.00  0.00     0.261 C 
ENDROOT
BRANCH   1   2
ATOM      2  O   UNL A   1      34.726  32.358  31.780  1.00  0.00    -0.461 OA
BRANCH   2   3
ATOM      3  C   UNL A   1      34.455  33.153  32.855  1.00  0.00     0.344 C 
ATOM      4  O   UNL A   1      33.337  33.570  33.142  1.00  0.00    -0.248 OA
BRANCH   3   5
ATOM      5  C   UNL A   1      35.702  33.563  33.650  1.00  0.00     0.352 C 
BRANCH   5   6
ATOM      6  O   UNL A   1      36.309  32.713  34.598  1.00  0.00    -0.478 OA
BRANCH   6   7
ATOM      7  C   UNL A   1      37.433  31.995  34.313  1.00  0.00     0.162 A 
ATOM      8  C   UNL A   1      38.754  32.176  34.759  1.00  0.00     0.161 A 
ATOM      9  C   UNL A   1      39.746  31.226  34.430  1.00  0.00     0.060 A 
ATOM     10  C   UNL A   1      39.408  30.116  33.640  1.00  0.00    -0.002 A 
ATOM     11  C   UNL A   1      37.152  30.936  33.440  1.00  0.00     0.051 A 
ATOM     12  C   UNL A   1      38.125  30.003  33.102  1.00  0.00     0.014 A 
BRANCH   8  13
ATOM     13  O   UNL A   1      39.116  33.357  35.346  1.00  0.00    -0.493 OA
ATOM     14  C   UNL A   1      39.633  34.346  34.459  1.00  0.00     0.278 C 
ENDBRANCH   8  13
BRANCH  10  15
ATOM     15  C   UNL A   1      40.299  28.960  33.401  1.00  0.00     0.141 C 
ATOM     16  N   UNL A   1      41.571  28.954  33.638  1.00  0.00    -0.180 NA
BRANCH  16  17
ATOM     17  N   UNL A   1      42.262  27.818  33.272  1.00  0.00    -0.243 N 
ATOM     18  C   UNL A   1      43.345  27.184  33.873  1.00  0.00     0.272 C 
ATOM     19  H   UNL A   1      41.934  27.383  32.452  1.00  0.00     0.194 HD
ATOM     20  O   UNL A   1      43.885  26.226  33.323  1.00  0.00    -0.267 OA
BRANCH  18  21
ATOM     21  C   UNL A   1      43.880  27.636  35.173  1.00  0.00     0.059 A 
ATOM     22  C   UNL A   1      44.910  28.569  35.296  1.00  0.00     0.017 A 
ATOM     23  C   UNL A   1      43.358  27.083  36.337  1.00  0.00     0.124 A 
ATOM     24  C   UNL A   1      45.445  28.833  36.555  1.00  0.00     0.021 A 
ATOM     25  N   UNL A   1      43.858  27.328  37.575  1.00  0.00    -0.264 NA
ATOM     26  C   UNL A   1      44.896  28.189  37.653  1.00  0.00     0.111 A 
ENDBRANCH  18  21
ENDBRANCH  16  17
ENDBRANCH  10  15
ENDBRANCH   6   7
ENDBRANCH   5   6
ENDBRANCH   3   5
ENDBRANCH   2   3
ENDBRANCH   1   2
BRANCH   1  27
ATOM     27  C   UNL A   1      34.881  33.939  29.872  1.00  0.00     0.202 C 
BRANCH  27  28
ATOM     28  O   UNL A   1      33.615  33.523  29.360  1.00  0.00    -0.374 OA
BRANCH  28  29
ATOM     29  C   UNL A   1      33.590  33.112  27.995  1.00  0.00     0.202 C 
BRANCH  29  30
ATOM     30  C   UNL A   1      34.533  31.973  27.630  1.00  0.00     0.261 C 
BRANCH  30  31
ATOM     31  O   UNL A   1      34.044  30.726  28.127  1.00  0.00    -0.460 OA
BRANCH  31  32
ATOM     32  C   UNL A   1      34.720  29.659  27.654  1.00  0.00     0.338 C 
ATOM     33  O   UNL A   1      34.358  28.851  26.820  1.00  0.00    -0.246 OA
BRANCH  32  34
ATOM     34  C   UNL A   1      36.093  29.707  28.166  1.00  0.00     0.060 A 
ATOM     35  C   UNL A   1      37.082  30.082  27.252  1.00  0.00     0.016 A 
ATOM     36  C   UNL A   1      36.409  29.328  29.471  1.00  0.00     0.016 A 
ATOM     37  C   UNL A   1      38.415  29.988  27.615  1.00  0.00     0.010 A 
ATOM     38  C   UNL A   1      37.750  29.235  29.837  1.00  0.00     0.010 A 
ATOM     39  C   UNL A   1      38.749  29.509  28.889  1.00  0.00    -0.014 A 
BRANCH  39  40
ATOM     40  C   UNL A   1      40.150  29.113  29.130  1.00  0.00     0.031 A 
ATOM     41  C   UNL A   1      41.005  30.005  29.985  1.00  0.00     0.074 A 
ATOM     42  C   UNL A   1      40.595  27.931  28.678  1.00  0.00     0.049 A 
ATOM     43  N   UNL A   1      42.231  29.831  30.400  1.00  0.00    -0.248 NA
ATOM     44  C   UNL A   1      40.390  31.265  30.436  1.00  0.00     0.031 C 
ATOM     45  C   UNL A   1      39.809  26.988  27.884  1.00  0.00     0.029 A 
ATOM     46  N   UNL A   1      41.805  27.316  28.839  1.00  0.00    -0.354 N 
ATOM     47  C   UNL A   1      42.532  30.952  31.162  1.00  0.00     0.074 A 
ATOM     48  C   UNL A   1      41.380  31.824  31.114  1.00  0.00     0.031 C 
ATOM     49  C   UNL A   1      40.557  25.897  27.641  1.00  0.00     0.029 A 
ATOM     50  C   UNL A   1      41.875  26.086  28.238  1.00  0.00     0.049 A 
ATOM     51  H   UNL A   1      42.552  27.717  29.339  1.00  0.00     0.167 HD
ATOM     52  C   UNL A   1      43.666  31.217  31.852  1.00  0.00     0.037 A 
ATOM     53  C   UNL A   1      42.902  25.218  28.180  1.00  0.00     0.037 A 
ATOM     54  C   UNL A   1      44.802  30.335  31.876  1.00  0.00     0.049 A 
ATOM     55  C   UNL A   1      44.179  25.572  28.893  1.00  0.00     0.074 A 
ATOM     56  C   UNL A   1      46.011  30.494  32.527  1.00  0.00     0.029 A 
ATOM     57  N   UNL A   1      44.865  29.121  31.202  1.00  0.00    -0.354 N 
ATOM     58  N   UNL A   1      44.456  26.627  29.625  1.00  0.00    -0.248 NA
ATOM     59  C   UNL A   1      45.284  24.613  28.780  1.00  0.00     0.031 C 
ATOM     60  C   UNL A   1      46.824  29.402  32.204  1.00  0.00     0.029 A 
ATOM     61  C   UNL A   1      46.101  28.531  31.401  1.00  0.00     0.049 A 
ATOM     62  H   UNL A   1      44.136  28.737  30.662  1.00  0.00     0.167 HD
ATOM     63  C   UNL A   1      45.753  26.447  30.082  1.00  0.00     0.074 A 
ATOM     64  C   UNL A   1      46.200  25.170  29.558  1.00  0.00     0.031 C 
ATOM     65  C   UNL A   1      46.512  27.258  30.863  1.00  0.00     0.037 A 
BRANCH  52  66
ATOM     66  C   UNL A   1      43.733  32.521  32.598  1.00  0.00     0.064 A 
ATOM     67  C   UNL A   1      43.406  32.614  33.961  1.00  0.00     0.173 A 
ATOM     68  C   UNL A   1      44.118  33.698  31.938  1.00  0.00     0.173 A 
ATOM     69  F   UNL A   1      43.012  31.524  34.635  1.00  0.00    -0.203 F 
ATOM     70  C   UNL A   1      43.432  33.839  34.624  1.00  0.00     0.198 A 
ATOM     71  C   UNL A   1      44.174  34.915  32.613  1.00  0.00     0.198 A 
ATOM     72  F   UNL A   1      44.440  33.669  30.636  1.00  0.00    -0.203 F 
ATOM     73  F   UNL A   1      43.056  33.912  35.908  1.00  0.00    -0.200 F 
ATOM     74  C   UNL A   1      43.820  34.987  33.951  1.00  0.00     0.200 A 
ATOM     75  F   UNL A   1      44.560  36.022  31.963  1.00  0.00    -0.200 F 
ATOM     76  F   UNL A   1      43.843  36.166  34.589  1.00  0.00    -0.200 F 
ENDBRANCH  52  66
BRANCH  53  77
ATOM     77  C   UNL A   1      42.753  23.939  27.439  1.00  0.00     0.064 A 
ATOM     78  C   UNL A   1      43.111  23.837  26.088  1.00  0.00     0.173 A 
ATOM     79  C   UNL A   1      42.257  22.787  28.069  1.00  0.00     0.173 A 
ATOM     80  F   UNL A   1      43.576  24.914  25.436  1.00  0.00    -0.203 F 
ATOM     81  C   UNL A   1      42.965  22.639  25.392  1.00  0.00     0.198 A 
ATOM     82  C   UNL A   1      42.139  21.582  27.381  1.00  0.00     0.198 A 
ATOM     83  F   UNL A   1      41.904  22.828  29.362  1.00  0.00    -0.203 F 
ATOM     84  F   UNL A   1      43.277  22.581  24.090  1.00  0.00    -0.200 F 
ATOM     85  C   UNL A   1      42.486  21.511  26.040  1.00  0.00     0.200 A 
ATOM     86  F   UNL A   1      41.691  20.490  28.016  1.00  0.00    -0.200 F 
ATOM     87  F   UNL A   1      42.352  20.357  25.372  1.00  0.00    -0.200 F 
ENDBRANCH  53  77
BRANCH  65  88
ATOM     88  C   UNL A   1      47.884  26.765  31.220  1.00  0.00     0.064 A 
ATOM     89  C   UNL A   1      49.013  27.117  30.466  1.00  0.00     0.173 A 
ATOM     90  C   UNL A   1      48.071  25.948  32.345  1.00  0.00     0.173 A 
ATOM     91  F   UNL A   1      48.883  27.883  29.372  1.00  0.00    -0.203 F 
ATOM     92  C   UNL A   1      50.274  26.636  30.804  1.00  0.00     0.198 A 
ATOM     93  C   UNL A   1      49.339  25.500  32.701  1.00  0.00     0.198 A 
ATOM     94  F   UNL A   1      47.025  25.591  33.105  1.00  0.00    -0.203 F 
ATOM     95  F   UNL A   1      51.330  26.933  30.034  1.00  0.00    -0.200 F 
ATOM     96  C   UNL A   1      50.438  25.834  31.924  1.00  0.00     0.200 A 
ATOM     97  F   UNL A   1      49.498  24.740  33.793  1.00  0.00    -0.200 F 
ATOM     98  F   UNL A   1      51.654  25.376  32.249  1.00  0.00    -0.200 F 
ENDBRANCH  65  88
ENDBRANCH  39  40
ENDBRANCH  32  34
ENDBRANCH  31  32
ENDBRANCH  30  31
ENDBRANCH  29  30
ENDBRANCH  28  29
ENDBRANCH  27  28
ENDBRANCH   1  27
TORSDOF 20
ENDMDL
MODEL 3
REMARK VINA RESULT:     -10.4      0.991      2.162
REMARK SMILES COc1cc(/C=N/NC(=O)c2cccnc2)ccc1OCC(=O)OCCOCCOC(=O)c1ccc(-c2c3nc(c(-c4c(F)c(F)c(F)c(F)c4F)c4ccc([nH]4)c(-c4c(F)c(F)c(F)c(F)c4F)c4nc(c(-c5c(F)c(F)c(F)c(F)c5F)c5ccc2[nH]5)C=C4)C=C3)cc1
REMARK SMILES IDX 25 1 24 2 22 3 23 4 21 5 20 6 19 7 3 8 4 9 5 10 18 11 17 12
REMARK SMILES IDX 2 13 1 14 6 15 7 16 8 17 9 18 10 20 11 21 12 22 16 23 13 24
REMARK SMILES IDX 15 25 14 26 26 27 27 28 28 29 29 30 30 31 31 32 32 33 33 34
REMARK SMILES IDX 34 35 95 36 35 37 94 38 36 39 37 40 38 41 88 42 39 43 93 44
REMARK SMILES IDX 87 45 89 46 40 47 92 48 86 49 85 50 41 52 73 53 53 54 72 55
REMARK SMILES IDX 54 56 57 57 71 58 90 59 55 60 56 61 70 63 91 64 58 65 42 66
REMARK SMILES IDX 43 67 51 68 44 69 45 70 49 71 52 72 46 73 47 74 50 75 48 76
REMARK SMILES IDX 74 77 75 78 83 79 76 80 77 81 81 82 84 83 78 84 79 85 82 86
REMARK SMILES IDX 80 87 59 88 60 89 68 90 61 91 62 92 66 93 69 94 63 95 64 96
REMARK SMILES IDX 67 97 65 98
REMARK H PARENT 8 19 89 51 57 62
REMARK Flexibility Score: inf
ROOT
ATOM      1  C   UNL A   1      34.209  34.197  29.627  1.00  0.00     0.261 C 
ENDROOT
BRANCH   1   2
ATOM      2  O   UNL A   1      34.372  32.761  29.578  1.00  0.00    -0.461 OA
BRANCH   2   3
ATOM      3  C   UNL A   1      34.983  32.275  28.460  1.00  0.00     0.344 C 
ATOM      4  O   UNL A   1      35.783  32.908  27.779  1.00  0.00    -0.248 OA
BRANCH   3   5
ATOM      5  C   UNL A   1      34.518  30.866  28.064  1.00  0.00     0.352 C 
BRANCH   5   6
ATOM      6  O   UNL A   1      34.355  30.472  26.721  1.00  0.00    -0.478 OA
BRANCH   6   7
ATOM      7  C   UNL A   1      33.578  29.408  26.366  1.00  0.00     0.162 A 
ATOM      8  C   UNL A   1      32.179  29.300  26.291  1.00  0.00     0.161 A 
ATOM      9  C   UNL A   1      31.587  28.127  25.773  1.00  0.00     0.060 A 
ATOM     10  C   UNL A   1      32.406  27.065  25.357  1.00  0.00    -0.002 A 
ATOM     11  C   UNL A   1      34.361  28.293  26.043  1.00  0.00     0.051 A 
ATOM     12  C   UNL A   1      33.787  27.129  25.543  1.00  0.00     0.014 A 
BRANCH   8  13
ATOM     13  O   UNL A   1      31.392  30.248  26.887  1.00  0.00    -0.493 OA
ATOM     14  C   UNL A   1      31.147  31.415  26.108  1.00  0.00     0.278 C 
ENDBRANCH   8  13
BRANCH  10  15
ATOM     15  C   UNL A   1      31.921  25.880  24.618  1.00  0.00     0.141 C 
ATOM     16  N   UNL A   1      31.588  24.757  25.169  1.00  0.00    -0.180 NA
BRANCH  16  17
ATOM     17  N   UNL A   1      31.242  23.730  24.317  1.00  0.00    -0.243 N 
ATOM     18  C   UNL A   1      32.033  22.791  23.663  1.00  0.00     0.272 C 
ATOM     19  H   UNL A   1      30.276  23.646  24.145  1.00  0.00     0.194 HD
ATOM     20  O   UNL A   1      31.530  22.011  22.855  1.00  0.00    -0.267 OA
BRANCH  18  21
ATOM     21  C   UNL A   1      33.486  22.700  23.908  1.00  0.00     0.059 A 
ATOM     22  C   UNL A   1      34.410  23.606  23.387  1.00  0.00     0.017 A 
ATOM     23  C   UNL A   1      33.969  21.642  24.669  1.00  0.00     0.124 A 
ATOM     24  C   UNL A   1      35.772  23.366  23.554  1.00  0.00     0.021 A 
ATOM     25  N   UNL A   1      35.290  21.389  24.851  1.00  0.00    -0.264 NA
ATOM     26  C   UNL A   1      36.160  22.250  24.280  1.00  0.00     0.111 A 
ENDBRANCH  18  21
ENDBRANCH  16  17
ENDBRANCH  10  15
ENDBRANCH   6   7
ENDBRANCH   5   6
ENDBRANCH   3   5
ENDBRANCH   2   3
ENDBRANCH   1   2
BRANCH   1  27
ATOM     27  C   UNL A   1      34.179  34.745  31.059  1.00  0.00     0.202 C 
BRANCH  27  28
ATOM     28  O   UNL A   1      33.926  33.786  32.087  1.00  0.00    -0.374 OA
BRANCH  28  29
ATOM     29  C   UNL A   1      34.115  34.231  33.427  1.00  0.00     0.202 C 
BRANCH  29  30
ATOM     30  C   UNL A   1      35.179  33.489  34.226  1.00  0.00     0.261 C 
BRANCH  30  31
ATOM     31  O   UNL A   1      36.020  32.719  33.365  1.00  0.00    -0.460 OA
BRANCH  31  32
ATOM     32  C   UNL A   1      37.240  33.266  33.180  1.00  0.00     0.338 C 
ATOM     33  O   UNL A   1      37.729  34.221  33.754  1.00  0.00    -0.246 OA
BRANCH  32  34
ATOM     34  C   UNL A   1      38.012  32.403  32.281  1.00  0.00     0.060 A 
ATOM     35  C   UNL A   1      39.084  31.714  32.855  1.00  0.00     0.016 A 
ATOM     36  C   UNL A   1      37.740  32.327  30.914  1.00  0.00     0.016 A 
ATOM     37  C   UNL A   1      39.958  31.014  32.039  1.00  0.00     0.010 A 
ATOM     38  C   UNL A   1      38.618  31.622  30.094  1.00  0.00     0.010 A 
ATOM     39  C   UNL A   1      39.756  31.016  30.652  1.00  0.00    -0.014 A 
BRANCH  39  40
ATOM     40  C   UNL A   1      40.862  30.550  29.794  1.00  0.00     0.031 A 
ATOM     41  C   UNL A   1      41.990  31.499  29.507  1.00  0.00     0.074 A 
ATOM     42  C   UNL A   1      40.891  29.274  29.381  1.00  0.00     0.049 A 
ATOM     43  N   UNL A   1      43.101  31.296  28.851  1.00  0.00    -0.248 NA
ATOM     44  C   UNL A   1      41.846  32.866  30.037  1.00  0.00     0.031 C 
ATOM     45  C   UNL A   1      39.858  28.278  29.661  1.00  0.00     0.029 A 
ATOM     46  N   UNL A   1      41.833  28.595  28.658  1.00  0.00    -0.354 N 
ATOM     47  C   UNL A   1      43.787  32.502  28.893  1.00  0.00     0.074 A 
ATOM     48  C   UNL A   1      42.950  33.447  29.596  1.00  0.00     0.031 C 
ATOM     49  C   UNL A   1      40.233  27.103  29.127  1.00  0.00     0.029 A 
ATOM     50  C   UNL A   1      41.513  27.278  28.449  1.00  0.00     0.049 A 
ATOM     51  H   UNL A   1      42.659  29.011  28.321  1.00  0.00     0.167 HD
ATOM     52  C   UNL A   1      45.016  32.785  28.400  1.00  0.00     0.037 A 
ATOM     53  C   UNL A   1      42.189  26.329  27.776  1.00  0.00     0.037 A 
ATOM     54  C   UNL A   1      45.826  31.827  27.696  1.00  0.00     0.049 A 
ATOM     55  C   UNL A   1      43.520  26.691  27.172  1.00  0.00     0.074 A 
ATOM     56  C   UNL A   1      47.081  31.992  27.140  1.00  0.00     0.029 A 
ATOM     57  N   UNL A   1      45.445  30.514  27.445  1.00  0.00    -0.354 N 
ATOM     58  N   UNL A   1      44.173  27.828  27.225  1.00  0.00    -0.248 NA
ATOM     59  C   UNL A   1      44.210  25.636  26.421  1.00  0.00     0.031 C 
ATOM     60  C   UNL A   1      47.436  30.795  26.508  1.00  0.00     0.029 A 
ATOM     61  C   UNL A   1      46.430  29.864  26.721  1.00  0.00     0.049 A 
ATOM     62  H   UNL A   1      44.599  30.105  27.740  1.00  0.00     0.167 HD
ATOM     63  C   UNL A   1      45.362  27.620  26.542  1.00  0.00     0.074 A 
ATOM     64  C   UNL A   1      45.345  26.239  26.099  1.00  0.00     0.031 C 
ATOM     65  C   UNL A   1      46.379  28.486  26.298  1.00  0.00     0.037 A 
BRANCH  52  66
ATOM     66  C   UNL A   1      45.527  34.188  28.579  1.00  0.00     0.064 A 
ATOM     67  C   UNL A   1      46.302  34.558  29.691  1.00  0.00     0.173 A 
ATOM     68  C   UNL A   1      45.230  35.179  27.632  1.00  0.00     0.173 A 
ATOM     69  F   UNL A   1      46.599  33.655  30.637  1.00  0.00    -0.203 F 
ATOM     70  C   UNL A   1      46.729  35.873  29.862  1.00  0.00     0.198 A 
ATOM     71  C   UNL A   1      45.687  36.485  27.791  1.00  0.00     0.198 A 
ATOM     72  F   UNL A   1      44.493  34.882  26.551  1.00  0.00    -0.203 F 
ATOM     73  F   UNL A   1      47.414  36.215  30.962  1.00  0.00    -0.200 F 
ATOM     74  C   UNL A   1      46.426  36.834  28.910  1.00  0.00     0.200 A 
ATOM     75  F   UNL A   1      45.401  37.410  26.863  1.00  0.00    -0.200 F 
ATOM     76  F   UNL A   1      46.836  38.099  29.077  1.00  0.00    -0.200 F 
ENDBRANCH  52  66
BRANCH  53  77
ATOM     77  C   UNL A   1      41.628  24.959  27.658  1.00  0.00     0.064 A 
ATOM     78  C   UNL A   1      40.533  24.692  26.825  1.00  0.00     0.173 A 
ATOM     79  C   UNL A   1      42.180  23.883  28.370  1.00  0.00     0.173 A 
ATOM     80  F   UNL A   1      39.958  25.690  26.136  1.00  0.00    -0.203 F 
ATOM     81  C   UNL A   1      40.002  23.409  26.721  1.00  0.00     0.198 A 
ATOM     82  C   UNL A   1      41.669  22.593  28.242  1.00  0.00     0.198 A 
ATOM     83  F   UNL A   1      43.232  24.081  29.178  1.00  0.00    -0.203 F 
ATOM     84  F   UNL A   1      38.929  23.190  25.948  1.00  0.00    -0.200 F 
ATOM     85  C   UNL A   1      40.575  22.359  27.423  1.00  0.00     0.200 A 
ATOM     86  F   UNL A   1      42.236  21.580  28.910  1.00  0.00    -0.200 F 
ATOM     87  F   UNL A   1      40.068  21.122  27.316  1.00  0.00    -0.200 F 
ENDBRANCH  53  77
BRANCH  65  88
ATOM     88  C   UNL A   1      47.563  27.947  25.549  1.00  0.00     0.064 A 
ATOM     89  C   UNL A   1      48.720  27.513  26.213  1.00  0.00     0.173 A 
ATOM     90  C   UNL A   1      47.527  27.841  24.151  1.00  0.00     0.173 A 
ATOM     91  F   UNL A   1      48.807  27.608  27.549  1.00  0.00    -0.203 F 
ATOM     92  C   UNL A   1      49.813  27.031  25.500  1.00  0.00     0.198 A 
ATOM     93  C   UNL A   1      48.608  27.324  23.445  1.00  0.00     0.198 A 
ATOM     94  F   UNL A   1      46.440  28.233  23.469  1.00  0.00    -0.203 F 
ATOM     95  F   UNL A   1      50.931  26.682  26.150  1.00  0.00    -0.200 F 
ATOM     96  C   UNL A   1      49.754  26.930  24.118  1.00  0.00     0.200 A 
ATOM     97  F   UNL A   1      48.543  27.211  22.111  1.00  0.00    -0.200 F 
ATOM     98  F   UNL A   1      50.807  26.462  23.434  1.00  0.00    -0.200 F 
ENDBRANCH  65  88
ENDBRANCH  39  40
ENDBRANCH  32  34
ENDBRANCH  31  32
ENDBRANCH  30  31
ENDBRANCH  29  30
ENDBRANCH  28  29
ENDBRANCH  27  28
ENDBRANCH   1  27
TORSDOF 20
ENDMDL
