MODEL 1
REMARK VINA RESULT:     -11.8      0.000      0.000
REMARK SMILES Cc1ccc(S(=O)(=O)n2cc(C(=O)C(=O)N[C@@H](Cc3c[nH]c4ccccc34)C(=O)NCC(=O)OCCOCCOC(=O)c3ccc(-c4c5nc(c(-c6c(F)c(F)c(F)c(F)c6F)c6ccc([nH]6)c(-c6c(F)c(F)c(F)c(F)c6F)c6nc(c(-c7c(F)c(F)c(F)c(F)c7F)c7ccc4[nH]7)C=C6)C=C5)cc3)c3ccccc32)cc1
REMARK SMILES IDX 35 1 34 2 32 3 33 4 31 5 30 6 28 7 29 8 17 10 16 11 14 12
REMARK SMILES IDX 15 13 12 15 13 16 11 17 9 18 10 19 111 20 106 21 110 22
REMARK SMILES IDX 107 23 109 24 108 25 6 26 7 27 8 28 5 29 1 30 2 31 3 32
REMARK SMILES IDX 113 33 4 34 112 35 18 36 19 37 20 38 27 39 21 40 22 41 26 42
REMARK SMILES IDX 23 44 25 45 24 46 36 47 37 48 38 49 39 50 40 51 41 52 42 53
REMARK SMILES IDX 43 54 44 55 105 56 45 57 104 58 46 59 47 60 48 61 98 62
REMARK SMILES IDX 49 63 103 64 97 65 99 66 50 67 102 68 96 69 95 70 51 72
REMARK SMILES IDX 83 73 63 74 82 75 64 76 67 77 81 78 100 79 65 80 66 81 80 83
REMARK SMILES IDX 101 84 68 85 52 86 53 87 61 88 54 89 55 90 59 91 62 92 56 93
REMARK SMILES IDX 57 94 60 95 58 96 84 97 85 98 93 99 86 100 87 101 91 102
REMARK SMILES IDX 94 103 88 104 89 105 92 106 90 107 69 108 70 109 78 110
REMARK SMILES IDX 71 111 72 112 76 113 79 114 73 115 74 116 77 117 75 118
REMARK H PARENT 30 9 16 14 21 43 99 71 67 82
REMARK Flexibility Score: inf
ROOT
ATOM      1  C   UNL A   1      42.252  19.539  25.978  1.00  0.00     0.261 C 
ENDROOT
BRANCH   1   2
ATOM      2  O   UNL A   1      41.215  20.231  26.689  1.00  0.00    -0.462 OA
BRANCH   2   3
ATOM      3  C   UNL A   1      40.002  20.199  26.075  1.00  0.00     0.325 C 
ATOM      4  O   UNL A   1      39.590  19.254  25.413  1.00  0.00    -0.250 OA
BRANCH   3   5
ATOM      5  C   UNL A   1      39.211  21.450  26.368  1.00  0.00     0.238 C 
BRANCH   5   6
ATOM      6  N   UNL A   1      38.505  22.061  25.256  1.00  0.00    -0.343 N 
ATOM      7  C   UNL A   1      37.215  21.999  24.840  1.00  0.00     0.243 C 
ATOM      8  O   UNL A   1      36.925  22.837  23.974  1.00  0.00    -0.273 OA
ATOM      9  H   UNL A   1      39.075  22.631  24.694  1.00  0.00     0.164 HD
BRANCH   7  10
ATOM     10  C   UNL A   1      36.122  21.016  25.365  1.00  0.00     0.176 C 
BRANCH  10  11
ATOM     11  N   UNL A   1      35.363  21.436  26.572  1.00  0.00    -0.337 N 
ATOM     12  C   UNL A   1      34.538  22.555  26.788  1.00  0.00     0.293 C 
ATOM     13  O   UNL A   1      34.289  22.887  27.944  1.00  0.00    -0.265 OA
ATOM     14  H   UNL A   1      35.452  20.833  27.346  1.00  0.00     0.164 HD
BRANCH  12  15
ATOM     15  C   UNL A   1      33.924  23.375  25.626  1.00  0.00     0.252 C 
ATOM     16  O   UNL A   1      33.675  22.730  24.608  1.00  0.00    -0.283 OA
BRANCH  15  17
ATOM     17  C   UNL A   1      33.734  24.863  25.632  1.00  0.00     0.054 A 
ATOM     18  N   UNL A   1      33.868  27.143  25.488  1.00  0.00    -0.240 N 
ATOM     19  C   UNL A   1      34.599  25.974  25.757  1.00  0.00     0.117 A 
ATOM     20  C   UNL A   1      32.589  26.717  25.062  1.00  0.00     0.065 A 
ATOM     21  C   UNL A   1      32.428  25.451  25.610  1.00  0.00     0.012 A 
ATOM     22  C   UNL A   1      31.488  27.458  24.581  1.00  0.00     0.028 A 
ATOM     23  C   UNL A   1      31.119  25.022  25.918  1.00  0.00     0.011 A 
ATOM     24  C   UNL A   1      30.216  27.059  24.981  1.00  0.00     0.002 A 
ATOM     25  C   UNL A   1      30.037  25.879  25.687  1.00  0.00     0.001 A 
BRANCH  18  26
ATOM     26  S   UNL A   1      33.707  28.639  26.390  1.00  0.00     0.268 S 
ATOM     27  O   UNL A   1      32.731  28.276  27.407  1.00  0.00    -0.201 OA
ATOM     28  O   UNL A   1      33.356  29.535  25.290  1.00  0.00    -0.201 OA
BRANCH  26  29
ATOM     29  C   UNL A   1      34.780  29.739  27.245  1.00  0.00     0.088 A 
ATOM     30  C   UNL A   1      36.618  33.363  28.775  1.00  0.00     0.044 C 
ATOM     31  C   UNL A   1      36.003  32.070  28.318  1.00  0.00    -0.051 A 
ATOM     32  C   UNL A   1      34.669  32.111  27.959  1.00  0.00     0.005 A 
ATOM     33  C   UNL A   1      36.706  30.847  28.182  1.00  0.00     0.005 A 
ATOM     34  C   UNL A   1      34.079  30.965  27.458  1.00  0.00     0.022 A 
ATOM     35  C   UNL A   1      36.103  29.671  27.637  1.00  0.00     0.022 A 
ENDBRANCH  26  29
ENDBRANCH  18  26
ENDBRANCH  15  17
ENDBRANCH  12  15
ENDBRANCH  10  11
BRANCH  10  36
ATOM     36  C   UNL A   1      35.248  20.304  24.275  1.00  0.00     0.072 C 
BRANCH  36  37
ATOM     37  C   UNL A   1      34.105  19.404  24.675  1.00  0.00    -0.020 A 
ATOM     38  C   UNL A   1      32.840  19.816  25.074  1.00  0.00     0.087 A 
ATOM     39  C   UNL A   1      34.074  17.969  24.725  1.00  0.00     0.003 A 
ATOM     40  N   UNL A   1      32.140  18.724  25.526  1.00  0.00    -0.361 N 
ATOM     41  C   UNL A   1      32.912  17.595  25.411  1.00  0.00     0.046 A 
ATOM     42  C   UNL A   1      34.963  16.958  24.335  1.00  0.00     0.010 A 
ATOM     43  H   UNL A   1      31.222  18.748  25.878  1.00  0.00     0.166 HD
ATOM     44  C   UNL A   1      32.687  16.299  25.891  1.00  0.00     0.026 A 
ATOM     45  C   UNL A   1      34.686  15.643  24.713  1.00  0.00     0.001 A 
ATOM     46  C   UNL A   1      33.620  15.325  25.547  1.00  0.00     0.002 A 
ENDBRANCH  36  37
ENDBRANCH  10  36
ENDBRANCH   7  10
ENDBRANCH   5   6
ENDBRANCH   3   5
ENDBRANCH   2   3
ENDBRANCH   1   2
BRANCH   1  47
ATOM     47  C   UNL A   1      43.418  20.418  25.573  1.00  0.00     0.202 C 
BRANCH  47  48
ATOM     48  O   UNL A   1      43.114  21.740  26.006  1.00  0.00    -0.374 OA
BRANCH  48  49
ATOM     49  C   UNL A   1      43.145  22.757  25.016  1.00  0.00     0.202 C 
BRANCH  49  50
ATOM     50  C   UNL A   1      44.298  22.606  24.018  1.00  0.00     0.261 C 
BRANCH  50  51
ATOM     51  O   UNL A   1      45.218  23.704  24.174  1.00  0.00    -0.460 OA
BRANCH  51  52
ATOM     52  C   UNL A   1      46.202  23.512  25.096  1.00  0.00     0.338 C 
ATOM     53  O   UNL A   1      46.587  22.434  25.502  1.00  0.00    -0.246 OA
BRANCH  52  54
ATOM     54  C   UNL A   1      46.527  24.813  25.750  1.00  0.00     0.060 A 
ATOM     55  C   UNL A   1      46.378  24.951  27.142  1.00  0.00     0.016 A 
ATOM     56  C   UNL A   1      46.661  25.944  24.949  1.00  0.00     0.016 A 
ATOM     57  C   UNL A   1      46.210  26.222  27.704  1.00  0.00     0.010 A 
ATOM     58  C   UNL A   1      46.364  27.174  25.489  1.00  0.00     0.010 A 
ATOM     59  C   UNL A   1      46.098  27.319  26.860  1.00  0.00    -0.014 A 
BRANCH  59  60
ATOM     60  C   UNL A   1      45.705  28.675  27.242  1.00  0.00     0.031 A 
ATOM     61  C   UNL A   1      46.817  29.650  27.361  1.00  0.00     0.074 A 
ATOM     62  C   UNL A   1      44.415  29.089  27.186  1.00  0.00     0.049 A 
ATOM     63  N   UNL A   1      46.678  30.921  27.302  1.00  0.00    -0.248 NA
ATOM     64  C   UNL A   1      48.220  29.253  27.501  1.00  0.00     0.031 C 
ATOM     65  C   UNL A   1      43.933  30.465  27.105  1.00  0.00     0.029 A 
ATOM     66  N   UNL A   1      43.215  28.354  27.199  1.00  0.00    -0.354 N 
ATOM     67  C   UNL A   1      47.910  31.514  27.295  1.00  0.00     0.074 A 
ATOM     68  C   UNL A   1      48.849  30.428  27.382  1.00  0.00     0.031 C 
ATOM     69  C   UNL A   1      42.609  30.515  27.320  1.00  0.00     0.029 A 
ATOM     70  C   UNL A   1      42.244  29.195  27.782  1.00  0.00     0.049 A 
ATOM     71  H   UNL A   1      43.079  27.436  26.867  1.00  0.00     0.167 HD
ATOM     72  C   UNL A   1      47.935  32.870  27.200  1.00  0.00     0.037 A 
ATOM     73  C   UNL A   1      41.748  28.938  29.025  1.00  0.00     0.037 A 
ATOM     74  C   UNL A   1      46.637  33.404  27.663  1.00  0.00     0.049 A 
ATOM     75  C   UNL A   1      42.164  30.086  29.914  1.00  0.00     0.074 A 
ATOM     76  C   UNL A   1      45.597  34.113  27.093  1.00  0.00     0.029 A 
ATOM     77  N   UNL A   1      46.149  32.952  28.905  1.00  0.00    -0.354 N 
ATOM     78  N   UNL A   1      43.354  30.650  29.898  1.00  0.00    -0.248 NA
ATOM     79  C   UNL A   1      41.151  30.883  30.602  1.00  0.00     0.031 C 
ATOM     80  C   UNL A   1      44.453  33.973  27.945  1.00  0.00     0.029 A 
ATOM     81  C   UNL A   1      44.802  33.217  29.059  1.00  0.00     0.049 A 
ATOM     82  H   UNL A   1      46.702  32.499  29.582  1.00  0.00     0.167 HD
ATOM     83  C   UNL A   1      43.228  31.917  30.421  1.00  0.00     0.074 A 
ATOM     84  C   UNL A   1      41.844  31.999  30.876  1.00  0.00     0.031 C 
ATOM     85  C   UNL A   1      44.114  32.956  30.319  1.00  0.00     0.037 A 
BRANCH  72  86
ATOM     86  C   UNL A   1      49.081  33.687  26.625  1.00  0.00     0.064 A 
ATOM     87  C   UNL A   1      50.342  33.708  27.262  1.00  0.00     0.173 A 
ATOM     88  C   UNL A   1      48.981  34.574  25.526  1.00  0.00     0.173 A 
ATOM     89  F   UNL A   1      50.586  32.956  28.343  1.00  0.00    -0.203 F 
ATOM     90  C   UNL A   1      51.397  34.531  26.835  1.00  0.00     0.198 A 
ATOM     91  C   UNL A   1      50.046  35.365  25.077  1.00  0.00     0.198 A 
ATOM     92  F   UNL A   1      47.839  34.767  24.863  1.00  0.00    -0.203 F 
ATOM     93  F   UNL A   1      52.552  34.537  27.514  1.00  0.00    -0.200 F 
ATOM     94  C   UNL A   1      51.253  35.350  25.735  1.00  0.00     0.200 A 
ATOM     95  F   UNL A   1      49.875  36.163  24.012  1.00  0.00    -0.200 F 
ATOM     96  F   UNL A   1      52.258  36.136  25.327  1.00  0.00    -0.200 F 
ENDBRANCH  72  86
BRANCH  73  97
ATOM     97  C   UNL A   1      41.606  27.472  29.265  1.00  0.00     0.064 A 
ATOM     98  C   UNL A   1      40.436  26.877  28.738  1.00  0.00     0.173 A 
ATOM     99  C   UNL A   1      42.710  26.630  29.432  1.00  0.00     0.173 A 
ATOM    100  F   UNL A   1      39.303  27.586  28.657  1.00  0.00    -0.203 F 
ATOM    101  C   UNL A   1      40.445  25.603  28.174  1.00  0.00     0.198 A 
ATOM    102  C   UNL A   1      42.696  25.323  28.921  1.00  0.00     0.198 A 
ATOM    103  F   UNL A   1      43.850  27.102  29.953  1.00  0.00    -0.203 F 
ATOM    104  F   UNL A   1      39.378  25.165  27.490  1.00  0.00    -0.200 F 
ATOM    105  C   UNL A   1      41.595  24.842  28.226  1.00  0.00     0.200 A 
ATOM    106  F   UNL A   1      43.797  24.560  29.001  1.00  0.00    -0.200 F 
ATOM    107  F   UNL A   1      41.661  23.675  27.567  1.00  0.00    -0.200 F 
ENDBRANCH  73  97
BRANCH  85 108
ATOM    108  C   UNL A   1      44.303  33.932  31.462  1.00  0.00     0.064 A 
ATOM    109  C   UNL A   1      43.691  35.199  31.501  1.00  0.00     0.173 A 
ATOM    110  C   UNL A   1      44.954  33.538  32.657  1.00  0.00     0.173 A 
ATOM    111  F   UNL A   1      42.941  35.655  30.488  1.00  0.00    -0.203 F 
ATOM    112  C   UNL A   1      43.782  36.032  32.614  1.00  0.00     0.198 A 
ATOM    113  C   UNL A   1      44.993  34.350  33.786  1.00  0.00     0.198 A 
ATOM    114  F   UNL A   1      45.529  32.336  32.794  1.00  0.00    -0.203 F 
ATOM    115  F   UNL A   1      43.213  37.244  32.577  1.00  0.00    -0.200 F 
ATOM    116  C   UNL A   1      44.421  35.603  33.759  1.00  0.00     0.200 A 
ATOM    117  F   UNL A   1      45.563  33.893  34.910  1.00  0.00    -0.200 F 
ATOM    118  F   UNL A   1      44.462  36.387  34.845  1.00  0.00    -0.200 F 
ENDBRANCH  85 108
ENDBRANCH  59  60
ENDBRANCH  52  54
ENDBRANCH  51  52
ENDBRANCH  50  51
ENDBRANCH  49  50
ENDBRANCH  48  49
ENDBRANCH  47  48
ENDBRANCH   1  47
TORSDOF 23
ENDMDL
MODEL 2
REMARK VINA RESULT:     -11.0      4.148      9.889
REMARK SMILES Cc1ccc(S(=O)(=O)n2cc(C(=O)C(=O)N[C@@H](Cc3c[nH]c4ccccc34)C(=O)NCC(=O)OCCOCCOC(=O)c3ccc(-c4c5nc(c(-c6c(F)c(F)c(F)c(F)c6F)c6ccc([nH]6)c(-c6c(F)c(F)c(F)c(F)c6F)c6nc(c(-c7c(F)c(F)c(F)c(F)c7F)c7ccc4[nH]7)C=C6)C=C5)cc3)c3ccccc32)cc1
REMARK SMILES IDX 35 1 34 2 32 3 33 4 31 5 30 6 28 7 29 8 17 10 16 11 14 12
REMARK SMILES IDX 15 13 12 15 13 16 11 17 9 18 10 19 111 20 106 21 110 22
REMARK SMILES IDX 107 23 109 24 108 25 6 26 7 27 8 28 5 29 1 30 2 31 3 32
REMARK SMILES IDX 113 33 4 34 112 35 18 36 19 37 20 38 27 39 21 40 22 41 26 42
REMARK SMILES IDX 23 44 25 45 24 46 36 47 37 48 38 49 39 50 40 51 41 52 42 53
REMARK SMILES IDX 43 54 44 55 105 56 45 57 104 58 46 59 47 60 48 61 98 62
REMARK SMILES IDX 49 63 103 64 97 65 99 66 50 67 102 68 96 69 95 70 51 72
REMARK SMILES IDX 83 73 63 74 82 75 64 76 67 77 81 78 100 79 65 80 66 81 80 83
REMARK SMILES IDX 101 84 68 85 52 86 53 87 61 88 54 89 55 90 59 91 62 92 56 93
REMARK SMILES IDX 57 94 60 95 58 96 84 97 85 98 93 99 86 100 87 101 91 102
REMARK SMILES IDX 94 103 88 104 89 105 92 106 90 107 69 108 70 109 78 110
REMARK SMILES IDX 71 111 72 112 76 113 79 114 73 115 74 116 77 117 75 118
REMARK H PARENT 30 9 16 14 21 43 99 71 67 82
REMARK Flexibility Score: inf
ROOT
ATOM      1  C   UNL A   1      40.115  33.851  30.540  1.00  0.00     0.261 C 
ENDROOT
BRANCH   1   2
ATOM      2  O   UNL A   1      39.297  32.886  29.863  1.00  0.00    -0.462 OA
BRANCH   2   3
ATOM      3  C   UNL A   1      37.961  33.087  30.010  1.00  0.00     0.325 C 
ATOM      4  O   UNL A   1      37.434  33.492  31.040  1.00  0.00    -0.250 OA
BRANCH   3   5
ATOM      5  C   UNL A   1      37.223  32.807  28.724  1.00  0.00     0.238 C 
BRANCH   5   6
ATOM      6  N   UNL A   1      35.789  33.031  28.722  1.00  0.00    -0.343 N 
ATOM      7  C   UNL A   1      34.736  32.246  28.382  1.00  0.00     0.243 C 
ATOM      8  O   UNL A   1      33.635  32.703  28.724  1.00  0.00    -0.273 OA
ATOM      9  H   UNL A   1      35.530  33.929  29.028  1.00  0.00     0.164 HD
BRANCH   7  10
ATOM     10  C   UNL A   1      34.810  30.870  27.649  1.00  0.00     0.176 C 
BRANCH  10  11
ATOM     11  N   UNL A   1      33.996  30.720  26.414  1.00  0.00    -0.337 N 
ATOM     12  C   UNL A   1      33.336  29.596  25.886  1.00  0.00     0.293 C 
ATOM     13  O   UNL A   1      33.015  29.604  24.701  1.00  0.00    -0.265 OA
ATOM     14  H   UNL A   1      33.905  31.541  25.878  1.00  0.00     0.164 HD
BRANCH  12  15
ATOM     15  C   UNL A   1      32.989  28.354  26.745  1.00  0.00     0.252 C 
ATOM     16  O   UNL A   1      32.579  28.602  27.879  1.00  0.00    -0.283 OA
BRANCH  15  17
ATOM     17  C   UNL A   1      33.223  26.930  26.331  1.00  0.00     0.054 A 
ATOM     18  N   UNL A   1      34.002  24.837  25.838  1.00  0.00    -0.240 N 
ATOM     19  C   UNL A   1      34.348  26.197  25.890  1.00  0.00     0.117 A 
ATOM     20  C   UNL A   1      32.703  24.740  26.386  1.00  0.00     0.065 A 
ATOM     21  C   UNL A   1      32.142  25.998  26.212  1.00  0.00     0.012 A 
ATOM     22  C   UNL A   1      31.905  23.608  26.661  1.00  0.00     0.028 A 
ATOM     23  C   UNL A   1      30.741  26.086  26.055  1.00  0.00     0.011 A 
ATOM     24  C   UNL A   1      30.539  23.703  26.409  1.00  0.00     0.002 A 
ATOM     25  C   UNL A   1      29.970  24.918  26.058  1.00  0.00     0.001 A 
BRANCH  18  26
ATOM     26  S   UNL A   1      34.180  23.648  24.561  1.00  0.00     0.268 S 
ATOM     27  O   UNL A   1      35.533  23.907  24.092  1.00  0.00    -0.201 OA
ATOM     28  O   UNL A   1      33.018  24.005  23.749  1.00  0.00    -0.201 OA
BRANCH  26  29
ATOM     29  C   UNL A   1      34.035  21.902  24.408  1.00  0.00     0.088 A 
ATOM     30  C   UNL A   1      32.379  17.922  23.888  1.00  0.00     0.044 C 
ATOM     31  C   UNL A   1      33.022  19.273  24.028  1.00  0.00    -0.051 A 
ATOM     32  C   UNL A   1      32.332  20.347  23.497  1.00  0.00     0.005 A 
ATOM     33  C   UNL A   1      34.242  19.518  24.706  1.00  0.00     0.005 A 
ATOM     34  C   UNL A   1      32.845  21.619  23.670  1.00  0.00     0.022 A 
ATOM     35  C   UNL A   1      34.757  20.836  24.909  1.00  0.00     0.022 A 
ENDBRANCH  26  29
ENDBRANCH  18  26
ENDBRANCH  15  17
ENDBRANCH  12  15
ENDBRANCH  10  11
BRANCH  10  36
ATOM     36  C   UNL A   1      36.227  30.203  27.566  1.00  0.00     0.072 C 
BRANCH  36  37
ATOM     37  C   UNL A   1      36.856  29.580  28.788  1.00  0.00    -0.020 A 
ATOM     38  C   UNL A   1      36.272  29.475  30.044  1.00  0.00     0.087 A 
ATOM     39  C   UNL A   1      38.152  28.976  28.916  1.00  0.00     0.003 A 
ATOM     40  N   UNL A   1      37.213  29.015  30.933  1.00  0.00    -0.361 N 
ATOM     41  C   UNL A   1      38.401  28.794  30.282  1.00  0.00     0.046 A 
ATOM     42  C   UNL A   1      39.172  28.651  28.012  1.00  0.00     0.010 A 
ATOM     43  H   UNL A   1      37.058  28.866  31.893  1.00  0.00     0.166 HD
ATOM     44  C   UNL A   1      39.667  28.490  30.798  1.00  0.00     0.026 A 
ATOM     45  C   UNL A   1      40.406  28.236  28.517  1.00  0.00     0.001 A 
ATOM     46  C   UNL A   1      40.681  28.237  29.880  1.00  0.00     0.002 A 
ENDBRANCH  36  37
ENDBRANCH  10  36
ENDBRANCH   7  10
ENDBRANCH   5   6
ENDBRANCH   3   5
ENDBRANCH   2   3
ENDBRANCH   1   2
BRANCH   1  47
ATOM     47  C   UNL A   1      41.124  34.544  29.645  1.00  0.00     0.202 C 
BRANCH  47  48
ATOM     48  O   UNL A   1      42.302  34.741  30.419  1.00  0.00    -0.374 OA
BRANCH  48  49
ATOM     49  C   UNL A   1      43.344  35.490  29.814  1.00  0.00     0.202 C 
BRANCH  49  50
ATOM     50  C   UNL A   1      44.475  34.623  29.251  1.00  0.00     0.261 C 
BRANCH  50  51
ATOM     51  O   UNL A   1      45.711  34.949  29.917  1.00  0.00    -0.460 OA
BRANCH  51  52
ATOM     52  C   UNL A   1      45.765  34.618  31.237  1.00  0.00     0.338 C 
ATOM     53  O   UNL A   1      45.776  35.407  32.161  1.00  0.00    -0.246 OA
BRANCH  52  54
ATOM     54  C   UNL A   1      46.108  33.173  31.371  1.00  0.00     0.060 A 
ATOM     55  C   UNL A   1      47.394  32.725  31.015  1.00  0.00     0.016 A 
ATOM     56  C   UNL A   1      45.074  32.256  31.537  1.00  0.00     0.016 A 
ATOM     57  C   UNL A   1      47.597  31.383  30.677  1.00  0.00     0.010 A 
ATOM     58  C   UNL A   1      45.251  30.971  31.079  1.00  0.00     0.010 A 
ATOM     59  C   UNL A   1      46.500  30.535  30.609  1.00  0.00    -0.014 A 
BRANCH  59  60
ATOM     60  C   UNL A   1      46.481  29.175  30.069  1.00  0.00     0.031 A 
ATOM     61  C   UNL A   1      46.517  29.080  28.588  1.00  0.00     0.074 A 
ATOM     62  C   UNL A   1      46.730  28.092  30.845  1.00  0.00     0.049 A 
ATOM     63  N   UNL A   1      46.887  28.043  27.935  1.00  0.00    -0.248 NA
ATOM     64  C   UNL A   1      46.183  30.200  27.705  1.00  0.00     0.031 C 
ATOM     65  C   UNL A   1      47.172  26.773  30.402  1.00  0.00     0.029 A 
ATOM     66  N   UNL A   1      46.631  27.921  32.238  1.00  0.00    -0.354 N 
ATOM     67  C   UNL A   1      46.944  28.340  26.602  1.00  0.00     0.074 A 
ATOM     68  C   UNL A   1      46.532  29.714  26.507  1.00  0.00     0.031 C 
ATOM     69  C   UNL A   1      47.074  25.882  31.402  1.00  0.00     0.029 A 
ATOM     70  C   UNL A   1      46.338  26.556  32.448  1.00  0.00     0.049 A 
ATOM     71  H   UNL A   1      46.744  28.614  32.929  1.00  0.00     0.167 HD
ATOM     72  C   UNL A   1      47.357  27.346  25.771  1.00  0.00     0.037 A 
ATOM     73  C   UNL A   1      45.110  26.162  32.886  1.00  0.00     0.037 A 
ATOM     74  C   UNL A   1      47.132  26.046  26.436  1.00  0.00     0.049 A 
ATOM     75  C   UNL A   1      44.492  25.333  31.785  1.00  0.00     0.074 A 
ATOM     76  C   UNL A   1      47.930  25.008  26.882  1.00  0.00     0.029 A 
ATOM     77  N   UNL A   1      45.858  25.804  26.986  1.00  0.00    -0.354 N 
ATOM     78  N   UNL A   1      44.554  25.628  30.503  1.00  0.00    -0.248 NA
ATOM     79  C   UNL A   1      44.090  23.953  32.045  1.00  0.00     0.031 C 
ATOM     80  C   UNL A   1      47.156  24.224  27.797  1.00  0.00     0.029 A 
ATOM     81  C   UNL A   1      45.871  24.751  27.880  1.00  0.00     0.049 A 
ATOM     82  H   UNL A   1      45.053  26.325  26.762  1.00  0.00     0.167 HD
ATOM     83  C   UNL A   1      44.359  24.467  29.791  1.00  0.00     0.074 A 
ATOM     84  C   UNL A   1      44.040  23.460  30.798  1.00  0.00     0.031 C 
ATOM     85  C   UNL A   1      44.640  24.238  28.471  1.00  0.00     0.037 A 
BRANCH  72  86
ATOM     86  C   UNL A   1      48.024  27.554  24.421  1.00  0.00     0.064 A 
ATOM     87  C   UNL A   1      47.273  27.984  23.305  1.00  0.00     0.173 A 
ATOM     88  C   UNL A   1      49.368  27.227  24.115  1.00  0.00     0.173 A 
ATOM     89  F   UNL A   1      45.974  28.291  23.419  1.00  0.00    -0.203 F 
ATOM     90  C   UNL A   1      47.817  28.083  22.014  1.00  0.00     0.198 A 
ATOM     91  C   UNL A   1      49.920  27.365  22.835  1.00  0.00     0.198 A 
ATOM     92  F   UNL A   1      50.202  26.708  25.018  1.00  0.00    -0.203 F 
ATOM     93  F   UNL A   1      47.036  28.453  20.990  1.00  0.00    -0.200 F 
ATOM     94  C   UNL A   1      49.143  27.786  21.781  1.00  0.00     0.200 A 
ATOM     95  F   UNL A   1      51.210  27.057  22.634  1.00  0.00    -0.200 F 
ATOM     96  F   UNL A   1      49.663  27.880  20.551  1.00  0.00    -0.200 F 
ENDBRANCH  72  86
BRANCH  73  97
ATOM     97  C   UNL A   1      44.539  27.134  33.863  1.00  0.00     0.064 A 
ATOM     98  C   UNL A   1      43.339  27.768  33.464  1.00  0.00     0.173 A 
ATOM     99  C   UNL A   1      44.756  27.026  35.241  1.00  0.00     0.173 A 
ATOM    100  F   UNL A   1      43.112  28.015  32.168  1.00  0.00    -0.203 F 
ATOM    101  C   UNL A   1      42.312  28.039  34.366  1.00  0.00     0.198 A 
ATOM    102  C   UNL A   1      43.743  27.361  36.153  1.00  0.00     0.198 A 
ATOM    103  F   UNL A   1      45.880  26.467  35.708  1.00  0.00    -0.203 F 
ATOM    104  F   UNL A   1      41.111  28.434  33.916  1.00  0.00    -0.200 F 
ATOM    105  C   UNL A   1      42.500  27.790  35.710  1.00  0.00     0.200 A 
ATOM    106  F   UNL A   1      43.930  27.159  37.466  1.00  0.00    -0.200 F 
ATOM    107  F   UNL A   1      41.475  27.912  36.567  1.00  0.00    -0.200 F 
ENDBRANCH  73  97
BRANCH  85 108
ATOM    108  C   UNL A   1      43.752  23.343  27.631  1.00  0.00     0.064 A 
ATOM    109  C   UNL A   1      44.253  22.337  26.784  1.00  0.00     0.173 A 
ATOM    110  C   UNL A   1      42.346  23.341  27.805  1.00  0.00     0.173 A 
ATOM    111  F   UNL A   1      45.569  22.143  26.618  1.00  0.00    -0.203 F 
ATOM    112  C   UNL A   1      43.417  21.448  26.113  1.00  0.00     0.198 A 
ATOM    113  C   UNL A   1      41.520  22.415  27.177  1.00  0.00     0.198 A 
ATOM    114  F   UNL A   1      41.726  24.197  28.628  1.00  0.00    -0.203 F 
ATOM    115  F   UNL A   1      43.950  20.537  25.288  1.00  0.00    -0.200 F 
ATOM    116  C   UNL A   1      42.052  21.479  26.318  1.00  0.00     0.200 A 
ATOM    117  F   UNL A   1      40.204  22.418  27.436  1.00  0.00    -0.200 F 
ATOM    118  F   UNL A   1      41.257  20.590  25.710  1.00  0.00    -0.200 F 
ENDBRANCH  85 108
ENDBRANCH  59  60
ENDBRANCH  52  54
ENDBRANCH  51  52
ENDBRANCH  50  51
ENDBRANCH  49  50
ENDBRANCH  48  49
ENDBRANCH  47  48
ENDBRANCH   1  47
TORSDOF 23
ENDMDL
MODEL 3
REMARK VINA RESULT:     -10.8      1.265      2.051
REMARK SMILES Cc1ccc(S(=O)(=O)n2cc(C(=O)C(=O)N[C@@H](Cc3c[nH]c4ccccc34)C(=O)NCC(=O)OCCOCCOC(=O)c3ccc(-c4c5nc(c(-c6c(F)c(F)c(F)c(F)c6F)c6ccc([nH]6)c(-c6c(F)c(F)c(F)c(F)c6F)c6nc(c(-c7c(F)c(F)c(F)c(F)c7F)c7ccc4[nH]7)C=C6)C=C5)cc3)c3ccccc32)cc1
REMARK SMILES IDX 35 1 34 2 32 3 33 4 31 5 30 6 28 7 29 8 17 10 16 11 14 12
REMARK SMILES IDX 15 13 12 15 13 16 11 17 9 18 10 19 111 20 106 21 110 22
REMARK SMILES IDX 107 23 109 24 108 25 6 26 7 27 8 28 5 29 1 30 2 31 3 32
REMARK SMILES IDX 113 33 4 34 112 35 18 36 19 37 20 38 27 39 21 40 22 41 26 42
REMARK SMILES IDX 23 44 25 45 24 46 36 47 37 48 38 49 39 50 40 51 41 52 42 53
REMARK SMILES IDX 43 54 44 55 105 56 45 57 104 58 46 59 47 60 48 61 98 62
REMARK SMILES IDX 49 63 103 64 97 65 99 66 50 67 102 68 96 69 95 70 51 72
REMARK SMILES IDX 83 73 63 74 82 75 64 76 67 77 81 78 100 79 65 80 66 81 80 83
REMARK SMILES IDX 101 84 68 85 52 86 53 87 61 88 54 89 55 90 59 91 62 92 56 93
REMARK SMILES IDX 57 94 60 95 58 96 84 97 85 98 93 99 86 100 87 101 91 102
REMARK SMILES IDX 94 103 88 104 89 105 92 106 90 107 69 108 70 109 78 110
REMARK SMILES IDX 71 111 72 112 76 113 79 114 73 115 74 116 77 117 75 118
REMARK H PARENT 30 9 16 14 21 43 99 71 67 82
REMARK Flexibility Score: inf
ROOT
ATOM      1  C   UNL A   1      42.361  21.228  26.334  1.00  0.00     0.261 C 
ENDROOT
BRANCH   1   2
ATOM      2  O   UNL A   1      41.365  22.208  26.008  1.00  0.00    -0.462 OA
BRANCH   2   3
ATOM      3  C   UNL A   1      40.086  21.788  26.199  1.00  0.00     0.325 C 
ATOM      4  O   UNL A   1      39.689  20.656  25.948  1.00  0.00    -0.250 OA
BRANCH   3   5
ATOM      5  C   UNL A   1      39.241  22.875  26.814  1.00  0.00     0.238 C 
BRANCH   5   6
ATOM      6  N   UNL A   1      38.310  23.564  25.938  1.00  0.00    -0.343 N 
ATOM      7  C   UNL A   1      37.034  23.300  25.561  1.00  0.00     0.243 C 
ATOM      8  O   UNL A   1      36.478  24.238  24.972  1.00  0.00    -0.273 OA
ATOM      9  H   UNL A   1      38.678  24.385  25.540  1.00  0.00     0.164 HD
BRANCH   7  10
ATOM     10  C   UNL A   1      36.250  21.975  25.825  1.00  0.00     0.176 C 
BRANCH  10  11
ATOM     11  N   UNL A   1      35.201  22.013  26.877  1.00  0.00    -0.337 N 
ATOM     12  C   UNL A   1      34.033  22.789  26.973  1.00  0.00     0.293 C 
ATOM     13  O   UNL A   1      33.494  22.909  28.071  1.00  0.00    -0.265 OA
ATOM     14  H   UNL A   1      35.348  21.393  27.628  1.00  0.00     0.164 HD
BRANCH  12  15
ATOM     15  C   UNL A   1      33.393  23.490  25.748  1.00  0.00     0.252 C 
ATOM     16  O   UNL A   1      33.115  22.745  24.808  1.00  0.00    -0.283 OA
BRANCH  15  17
ATOM     17  C   UNL A   1      33.210  24.972  25.604  1.00  0.00     0.054 A 
ATOM     18  N   UNL A   1      33.373  27.234  25.300  1.00  0.00    -0.240 N 
ATOM     19  C   UNL A   1      34.048  26.097  25.776  1.00  0.00     0.117 A 
ATOM     20  C   UNL A   1      32.177  26.764  24.712  1.00  0.00     0.065 A 
ATOM     21  C   UNL A   1      31.926  25.544  25.327  1.00  0.00     0.012 A 
ATOM     22  C   UNL A   1      31.170  27.454  24.004  1.00  0.00     0.028 A 
ATOM     23  C   UNL A   1      30.583  25.129  25.456  1.00  0.00     0.011 A 
ATOM     24  C   UNL A   1      29.849  27.076  24.227  1.00  0.00     0.002 A 
ATOM     25  C   UNL A   1      29.555  25.956  24.988  1.00  0.00     0.001 A 
BRANCH  18  26
ATOM     26  S   UNL A   1      33.077  28.795  26.043  1.00  0.00     0.268 S 
ATOM     27  O   UNL A   1      31.955  28.504  26.923  1.00  0.00    -0.201 OA
ATOM     28  O   UNL A   1      32.900  29.596  24.833  1.00  0.00    -0.201 OA
BRANCH  26  29
ATOM     29  C   UNL A   1      34.005  29.973  26.961  1.00  0.00     0.088 A 
ATOM     30  C   UNL A   1      36.772  31.754  29.794  1.00  0.00     0.044 C 
ATOM     31  C   UNL A   1      35.831  31.201  28.760  1.00  0.00    -0.051 A 
ATOM     32  C   UNL A   1      36.070  29.909  28.332  1.00  0.00     0.005 A 
ATOM     33  C   UNL A   1      34.703  31.889  28.248  1.00  0.00     0.005 A 
ATOM     34  C   UNL A   1      35.187  29.329  27.440  1.00  0.00     0.022 A 
ATOM     35  C   UNL A   1      33.775  31.279  27.348  1.00  0.00     0.022 A 
ENDBRANCH  26  29
ENDBRANCH  18  26
ENDBRANCH  15  17
ENDBRANCH  12  15
ENDBRANCH  10  11
BRANCH  10  36
ATOM     36  C   UNL A   1      35.857  21.138  24.558  1.00  0.00     0.072 C 
BRANCH  36  37
ATOM     37  C   UNL A   1      35.615  19.653  24.664  1.00  0.00    -0.020 A 
ATOM     38  C   UNL A   1      36.558  18.693  25.013  1.00  0.00     0.087 A 
ATOM     39  C   UNL A   1      34.395  18.928  24.439  1.00  0.00     0.003 A 
ATOM     40  N   UNL A   1      36.011  17.447  24.826  1.00  0.00    -0.361 N 
ATOM     41  C   UNL A   1      34.717  17.567  24.382  1.00  0.00     0.046 A 
ATOM     42  C   UNL A   1      33.069  19.303  24.187  1.00  0.00     0.010 A 
ATOM     43  H   UNL A   1      36.477  16.596  24.988  1.00  0.00     0.166 HD
ATOM     44  C   UNL A   1      33.836  16.589  23.905  1.00  0.00     0.026 A 
ATOM     45  C   UNL A   1      32.154  18.314  23.821  1.00  0.00     0.001 A 
ATOM     46  C   UNL A   1      32.542  16.998  23.598  1.00  0.00     0.002 A 
ENDBRANCH  36  37
ENDBRANCH  10  36
ENDBRANCH   7  10
ENDBRANCH   5   6
ENDBRANCH   3   5
ENDBRANCH   2   3
ENDBRANCH   1   2
BRANCH   1  47
ATOM     47  C   UNL A   1      43.524  21.181  25.362  1.00  0.00     0.202 C 
BRANCH  47  48
ATOM     48  O   UNL A   1      43.504  22.401  24.629  1.00  0.00    -0.374 OA
BRANCH  48  49
ATOM     49  C   UNL A   1      44.530  22.580  23.665  1.00  0.00     0.202 C 
BRANCH  49  50
ATOM     50  C   UNL A   1      45.943  22.489  24.250  1.00  0.00     0.261 C 
BRANCH  50  51
ATOM     51  O   UNL A   1      46.301  23.751  24.847  1.00  0.00    -0.460 OA
BRANCH  51  52
ATOM     52  C   UNL A   1      46.431  23.738  26.203  1.00  0.00     0.338 C 
ATOM     53  O   UNL A   1      46.044  22.852  26.939  1.00  0.00    -0.246 OA
BRANCH  52  54
ATOM     54  C   UNL A   1      46.845  25.092  26.673  1.00  0.00     0.060 A 
ATOM     55  C   UNL A   1      46.788  25.402  28.044  1.00  0.00     0.016 A 
ATOM     56  C   UNL A   1      46.972  26.111  25.734  1.00  0.00     0.016 A 
ATOM     57  C   UNL A   1      46.703  26.737  28.456  1.00  0.00     0.010 A 
ATOM     58  C   UNL A   1      46.756  27.409  26.136  1.00  0.00     0.010 A 
ATOM     59  C   UNL A   1      46.581  27.729  27.491  1.00  0.00    -0.014 A 
BRANCH  59  60
ATOM     60  C   UNL A   1      46.263  29.137  27.727  1.00  0.00     0.031 A 
ATOM     61  C   UNL A   1      47.421  30.002  28.065  1.00  0.00     0.074 A 
ATOM     62  C   UNL A   1      45.073  29.674  27.362  1.00  0.00     0.049 A 
ATOM     63  N   UNL A   1      47.440  31.275  27.933  1.00  0.00    -0.248 NA
ATOM     64  C   UNL A   1      48.704  29.476  28.537  1.00  0.00     0.031 C 
ATOM     65  C   UNL A   1      44.777  31.084  27.125  1.00  0.00     0.029 A 
ATOM     66  N   UNL A   1      43.828  29.064  27.122  1.00  0.00    -0.354 N 
ATOM     67  C   UNL A   1      48.700  31.740  28.190  1.00  0.00     0.074 A 
ATOM     68  C   UNL A   1      49.469  30.574  28.527  1.00  0.00     0.031 C 
ATOM     69  C   UNL A   1      43.453  31.278  27.027  1.00  0.00     0.029 A 
ATOM     70  C   UNL A   1      42.849  30.031  27.438  1.00  0.00     0.049 A 
ATOM     71  H   UNL A   1      43.670  28.147  26.799  1.00  0.00     0.167 HD
ATOM     72  C   UNL A   1      48.895  33.080  28.057  1.00  0.00     0.037 A 
ATOM     73  C   UNL A   1      42.061  29.897  28.541  1.00  0.00     0.037 A 
ATOM     74  C   UNL A   1      47.593  33.766  28.191  1.00  0.00     0.049 A 
ATOM     75  C   UNL A   1      42.390  31.048  29.463  1.00  0.00     0.074 A 
ATOM     76  C   UNL A   1      46.793  34.542  27.373  1.00  0.00     0.029 A 
ATOM     77  N   UNL A   1      46.791  33.438  29.302  1.00  0.00    -0.354 N 
ATOM     78  N   UNL A   1      43.607  31.489  29.702  1.00  0.00    -0.248 NA
ATOM     79  C   UNL A   1      41.342  31.980  29.872  1.00  0.00     0.031 C 
ATOM     80  C   UNL A   1      45.479  34.566  27.943  1.00  0.00     0.029 A 
ATOM     81  C   UNL A   1      45.482  33.844  29.132  1.00  0.00     0.049 A 
ATOM     82  H   UNL A   1      47.124  32.973  30.103  1.00  0.00     0.167 HD
ATOM     83  C   UNL A   1      43.508  32.790  30.139  1.00  0.00     0.074 A 
ATOM     84  C   UNL A   1      42.074  33.035  30.260  1.00  0.00     0.031 C 
ATOM     85  C   UNL A   1      44.503  33.727  30.208  1.00  0.00     0.037 A 
BRANCH  72  86
ATOM     86  C   UNL A   1      50.224  33.743  27.734  1.00  0.00     0.064 A 
ATOM     87  C   UNL A   1      50.635  33.918  26.393  1.00  0.00     0.173 A 
ATOM     88  C   UNL A   1      51.204  34.116  28.685  1.00  0.00     0.173 A 
ATOM     89  F   UNL A   1      49.838  33.575  25.373  1.00  0.00    -0.203 F 
ATOM     90  C   UNL A   1      51.898  34.423  26.044  1.00  0.00     0.198 A 
ATOM     91  C   UNL A   1      52.449  34.656  28.336  1.00  0.00     0.198 A 
ATOM     92  F   UNL A   1      51.037  33.929  29.996  1.00  0.00    -0.203 F 
ATOM     93  F   UNL A   1      52.242  34.519  24.752  1.00  0.00    -0.200 F 
ATOM     94  C   UNL A   1      52.800  34.803  27.015  1.00  0.00     0.200 A 
ATOM     95  F   UNL A   1      53.312  35.006  29.302  1.00  0.00    -0.200 F 
ATOM     96  F   UNL A   1      54.006  35.283  26.684  1.00  0.00    -0.200 F 
ENDBRANCH  72  86
BRANCH  73  97
ATOM     97  C   UNL A   1      41.707  28.469  28.791  1.00  0.00     0.064 A 
ATOM     98  C   UNL A   1      40.770  27.905  27.895  1.00  0.00     0.173 A 
ATOM     99  C   UNL A   1      42.589  27.577  29.411  1.00  0.00     0.173 A 
ATOM    100  F   UNL A   1      39.818  28.674  27.351  1.00  0.00    -0.203 F 
ATOM    101  C   UNL A   1      40.874  26.589  27.449  1.00  0.00     0.198 A 
ATOM    102  C   UNL A   1      42.648  26.234  29.007  1.00  0.00     0.198 A 
ATOM    103  F   UNL A   1      43.490  28.020  30.297  1.00  0.00    -0.203 F 
ATOM    104  F   UNL A   1      40.103  26.161  26.437  1.00  0.00    -0.200 F 
ATOM    105  C   UNL A   1      41.847  25.765  27.975  1.00  0.00     0.200 A 
ATOM    106  F   UNL A   1      43.566  25.413  29.540  1.00  0.00    -0.200 F 
ATOM    107  F   UNL A   1      42.048  24.544  27.457  1.00  0.00    -0.200 F 
ENDBRANCH  73  97
BRANCH  85 108
ATOM    108  C   UNL A   1      44.536  34.744  31.330  1.00  0.00     0.064 A 
ATOM    109  C   UNL A   1      45.221  34.531  32.542  1.00  0.00     0.173 A 
ATOM    110  C   UNL A   1      44.042  36.058  31.139  1.00  0.00     0.173 A 
ATOM    111  F   UNL A   1      45.843  33.375  32.809  1.00  0.00    -0.203 F 
ATOM    112  C   UNL A   1      45.339  35.525  33.511  1.00  0.00     0.198 A 
ATOM    113  C   UNL A   1      44.212  37.063  32.086  1.00  0.00     0.198 A 
ATOM    114  F   UNL A   1      43.423  36.431  30.011  1.00  0.00    -0.203 F 
ATOM    115  F   UNL A   1      45.966  35.250  34.662  1.00  0.00    -0.200 F 
ATOM    116  C   UNL A   1      44.846  36.793  33.278  1.00  0.00     0.200 A 
ATOM    117  F   UNL A   1      43.784  38.305  31.817  1.00  0.00    -0.200 F 
ATOM    118  F   UNL A   1      45.007  37.759  34.191  1.00  0.00    -0.200 F 
ENDBRANCH  85 108
ENDBRANCH  59  60
ENDBRANCH  52  54
ENDBRANCH  51  52
ENDBRANCH  50  51
ENDBRANCH  49  50
ENDBRANCH  48  49
ENDBRANCH  47  48
ENDBRANCH   1  47
TORSDOF 23
ENDMDL
