MODEL 1
REMARK VINA RESULT:     -11.8      0.000      0.000
REMARK SMILES Cc1cc2c(c(C)c1Br)C=C(C(=O)OCCOCCOC(=O)c1ccc(-c3c4nc(c(-c5c(F)c(F)c(F)c(F)c5F)c5ccc([nH]5)c(-c5c(F)c(F)c(F)c(F)c5F)c5nc(c(-c6c(F)c(F)c(F)c(F)c6F)c6ccc3[nH]6)C=C5)C=C4)cc1)[C@@H](C(F)(F)F)O2
REMARK SMILES IDX 18 1 17 2 16 3 15 4 14 5 12 6 13 7 11 8 1 9 2 10 3 11 8 12
REMARK SMILES IDX 4 13 6 14 9 15 5 16 91 17 7 18 10 19 86 20 87 21 88 22 89 23
REMARK SMILES IDX 90 24 19 25 20 26 21 27 22 28 23 29 24 30 85 31 25 32 84 33
REMARK SMILES IDX 26 34 27 35 28 36 78 37 29 38 83 39 77 40 79 41 30 42 82 43
REMARK SMILES IDX 76 44 75 45 31 47 63 48 43 49 62 50 44 51 47 52 61 53 80 54
REMARK SMILES IDX 45 55 46 56 60 58 81 59 48 60 32 61 33 62 41 63 34 64 35 65
REMARK SMILES IDX 39 66 42 67 36 68 37 69 40 70 38 71 64 72 65 73 73 74 66 75
REMARK SMILES IDX 67 76 71 77 74 78 68 79 69 80 72 81 70 82 49 83 50 84 58 85
REMARK SMILES IDX 51 86 52 87 56 88 59 89 53 90 54 91 57 92 55 93
REMARK H PARENT 79 46 47 57
REMARK Flexibility Score: inf
ROOT
ATOM      1  C   UNL A   1      31.409  31.817  26.259  1.00  0.00     0.202 C 
ENDROOT
BRANCH   1   2
ATOM      2  O   UNL A   1      31.963  30.643  26.855  1.00  0.00    -0.374 OA
BRANCH   2   3
ATOM      3  C   UNL A   1      32.933  29.911  26.111  1.00  0.00     0.202 C 
BRANCH   3   4
ATOM      4  C   UNL A   1      32.422  29.145  24.887  1.00  0.00     0.261 C 
BRANCH   4   5
ATOM      5  O   UNL A   1      32.472  27.724  25.094  1.00  0.00    -0.460 OA
BRANCH   5   6
ATOM      6  C   UNL A   1      33.220  27.053  24.189  1.00  0.00     0.338 C 
ATOM      7  O   UNL A   1      33.911  27.537  23.305  1.00  0.00    -0.246 OA
BRANCH   6   8
ATOM      8  C   UNL A   1      33.189  25.609  24.485  1.00  0.00     0.087 C 
ATOM      9  C   UNL A   1      34.416  19.269  24.626  1.00  0.00     0.046 C 
ATOM     10  C   UNL A   1      34.482  20.769  24.743  1.00  0.00    -0.033 A 
ATOM     11  C   UNL A   1      33.273  21.478  24.746  1.00  0.00     0.051 A 
ATOM     12  C   UNL A   1      35.690  21.483  24.882  1.00  0.00     0.024 A 
ATOM     13  C   UNL A   1      33.258  22.869  24.775  1.00  0.00     0.128 A 
ATOM     14  C   UNL A   1      35.696  22.898  24.926  1.00  0.00    -0.026 A 
ATOM     15  Br  UNL A   1      37.327  20.495  25.001  1.00  0.00    -0.050 Br
ATOM     16  C   UNL A   1      34.458  23.585  24.816  1.00  0.00     0.021 A 
ATOM     17  O   UNL A   1      32.016  23.439  24.761  1.00  0.00    -0.475 OA
ATOM     18  C   UNL A   1      36.969  23.702  25.072  1.00  0.00     0.046 C 
ATOM     19  C   UNL A   1      34.385  25.036  24.671  1.00  0.00     0.027 C 
ATOM     20  C   UNL A   1      31.889  24.865  24.525  1.00  0.00     0.316 C 
BRANCH  20  21
ATOM     21  C   UNL A   1      31.042  25.069  23.261  1.00  0.00     0.430 C 
ATOM     22  F   UNL A   1      31.822  25.115  22.152  1.00  0.00    -0.167 F 
ATOM     23  F   UNL A   1      30.167  24.054  23.071  1.00  0.00    -0.167 F 
ATOM     24  F   UNL A   1      30.329  26.216  23.304  1.00  0.00    -0.167 F 
ENDBRANCH  20  21
ENDBRANCH   6   8
ENDBRANCH   5   6
ENDBRANCH   4   5
ENDBRANCH   3   4
ENDBRANCH   2   3
ENDBRANCH   1   2
BRANCH   1  25
ATOM     25  C   UNL A   1      31.777  33.163  26.894  1.00  0.00     0.261 C 
BRANCH  25  26
ATOM     26  O   UNL A   1      32.729  33.019  27.964  1.00  0.00    -0.460 OA
BRANCH  26  27
ATOM     27  C   UNL A   1      33.821  33.815  27.869  1.00  0.00     0.338 C 
ATOM     28  O   UNL A   1      33.850  35.012  27.618  1.00  0.00    -0.246 OA
BRANCH  27  29
ATOM     29  C   UNL A   1      35.020  33.074  28.298  1.00  0.00     0.060 A 
ATOM     30  C   UNL A   1      34.845  31.768  28.769  1.00  0.00     0.016 A 
ATOM     31  C   UNL A   1      36.280  33.675  28.315  1.00  0.00     0.016 A 
ATOM     32  C   UNL A   1      35.929  31.066  29.292  1.00  0.00     0.010 A 
ATOM     33  C   UNL A   1      37.364  32.972  28.850  1.00  0.00     0.010 A 
ATOM     34  C   UNL A   1      37.188  31.676  29.366  1.00  0.00    -0.014 A 
BRANCH  34  35
ATOM     35  C   UNL A   1      38.285  30.996  30.096  1.00  0.00     0.031 A 
ATOM     36  C   UNL A   1      38.523  31.330  31.541  1.00  0.00     0.074 A 
ATOM     37  C   UNL A   1      39.027  30.055  29.485  1.00  0.00     0.049 A 
ATOM     38  N   UNL A   1      39.419  30.851  32.366  1.00  0.00    -0.248 NA
ATOM     39  C   UNL A   1      37.628  32.332  32.141  1.00  0.00     0.031 C 
ATOM     40  C   UNL A   1      38.858  29.615  28.103  1.00  0.00     0.029 A 
ATOM     41  N   UNL A   1      40.069  29.295  29.956  1.00  0.00    -0.354 N 
ATOM     42  C   UNL A   1      39.190  31.484  33.580  1.00  0.00     0.074 A 
ATOM     43  C   UNL A   1      38.098  32.409  33.379  1.00  0.00     0.031 C 
ATOM     44  C   UNL A   1      39.762  28.656  27.837  1.00  0.00     0.029 A 
ATOM     45  C   UNL A   1      40.591  28.436  29.021  1.00  0.00     0.049 A 
ATOM     46  H   UNL A   1      40.410  29.360  30.877  1.00  0.00     0.167 HD
ATOM     47  C   UNL A   1      39.825  31.293  34.761  1.00  0.00     0.037 A 
ATOM     48  C   UNL A   1      41.626  27.578  29.110  1.00  0.00     0.037 A 
ATOM     49  C   UNL A   1      40.913  30.374  34.958  1.00  0.00     0.049 A 
ATOM     50  C   UNL A   1      42.374  27.455  30.411  1.00  0.00     0.074 A 
ATOM     51  C   UNL A   1      41.624  30.117  36.118  1.00  0.00     0.029 A 
ATOM     52  N   UNL A   1      41.451  29.563  33.971  1.00  0.00    -0.354 N 
ATOM     53  N   UNL A   1      42.144  28.048  31.558  1.00  0.00    -0.248 NA
ATOM     54  C   UNL A   1      43.528  26.544  30.433  1.00  0.00     0.031 C 
ATOM     55  C   UNL A   1      42.620  29.183  35.822  1.00  0.00     0.029 A 
ATOM     56  C   UNL A   1      42.498  28.819  34.490  1.00  0.00     0.049 A 
ATOM     57  H   UNL A   1      41.135  29.521  33.039  1.00  0.00     0.167 HD
ATOM     58  C   UNL A   1      43.099  27.561  32.441  1.00  0.00     0.074 A 
ATOM     59  C   UNL A   1      43.910  26.617  31.701  1.00  0.00     0.031 C 
ATOM     60  C   UNL A   1      43.284  27.869  33.747  1.00  0.00     0.037 A 
BRANCH  47  61
ATOM     61  C   UNL A   1      39.361  32.093  35.942  1.00  0.00     0.064 A 
ATOM     62  C   UNL A   1      38.382  31.600  36.817  1.00  0.00     0.173 A 
ATOM     63  C   UNL A   1      39.957  33.326  36.247  1.00  0.00     0.173 A 
ATOM     64  F   UNL A   1      37.776  30.432  36.562  1.00  0.00    -0.203 F 
ATOM     65  C   UNL A   1      38.012  32.317  37.953  1.00  0.00     0.198 A 
ATOM     66  C   UNL A   1      39.602  34.027  37.396  1.00  0.00     0.198 A 
ATOM     67  F   UNL A   1      40.901  33.838  35.444  1.00  0.00    -0.203 F 
ATOM     68  F   UNL A   1      37.057  31.839  38.762  1.00  0.00    -0.200 F 
ATOM     69  C   UNL A   1      38.629  33.523  38.247  1.00  0.00     0.200 A 
ATOM     70  F   UNL A   1      40.209  35.187  37.685  1.00  0.00    -0.200 F 
ATOM     71  F   UNL A   1      38.285  34.202  39.349  1.00  0.00    -0.200 F 
ENDBRANCH  47  61
BRANCH  48  72
ATOM     72  C   UNL A   1      42.008  26.754  27.933  1.00  0.00     0.064 A 
ATOM     73  C   UNL A   1      42.949  27.219  27.004  1.00  0.00     0.173 A 
ATOM     74  C   UNL A   1      41.443  25.490  27.713  1.00  0.00     0.173 A 
ATOM     75  F   UNL A   1      43.498  28.434  27.159  1.00  0.00    -0.203 F 
ATOM     76  C   UNL A   1      43.301  26.456  25.893  1.00  0.00     0.198 A 
ATOM     77  C   UNL A   1      41.817  24.716  26.616  1.00  0.00     0.198 A 
ATOM     78  F   UNL A   1      40.536  25.000  28.570  1.00  0.00    -0.203 F 
ATOM     79  F   UNL A   1      44.175  26.941  25.000  1.00  0.00    -0.200 F 
ATOM     80  C   UNL A   1      42.741  25.202  25.704  1.00  0.00     0.200 A 
ATOM     81  F   UNL A   1      41.280  23.500  26.442  1.00  0.00    -0.200 F 
ATOM     82  F   UNL A   1      43.086  24.465  24.639  1.00  0.00    -0.200 F 
ENDBRANCH  48  72
BRANCH  60  83
ATOM     83  C   UNL A   1      44.383  27.162  34.486  1.00  0.00     0.064 A 
ATOM     84  C   UNL A   1      45.655  27.734  34.630  1.00  0.00     0.173 A 
ATOM     85  C   UNL A   1      44.130  25.944  35.136  1.00  0.00     0.173 A 
ATOM     86  F   UNL A   1      45.947  28.892  34.019  1.00  0.00    -0.203 F 
ATOM     87  C   UNL A   1      46.636  27.109  35.395  1.00  0.00     0.198 A 
ATOM     88  C   UNL A   1      45.104  25.336  35.921  1.00  0.00     0.198 A 
ATOM     89  F   UNL A   1      42.926  25.362  35.036  1.00  0.00    -0.203 F 
ATOM     90  F   UNL A   1      47.852  27.660  35.501  1.00  0.00    -0.200 F 
ATOM     91  C   UNL A   1      46.358  25.917  36.048  1.00  0.00     0.200 A 
ATOM     92  F   UNL A   1      44.828  24.193  36.565  1.00  0.00    -0.200 F 
ATOM     93  F   UNL A   1      47.296  25.329  36.802  1.00  0.00    -0.200 F 
ENDBRANCH  60  83
ENDBRANCH  34  35
ENDBRANCH  27  29
ENDBRANCH  26  27
ENDBRANCH  25  26
ENDBRANCH   1  25
TORSDOF 15
ENDMDL
MODEL 2
REMARK VINA RESULT:     -11.8      1.792      2.592
REMARK SMILES Cc1cc2c(c(C)c1Br)C=C(C(=O)OCCOCCOC(=O)c1ccc(-c3c4nc(c(-c5c(F)c(F)c(F)c(F)c5F)c5ccc([nH]5)c(-c5c(F)c(F)c(F)c(F)c5F)c5nc(c(-c6c(F)c(F)c(F)c(F)c6F)c6ccc3[nH]6)C=C5)C=C4)cc1)[C@@H](C(F)(F)F)O2
REMARK SMILES IDX 18 1 17 2 16 3 15 4 14 5 12 6 13 7 11 8 1 9 2 10 3 11 8 12
REMARK SMILES IDX 4 13 6 14 9 15 5 16 91 17 7 18 10 19 86 20 87 21 88 22 89 23
REMARK SMILES IDX 90 24 19 25 20 26 21 27 22 28 23 29 24 30 85 31 25 32 84 33
REMARK SMILES IDX 26 34 27 35 28 36 78 37 29 38 83 39 77 40 79 41 30 42 82 43
REMARK SMILES IDX 76 44 75 45 31 47 63 48 43 49 62 50 44 51 47 52 61 53 80 54
REMARK SMILES IDX 45 55 46 56 60 58 81 59 48 60 32 61 33 62 41 63 34 64 35 65
REMARK SMILES IDX 39 66 42 67 36 68 37 69 40 70 38 71 64 72 65 73 73 74 66 75
REMARK SMILES IDX 67 76 71 77 74 78 68 79 69 80 72 81 70 82 49 83 50 84 58 85
REMARK SMILES IDX 51 86 52 87 56 88 59 89 53 90 54 91 57 92 55 93
REMARK H PARENT 79 46 47 57
REMARK Flexibility Score: inf
ROOT
ATOM      1  C   UNL A   1      32.734  31.841  27.390  1.00  0.00     0.202 C 
ENDROOT
BRANCH   1   2
ATOM      2  O   UNL A   1      33.926  31.357  28.010  1.00  0.00    -0.374 OA
BRANCH   2   3
ATOM      3  C   UNL A   1      34.568  30.224  27.429  1.00  0.00     0.202 C 
BRANCH   3   4
ATOM      4  C   UNL A   1      33.770  29.452  26.375  1.00  0.00     0.261 C 
BRANCH   4   5
ATOM      5  O   UNL A   1      33.503  28.105  26.797  1.00  0.00    -0.460 OA
BRANCH   5   6
ATOM      6  C   UNL A   1      32.191  27.819  26.962  1.00  0.00     0.338 C 
ATOM      7  O   UNL A   1      31.375  28.463  27.604  1.00  0.00    -0.246 OA
BRANCH   6   8
ATOM      8  C   UNL A   1      31.825  26.650  26.142  1.00  0.00     0.087 C 
ATOM      9  C   UNL A   1      31.992  21.342  22.466  1.00  0.00     0.046 C 
ATOM     10  C   UNL A   1      32.113  22.346  23.582  1.00  0.00    -0.033 A 
ATOM     11  C   UNL A   1      31.295  23.483  23.529  1.00  0.00     0.051 A 
ATOM     12  C   UNL A   1      32.979  22.181  24.682  1.00  0.00     0.024 A 
ATOM     13  C   UNL A   1      31.404  24.490  24.484  1.00  0.00     0.128 A 
ATOM     14  C   UNL A   1      33.096  23.188  25.671  1.00  0.00    -0.026 A 
ATOM     15  Br  UNL A   1      34.002  20.566  24.807  1.00  0.00    -0.050 Br
ATOM     16  C   UNL A   1      32.330  24.374  25.524  1.00  0.00     0.021 A 
ATOM     17  O   UNL A   1      30.559  25.549  24.312  1.00  0.00    -0.475 OA
ATOM     18  C   UNL A   1      34.013  23.052  26.866  1.00  0.00     0.046 C 
ATOM     19  C   UNL A   1      32.520  25.534  26.392  1.00  0.00     0.027 C 
ATOM     20  C   UNL A   1      30.768  26.760  25.085  1.00  0.00     0.316 C 
BRANCH  20  21
ATOM     21  C   UNL A   1      31.015  27.917  24.107  1.00  0.00     0.430 C 
ATOM     22  F   UNL A   1      30.647  29.103  24.650  1.00  0.00    -0.167 F 
ATOM     23  F   UNL A   1      32.325  28.033  23.784  1.00  0.00    -0.167 F 
ATOM     24  F   UNL A   1      30.325  27.767  22.954  1.00  0.00    -0.167 F 
ENDBRANCH  20  21
ENDBRANCH   6   8
ENDBRANCH   5   6
ENDBRANCH   4   5
ENDBRANCH   3   4
ENDBRANCH   2   3
ENDBRANCH   1   2
BRANCH   1  25
ATOM     25  C   UNL A   1      32.595  33.360  27.232  1.00  0.00     0.261 C 
BRANCH  25  26
ATOM     26  O   UNL A   1      32.196  34.001  28.458  1.00  0.00    -0.460 OA
BRANCH  26  27
ATOM     27  C   UNL A   1      32.973  35.042  28.837  1.00  0.00     0.338 C 
ATOM     28  O   UNL A   1      32.719  36.235  28.743  1.00  0.00    -0.246 OA
BRANCH  27  29
ATOM     29  C   UNL A   1      34.147  34.547  29.577  1.00  0.00     0.060 A 
ATOM     30  C   UNL A   1      35.390  34.594  28.935  1.00  0.00     0.016 A 
ATOM     31  C   UNL A   1      34.022  33.974  30.844  1.00  0.00     0.016 A 
ATOM     32  C   UNL A   1      36.511  34.037  29.545  1.00  0.00     0.010 A 
ATOM     33  C   UNL A   1      35.146  33.405  31.450  1.00  0.00     0.010 A 
ATOM     34  C   UNL A   1      36.389  33.409  30.792  1.00  0.00    -0.014 A 
BRANCH  34  35
ATOM     35  C   UNL A   1      37.540  32.653  31.342  1.00  0.00     0.031 A 
ATOM     36  C   UNL A   1      38.062  33.002  32.707  1.00  0.00     0.074 A 
ATOM     37  C   UNL A   1      38.079  31.634  30.649  1.00  0.00     0.049 A 
ATOM     38  N   UNL A   1      39.050  32.467  33.379  1.00  0.00    -0.248 NA
ATOM     39  C   UNL A   1      37.376  34.095  33.415  1.00  0.00     0.031 C 
ATOM     40  C   UNL A   1      37.627  31.176  29.338  1.00  0.00     0.029 A 
ATOM     41  N   UNL A   1      39.123  30.797  30.959  1.00  0.00    -0.354 N 
ATOM     42  C   UNL A   1      39.097  33.149  34.587  1.00  0.00     0.074 A 
ATOM     43  C   UNL A   1      38.067  34.162  34.545  1.00  0.00     0.031 C 
ATOM     44  C   UNL A   1      38.385  30.134  28.956  1.00  0.00     0.029 A 
ATOM     45  C   UNL A   1      39.394  29.872  29.982  1.00  0.00     0.049 A 
ATOM     46  H   UNL A   1      39.629  30.856  31.801  1.00  0.00     0.167 HD
ATOM     47  C   UNL A   1      39.917  32.933  35.643  1.00  0.00     0.037 A 
ATOM     48  C   UNL A   1      40.353  28.927  29.921  1.00  0.00     0.037 A 
ATOM     49  C   UNL A   1      40.943  31.927  35.682  1.00  0.00     0.049 A 
ATOM     50  C   UNL A   1      41.312  28.772  31.073  1.00  0.00     0.074 A 
ATOM     51  C   UNL A   1      41.828  31.638  36.707  1.00  0.00     0.029 A 
ATOM     52  N   UNL A   1      41.224  31.046  34.649  1.00  0.00    -0.354 N 
ATOM     53  N   UNL A   1      41.342  29.413  32.216  1.00  0.00    -0.248 NA
ATOM     54  C   UNL A   1      42.371  27.763  30.926  1.00  0.00     0.031 C 
ATOM     55  C   UNL A   1      42.673  30.611  36.277  1.00  0.00     0.029 A 
ATOM     56  C   UNL A   1      42.283  30.225  35.005  1.00  0.00     0.049 A 
ATOM     57  H   UNL A   1      40.743  31.008  33.791  1.00  0.00     0.167 HD
ATOM     58  C   UNL A   1      42.397  28.866  32.935  1.00  0.00     0.074 A 
ATOM     59  C   UNL A   1      42.980  27.835  32.103  1.00  0.00     0.031 C 
ATOM     60  C   UNL A   1      42.840  29.191  34.173  1.00  0.00     0.037 A 
BRANCH  47  61
ATOM     61  C   UNL A   1      39.742  33.802  36.854  1.00  0.00     0.064 A 
ATOM     62  C   UNL A   1      40.332  35.072  36.931  1.00  0.00     0.173 A 
ATOM     63  C   UNL A   1      38.914  33.394  37.910  1.00  0.00     0.173 A 
ATOM     64  F   UNL A   1      41.141  35.501  35.951  1.00  0.00    -0.203 F 
ATOM     65  C   UNL A   1      40.102  35.901  38.026  1.00  0.00     0.198 A 
ATOM     66  C   UNL A   1      38.668  34.237  38.991  1.00  0.00     0.198 A 
ATOM     67  F   UNL A   1      38.323  32.191  37.881  1.00  0.00    -0.203 F 
ATOM     68  F   UNL A   1      40.696  37.101  38.091  1.00  0.00    -0.200 F 
ATOM     69  C   UNL A   1      39.263  35.488  39.049  1.00  0.00     0.200 A 
ATOM     70  F   UNL A   1      37.845  33.840  39.973  1.00  0.00    -0.200 F 
ATOM     71  F   UNL A   1      39.029  36.294  40.093  1.00  0.00    -0.200 F 
ENDBRANCH  47  61
BRANCH  48  72
ATOM     72  C   UNL A   1      40.447  28.043  28.730  1.00  0.00     0.064 A 
ATOM     73  C   UNL A   1      41.193  28.425  27.607  1.00  0.00     0.173 A 
ATOM     74  C   UNL A   1      39.795  26.802  28.690  1.00  0.00     0.173 A 
ATOM     75  F   UNL A   1      41.815  29.614  27.589  1.00  0.00    -0.203 F 
ATOM     76  C   UNL A   1      41.274  27.604  26.484  1.00  0.00     0.198 A 
ATOM     77  C   UNL A   1      39.898  25.971  27.576  1.00  0.00     0.198 A 
ATOM     78  F   UNL A   1      39.064  26.392  29.737  1.00  0.00    -0.203 F 
ATOM     79  F   UNL A   1      41.963  28.011  25.408  1.00  0.00    -0.200 F 
ATOM     80  C   UNL A   1      40.633  26.375  26.472  1.00  0.00     0.200 A 
ATOM     81  F   UNL A   1      39.286  24.779  27.573  1.00  0.00    -0.200 F 
ATOM     82  F   UNL A   1      40.718  25.583  25.395  1.00  0.00    -0.200 F 
ENDBRANCH  48  72
BRANCH  60  83
ATOM     83  C   UNL A   1      43.993  28.408  34.734  1.00  0.00     0.064 A 
ATOM     84  C   UNL A   1      45.314  28.858  34.609  1.00  0.00     0.173 A 
ATOM     85  C   UNL A   1      43.760  27.245  35.485  1.00  0.00     0.173 A 
ATOM     86  F   UNL A   1      45.587  29.959  33.892  1.00  0.00    -0.203 F 
ATOM     87  C   UNL A   1      46.363  28.169  35.212  1.00  0.00     0.198 A 
ATOM     88  C   UNL A   1      44.808  26.575  36.108  1.00  0.00     0.198 A 
ATOM     89  F   UNL A   1      42.512  26.779  35.641  1.00  0.00    -0.203 F 
ATOM     90  F   UNL A   1      47.621  28.603  35.061  1.00  0.00    -0.200 F 
ATOM     91  C   UNL A   1      46.109  27.036  35.970  1.00  0.00     0.200 A 
ATOM     92  F   UNL A   1      44.558  25.489  36.853  1.00  0.00    -0.200 F 
ATOM     93  F   UNL A   1      47.117  26.387  36.568  1.00  0.00    -0.200 F 
ENDBRANCH  60  83
ENDBRANCH  34  35
ENDBRANCH  27  29
ENDBRANCH  26  27
ENDBRANCH  25  26
ENDBRANCH   1  25
TORSDOF 15
ENDMDL
MODEL 3
REMARK VINA RESULT:     -11.7      4.383      7.792
REMARK SMILES Cc1cc2c(c(C)c1Br)C=C(C(=O)OCCOCCOC(=O)c1ccc(-c3c4nc(c(-c5c(F)c(F)c(F)c(F)c5F)c5ccc([nH]5)c(-c5c(F)c(F)c(F)c(F)c5F)c5nc(c(-c6c(F)c(F)c(F)c(F)c6F)c6ccc3[nH]6)C=C5)C=C4)cc1)[C@@H](C(F)(F)F)O2
REMARK SMILES IDX 18 1 17 2 16 3 15 4 14 5 12 6 13 7 11 8 1 9 2 10 3 11 8 12
REMARK SMILES IDX 4 13 6 14 9 15 5 16 91 17 7 18 10 19 86 20 87 21 88 22 89 23
REMARK SMILES IDX 90 24 19 25 20 26 21 27 22 28 23 29 24 30 85 31 25 32 84 33
REMARK SMILES IDX 26 34 27 35 28 36 78 37 29 38 83 39 77 40 79 41 30 42 82 43
REMARK SMILES IDX 76 44 75 45 31 47 63 48 43 49 62 50 44 51 47 52 61 53 80 54
REMARK SMILES IDX 45 55 46 56 60 58 81 59 48 60 32 61 33 62 41 63 34 64 35 65
REMARK SMILES IDX 39 66 42 67 36 68 37 69 40 70 38 71 64 72 65 73 73 74 66 75
REMARK SMILES IDX 67 76 71 77 74 78 68 79 69 80 72 81 70 82 49 83 50 84 58 85
REMARK SMILES IDX 51 86 52 87 56 88 59 89 53 90 54 91 57 92 55 93
REMARK H PARENT 79 46 47 57
REMARK Flexibility Score: inf
ROOT
ATOM      1  C   UNL A   1      35.719  21.174  25.419  1.00  0.00     0.202 C 
ENDROOT
BRANCH   1   2
ATOM      2  O   UNL A   1      34.885  21.754  24.414  1.00  0.00    -0.374 OA
BRANCH   2   3
ATOM      3  C   UNL A   1      35.444  22.777  23.593  1.00  0.00     0.202 C 
BRANCH   3   4
ATOM      4  C   UNL A   1      34.738  24.135  23.618  1.00  0.00     0.261 C 
BRANCH   4   5
ATOM      5  O   UNL A   1      33.436  24.043  24.219  1.00  0.00    -0.460 OA
BRANCH   5   6
ATOM      6  C   UNL A   1      33.344  24.612  25.443  1.00  0.00     0.338 C 
ATOM      7  O   UNL A   1      33.669  24.114  26.510  1.00  0.00    -0.246 OA
BRANCH   6   8
ATOM      8  C   UNL A   1      32.893  26.010  25.314  1.00  0.00     0.087 C 
ATOM      9  C   UNL A   1      31.259  32.146  26.499  1.00  0.00     0.046 C 
ATOM     10  C   UNL A   1      31.987  30.838  26.327  1.00  0.00    -0.033 A 
ATOM     11  C   UNL A   1      31.402  29.868  25.503  1.00  0.00     0.051 A 
ATOM     12  C   UNL A   1      33.234  30.562  26.927  1.00  0.00     0.024 A 
ATOM     13  C   UNL A   1      31.978  28.609  25.357  1.00  0.00     0.128 A 
ATOM     14  C   UNL A   1      33.843  29.292  26.781  1.00  0.00    -0.026 A 
ATOM     15  Br  UNL A   1      34.082  31.940  27.950  1.00  0.00    -0.050 Br
ATOM     16  C   UNL A   1      33.166  28.298  26.026  1.00  0.00     0.021 A 
ATOM     17  O   UNL A   1      31.303  27.751  24.536  1.00  0.00    -0.475 OA
ATOM     18  C   UNL A   1      35.177  28.954  27.407  1.00  0.00     0.046 C 
ATOM     19  C   UNL A   1      33.628  26.914  25.974  1.00  0.00     0.027 C 
ATOM     20  C   UNL A   1      31.666  26.346  24.522  1.00  0.00     0.316 C 
BRANCH  20  21
ATOM     21  C   UNL A   1      30.437  25.528  24.943  1.00  0.00     0.430 C 
ATOM     22  F   UNL A   1      30.326  24.397  24.205  1.00  0.00    -0.167 F 
ATOM     23  F   UNL A   1      30.511  25.137  26.237  1.00  0.00    -0.167 F 
ATOM     24  F   UNL A   1      29.287  26.224  24.796  1.00  0.00    -0.167 F 
ENDBRANCH  20  21
ENDBRANCH   6   8
ENDBRANCH   5   6
ENDBRANCH   4   5
ENDBRANCH   3   4
ENDBRANCH   2   3
ENDBRANCH   1   2
BRANCH   1  25
ATOM     25  C   UNL A   1      37.077  20.623  24.968  1.00  0.00     0.261 C 
BRANCH  25  26
ATOM     26  O   UNL A   1      38.132  21.592  25.108  1.00  0.00    -0.460 OA
BRANCH  26  27
ATOM     27  C   UNL A   1      39.048  21.305  26.062  1.00  0.00     0.338 C 
ATOM     28  O   UNL A   1      39.485  20.203  26.367  1.00  0.00    -0.246 OA
BRANCH  27  29
ATOM     29  C   UNL A   1      39.621  22.551  26.600  1.00  0.00     0.060 A 
ATOM     30  C   UNL A   1      39.113  23.763  26.117  1.00  0.00     0.016 A 
ATOM     31  C   UNL A   1      40.688  22.535  27.499  1.00  0.00     0.016 A 
ATOM     32  C   UNL A   1      39.694  24.967  26.508  1.00  0.00     0.010 A 
ATOM     33  C   UNL A   1      41.278  23.744  27.882  1.00  0.00     0.010 A 
ATOM     34  C   UNL A   1      40.801  24.962  27.366  1.00  0.00    -0.014 A 
BRANCH  34  35
ATOM     35  C   UNL A   1      41.530  26.229  27.622  1.00  0.00     0.031 A 
ATOM     36  C   UNL A   1      40.866  27.308  28.430  1.00  0.00     0.074 A 
ATOM     37  C   UNL A   1      42.789  26.391  27.178  1.00  0.00     0.049 A 
ATOM     38  N   UNL A   1      41.323  28.484  28.777  1.00  0.00    -0.248 NA
ATOM     39  C   UNL A   1      39.508  27.022  28.921  1.00  0.00     0.031 C 
ATOM     40  C   UNL A   1      43.551  25.397  26.425  1.00  0.00     0.029 A 
ATOM     41  N   UNL A   1      43.651  27.453  27.304  1.00  0.00    -0.354 N 
ATOM     42  C   UNL A   1      40.317  29.072  29.531  1.00  0.00     0.074 A 
ATOM     43  C   UNL A   1      39.210  28.143  29.562  1.00  0.00     0.031 C 
ATOM     44  C   UNL A   1      44.771  25.894  26.160  1.00  0.00     0.029 A 
ATOM     45  C   UNL A   1      44.866  27.250  26.699  1.00  0.00     0.049 A 
ATOM     46  H   UNL A   1      43.419  28.281  27.782  1.00  0.00     0.167 HD
ATOM     47  C   UNL A   1      40.327  30.273  30.156  1.00  0.00     0.037 A 
ATOM     48  C   UNL A   1      45.929  28.070  26.586  1.00  0.00     0.037 A 
ATOM     49  C   UNL A   1      41.429  31.196  30.122  1.00  0.00     0.049 A 
ATOM     50  C   UNL A   1      45.876  29.438  27.214  1.00  0.00     0.074 A 
ATOM     51  C   UNL A   1      41.528  32.441  30.720  1.00  0.00     0.029 A 
ATOM     52  N   UNL A   1      42.622  30.978  29.450  1.00  0.00    -0.354 N 
ATOM     53  N   UNL A   1      44.926  29.982  27.935  1.00  0.00    -0.248 NA
ATOM     54  C   UNL A   1      47.044  30.309  27.011  1.00  0.00     0.031 C 
ATOM     55  C   UNL A   1      42.764  32.994  30.375  1.00  0.00     0.029 A 
ATOM     56  C   UNL A   1      43.456  32.074  29.603  1.00  0.00     0.049 A 
ATOM     57  H   UNL A   1      42.844  30.165  28.941  1.00  0.00     0.167 HD
ATOM     58  C   UNL A   1      45.391  31.239  28.298  1.00  0.00     0.074 A 
ATOM     59  C   UNL A   1      46.712  31.379  27.723  1.00  0.00     0.031 C 
ATOM     60  C   UNL A   1      44.776  32.191  29.040  1.00  0.00     0.037 A 
BRANCH  47  61
ATOM     61  C   UNL A   1      39.109  30.665  30.938  1.00  0.00     0.064 A 
ATOM     62  C   UNL A   1      38.990  30.364  32.302  1.00  0.00     0.173 A 
ATOM     63  C   UNL A   1      38.089  31.418  30.338  1.00  0.00     0.173 A 
ATOM     64  F   UNL A   1      39.934  29.636  32.918  1.00  0.00    -0.203 F 
ATOM     65  C   UNL A   1      37.889  30.798  33.037  1.00  0.00     0.198 A 
ATOM     66  C   UNL A   1      37.002  31.871  31.083  1.00  0.00     0.198 A 
ATOM     67  F   UNL A   1      38.158  31.736  29.038  1.00  0.00    -0.203 F 
ATOM     68  F   UNL A   1      37.784  30.477  34.334  1.00  0.00    -0.200 F 
ATOM     69  C   UNL A   1      36.903  31.559  32.430  1.00  0.00     0.200 A 
ATOM     70  F   UNL A   1      36.056  32.619  30.497  1.00  0.00    -0.200 F 
ATOM     71  F   UNL A   1      35.854  31.992  33.143  1.00  0.00    -0.200 F 
ENDBRANCH  47  61
BRANCH  48  72
ATOM     72  C   UNL A   1      47.143  27.613  25.860  1.00  0.00     0.064 A 
ATOM     73  C   UNL A   1      48.237  27.078  26.554  1.00  0.00     0.173 A 
ATOM     74  C   UNL A   1      47.236  27.702  24.464  1.00  0.00     0.173 A 
ATOM     75  F   UNL A   1      48.206  26.995  27.892  1.00  0.00    -0.203 F 
ATOM     76  C   UNL A   1      49.382  26.659  25.878  1.00  0.00     0.198 A 
ATOM     77  C   UNL A   1      48.370  27.259  23.788  1.00  0.00     0.198 A 
ATOM     78  F   UNL A   1      46.218  28.211  23.754  1.00  0.00    -0.203 F 
ATOM     79  F   UNL A   1      50.429  26.186  26.570  1.00  0.00    -0.200 F 
ATOM     80  C   UNL A   1      49.445  26.743  24.496  1.00  0.00     0.200 A 
ATOM     81  F   UNL A   1      48.423  27.332  22.451  1.00  0.00    -0.200 F 
ATOM     82  F   UNL A   1      50.543  26.334  23.847  1.00  0.00    -0.200 F 
ENDBRANCH  48  72
BRANCH  60  83
ATOM     83  C   UNL A   1      45.527  33.462  29.313  1.00  0.00     0.064 A 
ATOM     84  C   UNL A   1      45.385  34.588  28.490  1.00  0.00     0.173 A 
ATOM     85  C   UNL A   1      46.321  33.583  30.464  1.00  0.00     0.173 A 
ATOM     86  F   UNL A   1      44.645  34.518  27.373  1.00  0.00    -0.203 F 
ATOM     87  C   UNL A   1      46.017  35.788  28.807  1.00  0.00     0.198 A 
ATOM     88  C   UNL A   1      46.929  34.791  30.791  1.00  0.00     0.198 A 
ATOM     89  F   UNL A   1      46.480  32.537  31.289  1.00  0.00    -0.203 F 
ATOM     90  F   UNL A   1      45.888  36.845  27.994  1.00  0.00    -0.200 F 
ATOM     91  C   UNL A   1      46.778  35.892  29.962  1.00  0.00     0.200 A 
ATOM     92  F   UNL A   1      47.650  34.894  31.917  1.00  0.00    -0.200 F 
ATOM     93  F   UNL A   1      47.366  37.054  30.276  1.00  0.00    -0.200 F 
ENDBRANCH  60  83
ENDBRANCH  34  35
ENDBRANCH  27  29
ENDBRANCH  26  27
ENDBRANCH  25  26
ENDBRANCH   1  25
TORSDOF 15
ENDMDL
