MODEL 1
REMARK VINA RESULT:     -11.2      0.000      0.000
REMARK SMILES O=C(COc1ccc(F)cc1)Nc1sccc1C(=O)OCCOCCOC(=O)c1ccc(-c2c3nc(c(-c4c(F)c(F)c(F)c(F)c4F)c4ccc([nH]4)c(-c4c(F)c(F)c(F)c(F)c4F)c4nc(c(-c5c(F)c(F)c(F)c(F)c5F)c5ccc2[nH]5)C=C4)C=C3)cc1
REMARK SMILES IDX 22 1 21 2 20 3 18 4 19 5 17 6 13 7 14 8 15 9 16 10 12 11
REMARK SMILES IDX 1 12 2 13 3 15 4 16 5 17 6 18 11 19 7 20 10 21 8 22 9 23
REMARK SMILES IDX 23 24 24 25 25 26 26 27 27 28 28 29 29 30 30 31 91 32 31 33
REMARK SMILES IDX 90 34 32 35 33 36 34 37 84 38 35 39 89 40 83 41 85 42 36 43
REMARK SMILES IDX 88 44 82 45 81 46 37 48 69 49 49 50 68 51 50 52 53 53 67 54
REMARK SMILES IDX 86 55 51 56 52 57 66 59 87 60 54 61 38 62 39 63 47 64 40 65
REMARK SMILES IDX 41 66 45 67 48 68 42 69 43 70 46 71 44 72 70 73 71 74 79 75
REMARK SMILES IDX 72 76 73 77 77 78 80 79 74 80 75 81 78 82 76 83 55 84 56 85
REMARK SMILES IDX 64 86 57 87 58 88 62 89 65 90 59 91 60 92 63 93 61 94
REMARK H PARENT 12 14 85 47 53 58
REMARK Flexibility Score: inf
ROOT
ATOM      1  C   UNL A   1      32.435  26.651  26.166  1.00  0.00     0.202 C 
ENDROOT
BRANCH   1   2
ATOM      2  C   UNL A   1      31.856  25.238  26.084  1.00  0.00     0.261 C 
BRANCH   2   3
ATOM      3  O   UNL A   1      32.942  24.304  26.155  1.00  0.00    -0.460 OA
BRANCH   3   4
ATOM      4  C   UNL A   1      32.656  23.101  26.717  1.00  0.00     0.341 C 
ATOM      5  O   UNL A   1      32.137  22.944  27.816  1.00  0.00    -0.246 OA
BRANCH   4   6
ATOM      6  C   UNL A   1      32.788  22.015  25.750  1.00  0.00     0.094 A 
ATOM      7  C   UNL A   1      32.616  22.068  24.380  1.00  0.00     0.110 A 
ATOM      8  S   UNL A   1      32.620  20.517  23.657  1.00  0.00    -0.126 S 
ATOM      9  C   UNL A   1      33.002  19.754  25.132  1.00  0.00     0.068 A 
ATOM     10  C   UNL A   1      33.072  20.662  26.163  1.00  0.00     0.029 A 
BRANCH   7  11
ATOM     11  N   UNL A   1      32.470  23.043  23.421  1.00  0.00    -0.314 N 
ATOM     12  O   UNL A   1      34.701  23.435  22.855  1.00  0.00    -0.271 OA
ATOM     13  C   UNL A   1      33.498  23.621  22.702  1.00  0.00     0.262 C 
ATOM     14  H   UNL A   1      31.555  23.356  23.230  1.00  0.00     0.170 HD
BRANCH  13  15
ATOM     15  C   UNL A   1      32.972  24.516  21.580  1.00  0.00     0.329 C 
BRANCH  15  16
ATOM     16  O   UNL A   1      33.664  25.769  21.523  1.00  0.00    -0.484 OA
BRANCH  16  17
ATOM     17  C   UNL A   1      32.897  26.767  22.065  1.00  0.00     0.120 A 
ATOM     18  C   UNL A   1      33.501  27.911  22.591  1.00  0.00     0.049 A 
ATOM     19  C   UNL A   1      31.507  26.647  22.029  1.00  0.00     0.049 A 
ATOM     20  C   UNL A   1      32.711  28.915  23.148  1.00  0.00     0.043 A 
ATOM     21  C   UNL A   1      30.719  27.660  22.577  1.00  0.00     0.043 A 
ATOM     22  C   UNL A   1      31.327  28.778  23.139  1.00  0.00     0.123 A 
ATOM     23  F   UNL A   1      30.567  29.744  23.674  1.00  0.00    -0.207 F 
ENDBRANCH  16  17
ENDBRANCH  15  16
ENDBRANCH  13  15
ENDBRANCH   7  11
ENDBRANCH   4   6
ENDBRANCH   3   4
ENDBRANCH   2   3
ENDBRANCH   1   2
BRANCH   1  24
ATOM     24  O   UNL A   1      31.452  27.672  26.363  1.00  0.00    -0.374 OA
BRANCH  24  25
ATOM     25  C   UNL A   1      31.770  28.713  27.289  1.00  0.00     0.202 C 
BRANCH  25  26
ATOM     26  C   UNL A   1      31.813  30.116  26.679  1.00  0.00     0.261 C 
BRANCH  26  27
ATOM     27  O   UNL A   1      33.163  30.549  26.423  1.00  0.00    -0.460 OA
BRANCH  27  28
ATOM     28  C   UNL A   1      33.604  31.549  27.223  1.00  0.00     0.338 C 
ATOM     29  O   UNL A   1      33.021  32.574  27.529  1.00  0.00    -0.246 OA
BRANCH  28  30
ATOM     30  C   UNL A   1      34.903  31.175  27.812  1.00  0.00     0.060 A 
ATOM     31  C   UNL A   1      35.063  29.856  28.251  1.00  0.00     0.016 A 
ATOM     32  C   UNL A   1      35.915  32.118  28.009  1.00  0.00     0.016 A 
ATOM     33  C   UNL A   1      36.230  29.478  28.913  1.00  0.00     0.010 A 
ATOM     34  C   UNL A   1      37.079  31.741  28.686  1.00  0.00     0.010 A 
ATOM     35  C   UNL A   1      37.233  30.427  29.158  1.00  0.00    -0.014 A 
BRANCH  35  36
ATOM     36  C   UNL A   1      38.409  30.062  29.980  1.00  0.00     0.031 A 
ATOM     37  C   UNL A   1      39.447  29.133  29.423  1.00  0.00     0.074 A 
ATOM     38  C   UNL A   1      38.559  30.581  31.212  1.00  0.00     0.049 A 
ATOM     39  N   UNL A   1      40.524  28.656  29.994  1.00  0.00    -0.248 NA
ATOM     40  C   UNL A   1      39.253  28.689  28.034  1.00  0.00     0.031 C 
ATOM     41  C   UNL A   1      37.660  31.552  31.833  1.00  0.00     0.029 A 
ATOM     42  N   UNL A   1      39.529  30.363  32.155  1.00  0.00    -0.354 N 
ATOM     43  C   UNL A   1      41.145  27.873  29.032  1.00  0.00     0.074 A 
ATOM     44  C   UNL A   1      40.311  27.911  27.849  1.00  0.00     0.031 C 
ATOM     45  C   UNL A   1      38.121  31.845  33.060  1.00  0.00     0.029 A 
ATOM     46  C   UNL A   1      39.326  31.059  33.320  1.00  0.00     0.049 A 
ATOM     47  H   UNL A   1      40.297  29.763  32.012  1.00  0.00     0.167 HD
ATOM     48  C   UNL A   1      42.312  27.193  29.125  1.00  0.00     0.037 A 
ATOM     49  C   UNL A   1      40.027  31.048  34.470  1.00  0.00     0.037 A 
ATOM     50  C   UNL A   1      43.134  27.137  30.304  1.00  0.00     0.049 A 
ATOM     51  C   UNL A   1      41.236  30.165  34.599  1.00  0.00     0.074 A 
ATOM     52  C   UNL A   1      44.336  26.477  30.489  1.00  0.00     0.029 A 
ATOM     53  N   UNL A   1      42.830  27.761  31.503  1.00  0.00    -0.354 N 
ATOM     54  N   UNL A   1      41.807  29.411  33.693  1.00  0.00    -0.248 NA
ATOM     55  C   UNL A   1      41.885  30.114  35.918  1.00  0.00     0.031 C 
ATOM     56  C   UNL A   1      44.740  26.668  31.815  1.00  0.00     0.029 A 
ATOM     57  C   UNL A   1      43.805  27.473  32.445  1.00  0.00     0.049 A 
ATOM     58  H   UNL A   1      42.039  28.325  31.663  1.00  0.00     0.167 HD
ATOM     59  C   UNL A   1      42.886  28.806  34.322  1.00  0.00     0.074 A 
ATOM     60  C   UNL A   1      42.894  29.282  35.690  1.00  0.00     0.031 C 
ATOM     61  C   UNL A   1      43.790  27.938  33.808  1.00  0.00     0.037 A 
BRANCH  48  62
ATOM     62  C   UNL A   1      42.765  26.437  27.915  1.00  0.00     0.064 A 
ATOM     63  C   UNL A   1      42.393  25.097  27.730  1.00  0.00     0.173 A 
ATOM     64  C   UNL A   1      43.601  27.029  26.957  1.00  0.00     0.173 A 
ATOM     65  F   UNL A   1      41.596  24.488  28.620  1.00  0.00    -0.203 F 
ATOM     66  C   UNL A   1      42.849  24.376  26.630  1.00  0.00     0.198 A 
ATOM     67  C   UNL A   1      44.040  26.309  25.850  1.00  0.00     0.198 A 
ATOM     68  F   UNL A   1      43.971  28.312  27.087  1.00  0.00    -0.203 F 
ATOM     69  F   UNL A   1      42.493  23.092  26.479  1.00  0.00    -0.200 F 
ATOM     70  C   UNL A   1      43.668  24.983  25.689  1.00  0.00     0.200 A 
ATOM     71  F   UNL A   1      44.816  26.902  24.932  1.00  0.00    -0.200 F 
ATOM     72  F   UNL A   1      44.094  24.290  24.625  1.00  0.00    -0.200 F 
ENDBRANCH  48  62
BRANCH  49  73
ATOM     73  C   UNL A   1      39.581  31.898  35.600  1.00  0.00     0.064 A 
ATOM     74  C   UNL A   1      38.598  31.458  36.497  1.00  0.00     0.173 A 
ATOM     75  C   UNL A   1      40.116  33.179  35.786  1.00  0.00     0.173 A 
ATOM     76  F   UNL A   1      38.057  30.238  36.355  1.00  0.00    -0.203 F 
ATOM     77  C   UNL A   1      38.155  32.275  37.531  1.00  0.00     0.198 A 
ATOM     78  C   UNL A   1      39.679  33.992  36.829  1.00  0.00     0.198 A 
ATOM     79  F   UNL A   1      41.073  33.630  34.963  1.00  0.00    -0.203 F 
ATOM     80  F   UNL A   1      37.203  31.836  38.366  1.00  0.00    -0.200 F 
ATOM     81  C   UNL A   1      38.695  33.542  37.698  1.00  0.00     0.200 A 
ATOM     82  F   UNL A   1      40.215  35.208  36.997  1.00  0.00    -0.200 F 
ATOM     83  F   UNL A   1      38.269  34.327  38.697  1.00  0.00    -0.200 F 
ENDBRANCH  49  73
BRANCH  61  84
ATOM     84  C   UNL A   1      44.865  27.433  34.722  1.00  0.00     0.064 A 
ATOM     85  C   UNL A   1      44.684  26.249  35.452  1.00  0.00     0.173 A 
ATOM     86  C   UNL A   1      46.041  28.167  34.929  1.00  0.00     0.173 A 
ATOM     87  F   UNL A   1      43.572  25.518  35.288  1.00  0.00    -0.203 F 
ATOM     88  C   UNL A   1      45.639  25.826  36.371  1.00  0.00     0.198 A 
ATOM     89  C   UNL A   1      47.002  27.730  35.837  1.00  0.00     0.198 A 
ATOM     90  F   UNL A   1      46.261  29.297  34.242  1.00  0.00    -0.203 F 
ATOM     91  F   UNL A   1      45.436  24.704  37.077  1.00  0.00    -0.200 F 
ATOM     92  C   UNL A   1      46.796  26.565  36.563  1.00  0.00     0.200 A 
ATOM     93  F   UNL A   1      48.127  28.436  36.011  1.00  0.00    -0.200 F 
ATOM     94  F   UNL A   1      47.716  26.154  37.447  1.00  0.00    -0.200 F 
ENDBRANCH  61  84
ENDBRANCH  35  36
ENDBRANCH  28  30
ENDBRANCH  27  28
ENDBRANCH  26  27
ENDBRANCH  25  26
ENDBRANCH  24  25
ENDBRANCH   1  24
TORSDOF 18
ENDMDL
MODEL 2
REMARK VINA RESULT:     -11.0      2.419      3.552
REMARK SMILES O=C(COc1ccc(F)cc1)Nc1sccc1C(=O)OCCOCCOC(=O)c1ccc(-c2c3nc(c(-c4c(F)c(F)c(F)c(F)c4F)c4ccc([nH]4)c(-c4c(F)c(F)c(F)c(F)c4F)c4nc(c(-c5c(F)c(F)c(F)c(F)c5F)c5ccc2[nH]5)C=C4)C=C3)cc1
REMARK SMILES IDX 22 1 21 2 20 3 18 4 19 5 17 6 13 7 14 8 15 9 16 10 12 11
REMARK SMILES IDX 1 12 2 13 3 15 4 16 5 17 6 18 11 19 7 20 10 21 8 22 9 23
REMARK SMILES IDX 23 24 24 25 25 26 26 27 27 28 28 29 29 30 30 31 91 32 31 33
REMARK SMILES IDX 90 34 32 35 33 36 34 37 84 38 35 39 89 40 83 41 85 42 36 43
REMARK SMILES IDX 88 44 82 45 81 46 37 48 69 49 49 50 68 51 50 52 53 53 67 54
REMARK SMILES IDX 86 55 51 56 52 57 66 59 87 60 54 61 38 62 39 63 47 64 40 65
REMARK SMILES IDX 41 66 45 67 48 68 42 69 43 70 46 71 44 72 70 73 71 74 79 75
REMARK SMILES IDX 72 76 73 77 77 78 80 79 74 80 75 81 78 82 76 83 55 84 56 85
REMARK SMILES IDX 64 86 57 87 58 88 62 89 65 90 59 91 60 92 63 93 61 94
REMARK H PARENT 12 14 85 47 53 58
REMARK Flexibility Score: inf
ROOT
ATOM      1  C   UNL A   1      33.003  30.269  26.555  1.00  0.00     0.202 C 
ENDROOT
BRANCH   1   2
ATOM      2  C   UNL A   1      33.086  28.884  27.198  1.00  0.00     0.261 C 
BRANCH   2   3
ATOM      3  O   UNL A   1      34.064  28.116  26.483  1.00  0.00    -0.460 OA
BRANCH   3   4
ATOM      4  C   UNL A   1      33.690  27.671  25.256  1.00  0.00     0.341 C 
ATOM      5  O   UNL A   1      34.135  28.086  24.192  1.00  0.00    -0.246 OA
BRANCH   4   6
ATOM      6  C   UNL A   1      32.891  26.453  25.350  1.00  0.00     0.094 A 
ATOM      7  C   UNL A   1      31.532  26.307  25.145  1.00  0.00     0.110 A 
ATOM      8  S   UNL A   1      30.962  24.760  25.602  1.00  0.00    -0.126 S 
ATOM      9  C   UNL A   1      32.536  24.203  25.942  1.00  0.00     0.068 A 
ATOM     10  C   UNL A   1      33.469  25.196  25.759  1.00  0.00     0.029 A 
BRANCH   7  11
ATOM     11  N   UNL A   1      30.504  27.066  24.637  1.00  0.00    -0.314 N 
ATOM     12  O   UNL A   1      31.045  27.071  22.366  1.00  0.00    -0.271 OA
ATOM     13  C   UNL A   1      30.306  27.356  23.301  1.00  0.00     0.262 C 
ATOM     14  H   UNL A   1      29.854  27.434  25.279  1.00  0.00     0.170 HD
BRANCH  13  15
ATOM     15  C   UNL A   1      28.962  28.047  23.064  1.00  0.00     0.329 C 
BRANCH  15  16
ATOM     16  O   UNL A   1      28.980  28.869  21.892  1.00  0.00    -0.484 OA
BRANCH  16  17
ATOM     17  C   UNL A   1      28.905  30.195  22.232  1.00  0.00     0.120 A 
ATOM     18  C   UNL A   1      28.496  31.140  21.290  1.00  0.00     0.049 A 
ATOM     19  C   UNL A   1      29.189  30.573  23.545  1.00  0.00     0.049 A 
ATOM     20  C   UNL A   1      28.433  32.487  21.645  1.00  0.00     0.043 A 
ATOM     21  C   UNL A   1      29.114  31.920  23.900  1.00  0.00     0.043 A 
ATOM     22  C   UNL A   1      28.747  32.865  22.947  1.00  0.00     0.123 A 
ATOM     23  F   UNL A   1      28.686  34.159  23.289  1.00  0.00    -0.207 F 
ENDBRANCH  16  17
ENDBRANCH  15  16
ENDBRANCH  13  15
ENDBRANCH   7  11
ENDBRANCH   4   6
ENDBRANCH   3   4
ENDBRANCH   2   3
ENDBRANCH   1   2
BRANCH   1  24
ATOM     24  O   UNL A   1      31.740  30.918  26.733  1.00  0.00    -0.374 OA
BRANCH  24  25
ATOM     25  C   UNL A   1      31.749  32.343  26.835  1.00  0.00     0.202 C 
BRANCH  25  26
ATOM     26  C   UNL A   1      32.767  32.905  27.830  1.00  0.00     0.261 C 
BRANCH  26  27
ATOM     27  O   UNL A   1      33.033  34.301  27.594  1.00  0.00    -0.460 OA
BRANCH  27  28
ATOM     28  C   UNL A   1      33.156  35.056  28.712  1.00  0.00     0.338 C 
ATOM     29  O   UNL A   1      32.407  35.930  29.109  1.00  0.00    -0.246 OA
BRANCH  28  30
ATOM     30  C   UNL A   1      34.308  34.586  29.503  1.00  0.00     0.060 A 
ATOM     31  C   UNL A   1      35.563  34.577  28.883  1.00  0.00     0.016 A 
ATOM     32  C   UNL A   1      34.152  34.085  30.797  1.00  0.00     0.016 A 
ATOM     33  C   UNL A   1      36.666  34.042  29.548  1.00  0.00     0.010 A 
ATOM     34  C   UNL A   1      35.255  33.535  31.457  1.00  0.00     0.010 A 
ATOM     35  C   UNL A   1      36.511  33.493  30.828  1.00  0.00    -0.014 A 
BRANCH  35  36
ATOM     36  C   UNL A   1      37.647  32.802  31.478  1.00  0.00     0.031 A 
ATOM     37  C   UNL A   1      38.264  31.603  30.819  1.00  0.00     0.074 A 
ATOM     38  C   UNL A   1      38.142  33.262  32.641  1.00  0.00     0.049 A 
ATOM     39  N   UNL A   1      39.234  30.832  31.242  1.00  0.00    -0.248 NA
ATOM     40  C   UNL A   1      37.724  31.227  29.503  1.00  0.00     0.031 C 
ATOM     41  C   UNL A   1      37.679  34.460  33.338  1.00  0.00     0.029 A 
ATOM     42  N   UNL A   1      39.147  32.772  33.434  1.00  0.00    -0.354 N 
ATOM     43  C   UNL A   1      39.433  29.893  30.240  1.00  0.00     0.074 A 
ATOM     44  C   UNL A   1      38.464  30.169  29.200  1.00  0.00     0.031 C 
ATOM     45  C   UNL A   1      38.401  34.612  34.462  1.00  0.00     0.029 A 
ATOM     46  C   UNL A   1      39.350  33.505  34.575  1.00  0.00     0.049 A 
ATOM     47  H   UNL A   1      39.673  31.971  33.207  1.00  0.00     0.167 HD
ATOM     48  C   UNL A   1      40.349  28.898  30.189  1.00  0.00     0.037 A 
ATOM     49  C   UNL A   1      40.196  33.295  35.602  1.00  0.00     0.037 A 
ATOM     50  C   UNL A   1      41.301  28.609  31.228  1.00  0.00     0.049 A 
ATOM     51  C   UNL A   1      41.099  32.093  35.591  1.00  0.00     0.074 A 
ATOM     52  C   UNL A   1      42.272  27.624  31.261  1.00  0.00     0.029 A 
ATOM     53  N   UNL A   1      41.393  29.303  32.424  1.00  0.00    -0.354 N 
ATOM     54  N   UNL A   1      41.269  31.198  34.651  1.00  0.00    -0.248 NA
ATOM     55  C   UNL A   1      41.912  31.862  36.795  1.00  0.00     0.031 C 
ATOM     56  C   UNL A   1      42.926  27.695  32.497  1.00  0.00     0.029 A 
ATOM     57  C   UNL A   1      42.382  28.746  33.218  1.00  0.00     0.049 A 
ATOM     58  H   UNL A   1      40.838  30.077  32.672  1.00  0.00     0.167 HD
ATOM     59  C   UNL A   1      42.212  30.305  35.138  1.00  0.00     0.074 A 
ATOM     60  C   UNL A   1      42.583  30.766  36.460  1.00  0.00     0.031 C 
ATOM     61  C   UNL A   1      42.726  29.204  34.539  1.00  0.00     0.037 A 
BRANCH  48  62
ATOM     62  C   UNL A   1      40.357  28.033  28.967  1.00  0.00     0.064 A 
ATOM     63  C   UNL A   1      39.654  26.820  28.947  1.00  0.00     0.173 A 
ATOM     64  C   UNL A   1      41.096  28.389  27.829  1.00  0.00     0.173 A 
ATOM     65  F   UNL A   1      38.934  26.438  30.012  1.00  0.00    -0.203 F 
ATOM     66  C   UNL A   1      39.695  25.991  27.830  1.00  0.00     0.198 A 
ATOM     67  C   UNL A   1      41.120  27.564  26.708  1.00  0.00     0.198 A 
ATOM     68  F   UNL A   1      41.773  29.546  27.800  1.00  0.00    -0.203 F 
ATOM     69  F   UNL A   1      39.026  24.829  27.836  1.00  0.00    -0.200 F 
ATOM     70  C   UNL A   1      40.424  26.365  26.710  1.00  0.00     0.200 A 
ATOM     71  F   UNL A   1      41.810  27.935  25.620  1.00  0.00    -0.200 F 
ATOM     72  F   UNL A   1      40.451  25.570  25.632  1.00  0.00    -0.200 F 
ENDBRANCH  48  62
BRANCH  49  73
ATOM     73  C   UNL A   1      40.209  34.247  36.738  1.00  0.00     0.064 A 
ATOM     74  C   UNL A   1      39.310  34.116  37.806  1.00  0.00     0.173 A 
ATOM     75  C   UNL A   1      41.108  35.320  36.762  1.00  0.00     0.173 A 
ATOM     76  F   UNL A   1      38.430  33.103  37.824  1.00  0.00    -0.203 F 
ATOM     77  C   UNL A   1      39.299  35.035  38.850  1.00  0.00     0.198 A 
ATOM     78  C   UNL A   1      41.103  36.234  37.814  1.00  0.00     0.198 A 
ATOM     79  F   UNL A   1      41.998  35.469  35.772  1.00  0.00    -0.203 F 
ATOM     80  F   UNL A   1      38.419  34.896  39.851  1.00  0.00    -0.200 F 
ATOM     81  C   UNL A   1      40.196  36.094  38.854  1.00  0.00     0.200 A 
ATOM     82  F   UNL A   1      41.982  37.245  37.824  1.00  0.00    -0.200 F 
ATOM     83  F   UNL A   1      40.187  36.976  39.863  1.00  0.00    -0.200 F 
ENDBRANCH  49  73
BRANCH  61  84
ATOM     84  C   UNL A   1      43.742  28.410  35.303  1.00  0.00     0.064 A 
ATOM     85  C   UNL A   1      43.340  27.401  36.191  1.00  0.00     0.173 A 
ATOM     86  C   UNL A   1      45.110  28.703  35.209  1.00  0.00     0.173 A 
ATOM     87  F   UNL A   1      42.041  27.089  36.316  1.00  0.00    -0.203 F 
ATOM     88  C   UNL A   1      44.272  26.724  36.971  1.00  0.00     0.198 A 
ATOM     89  C   UNL A   1      46.041  28.011  35.978  1.00  0.00     0.198 A 
ATOM     90  F   UNL A   1      45.539  29.650  34.363  1.00  0.00    -0.203 F 
ATOM     91  F   UNL A   1      43.866  25.780  37.831  1.00  0.00    -0.200 F 
ATOM     92  C   UNL A   1      45.621  27.029  36.864  1.00  0.00     0.200 A 
ATOM     93  F   UNL A   1      47.345  28.295  35.864  1.00  0.00    -0.200 F 
ATOM     94  F   UNL A   1      46.518  26.373  37.614  1.00  0.00    -0.200 F 
ENDBRANCH  61  84
ENDBRANCH  35  36
ENDBRANCH  28  30
ENDBRANCH  27  28
ENDBRANCH  26  27
ENDBRANCH  25  26
ENDBRANCH  24  25
ENDBRANCH   1  24
TORSDOF 18
ENDMDL
MODEL 3
REMARK VINA RESULT:     -10.9      2.396      7.995
REMARK SMILES O=C(COc1ccc(F)cc1)Nc1sccc1C(=O)OCCOCCOC(=O)c1ccc(-c2c3nc(c(-c4c(F)c(F)c(F)c(F)c4F)c4ccc([nH]4)c(-c4c(F)c(F)c(F)c(F)c4F)c4nc(c(-c5c(F)c(F)c(F)c(F)c5F)c5ccc2[nH]5)C=C4)C=C3)cc1
REMARK SMILES IDX 22 1 21 2 20 3 18 4 19 5 17 6 13 7 14 8 15 9 16 10 12 11
REMARK SMILES IDX 1 12 2 13 3 15 4 16 5 17 6 18 11 19 7 20 10 21 8 22 9 23
REMARK SMILES IDX 23 24 24 25 25 26 26 27 27 28 28 29 29 30 30 31 91 32 31 33
REMARK SMILES IDX 90 34 32 35 33 36 34 37 84 38 35 39 89 40 83 41 85 42 36 43
REMARK SMILES IDX 88 44 82 45 81 46 37 48 69 49 49 50 68 51 50 52 53 53 67 54
REMARK SMILES IDX 86 55 51 56 52 57 66 59 87 60 54 61 38 62 39 63 47 64 40 65
REMARK SMILES IDX 41 66 45 67 48 68 42 69 43 70 46 71 44 72 70 73 71 74 79 75
REMARK SMILES IDX 72 76 73 77 77 78 80 79 74 80 75 81 78 82 76 83 55 84 56 85
REMARK SMILES IDX 64 86 57 87 58 88 62 89 65 90 59 91 60 92 63 93 61 94
REMARK H PARENT 12 14 85 47 53 58
REMARK Flexibility Score: inf
ROOT
ATOM      1  C   UNL A   1      33.049  30.209  26.369  1.00  0.00     0.202 C 
ENDROOT
BRANCH   1   2
ATOM      2  C   UNL A   1      33.302  28.782  26.859  1.00  0.00     0.261 C 
BRANCH   2   3
ATOM      3  O   UNL A   1      34.228  28.158  25.958  1.00  0.00    -0.460 OA
BRANCH   3   4
ATOM      4  C   UNL A   1      33.756  27.887  24.714  1.00  0.00     0.341 C 
ATOM      5  O   UNL A   1      34.048  28.511  23.700  1.00  0.00    -0.246 OA
BRANCH   4   6
ATOM      6  C   UNL A   1      33.068  26.600  24.671  1.00  0.00     0.094 A 
ATOM      7  C   UNL A   1      31.711  26.362  24.564  1.00  0.00     0.110 A 
ATOM      8  S   UNL A   1      31.312  24.716  24.803  1.00  0.00    -0.126 S 
ATOM      9  C   UNL A   1      32.952  24.261  24.906  1.00  0.00     0.068 A 
ATOM     10  C   UNL A   1      33.781  25.354  24.811  1.00  0.00     0.029 A 
BRANCH   7  11
ATOM     11  N   UNL A   1      30.580  27.093  24.283  1.00  0.00    -0.314 N 
ATOM     12  O   UNL A   1      30.800  27.368  21.975  1.00  0.00    -0.271 OA
ATOM     13  C   UNL A   1      30.182  27.502  23.025  1.00  0.00     0.262 C 
ATOM     14  H   UNL A   1      30.005  27.346  25.042  1.00  0.00     0.170 HD
BRANCH  13  15
ATOM     15  C   UNL A   1      28.781  28.115  23.046  1.00  0.00     0.329 C 
BRANCH  15  16
ATOM     16  O   UNL A   1      28.538  28.937  21.899  1.00  0.00    -0.484 OA
BRANCH  16  17
ATOM     17  C   UNL A   1      28.613  30.264  22.234  1.00  0.00     0.120 A 
ATOM     18  C   UNL A   1      28.335  31.247  21.280  1.00  0.00     0.049 A 
ATOM     19  C   UNL A   1      28.914  30.614  23.550  1.00  0.00     0.049 A 
ATOM     20  C   UNL A   1      28.424  32.593  21.630  1.00  0.00     0.043 A 
ATOM     21  C   UNL A   1      28.991  31.962  23.900  1.00  0.00     0.043 A 
ATOM     22  C   UNL A   1      28.755  32.939  22.937  1.00  0.00     0.123 A 
ATOM     23  F   UNL A   1      28.840  34.233  23.273  1.00  0.00    -0.207 F 
ENDBRANCH  16  17
ENDBRANCH  15  16
ENDBRANCH  13  15
ENDBRANCH   7  11
ENDBRANCH   4   6
ENDBRANCH   3   4
ENDBRANCH   2   3
ENDBRANCH   1   2
BRANCH   1  24
ATOM     24  O   UNL A   1      31.878  30.815  26.927  1.00  0.00    -0.374 OA
BRANCH  24  25
ATOM     25  C   UNL A   1      31.792  32.240  26.869  1.00  0.00     0.202 C 
BRANCH  25  26
ATOM     26  C   UNL A   1      32.751  32.975  27.810  1.00  0.00     0.261 C 
BRANCH  26  27
ATOM     27  O   UNL A   1      32.751  34.396  27.574  1.00  0.00    -0.460 OA
BRANCH  27  28
ATOM     28  C   UNL A   1      32.978  35.157  28.671  1.00  0.00     0.338 C 
ATOM     29  O   UNL A   1      32.322  36.101  29.074  1.00  0.00    -0.246 OA
BRANCH  28  30
ATOM     30  C   UNL A   1      34.112  34.603  29.433  1.00  0.00     0.060 A 
ATOM     31  C   UNL A   1      35.365  34.580  28.810  1.00  0.00     0.016 A 
ATOM     32  C   UNL A   1      33.936  34.038  30.699  1.00  0.00     0.016 A 
ATOM     33  C   UNL A   1      36.447  33.970  29.443  1.00  0.00     0.010 A 
ATOM     34  C   UNL A   1      35.018  33.413  31.326  1.00  0.00     0.010 A 
ATOM     35  C   UNL A   1      36.272  33.359  30.693  1.00  0.00    -0.014 A 
BRANCH  35  36
ATOM     36  C   UNL A   1      37.382  32.591  31.301  1.00  0.00     0.031 A 
ATOM     37  C   UNL A   1      37.894  32.974  32.659  1.00  0.00     0.074 A 
ATOM     38  C   UNL A   1      37.913  31.540  30.651  1.00  0.00     0.049 A 
ATOM     39  N   UNL A   1      38.883  32.461  33.346  1.00  0.00    -0.248 NA
ATOM     40  C   UNL A   1      37.193  34.073  33.339  1.00  0.00     0.031 C 
ATOM     41  C   UNL A   1      37.451  31.025  29.364  1.00  0.00     0.029 A 
ATOM     42  N   UNL A   1      38.955  30.718  30.994  1.00  0.00    -0.354 N 
ATOM     43  C   UNL A   1      38.913  33.160  34.544  1.00  0.00     0.074 A 
ATOM     44  C   UNL A   1      37.863  34.155  34.481  1.00  0.00     0.031 C 
ATOM     45  C   UNL A   1      38.211  29.971  29.022  1.00  0.00     0.029 A 
ATOM     46  C   UNL A   1      39.230  29.761  30.051  1.00  0.00     0.049 A 
ATOM     47  H   UNL A   1      39.459  30.806  31.835  1.00  0.00     0.167 HD
ATOM     48  C   UNL A   1      39.734  32.980  35.605  1.00  0.00     0.037 A 
ATOM     49  C   UNL A   1      40.204  28.832  30.016  1.00  0.00     0.037 A 
ATOM     50  C   UNL A   1      40.790  32.004  35.664  1.00  0.00     0.049 A 
ATOM     51  C   UNL A   1      41.200  28.753  31.139  1.00  0.00     0.074 A 
ATOM     52  C   UNL A   1      41.670  31.746  36.700  1.00  0.00     0.029 A 
ATOM     53  N   UNL A   1      41.113  31.133  34.636  1.00  0.00    -0.354 N 
ATOM     54  N   UNL A   1      41.235  29.430  32.259  1.00  0.00    -0.248 NA
ATOM     55  C   UNL A   1      42.305  27.795  30.982  1.00  0.00     0.031 C 
ATOM     56  C   UNL A   1      42.554  30.743  36.283  1.00  0.00     0.029 A 
ATOM     57  C   UNL A   1      42.201  30.358  35.000  1.00  0.00     0.049 A 
ATOM     58  H   UNL A   1      40.639  31.073  33.776  1.00  0.00     0.167 HD
ATOM     59  C   UNL A   1      42.351  28.976  32.946  1.00  0.00     0.074 A 
ATOM     60  C   UNL A   1      42.970  27.961  32.118  1.00  0.00     0.031 C 
ATOM     61  C   UNL A   1      42.818  29.365  34.158  1.00  0.00     0.037 A 
BRANCH  48  62
ATOM     62  C   UNL A   1      39.532  33.871  36.790  1.00  0.00     0.064 A 
ATOM     63  C   UNL A   1      40.154  35.126  36.854  1.00  0.00     0.173 A 
ATOM     64  C   UNL A   1      38.753  33.463  37.882  1.00  0.00     0.173 A 
ATOM     65  F   UNL A   1      40.909  35.558  35.833  1.00  0.00    -0.203 F 
ATOM     66  C   UNL A   1      40.006  35.940  37.973  1.00  0.00     0.198 A 
ATOM     67  C   UNL A   1      38.594  34.287  38.993  1.00  0.00     0.198 A 
ATOM     68  F   UNL A   1      38.129  32.275  37.860  1.00  0.00    -0.203 F 
ATOM     69  F   UNL A   1      40.619  37.131  38.020  1.00  0.00    -0.200 F 
ATOM     70  C   UNL A   1      39.223  35.522  39.040  1.00  0.00     0.200 A 
ATOM     71  F   UNL A   1      37.822  33.890  40.015  1.00  0.00    -0.200 F 
ATOM     72  F   UNL A   1      39.072  36.313  40.111  1.00  0.00    -0.200 F 
ENDBRANCH  48  62
BRANCH  49  73
ATOM     73  C   UNL A   1      40.289  27.912  28.857  1.00  0.00     0.064 A 
ATOM     74  C   UNL A   1      41.024  28.251  27.712  1.00  0.00     0.173 A 
ATOM     75  C   UNL A   1      39.614  26.685  28.866  1.00  0.00     0.173 A 
ATOM     76  F   UNL A   1      41.685  29.417  27.658  1.00  0.00    -0.203 F 
ATOM     77  C   UNL A   1      41.067  27.402  26.611  1.00  0.00     0.198 A 
ATOM     78  C   UNL A   1      39.668  25.830  27.767  1.00  0.00     0.198 A 
ATOM     79  F   UNL A   1      38.918  26.313  29.950  1.00  0.00    -0.203 F 
ATOM     80  F   UNL A   1      41.764  27.756  25.523  1.00  0.00    -0.200 F 
ATOM     81  C   UNL A   1      40.389  26.191  26.639  1.00  0.00     0.200 A 
ATOM     82  F   UNL A   1      39.027  24.655  27.805  1.00  0.00    -0.200 F 
ATOM     83  F   UNL A   1      40.436  25.373  25.579  1.00  0.00    -0.200 F 
ENDBRANCH  49  73
BRANCH  61  84
ATOM     84  C   UNL A   1      44.061  28.702  34.668  1.00  0.00     0.064 A 
ATOM     85  C   UNL A   1      43.980  27.560  35.479  1.00  0.00     0.173 A 
ATOM     86  C   UNL A   1      45.328  29.245  34.414  1.00  0.00     0.173 A 
ATOM     87  F   UNL A   1      42.788  27.008  35.751  1.00  0.00    -0.203 F 
ATOM     88  C   UNL A   1      45.125  26.995  36.031  1.00  0.00     0.198 A 
ATOM     89  C   UNL A   1      46.473  28.666  34.955  1.00  0.00     0.198 A 
ATOM     90  F   UNL A   1      45.452  30.328  33.633  1.00  0.00    -0.203 F 
ATOM     91  F   UNL A   1      45.025  25.918  36.823  1.00  0.00    -0.200 F 
ATOM     92  C   UNL A   1      46.369  27.548  35.769  1.00  0.00     0.200 A 
ATOM     93  F   UNL A   1      47.676  29.192  34.688  1.00  0.00    -0.200 F 
ATOM     94  F   UNL A   1      47.472  27.000  36.300  1.00  0.00    -0.200 F 
ENDBRANCH  61  84
ENDBRANCH  35  36
ENDBRANCH  28  30
ENDBRANCH  27  28
ENDBRANCH  26  27
ENDBRANCH  25  26
ENDBRANCH  24  25
ENDBRANCH   1  24
TORSDOF 18
ENDMDL
