MODEL 1
REMARK VINA RESULT:     -12.4      0.000      0.000
REMARK SMILES O=C(CC[NH+]1CCC(n2nccc2NC(=O)c2ccccc2Cl)CC1)OCCOCCOC(=O)c1ccc(-c2c3nc(c(-c4c(F)c(F)c(F)c(F)c4F)c4ccc([nH]4)c(-c4c(F)c(F)c(F)c(F)c4F)c4nc(c(-c5c(F)c(F)c(F)c(F)c5F)c5ccc2[nH]5)C=C4)C=C3)cc1
REMARK SMILES IDX 27 1 26 2 2 3 1 4 3 5 4 6 5 7 6 8 25 9 7 11 24 12 8 13 9 14
REMARK SMILES IDX 10 15 13 16 11 17 12 18 14 19 15 20 16 22 17 23 18 24 22 25
REMARK SMILES IDX 19 26 21 27 23 28 20 29 28 30 29 31 30 32 31 33 32 34 33 35
REMARK SMILES IDX 34 36 35 37 36 38 97 39 37 40 96 41 38 42 39 43 40 44 90 45
REMARK SMILES IDX 41 46 95 47 89 48 91 49 42 50 94 51 88 52 87 53 43 55 75 56
REMARK SMILES IDX 55 57 74 58 56 59 59 60 73 61 92 62 57 63 58 64 72 66 93 67
REMARK SMILES IDX 60 68 44 69 45 70 53 71 46 72 47 73 51 74 54 75 48 76 49 77
REMARK SMILES IDX 52 78 50 79 76 80 77 81 85 82 78 83 79 84 83 85 86 86 80 87
REMARK SMILES IDX 81 88 84 89 82 90 61 91 62 92 70 93 63 94 64 95 68 96 71 97
REMARK SMILES IDX 65 98 66 99 69 100 67 101
REMARK H PARENT 5 10 14 21 91 54 59 65
REMARK Flexibility Score: inf
ROOT
ATOM      1  C   UNL A   1      38.544  21.565  25.469  1.00  0.00     0.261 C 
ENDROOT
BRANCH   1   2
ATOM      2  O   UNL A   1      37.131  21.627  25.627  1.00  0.00    -0.463 OA
BRANCH   2   3
ATOM      3  C   UNL A   1      36.377  20.576  25.218  1.00  0.00     0.311 C 
ATOM      4  O   UNL A   1      36.899  19.509  24.918  1.00  0.00    -0.252 OA
BRANCH   3   5
ATOM      5  C   UNL A   1      34.908  20.842  25.013  1.00  0.00     0.184 C 
BRANCH   5   6
ATOM      6  C   UNL A   1      34.246  21.702  26.091  1.00  0.00     0.274 C 
BRANCH   6   7
ATOM      7  N   UNL A   1      33.633  22.971  25.683  1.00  0.00    -0.334 N 
ATOM      8  C   UNL A   1      32.525  23.427  26.492  1.00  0.00     0.264 C 
ATOM      9  C   UNL A   1      34.455  23.886  24.928  1.00  0.00     0.264 C 
ATOM     10  H   UNL A   1      33.062  22.753  24.867  1.00  0.00     0.348 HD
ATOM     11  C   UNL A   1      31.994  24.795  26.090  1.00  0.00     0.089 C 
ATOM     12  C   UNL A   1      34.144  25.390  25.008  1.00  0.00     0.089 C 
ATOM     13  C   UNL A   1      33.125  25.834  26.067  1.00  0.00     0.121 C 
BRANCH  13  14
ATOM     14  N   UNL A   1      32.621  27.202  25.889  1.00  0.00    -0.246 N 
ATOM     15  N   UNL A   1      32.855  28.087  26.884  1.00  0.00    -0.179 NA
ATOM     16  C   UNL A   1      31.982  27.795  24.809  1.00  0.00     0.131 A 
ATOM     17  C   UNL A   1      32.079  29.120  26.580  1.00  0.00     0.137 A 
ATOM     18  C   UNL A   1      31.440  28.946  25.342  1.00  0.00     0.069 A 
BRANCH  16  19
ATOM     19  N   UNL A   1      31.919  27.308  23.508  1.00  0.00    -0.307 N 
ATOM     20  C   UNL A   1      30.971  27.546  22.466  1.00  0.00     0.258 C 
ATOM     21  H   UNL A   1      32.651  26.697  23.264  1.00  0.00     0.171 HD
ATOM     22  O   UNL A   1      31.131  26.886  21.455  1.00  0.00    -0.269 OA
BRANCH  20  23
ATOM     23  C   UNL A   1      29.848  28.460  22.616  1.00  0.00     0.058 A 
ATOM     24  C   UNL A   1      29.996  29.761  22.121  1.00  0.00     0.015 A 
ATOM     25  C   UNL A   1      28.644  28.034  23.181  1.00  0.00     0.053 A 
ATOM     26  C   UNL A   1      28.894  30.610  22.102  1.00  0.00     0.001 A 
ATOM     27  C   UNL A   1      27.539  28.883  23.137  1.00  0.00     0.021 A 
ATOM     28  Cl  UNL A   1      28.455  26.459  23.861  1.00  0.00    -0.083 Cl
ATOM     29  C   UNL A   1      27.661  30.160  22.582  1.00  0.00     0.002 A 
ENDBRANCH  20  23
ENDBRANCH  16  19
ENDBRANCH  13  14
ENDBRANCH   6   7
ENDBRANCH   5   6
ENDBRANCH   3   5
ENDBRANCH   2   3
ENDBRANCH   1   2
BRANCH   1  30
ATOM     30  C   UNL A   1      39.428  22.303  26.478  1.00  0.00     0.202 C 
BRANCH  30  31
ATOM     31  O   UNL A   1      40.640  21.744  26.947  1.00  0.00    -0.374 OA
BRANCH  31  32
ATOM     32  C   UNL A   1      40.813  20.334  26.991  1.00  0.00     0.202 C 
BRANCH  32  33
ATOM     33  C   UNL A   1      41.994  19.764  26.227  1.00  0.00     0.261 C 
BRANCH  33  34
ATOM     34  O   UNL A   1      42.603  20.771  25.437  1.00  0.00    -0.460 OA
BRANCH  34  35
ATOM     35  C   UNL A   1      43.916  20.567  25.188  1.00  0.00     0.338 C 
ATOM     36  O   UNL A   1      44.516  19.513  25.138  1.00  0.00    -0.246 OA
BRANCH  35  37
ATOM     37  C   UNL A   1      44.545  21.882  24.979  1.00  0.00     0.060 A 
ATOM     38  C   UNL A   1      45.618  22.156  25.830  1.00  0.00     0.016 A 
ATOM     39  C   UNL A   1      43.732  22.878  24.436  1.00  0.00     0.016 A 
ATOM     40  C   UNL A   1      45.591  23.360  26.485  1.00  0.00     0.010 A 
ATOM     41  C   UNL A   1      43.667  24.049  25.127  1.00  0.00     0.010 A 
ATOM     42  C   UNL A   1      44.516  24.209  26.221  1.00  0.00    -0.014 A 
BRANCH  42  43
ATOM     43  C   UNL A   1      44.294  25.338  27.083  1.00  0.00     0.031 A 
ATOM     44  C   UNL A   1      45.357  26.344  26.907  1.00  0.00     0.074 A 
ATOM     45  C   UNL A   1      43.173  25.453  27.819  1.00  0.00     0.049 A 
ATOM     46  N   UNL A   1      46.315  26.621  27.724  1.00  0.00    -0.248 NA
ATOM     47  C   UNL A   1      45.529  26.912  25.558  1.00  0.00     0.031 C 
ATOM     48  C   UNL A   1      41.981  24.597  27.816  1.00  0.00     0.029 A 
ATOM     49  N   UNL A   1      42.827  26.450  28.674  1.00  0.00    -0.354 N 
ATOM     50  C   UNL A   1      47.063  27.587  27.065  1.00  0.00     0.074 A 
ATOM     51  C   UNL A   1      46.720  27.496  25.675  1.00  0.00     0.031 C 
ATOM     52  C   UNL A   1      40.969  25.236  28.450  1.00  0.00     0.029 A 
ATOM     53  C   UNL A   1      41.472  26.478  29.005  1.00  0.00     0.049 A 
ATOM     54  H   UNL A   1      43.476  27.100  29.029  1.00  0.00     0.167 HD
ATOM     55  C   UNL A   1      47.616  28.620  27.752  1.00  0.00     0.037 A 
ATOM     56  C   UNL A   1      40.847  27.525  29.605  1.00  0.00     0.037 A 
ATOM     57  C   UNL A   1      47.720  28.309  29.156  1.00  0.00     0.049 A 
ATOM     58  C   UNL A   1      41.911  28.365  30.226  1.00  0.00     0.074 A 
ATOM     59  C   UNL A   1      48.361  27.317  29.873  1.00  0.00     0.029 A 
ATOM     60  N   UNL A   1      46.758  28.817  29.996  1.00  0.00    -0.354 N 
ATOM     61  N   UNL A   1      42.643  27.968  31.232  1.00  0.00    -0.248 NA
ATOM     62  C   UNL A   1      42.498  29.413  29.403  1.00  0.00     0.031 C 
ATOM     63  C   UNL A   1      47.456  26.964  30.915  1.00  0.00     0.029 A 
ATOM     64  C   UNL A   1      46.350  27.810  30.835  1.00  0.00     0.049 A 
ATOM     65  H   UNL A   1      46.421  29.742  29.996  1.00  0.00     0.167 HD
ATOM     66  C   UNL A   1      43.928  28.394  30.925  1.00  0.00     0.074 A 
ATOM     67  C   UNL A   1      43.768  29.324  29.810  1.00  0.00     0.031 C 
ATOM     68  C   UNL A   1      45.021  27.725  31.398  1.00  0.00     0.037 A 
BRANCH  55  69
ATOM     69  C   UNL A   1      47.679  30.023  27.206  1.00  0.00     0.064 A 
ATOM     70  C   UNL A   1      48.905  30.707  27.232  1.00  0.00     0.173 A 
ATOM     71  C   UNL A   1      46.548  30.815  26.894  1.00  0.00     0.173 A 
ATOM     72  F   UNL A   1      50.036  30.063  27.553  1.00  0.00    -0.203 F 
ATOM     73  C   UNL A   1      48.983  32.085  27.008  1.00  0.00     0.198 A 
ATOM     74  C   UNL A   1      46.637  32.174  26.607  1.00  0.00     0.198 A 
ATOM     75  F   UNL A   1      45.296  30.348  26.961  1.00  0.00    -0.203 F 
ATOM     76  F   UNL A   1      50.155  32.713  27.157  1.00  0.00    -0.200 F 
ATOM     77  C   UNL A   1      47.850  32.816  26.693  1.00  0.00     0.200 A 
ATOM     78  F   UNL A   1      45.521  32.860  26.325  1.00  0.00    -0.200 F 
ATOM     79  F   UNL A   1      47.917  34.141  26.523  1.00  0.00    -0.200 F 
ENDBRANCH  55  69
BRANCH  56  80
ATOM     80  C   UNL A   1      39.479  28.046  29.353  1.00  0.00     0.064 A 
ATOM     81  C   UNL A   1      38.556  28.203  30.402  1.00  0.00     0.173 A 
ATOM     82  C   UNL A   1      39.146  28.667  28.134  1.00  0.00     0.173 A 
ATOM     83  F   UNL A   1      38.819  27.688  31.612  1.00  0.00    -0.203 F 
ATOM     84  C   UNL A   1      37.384  28.954  30.245  1.00  0.00     0.198 A 
ATOM     85  C   UNL A   1      37.975  29.412  27.977  1.00  0.00     0.198 A 
ATOM     86  F   UNL A   1      39.996  28.649  27.098  1.00  0.00    -0.203 F 
ATOM     87  F   UNL A   1      36.559  29.132  31.286  1.00  0.00    -0.200 F 
ATOM     88  C   UNL A   1      37.100  29.566  29.036  1.00  0.00     0.200 A 
ATOM     89  F   UNL A   1      37.735  30.032  26.813  1.00  0.00    -0.200 F 
ATOM     90  F   UNL A   1      36.012  30.336  28.902  1.00  0.00    -0.200 F 
ENDBRANCH  56  80
BRANCH  68  91
ATOM     91  C   UNL A   1      44.791  26.665  32.443  1.00  0.00     0.064 A 
ATOM     92  C   UNL A   1      44.618  26.930  33.814  1.00  0.00     0.173 A 
ATOM     93  C   UNL A   1      44.593  25.346  32.017  1.00  0.00     0.173 A 
ATOM     94  F   UNL A   1      44.685  28.182  34.286  1.00  0.00    -0.203 F 
ATOM     95  C   UNL A   1      44.305  25.914  34.717  1.00  0.00     0.198 A 
ATOM     96  C   UNL A   1      44.243  24.340  32.913  1.00  0.00     0.198 A 
ATOM     97  F   UNL A   1      44.685  25.043  30.712  1.00  0.00    -0.203 F 
ATOM     98  F   UNL A   1      44.151  26.194  36.020  1.00  0.00    -0.200 F 
ATOM     99  C   UNL A   1      44.110  24.621  34.263  1.00  0.00     0.200 A 
ATOM    100  F   UNL A   1      44.000  23.102  32.460  1.00  0.00    -0.200 F 
ATOM    101  F   UNL A   1      43.763  23.650  35.121  1.00  0.00    -0.200 F 
ENDBRANCH  68  91
ENDBRANCH  42  43
ENDBRANCH  35  37
ENDBRANCH  34  35
ENDBRANCH  33  34
ENDBRANCH  32  33
ENDBRANCH  31  32
ENDBRANCH  30  31
ENDBRANCH   1  30
TORSDOF 19
ENDMDL
MODEL 2
REMARK VINA RESULT:     -12.3      4.846     10.074
REMARK SMILES O=C(CC[NH+]1CCC(n2nccc2NC(=O)c2ccccc2Cl)CC1)OCCOCCOC(=O)c1ccc(-c2c3nc(c(-c4c(F)c(F)c(F)c(F)c4F)c4ccc([nH]4)c(-c4c(F)c(F)c(F)c(F)c4F)c4nc(c(-c5c(F)c(F)c(F)c(F)c5F)c5ccc2[nH]5)C=C4)C=C3)cc1
REMARK SMILES IDX 27 1 26 2 2 3 1 4 3 5 4 6 5 7 6 8 25 9 7 11 24 12 8 13 9 14
REMARK SMILES IDX 10 15 13 16 11 17 12 18 14 19 15 20 16 22 17 23 18 24 22 25
REMARK SMILES IDX 19 26 21 27 23 28 20 29 28 30 29 31 30 32 31 33 32 34 33 35
REMARK SMILES IDX 34 36 35 37 36 38 97 39 37 40 96 41 38 42 39 43 40 44 90 45
REMARK SMILES IDX 41 46 95 47 89 48 91 49 42 50 94 51 88 52 87 53 43 55 75 56
REMARK SMILES IDX 55 57 74 58 56 59 59 60 73 61 92 62 57 63 58 64 72 66 93 67
REMARK SMILES IDX 60 68 44 69 45 70 53 71 46 72 47 73 51 74 54 75 48 76 49 77
REMARK SMILES IDX 52 78 50 79 76 80 77 81 85 82 78 83 79 84 83 85 86 86 80 87
REMARK SMILES IDX 81 88 84 89 82 90 61 91 62 92 70 93 63 94 64 95 68 96 71 97
REMARK SMILES IDX 65 98 66 99 69 100 67 101
REMARK H PARENT 5 10 14 21 91 54 59 65
REMARK Flexibility Score: inf
ROOT
ATOM      1  C   UNL A   1      32.983  34.868  28.736  1.00  0.00     0.261 C 
ENDROOT
BRANCH   1   2
ATOM      2  O   UNL A   1      33.991  34.197  27.989  1.00  0.00    -0.463 OA
BRANCH   2   3
ATOM      3  C   UNL A   1      34.877  33.405  28.643  1.00  0.00     0.311 C 
ATOM      4  O   UNL A   1      35.947  33.854  29.038  1.00  0.00    -0.252 OA
BRANCH   3   5
ATOM      5  C   UNL A   1      34.539  31.939  28.720  1.00  0.00     0.184 C 
BRANCH   5   6
ATOM      6  C   UNL A   1      34.330  31.248  27.371  1.00  0.00     0.274 C 
BRANCH   6   7
ATOM      7  N   UNL A   1      33.676  29.935  27.360  1.00  0.00    -0.334 N 
ATOM      8  C   UNL A   1      32.233  29.947  27.264  1.00  0.00     0.264 C 
ATOM      9  C   UNL A   1      34.462  28.812  26.908  1.00  0.00     0.264 C 
ATOM     10  H   UNL A   1      33.697  29.607  28.326  1.00  0.00     0.348 HD
ATOM     11  C   UNL A   1      31.614  28.562  27.153  1.00  0.00     0.089 C 
ATOM     12  C   UNL A   1      33.734  27.607  26.291  1.00  0.00     0.089 C 
ATOM     13  C   UNL A   1      32.238  27.778  25.988  1.00  0.00     0.121 C 
BRANCH  13  14
ATOM     14  N   UNL A   1      31.525  26.523  25.718  1.00  0.00    -0.246 N 
ATOM     15  N   UNL A   1      30.490  26.207  26.528  1.00  0.00    -0.179 NA
ATOM     16  C   UNL A   1      31.681  25.598  24.694  1.00  0.00     0.131 A 
ATOM     17  C   UNL A   1      30.224  24.941  26.227  1.00  0.00     0.137 A 
ATOM     18  C   UNL A   1      31.006  24.487  25.153  1.00  0.00     0.069 A 
BRANCH  16  19
ATOM     19  N   UNL A   1      32.371  25.784  23.501  1.00  0.00    -0.307 N 
ATOM     20  C   UNL A   1      33.549  25.153  22.995  1.00  0.00     0.258 C 
ATOM     21  H   UNL A   1      31.982  26.464  22.906  1.00  0.00     0.171 HD
ATOM     22  O   UNL A   1      33.975  25.610  21.949  1.00  0.00    -0.269 OA
BRANCH  20  23
ATOM     23  C   UNL A   1      34.238  24.087  23.704  1.00  0.00     0.058 A 
ATOM     24  C   UNL A   1      35.238  24.450  24.616  1.00  0.00     0.015 A 
ATOM     25  C   UNL A   1      33.874  22.751  23.525  1.00  0.00     0.053 A 
ATOM     26  C   UNL A   1      35.805  23.472  25.427  1.00  0.00     0.001 A 
ATOM     27  C   UNL A   1      34.431  21.781  24.358  1.00  0.00     0.021 A 
ATOM     28  Cl  UNL A   1      32.697  22.268  22.360  1.00  0.00    -0.083 Cl
ATOM     29  C   UNL A   1      35.380  22.145  25.318  1.00  0.00     0.002 A 
ENDBRANCH  20  23
ENDBRANCH  16  19
ENDBRANCH  13  14
ENDBRANCH   6   7
ENDBRANCH   5   6
ENDBRANCH   3   5
ENDBRANCH   2   3
ENDBRANCH   1   2
BRANCH   1  30
ATOM     30  C   UNL A   1      33.259  36.294  29.224  1.00  0.00     0.202 C 
BRANCH  30  31
ATOM     31  O   UNL A   1      32.591  36.833  30.348  1.00  0.00    -0.374 OA
BRANCH  31  32
ATOM     32  C   UNL A   1      33.329  37.443  31.399  1.00  0.00     0.202 C 
BRANCH  32  33
ATOM     33  C   UNL A   1      33.475  36.650  32.685  1.00  0.00     0.261 C 
BRANCH  33  34
ATOM     34  O   UNL A   1      34.687  35.915  32.676  1.00  0.00    -0.460 OA
BRANCH  34  35
ATOM     35  C   UNL A   1      34.529  34.580  32.535  1.00  0.00     0.338 C 
ATOM     36  O   UNL A   1      33.735  33.989  31.832  1.00  0.00    -0.246 OA
BRANCH  35  37
ATOM     37  C   UNL A   1      35.511  33.914  33.406  1.00  0.00     0.060 A 
ATOM     38  C   UNL A   1      36.670  34.654  33.651  1.00  0.00     0.016 A 
ATOM     39  C   UNL A   1      35.485  32.518  33.414  1.00  0.00     0.016 A 
ATOM     40  C   UNL A   1      37.863  34.010  33.452  1.00  0.00     0.010 A 
ATOM     41  C   UNL A   1      36.665  31.890  33.157  1.00  0.00     0.010 A 
ATOM     42  C   UNL A   1      37.813  32.674  33.055  1.00  0.00    -0.014 A 
BRANCH  42  43
ATOM     43  C   UNL A   1      39.011  32.050  32.563  1.00  0.00     0.031 A 
ATOM     44  C   UNL A   1      39.974  31.835  33.658  1.00  0.00     0.074 A 
ATOM     45  C   UNL A   1      39.111  31.621  31.291  1.00  0.00     0.049 A 
ATOM     46  N   UNL A   1      41.070  32.479  33.874  1.00  0.00    -0.248 NA
ATOM     47  C   UNL A   1      39.532  30.996  34.788  1.00  0.00     0.031 C 
ATOM     48  C   UNL A   1      38.076  31.584  30.251  1.00  0.00     0.029 A 
ATOM     49  N   UNL A   1      40.169  31.021  30.687  1.00  0.00    -0.354 N 
ATOM     50  C   UNL A   1      41.566  31.933  35.050  1.00  0.00     0.074 A 
ATOM     51  C   UNL A   1      40.465  31.277  35.696  1.00  0.00     0.031 C 
ATOM     52  C   UNL A   1      38.491  30.792  29.234  1.00  0.00     0.029 A 
ATOM     53  C   UNL A   1      39.855  30.371  29.493  1.00  0.00     0.049 A 
ATOM     54  H   UNL A   1      41.080  31.041  31.060  1.00  0.00     0.167 HD
ATOM     55  C   UNL A   1      42.901  31.745  35.215  1.00  0.00     0.037 A 
ATOM     56  C   UNL A   1      40.667  29.480  28.864  1.00  0.00     0.037 A 
ATOM     57  C   UNL A   1      43.654  32.569  34.303  1.00  0.00     0.049 A 
ATOM     58  C   UNL A   1      42.041  29.694  29.402  1.00  0.00     0.074 A 
ATOM     59  C   UNL A   1      43.740  33.932  34.091  1.00  0.00     0.029 A 
ATOM     60  N   UNL A   1      44.139  31.980  33.160  1.00  0.00    -0.354 N 
ATOM     61  N   UNL A   1      42.734  30.781  29.189  1.00  0.00    -0.248 NA
ATOM     62  C   UNL A   1      42.418  28.935  30.586  1.00  0.00     0.031 C 
ATOM     63  C   UNL A   1      43.823  34.085  32.677  1.00  0.00     0.029 A 
ATOM     64  C   UNL A   1      43.870  32.814  32.104  1.00  0.00     0.049 A 
ATOM     65  H   UNL A   1      44.599  31.111  33.109  1.00  0.00     0.167 HD
ATOM     66  C   UNL A   1      43.328  31.067  30.411  1.00  0.00     0.074 A 
ATOM     67  C   UNL A   1      43.138  29.866  31.221  1.00  0.00     0.031 C 
ATOM     68  C   UNL A   1      43.645  32.351  30.753  1.00  0.00     0.037 A 
BRANCH  55  69
ATOM     69  C   UNL A   1      43.475  30.539  35.911  1.00  0.00     0.064 A 
ATOM     70  C   UNL A   1      44.356  30.732  36.988  1.00  0.00     0.173 A 
ATOM     71  C   UNL A   1      43.404  29.214  35.415  1.00  0.00     0.173 A 
ATOM     72  F   UNL A   1      44.529  31.953  37.513  1.00  0.00    -0.203 F 
ATOM     73  C   UNL A   1      45.135  29.689  37.496  1.00  0.00     0.198 A 
ATOM     74  C   UNL A   1      44.132  28.165  35.966  1.00  0.00     0.198 A 
ATOM     75  F   UNL A   1      42.720  28.891  34.312  1.00  0.00    -0.203 F 
ATOM     76  F   UNL A   1      46.043  29.944  38.445  1.00  0.00    -0.200 F 
ATOM     77  C   UNL A   1      45.021  28.407  36.987  1.00  0.00     0.200 A 
ATOM     78  F   UNL A   1      44.017  26.938  35.438  1.00  0.00    -0.200 F 
ATOM     79  F   UNL A   1      45.799  27.418  37.441  1.00  0.00    -0.200 F 
ENDBRANCH  55  69
BRANCH  56  80
ATOM     80  C   UNL A   1      40.286  28.237  28.146  1.00  0.00     0.064 A 
ATOM     81  C   UNL A   1      40.840  27.922  26.893  1.00  0.00     0.173 A 
ATOM     82  C   UNL A   1      39.597  27.197  28.800  1.00  0.00     0.173 A 
ATOM     83  F   UNL A   1      41.558  28.838  26.225  1.00  0.00    -0.203 F 
ATOM     84  C   UNL A   1      40.728  26.640  26.340  1.00  0.00     0.198 A 
ATOM     85  C   UNL A   1      39.482  25.921  28.245  1.00  0.00     0.198 A 
ATOM     86  F   UNL A   1      39.104  27.369  30.035  1.00  0.00    -0.203 F 
ATOM     87  F   UNL A   1      41.321  26.362  25.170  1.00  0.00    -0.200 F 
ATOM     88  C   UNL A   1      40.057  25.639  27.021  1.00  0.00     0.200 A 
ATOM     89  F   UNL A   1      38.865  24.951  28.936  1.00  0.00    -0.200 F 
ATOM     90  F   UNL A   1      40.003  24.396  26.523  1.00  0.00    -0.200 F 
ENDBRANCH  56  80
BRANCH  68  91
ATOM     91  C   UNL A   1      43.549  33.402  29.679  1.00  0.00     0.064 A 
ATOM     92  C   UNL A   1      42.404  34.185  29.439  1.00  0.00     0.173 A 
ATOM     93  C   UNL A   1      44.708  33.729  28.966  1.00  0.00     0.173 A 
ATOM     94  F   UNL A   1      41.286  34.006  30.154  1.00  0.00    -0.203 F 
ATOM     95  C   UNL A   1      42.413  35.214  28.497  1.00  0.00     0.198 A 
ATOM     96  C   UNL A   1      44.727  34.781  28.055  1.00  0.00     0.198 A 
ATOM     97  F   UNL A   1      45.848  33.058  29.196  1.00  0.00    -0.203 F 
ATOM     98  F   UNL A   1      41.305  35.941  28.284  1.00  0.00    -0.200 F 
ATOM     99  C   UNL A   1      43.577  35.516  27.812  1.00  0.00     0.200 A 
ATOM    100  F   UNL A   1      45.870  35.106  27.436  1.00  0.00    -0.200 F 
ATOM    101  F   UNL A   1      43.602  36.535  26.941  1.00  0.00    -0.200 F 
ENDBRANCH  68  91
ENDBRANCH  42  43
ENDBRANCH  35  37
ENDBRANCH  34  35
ENDBRANCH  33  34
ENDBRANCH  32  33
ENDBRANCH  31  32
ENDBRANCH  30  31
ENDBRANCH   1  30
TORSDOF 19
ENDMDL
MODEL 3
REMARK VINA RESULT:     -12.3      2.808      4.694
REMARK SMILES O=C(CC[NH+]1CCC(n2nccc2NC(=O)c2ccccc2Cl)CC1)OCCOCCOC(=O)c1ccc(-c2c3nc(c(-c4c(F)c(F)c(F)c(F)c4F)c4ccc([nH]4)c(-c4c(F)c(F)c(F)c(F)c4F)c4nc(c(-c5c(F)c(F)c(F)c(F)c5F)c5ccc2[nH]5)C=C4)C=C3)cc1
REMARK SMILES IDX 27 1 26 2 2 3 1 4 3 5 4 6 5 7 6 8 25 9 7 11 24 12 8 13 9 14
REMARK SMILES IDX 10 15 13 16 11 17 12 18 14 19 15 20 16 22 17 23 18 24 22 25
REMARK SMILES IDX 19 26 21 27 23 28 20 29 28 30 29 31 30 32 31 33 32 34 33 35
REMARK SMILES IDX 34 36 35 37 36 38 97 39 37 40 96 41 38 42 39 43 40 44 90 45
REMARK SMILES IDX 41 46 95 47 89 48 91 49 42 50 94 51 88 52 87 53 43 55 75 56
REMARK SMILES IDX 55 57 74 58 56 59 59 60 73 61 92 62 57 63 58 64 72 66 93 67
REMARK SMILES IDX 60 68 44 69 45 70 53 71 46 72 47 73 51 74 54 75 48 76 49 77
REMARK SMILES IDX 52 78 50 79 76 80 77 81 85 82 78 83 79 84 83 85 86 86 80 87
REMARK SMILES IDX 81 88 84 89 82 90 61 91 62 92 70 93 63 94 64 95 68 96 71 97
REMARK SMILES IDX 65 98 66 99 69 100 67 101
REMARK H PARENT 5 10 14 21 91 54 59 65
REMARK Flexibility Score: inf
ROOT
ATOM      1  C   UNL A   1      42.874  18.822  26.136  1.00  0.00     0.261 C 
ENDROOT
BRANCH   1   2
ATOM      2  O   UNL A   1      42.114  19.873  26.721  1.00  0.00    -0.463 OA
BRANCH   2   3
ATOM      3  C   UNL A   1      40.787  19.953  26.451  1.00  0.00     0.311 C 
ATOM      4  O   UNL A   1      40.244  19.131  25.722  1.00  0.00    -0.252 OA
BRANCH   3   5
ATOM      5  C   UNL A   1      40.068  21.173  26.965  1.00  0.00     0.184 C 
BRANCH   5   6
ATOM      6  C   UNL A   1      39.823  22.270  25.927  1.00  0.00     0.274 C 
BRANCH   6   7
ATOM      7  N   UNL A   1      38.464  22.429  25.397  1.00  0.00    -0.334 N 
ATOM      8  C   UNL A   1      37.795  21.212  24.996  1.00  0.00     0.264 C 
ATOM      9  C   UNL A   1      37.733  23.605  25.804  1.00  0.00     0.264 C 
ATOM     10  H   UNL A   1      38.577  22.784  24.447  1.00  0.00     0.348 HD
ATOM     11  C   UNL A   1      36.354  21.422  24.553  1.00  0.00     0.089 C 
ATOM     12  C   UNL A   1      36.197  23.544  25.826  1.00  0.00     0.089 C 
ATOM     13  C   UNL A   1      35.553  22.163  25.633  1.00  0.00     0.121 C 
BRANCH  13  14
ATOM     14  N   UNL A   1      34.116  22.198  25.334  1.00  0.00    -0.246 N 
ATOM     15  N   UNL A   1      33.274  21.677  26.253  1.00  0.00    -0.179 NA
ATOM     16  C   UNL A   1      33.430  22.758  24.264  1.00  0.00     0.131 A 
ATOM     17  C   UNL A   1      32.112  21.603  25.617  1.00  0.00     0.137 A 
ATOM     18  C   UNL A   1      32.181  22.178  24.338  1.00  0.00     0.069 A 
BRANCH  16  19
ATOM     19  N   UNL A   1      33.924  23.681  23.349  1.00  0.00    -0.307 N 
ATOM     20  C   UNL A   1      33.463  24.986  22.996  1.00  0.00     0.258 C 
ATOM     21  H   UNL A   1      34.727  23.385  22.862  1.00  0.00     0.171 HD
ATOM     22  O   UNL A   1      34.054  25.517  22.072  1.00  0.00    -0.269 OA
BRANCH  20  23
ATOM     23  C   UNL A   1      32.323  25.620  23.642  1.00  0.00     0.058 A 
ATOM     24  C   UNL A   1      31.081  25.538  22.999  1.00  0.00     0.015 A 
ATOM     25  C   UNL A   1      32.453  26.237  24.888  1.00  0.00     0.053 A 
ATOM     26  C   UNL A   1      29.943  25.991  23.660  1.00  0.00     0.001 A 
ATOM     27  C   UNL A   1      31.305  26.666  25.552  1.00  0.00     0.021 A 
ATOM     28  Cl  UNL A   1      33.980  26.414  25.671  1.00  0.00    -0.083 Cl
ATOM     29  C   UNL A   1      30.052  26.526  24.946  1.00  0.00     0.002 A 
ENDBRANCH  20  23
ENDBRANCH  16  19
ENDBRANCH  13  14
ENDBRANCH   6   7
ENDBRANCH   5   6
ENDBRANCH   3   5
ENDBRANCH   2   3
ENDBRANCH   1   2
BRANCH   1  30
ATOM     30  C   UNL A   1      43.791  19.150  24.953  1.00  0.00     0.202 C 
BRANCH  30  31
ATOM     31  O   UNL A   1      44.864  20.063  25.080  1.00  0.00    -0.374 OA
BRANCH  31  32
ATOM     32  C   UNL A   1      44.732  21.397  24.609  1.00  0.00     0.202 C 
BRANCH  32  33
ATOM     33  C   UNL A   1      44.337  22.449  25.630  1.00  0.00     0.261 C 
BRANCH  33  34
ATOM     34  O   UNL A   1      43.149  23.108  25.224  1.00  0.00    -0.460 OA
BRANCH  34  35
ATOM     35  C   UNL A   1      43.168  24.449  25.399  1.00  0.00     0.338 C 
ATOM     36  O   UNL A   1      43.943  25.256  24.929  1.00  0.00    -0.246 OA
BRANCH  35  37
ATOM     37  C   UNL A   1      42.052  24.803  26.291  1.00  0.00     0.060 A 
ATOM     38  C   UNL A   1      41.162  25.742  25.767  1.00  0.00     0.016 A 
ATOM     39  C   UNL A   1      42.284  24.658  27.660  1.00  0.00     0.016 A 
ATOM     40  C   UNL A   1      40.861  26.816  26.564  1.00  0.00     0.010 A 
ATOM     41  C   UNL A   1      42.037  25.750  28.434  1.00  0.00     0.010 A 
ATOM     42  C   UNL A   1      41.444  26.857  27.830  1.00  0.00    -0.014 A 
BRANCH  42  43
ATOM     43  C   UNL A   1      41.390  28.083  28.581  1.00  0.00     0.031 A 
ATOM     44  C   UNL A   1      42.549  28.938  28.268  1.00  0.00     0.074 A 
ATOM     45  C   UNL A   1      40.323  28.397  29.340  1.00  0.00     0.049 A 
ATOM     46  N   UNL A   1      43.568  29.180  29.019  1.00  0.00    -0.248 NA
ATOM     47  C   UNL A   1      42.722  29.349  26.863  1.00  0.00     0.031 C 
ATOM     48  C   UNL A   1      39.044  27.688  29.464  1.00  0.00     0.029 A 
ATOM     49  N   UNL A   1      40.130  29.505  30.100  1.00  0.00    -0.354 N 
ATOM     50  C   UNL A   1      44.388  29.985  28.241  1.00  0.00     0.074 A 
ATOM     51  C   UNL A   1      43.975  29.800  26.879  1.00  0.00     0.031 C 
ATOM     52  C   UNL A   1      38.140  28.498  30.064  1.00  0.00     0.029 A 
ATOM     53  C   UNL A   1      38.803  29.721  30.473  1.00  0.00     0.049 A 
ATOM     54  H   UNL A   1      40.863  30.107  30.365  1.00  0.00     0.167 HD
ATOM     55  C   UNL A   1      45.085  31.008  28.801  1.00  0.00     0.037 A 
ATOM     56  C   UNL A   1      38.326  30.887  30.984  1.00  0.00     0.037 A 
ATOM     57  C   UNL A   1      45.216  30.824  30.224  1.00  0.00     0.049 A 
ATOM     58  C   UNL A   1      39.505  31.654  31.481  1.00  0.00     0.074 A 
ATOM     59  C   UNL A   1      45.775  29.838  31.015  1.00  0.00     0.029 A 
ATOM     60  N   UNL A   1      44.356  31.518  31.041  1.00  0.00    -0.354 N 
ATOM     61  N   UNL A   1      40.233  31.274  32.497  1.00  0.00    -0.248 NA
ATOM     62  C   UNL A   1      40.166  32.543  30.536  1.00  0.00     0.031 C 
ATOM     63  C   UNL A   1      44.884  29.695  32.118  1.00  0.00     0.029 A 
ATOM     64  C   UNL A   1      43.877  30.651  31.991  1.00  0.00     0.049 A 
ATOM     65  H   UNL A   1      44.125  32.472  30.959  1.00  0.00     0.167 HD
ATOM     66  C   UNL A   1      41.542  31.517  32.104  1.00  0.00     0.074 A 
ATOM     67  C   UNL A   1      41.436  32.348  30.907  1.00  0.00     0.031 C 
ATOM     68  C   UNL A   1      42.574  30.775  32.605  1.00  0.00     0.037 A 
BRANCH  55  69
ATOM     69  C   UNL A   1      45.278  32.335  28.113  1.00  0.00     0.064 A 
ATOM     70  C   UNL A   1      44.162  33.163  27.911  1.00  0.00     0.173 A 
ATOM     71  C   UNL A   1      46.452  32.718  27.421  1.00  0.00     0.173 A 
ATOM     72  F   UNL A   1      42.987  32.873  28.488  1.00  0.00    -0.203 F 
ATOM     73  C   UNL A   1      44.209  34.261  27.048  1.00  0.00     0.198 A 
ATOM     74  C   UNL A   1      46.514  33.850  26.614  1.00  0.00     0.198 A 
ATOM     75  F   UNL A   1      47.557  31.964  27.398  1.00  0.00    -0.203 F 
ATOM     76  F   UNL A   1      43.091  34.953  26.797  1.00  0.00    -0.200 F 
ATOM     77  C   UNL A   1      45.385  34.605  26.403  1.00  0.00     0.200 A 
ATOM     78  F   UNL A   1      47.660  34.146  25.986  1.00  0.00    -0.200 F 
ATOM     79  F   UNL A   1      45.419  35.628  25.542  1.00  0.00    -0.200 F 
ENDBRANCH  55  69
BRANCH  56  80
ATOM     80  C   UNL A   1      37.015  31.535  30.728  1.00  0.00     0.064 A 
ATOM     81  C   UNL A   1      36.099  31.761  31.771  1.00  0.00     0.173 A 
ATOM     82  C   UNL A   1      36.754  32.203  29.516  1.00  0.00     0.173 A 
ATOM     83  F   UNL A   1      36.300  31.205  32.975  1.00  0.00    -0.203 F 
ATOM     84  C   UNL A   1      35.003  32.619  31.615  1.00  0.00     0.198 A 
ATOM     85  C   UNL A   1      35.659  33.055  29.361  1.00  0.00     0.198 A 
ATOM     86  F   UNL A   1      37.611  32.123  28.488  1.00  0.00    -0.203 F 
ATOM     87  F   UNL A   1      34.186  32.856  32.651  1.00  0.00    -0.200 F 
ATOM     88  C   UNL A   1      34.790  33.273  30.413  1.00  0.00     0.200 A 
ATOM     89  F   UNL A   1      35.489  33.713  28.205  1.00  0.00    -0.200 F 
ATOM     90  F   UNL A   1      33.779  34.142  30.282  1.00  0.00    -0.200 F 
ENDBRANCH  56  80
BRANCH  68  91
ATOM     91  C   UNL A   1      42.275  29.855  33.759  1.00  0.00     0.064 A 
ATOM     92  C   UNL A   1      41.836  28.525  33.618  1.00  0.00     0.173 A 
ATOM     93  C   UNL A   1      42.586  30.292  35.052  1.00  0.00     0.173 A 
ATOM     94  F   UNL A   1      41.619  27.998  32.406  1.00  0.00    -0.203 F 
ATOM     95  C   UNL A   1      41.676  27.692  34.725  1.00  0.00     0.198 A 
ATOM     96  C   UNL A   1      42.463  29.447  36.152  1.00  0.00     0.198 A 
ATOM     97  F   UNL A   1      43.067  31.531  35.244  1.00  0.00    -0.203 F 
ATOM     98  F   UNL A   1      41.251  26.430  34.562  1.00  0.00    -0.200 F 
ATOM     99  C   UNL A   1      41.997  28.152  35.990  1.00  0.00     0.200 A 
ATOM    100  F   UNL A   1      42.829  29.879  37.367  1.00  0.00    -0.200 F 
ATOM    101  F   UNL A   1      41.890  27.339  37.051  1.00  0.00    -0.200 F 
ENDBRANCH  68  91
ENDBRANCH  42  43
ENDBRANCH  35  37
ENDBRANCH  34  35
ENDBRANCH  33  34
ENDBRANCH  32  33
ENDBRANCH  31  32
ENDBRANCH  30  31
ENDBRANCH   1  30
TORSDOF 19
ENDMDL
