MODEL 1
REMARK VINA RESULT:     -10.8      0.000      0.000
REMARK SMILES O=C(OCCOCCOC(=O)c1cc(OCc2ccc(Br)cc2F)cs1)c1ccc(-c2c3nc(c(-c4c(F)c(F)c(F)c(F)c4F)c4ccc([nH]4)c(-c4c(F)c(F)c(F)c(F)c4F)c4nc(c(-c5c(F)c(F)c(F)c(F)c5F)c5ccc2[nH]5)C=C4)C=C3)cc1
REMARK SMILES IDX 7 1 6 2 5 3 4 4 3 5 2 6 1 7 27 8 28 9 89 10 29 11 88 12
REMARK SMILES IDX 30 13 31 14 32 15 82 16 33 17 87 18 81 19 83 20 34 21 86 22
REMARK SMILES IDX 80 23 79 24 35 26 67 27 47 28 66 29 48 30 51 31 65 32 84 33
REMARK SMILES IDX 49 34 50 35 64 37 85 38 52 39 36 40 37 41 45 42 38 43 39 44
REMARK SMILES IDX 43 45 46 46 40 47 41 48 44 49 42 50 68 51 69 52 77 53 70 54
REMARK SMILES IDX 71 55 75 56 78 57 72 58 73 59 76 60 74 61 53 62 54 63 62 64
REMARK SMILES IDX 55 65 56 66 60 67 63 68 57 69 58 70 61 71 59 72 8 73 9 74
REMARK SMILES IDX 10 75 11 76 12 77 13 78 26 79 14 80 25 81 15 82 16 83 17 84
REMARK SMILES IDX 18 85 23 86 19 87 22 88 24 89 20 90 21 91
REMARK H PARENT 83 25 51 36
REMARK Flexibility Score: inf
ROOT
ATOM      1  C   UNL A   1      32.832  29.375  25.615  1.00  0.00     0.202 C 
ENDROOT
BRANCH   1   2
ATOM      2  O   UNL A   1      31.957  30.426  26.040  1.00  0.00    -0.374 OA
BRANCH   2   3
ATOM      3  C   UNL A   1      32.557  31.433  26.856  1.00  0.00     0.202 C 
BRANCH   3   4
ATOM      4  C   UNL A   1      31.649  32.636  27.122  1.00  0.00     0.261 C 
BRANCH   4   5
ATOM      5  O   UNL A   1      32.440  33.832  27.244  1.00  0.00    -0.460 OA
BRANCH   5   6
ATOM      6  C   UNL A   1      33.015  34.367  28.344  1.00  0.00     0.338 C 
ATOM      7  O   UNL A   1      32.599  35.449  28.755  1.00  0.00    -0.246 OA
BRANCH   6   8
ATOM      8  C   UNL A   1      34.145  33.731  29.090  1.00  0.00     0.060 A 
ATOM      9  C   UNL A   1      34.023  32.670  29.991  1.00  0.00     0.016 A 
ATOM     10  C   UNL A   1      35.443  34.174  28.772  1.00  0.00     0.016 A 
ATOM     11  C   UNL A   1      35.139  32.115  30.612  1.00  0.00     0.010 A 
ATOM     12  C   UNL A   1      36.572  33.589  29.352  1.00  0.00     0.010 A 
ATOM     13  C   UNL A   1      36.419  32.565  30.293  1.00  0.00    -0.014 A 
BRANCH  13  14
ATOM     14  C   UNL A   1      37.579  31.978  30.993  1.00  0.00     0.031 A 
ATOM     15  C   UNL A   1      38.405  30.944  30.296  1.00  0.00     0.074 A 
ATOM     16  C   UNL A   1      37.924  32.443  32.208  1.00  0.00     0.049 A 
ATOM     17  N   UNL A   1      39.458  30.299  30.722  1.00  0.00    -0.248 NA
ATOM     18  C   UNL A   1      37.995  30.596  28.926  1.00  0.00     0.031 C 
ATOM     19  C   UNL A   1      37.220  33.501  32.934  1.00  0.00     0.029 A 
ATOM     20  N   UNL A   1      38.964  32.105  33.034  1.00  0.00    -0.354 N 
ATOM     21  C   UNL A   1      39.830  29.462  29.680  1.00  0.00     0.074 A 
ATOM     22  C   UNL A   1      38.885  29.669  28.605  1.00  0.00     0.031 C 
ATOM     23  C   UNL A   1      37.863  33.741  34.088  1.00  0.00     0.029 A 
ATOM     24  C   UNL A   1      38.990  32.822  34.204  1.00  0.00     0.049 A 
ATOM     25  H   UNL A   1      39.628  31.412  32.809  1.00  0.00     0.167 HD
ATOM     26  C   UNL A   1      40.869  28.596  29.633  1.00  0.00     0.037 A 
ATOM     27  C   UNL A   1      39.825  32.727  35.256  1.00  0.00     0.037 A 
ATOM     28  C   UNL A   1      41.793  28.395  30.716  1.00  0.00     0.049 A 
ATOM     29  C   UNL A   1      40.934  31.712  35.203  1.00  0.00     0.074 A 
ATOM     30  C   UNL A   1      42.849  27.507  30.803  1.00  0.00     0.029 A 
ATOM     31  N   UNL A   1      41.763  29.104  31.910  1.00  0.00    -0.354 N 
ATOM     32  N   UNL A   1      41.258  30.894  34.230  1.00  0.00    -0.248 NA
ATOM     33  C   UNL A   1      41.784  31.593  36.395  1.00  0.00     0.031 C 
ATOM     34  C   UNL A   1      43.438  27.656  32.065  1.00  0.00     0.029 A 
ATOM     35  C   UNL A   1      42.772  28.663  32.748  1.00  0.00     0.049 A 
ATOM     36  H   UNL A   1      41.120  29.817  32.128  1.00  0.00     0.167 HD
ATOM     37  C   UNL A   1      42.350  30.170  34.685  1.00  0.00     0.074 A 
ATOM     38  C   UNL A   1      42.649  30.663  36.015  1.00  0.00     0.031 C 
ATOM     39  C   UNL A   1      43.039  29.180  34.067  1.00  0.00     0.037 A 
BRANCH  26  40
ATOM     40  C   UNL A   1      41.008  27.771  28.390  1.00  0.00     0.064 A 
ATOM     41  C   UNL A   1      40.351  26.540  28.243  1.00  0.00     0.173 A 
ATOM     42  C   UNL A   1      41.840  28.202  27.346  1.00  0.00     0.173 A 
ATOM     43  F   UNL A   1      39.566  26.074  29.226  1.00  0.00    -0.203 F 
ATOM     44  C   UNL A   1      40.545  25.757  27.107  1.00  0.00     0.198 A 
ATOM     45  C   UNL A   1      42.015  27.426  26.203  1.00  0.00     0.198 A 
ATOM     46  F   UNL A   1      42.496  29.367  27.441  1.00  0.00    -0.203 F 
ATOM     47  F   UNL A   1      39.951  24.559  27.012  1.00  0.00    -0.200 F 
ATOM     48  C   UNL A   1      41.375  26.202  26.088  1.00  0.00     0.200 A 
ATOM     49  F   UNL A   1      42.817  27.857  25.219  1.00  0.00    -0.200 F 
ATOM     50  F   UNL A   1      41.570  25.441  25.003  1.00  0.00    -0.200 F 
ENDBRANCH  26  40
BRANCH  27  51
ATOM     51  C   UNL A   1      39.625  33.596  36.445  1.00  0.00     0.064 A 
ATOM     52  C   UNL A   1      38.803  33.198  37.508  1.00  0.00     0.173 A 
ATOM     53  C   UNL A   1      40.257  34.845  36.544  1.00  0.00     0.173 A 
ATOM     54  F   UNL A   1      38.157  32.024  37.451  1.00  0.00    -0.203 F 
ATOM     55  C   UNL A   1      38.614  34.019  38.619  1.00  0.00     0.198 A 
ATOM     56  C   UNL A   1      40.090  35.653  37.667  1.00  0.00     0.198 A 
ATOM     57  F   UNL A   1      41.051  35.277  35.554  1.00  0.00    -0.203 F 
ATOM     58  F   UNL A   1      37.793  33.631  39.604  1.00  0.00    -0.200 F 
ATOM     59  C   UNL A   1      39.263  35.242  38.701  1.00  0.00     0.200 A 
ATOM     60  F   UNL A   1      40.729  36.828  37.747  1.00  0.00    -0.200 F 
ATOM     61  F   UNL A   1      39.087  36.027  39.772  1.00  0.00    -0.200 F 
ENDBRANCH  27  51
BRANCH  39  62
ATOM     62  C   UNL A   1      44.182  28.576  34.823  1.00  0.00     0.064 A 
ATOM     63  C   UNL A   1      44.003  27.443  35.630  1.00  0.00     0.173 A 
ATOM     64  C   UNL A   1      45.475  29.106  34.701  1.00  0.00     0.173 A 
ATOM     65  F   UNL A   1      42.781  26.913  35.786  1.00  0.00    -0.203 F 
ATOM     66  C   UNL A   1      45.079  26.871  36.301  1.00  0.00     0.198 A 
ATOM     67  C   UNL A   1      46.551  28.517  35.357  1.00  0.00     0.198 A 
ATOM     68  F   UNL A   1      45.693  30.187  33.937  1.00  0.00    -0.203 F 
ATOM     69  F   UNL A   1      44.882  25.808  37.094  1.00  0.00    -0.200 F 
ATOM     70  C   UNL A   1      46.352  27.403  36.159  1.00  0.00     0.200 A 
ATOM     71  F   UNL A   1      47.782  29.026  35.211  1.00  0.00    -0.200 F 
ATOM     72  F   UNL A   1      47.387  26.845  36.800  1.00  0.00    -0.200 F 
ENDBRANCH  39  62
ENDBRANCH  13  14
ENDBRANCH   6   8
ENDBRANCH   5   6
ENDBRANCH   4   5
ENDBRANCH   3   4
ENDBRANCH   2   3
ENDBRANCH   1   2
BRANCH   1  73
ATOM     73  C   UNL A   1      32.503  29.012  24.160  1.00  0.00     0.261 C 
BRANCH  73  74
ATOM     74  O   UNL A   1      31.179  28.456  24.119  1.00  0.00    -0.459 OA
BRANCH  74  75
ATOM     75  C   UNL A   1      30.809  27.953  22.901  1.00  0.00     0.348 C 
ATOM     76  O   UNL A   1      30.306  28.617  22.002  1.00  0.00    -0.245 OA
BRANCH  75  77
ATOM     77  C   UNL A   1      31.240  26.573  22.833  1.00  0.00     0.116 A 
ATOM     78  C   UNL A   1      30.934  25.533  23.693  1.00  0.00     0.074 A 
ATOM     79  S   UNL A   1      32.363  26.082  21.640  1.00  0.00    -0.133 S 
ATOM     80  C   UNL A   1      31.736  24.382  23.461  1.00  0.00     0.131 A 
ATOM     81  C   UNL A   1      32.563  24.551  22.375  1.00  0.00     0.112 A 
BRANCH  80  82
ATOM     82  O   UNL A   1      31.814  23.229  24.173  1.00  0.00    -0.488 OA
BRANCH  82  83
ATOM     83  C   UNL A   1      33.129  22.738  24.445  1.00  0.00     0.268 C 
BRANCH  83  84
ATOM     84  C   UNL A   1      33.316  21.243  24.301  1.00  0.00     0.025 A 
ATOM     85  C   UNL A   1      32.385  20.496  23.558  1.00  0.00     0.011 A 
ATOM     86  C   UNL A   1      34.406  20.572  24.865  1.00  0.00     0.130 A 
ATOM     87  C   UNL A   1      32.528  19.112  23.426  1.00  0.00     0.016 A 
ATOM     88  C   UNL A   1      34.554  19.193  24.743  1.00  0.00     0.055 A 
ATOM     89  F   UNL A   1      35.338  21.250  25.548  1.00  0.00    -0.207 F 
ATOM     90  C   UNL A   1      33.608  18.467  24.026  1.00  0.00     0.020 A 
ATOM     91  Br  UNL A   1      33.792  16.594  23.858  1.00  0.00    -0.051 Br
ENDBRANCH  83  84
ENDBRANCH  82  83
ENDBRANCH  80  82
ENDBRANCH  75  77
ENDBRANCH  74  75
ENDBRANCH  73  74
ENDBRANCH   1  73
TORSDOF 17
ENDMDL
MODEL 2
REMARK VINA RESULT:     -10.8      1.096      2.145
REMARK SMILES O=C(OCCOCCOC(=O)c1cc(OCc2ccc(Br)cc2F)cs1)c1ccc(-c2c3nc(c(-c4c(F)c(F)c(F)c(F)c4F)c4ccc([nH]4)c(-c4c(F)c(F)c(F)c(F)c4F)c4nc(c(-c5c(F)c(F)c(F)c(F)c5F)c5ccc2[nH]5)C=C4)C=C3)cc1
REMARK SMILES IDX 7 1 6 2 5 3 4 4 3 5 2 6 1 7 27 8 28 9 89 10 29 11 88 12
REMARK SMILES IDX 30 13 31 14 32 15 82 16 33 17 87 18 81 19 83 20 34 21 86 22
REMARK SMILES IDX 80 23 79 24 35 26 67 27 47 28 66 29 48 30 51 31 65 32 84 33
REMARK SMILES IDX 49 34 50 35 64 37 85 38 52 39 36 40 37 41 45 42 38 43 39 44
REMARK SMILES IDX 43 45 46 46 40 47 41 48 44 49 42 50 68 51 69 52 77 53 70 54
REMARK SMILES IDX 71 55 75 56 78 57 72 58 73 59 76 60 74 61 53 62 54 63 62 64
REMARK SMILES IDX 55 65 56 66 60 67 63 68 57 69 58 70 61 71 59 72 8 73 9 74
REMARK SMILES IDX 10 75 11 76 12 77 13 78 26 79 14 80 25 81 15 82 16 83 17 84
REMARK SMILES IDX 18 85 23 86 19 87 22 88 24 89 20 90 21 91
REMARK H PARENT 83 25 51 36
REMARK Flexibility Score: inf
ROOT
ATOM      1  C   UNL A   1      32.778  29.341  25.642  1.00  0.00     0.202 C 
ENDROOT
BRANCH   1   2
ATOM      2  O   UNL A   1      31.896  30.406  26.021  1.00  0.00    -0.374 OA
BRANCH   2   3
ATOM      3  C   UNL A   1      32.459  31.390  26.890  1.00  0.00     0.202 C 
BRANCH   3   4
ATOM      4  C   UNL A   1      31.597  32.645  27.042  1.00  0.00     0.261 C 
BRANCH   4   5
ATOM      5  O   UNL A   1      32.439  33.807  27.170  1.00  0.00    -0.460 OA
BRANCH   5   6
ATOM      6  C   UNL A   1      33.004  34.332  28.279  1.00  0.00     0.338 C 
ATOM      7  O   UNL A   1      32.494  35.335  28.776  1.00  0.00    -0.246 OA
BRANCH   6   8
ATOM      8  C   UNL A   1      34.229  33.780  28.937  1.00  0.00     0.060 A 
ATOM      9  C   UNL A   1      35.526  34.267  28.764  1.00  0.00     0.016 A 
ATOM     10  C   UNL A   1      34.033  32.757  29.883  1.00  0.00     0.016 A 
ATOM     11  C   UNL A   1      36.606  33.713  29.450  1.00  0.00     0.010 A 
ATOM     12  C   UNL A   1      35.103  32.229  30.613  1.00  0.00     0.010 A 
ATOM     13  C   UNL A   1      36.400  32.696  30.381  1.00  0.00    -0.014 A 
BRANCH  13  14
ATOM     14  C   UNL A   1      37.569  32.108  31.066  1.00  0.00     0.031 A 
ATOM     15  C   UNL A   1      38.386  31.076  30.356  1.00  0.00     0.074 A 
ATOM     16  C   UNL A   1      37.929  32.569  32.277  1.00  0.00     0.049 A 
ATOM     17  N   UNL A   1      39.445  30.429  30.767  1.00  0.00    -0.248 NA
ATOM     18  C   UNL A   1      37.959  30.731  28.990  1.00  0.00     0.031 C 
ATOM     19  C   UNL A   1      37.234  33.626  33.014  1.00  0.00     0.029 A 
ATOM     20  N   UNL A   1      38.979  32.229  33.089  1.00  0.00    -0.354 N 
ATOM     21  C   UNL A   1      39.804  29.594  29.718  1.00  0.00     0.074 A 
ATOM     22  C   UNL A   1      38.845  29.804  28.656  1.00  0.00     0.031 C 
ATOM     23  C   UNL A   1      37.891  33.864  34.161  1.00  0.00     0.029 A 
ATOM     24  C   UNL A   1      39.020  32.944  34.260  1.00  0.00     0.049 A 
ATOM     25  H   UNL A   1      39.640  31.538  32.854  1.00  0.00     0.167 HD
ATOM     26  C   UNL A   1      40.842  28.728  29.656  1.00  0.00     0.037 A 
ATOM     27  C   UNL A   1      39.868  32.847  35.302  1.00  0.00     0.037 A 
ATOM     28  C   UNL A   1      41.779  28.526  30.727  1.00  0.00     0.049 A 
ATOM     29  C   UNL A   1      40.976  31.832  35.232  1.00  0.00     0.074 A 
ATOM     30  C   UNL A   1      42.837  27.638  30.799  1.00  0.00     0.029 A 
ATOM     31  N   UNL A   1      41.765  29.232  31.923  1.00  0.00    -0.354 N 
ATOM     32  N   UNL A   1      41.289  31.016  34.253  1.00  0.00    -0.248 NA
ATOM     33  C   UNL A   1      41.841  31.711  36.413  1.00  0.00     0.031 C 
ATOM     34  C   UNL A   1      43.441  27.783  32.054  1.00  0.00     0.029 A 
ATOM     35  C   UNL A   1      42.784  28.789  32.747  1.00  0.00     0.049 A 
ATOM     36  H   UNL A   1      41.124  29.944  32.151  1.00  0.00     0.167 HD
ATOM     37  C   UNL A   1      42.386  30.292  34.693  1.00  0.00     0.074 A 
ATOM     38  C   UNL A   1      42.702  30.781  36.020  1.00  0.00     0.031 C 
ATOM     39  C   UNL A   1      43.068  29.303  34.064  1.00  0.00     0.037 A 
BRANCH  26  40
ATOM     40  C   UNL A   1      40.966  27.907  28.410  1.00  0.00     0.064 A 
ATOM     41  C   UNL A   1      40.337  26.659  28.283  1.00  0.00     0.173 A 
ATOM     42  C   UNL A   1      41.754  28.358  27.341  1.00  0.00     0.173 A 
ATOM     43  F   UNL A   1      39.595  26.172  29.289  1.00  0.00    -0.203 F 
ATOM     44  C   UNL A   1      40.518  25.880  27.142  1.00  0.00     0.198 A 
ATOM     45  C   UNL A   1      41.914  27.587  26.193  1.00  0.00     0.198 A 
ATOM     46  F   UNL A   1      42.381  29.541  27.417  1.00  0.00    -0.203 F 
ATOM     47  F   UNL A   1      39.954  24.667  27.065  1.00  0.00    -0.200 F 
ATOM     48  C   UNL A   1      41.305  26.346  26.098  1.00  0.00     0.200 A 
ATOM     49  F   UNL A   1      42.674  28.038  25.186  1.00  0.00    -0.200 F 
ATOM     50  F   UNL A   1      41.487  25.589  25.008  1.00  0.00    -0.200 F 
ENDBRANCH  26  40
BRANCH  27  51
ATOM     51  C   UNL A   1      39.683  33.713  36.495  1.00  0.00     0.064 A 
ATOM     52  C   UNL A   1      40.286  34.975  36.579  1.00  0.00     0.173 A 
ATOM     53  C   UNL A   1      38.894  33.296  37.579  1.00  0.00     0.173 A 
ATOM     54  F   UNL A   1      41.069  35.410  35.581  1.00  0.00    -0.203 F 
ATOM     55  C   UNL A   1      40.114  35.782  37.703  1.00  0.00     0.198 A 
ATOM     56  C   UNL A   1      38.700  34.114  38.689  1.00  0.00     0.198 A 
ATOM     57  F   UNL A   1      38.298  32.095  37.552  1.00  0.00    -0.203 F 
ATOM     58  F   UNL A   1      40.733  36.969  37.774  1.00  0.00    -0.200 F 
ATOM     59  C   UNL A   1      39.316  35.355  38.753  1.00  0.00     0.200 A 
ATOM     60  F   UNL A   1      37.919  33.701  39.696  1.00  0.00    -0.200 F 
ATOM     61  F   UNL A   1      39.146  36.133  39.830  1.00  0.00    -0.200 F 
ENDBRANCH  27  51
BRANCH  39  62
ATOM     62  C   UNL A   1      44.220  28.698  34.804  1.00  0.00     0.064 A 
ATOM     63  C   UNL A   1      45.505  29.254  34.730  1.00  0.00     0.173 A 
ATOM     64  C   UNL A   1      44.026  27.583  35.633  1.00  0.00     0.173 A 
ATOM     65  F   UNL A   1      45.738  30.311  33.938  1.00  0.00    -0.203 F 
ATOM     66  C   UNL A   1      46.561  28.703  35.449  1.00  0.00     0.198 A 
ATOM     67  C   UNL A   1      45.080  27.050  36.368  1.00  0.00     0.198 A 
ATOM     68  F   UNL A   1      42.812  27.022  35.738  1.00  0.00    -0.203 F 
ATOM     69  F   UNL A   1      47.790  29.228  35.339  1.00  0.00    -0.200 F 
ATOM     70  C   UNL A   1      46.347  27.607  36.273  1.00  0.00     0.200 A 
ATOM     71  F   UNL A   1      44.871  25.997  37.170  1.00  0.00    -0.200 F 
ATOM     72  F   UNL A   1      47.364  27.084  36.970  1.00  0.00    -0.200 F 
ENDBRANCH  39  62
ENDBRANCH  13  14
ENDBRANCH   6   8
ENDBRANCH   5   6
ENDBRANCH   4   5
ENDBRANCH   3   4
ENDBRANCH   2   3
ENDBRANCH   1   2
BRANCH   1  73
ATOM     73  C   UNL A   1      32.471  28.934  24.195  1.00  0.00     0.261 C 
BRANCH  73  74
ATOM     74  O   UNL A   1      31.046  28.828  24.045  1.00  0.00    -0.459 OA
BRANCH  74  75
ATOM     75  C   UNL A   1      30.639  28.092  22.965  1.00  0.00     0.348 C 
ATOM     76  O   UNL A   1      30.120  28.565  21.960  1.00  0.00    -0.245 OA
BRANCH  75  77
ATOM     77  C   UNL A   1      31.052  26.720  23.172  1.00  0.00     0.116 A 
ATOM     78  C   UNL A   1      32.041  26.011  22.513  1.00  0.00     0.074 A 
ATOM     79  S   UNL A   1      30.200  25.723  24.271  1.00  0.00    -0.133 S 
ATOM     80  C   UNL A   1      31.997  24.619  22.803  1.00  0.00     0.131 A 
ATOM     81  C   UNL A   1      31.034  24.327  23.741  1.00  0.00     0.112 A 
BRANCH  80  82
ATOM     82  O   UNL A   1      32.711  23.603  22.256  1.00  0.00    -0.488 OA
BRANCH  82  83
ATOM     83  C   UNL A   1      32.862  22.429  23.057  1.00  0.00     0.268 C 
BRANCH  83  84
ATOM     84  C   UNL A   1      34.215  22.247  23.710  1.00  0.00     0.025 A 
ATOM     85  C   UNL A   1      35.245  23.164  23.440  1.00  0.00     0.011 A 
ATOM     86  C   UNL A   1      34.474  21.202  24.604  1.00  0.00     0.130 A 
ATOM     87  C   UNL A   1      36.507  23.006  24.018  1.00  0.00     0.016 A 
ATOM     88  C   UNL A   1      35.730  21.034  25.181  1.00  0.00     0.055 A 
ATOM     89  F   UNL A   1      33.510  20.328  24.921  1.00  0.00    -0.207 F 
ATOM     90  C   UNL A   1      36.745  21.937  24.881  1.00  0.00     0.020 A 
ATOM     91  Br  UNL A   1      38.457  21.717  25.650  1.00  0.00    -0.051 Br
ENDBRANCH  83  84
ENDBRANCH  82  83
ENDBRANCH  80  82
ENDBRANCH  75  77
ENDBRANCH  74  75
ENDBRANCH  73  74
ENDBRANCH   1  73
TORSDOF 17
ENDMDL
MODEL 3
REMARK VINA RESULT:     -10.7      6.419     10.839
REMARK SMILES O=C(OCCOCCOC(=O)c1cc(OCc2ccc(Br)cc2F)cs1)c1ccc(-c2c3nc(c(-c4c(F)c(F)c(F)c(F)c4F)c4ccc([nH]4)c(-c4c(F)c(F)c(F)c(F)c4F)c4nc(c(-c5c(F)c(F)c(F)c(F)c5F)c5ccc2[nH]5)C=C4)C=C3)cc1
REMARK SMILES IDX 7 1 6 2 5 3 4 4 3 5 2 6 1 7 27 8 28 9 89 10 29 11 88 12
REMARK SMILES IDX 30 13 31 14 32 15 82 16 33 17 87 18 81 19 83 20 34 21 86 22
REMARK SMILES IDX 80 23 79 24 35 26 67 27 47 28 66 29 48 30 51 31 65 32 84 33
REMARK SMILES IDX 49 34 50 35 64 37 85 38 52 39 36 40 37 41 45 42 38 43 39 44
REMARK SMILES IDX 43 45 46 46 40 47 41 48 44 49 42 50 68 51 69 52 77 53 70 54
REMARK SMILES IDX 71 55 75 56 78 57 72 58 73 59 76 60 74 61 53 62 54 63 62 64
REMARK SMILES IDX 55 65 56 66 60 67 63 68 57 69 58 70 61 71 59 72 8 73 9 74
REMARK SMILES IDX 10 75 11 76 12 77 13 78 26 79 14 80 25 81 15 82 16 83 17 84
REMARK SMILES IDX 18 85 23 86 19 87 22 88 24 89 20 90 21 91
REMARK H PARENT 83 25 51 36
REMARK Flexibility Score: inf
ROOT
ATOM      1  C   UNL A   1      41.553  21.233  27.488  1.00  0.00     0.202 C 
ENDROOT
BRANCH   1   2
ATOM      2  O   UNL A   1      41.284  19.828  27.557  1.00  0.00    -0.374 OA
BRANCH   2   3
ATOM      3  C   UNL A   1      42.378  18.976  27.213  1.00  0.00     0.202 C 
BRANCH   3   4
ATOM      4  C   UNL A   1      42.377  18.529  25.749  1.00  0.00     0.261 C 
BRANCH   4   5
ATOM      5  O   UNL A   1      43.725  18.476  25.249  1.00  0.00    -0.460 OA
BRANCH   5   6
ATOM      6  C   UNL A   1      44.388  19.374  24.486  1.00  0.00     0.338 C 
ATOM      7  O   UNL A   1      44.890  18.988  23.432  1.00  0.00    -0.246 OA
BRANCH   6   8
ATOM      8  C   UNL A   1      44.567  20.813  24.852  1.00  0.00     0.060 A 
ATOM      9  C   UNL A   1      44.146  21.900  24.082  1.00  0.00     0.016 A 
ATOM     10  C   UNL A   1      45.107  21.081  26.124  1.00  0.00     0.016 A 
ATOM     11  C   UNL A   1      44.320  23.211  24.522  1.00  0.00     0.010 A 
ATOM     12  C   UNL A   1      45.240  22.391  26.595  1.00  0.00     0.010 A 
ATOM     13  C   UNL A   1      44.862  23.464  25.782  1.00  0.00    -0.014 A 
BRANCH  13  14
ATOM     14  C   UNL A   1      45.064  24.864  26.204  1.00  0.00     0.031 A 
ATOM     15  C   UNL A   1      46.400  25.503  25.994  1.00  0.00     0.074 A 
ATOM     16  C   UNL A   1      44.025  25.567  26.690  1.00  0.00     0.049 A 
ATOM     17  N   UNL A   1      46.797  26.713  26.290  1.00  0.00    -0.248 NA
ATOM     18  C   UNL A   1      47.429  24.670  25.351  1.00  0.00     0.031 C 
ATOM     19  C   UNL A   1      42.667  25.048  26.862  1.00  0.00     0.029 A 
ATOM     20  N   UNL A   1      43.940  26.870  27.102  1.00  0.00    -0.354 N 
ATOM     21  C   UNL A   1      48.121  26.782  25.882  1.00  0.00     0.074 A 
ATOM     22  C   UNL A   1      48.468  25.491  25.329  1.00  0.00     0.031 C 
ATOM     23  C   UNL A   1      41.878  26.031  27.324  1.00  0.00     0.029 A 
ATOM     24  C   UNL A   1      42.684  27.230  27.526  1.00  0.00     0.049 A 
ATOM     25  H   UNL A   1      44.706  27.489  27.097  1.00  0.00     0.167 HD
ATOM     26  C   UNL A   1      48.969  27.833  25.968  1.00  0.00     0.037 A 
ATOM     27  C   UNL A   1      42.248  28.397  28.038  1.00  0.00     0.037 A 
ATOM     28  C   UNL A   1      48.609  29.106  26.530  1.00  0.00     0.049 A 
ATOM     29  C   UNL A   1      43.227  29.529  28.180  1.00  0.00     0.074 A 
ATOM     30  C   UNL A   1      49.399  30.226  26.720  1.00  0.00     0.029 A 
ATOM     31  N   UNL A   1      47.340  29.425  26.997  1.00  0.00    -0.354 N 
ATOM     32  N   UNL A   1      44.490  29.578  27.829  1.00  0.00    -0.248 NA
ATOM     33  C   UNL A   1      42.730  30.764  28.802  1.00  0.00     0.031 C 
ATOM     34  C   UNL A   1      48.615  31.211  27.334  1.00  0.00     0.029 A 
ATOM     35  C   UNL A   1      47.328  30.718  27.491  1.00  0.00     0.049 A 
ATOM     36  H   UNL A   1      46.564  28.820  26.979  1.00  0.00     0.167 HD
ATOM     37  C   UNL A   1      44.937  30.843  28.177  1.00  0.00     0.074 A 
ATOM     38  C   UNL A   1      43.802  31.542  28.748  1.00  0.00     0.031 C 
ATOM     39  C   UNL A   1      46.176  31.380  28.050  1.00  0.00     0.037 A 
BRANCH  26  40
ATOM     40  C   UNL A   1      50.372  27.613  25.493  1.00  0.00     0.064 A 
ATOM     41  C   UNL A   1      51.420  27.342  26.385  1.00  0.00     0.173 A 
ATOM     42  C   UNL A   1      50.679  27.711  24.127  1.00  0.00     0.173 A 
ATOM     43  F   UNL A   1      51.180  27.266  27.703  1.00  0.00    -0.203 F 
ATOM     44  C   UNL A   1      52.730  27.205  25.930  1.00  0.00     0.198 A 
ATOM     45  C   UNL A   1      51.986  27.552  23.674  1.00  0.00     0.198 A 
ATOM     46  F   UNL A   1      49.714  27.976  23.235  1.00  0.00    -0.203 F 
ATOM     47  F   UNL A   1      53.723  27.002  26.806  1.00  0.00    -0.200 F 
ATOM     48  C   UNL A   1      53.011  27.309  24.576  1.00  0.00     0.200 A 
ATOM     49  F   UNL A   1      52.256  27.652  22.365  1.00  0.00    -0.200 F 
ATOM     50  F   UNL A   1      54.273  27.190  24.142  1.00  0.00    -0.200 F 
ENDBRANCH  26  40
BRANCH  27  51
ATOM     51  C   UNL A   1      40.833  28.536  28.471  1.00  0.00     0.064 A 
ATOM     52  C   UNL A   1      40.434  28.207  29.773  1.00  0.00     0.173 A 
ATOM     53  C   UNL A   1      39.847  29.005  27.588  1.00  0.00     0.173 A 
ATOM     54  F   UNL A   1      41.332  27.731  30.648  1.00  0.00    -0.203 F 
ATOM     55  C   UNL A   1      39.104  28.334  30.173  1.00  0.00     0.198 A 
ATOM     56  C   UNL A   1      38.524  29.158  27.997  1.00  0.00     0.198 A 
ATOM     57  F   UNL A   1      40.174  29.330  26.329  1.00  0.00    -0.203 F 
ATOM     58  F   UNL A   1      38.742  27.977  31.414  1.00  0.00    -0.200 F 
ATOM     59  C   UNL A   1      38.152  28.816  29.288  1.00  0.00     0.200 A 
ATOM     60  F   UNL A   1      37.611  29.636  27.140  1.00  0.00    -0.200 F 
ATOM     61  F   UNL A   1      36.876  28.945  29.674  1.00  0.00    -0.200 F 
ENDBRANCH  27  51
BRANCH  39  62
ATOM     62  C   UNL A   1      46.357  32.787  28.528  1.00  0.00     0.064 A 
ATOM     63  C   UNL A   1      46.758  33.062  29.844  1.00  0.00     0.173 A 
ATOM     64  C   UNL A   1      46.176  33.865  27.650  1.00  0.00     0.173 A 
ATOM     65  F   UNL A   1      46.927  32.061  30.720  1.00  0.00    -0.203 F 
ATOM     66  C   UNL A   1      46.955  34.372  30.268  1.00  0.00     0.198 A 
ATOM     67  C   UNL A   1      46.397  35.172  28.073  1.00  0.00     0.198 A 
ATOM     68  F   UNL A   1      45.797  33.649  26.382  1.00  0.00    -0.203 F 
ATOM     69  F   UNL A   1      47.306  34.617  31.539  1.00  0.00    -0.200 F 
ATOM     70  C   UNL A   1      46.783  35.425  29.382  1.00  0.00     0.200 A 
ATOM     71  F   UNL A   1      46.238  36.188  27.214  1.00  0.00    -0.200 F 
ATOM     72  F   UNL A   1      46.981  36.685  29.791  1.00  0.00    -0.200 F 
ENDBRANCH  39  62
ENDBRANCH  13  14
ENDBRANCH   6   8
ENDBRANCH   5   6
ENDBRANCH   4   5
ENDBRANCH   3   4
ENDBRANCH   2   3
ENDBRANCH   1   2
BRANCH   1  73
ATOM     73  C   UNL A   1      41.035  21.772  26.148  1.00  0.00     0.261 C 
BRANCH  73  74
ATOM     74  O   UNL A   1      39.632  21.482  26.053  1.00  0.00    -0.459 OA
BRANCH  74  75
ATOM     75  C   UNL A   1      38.812  22.568  26.211  1.00  0.00     0.348 C 
ATOM     76  O   UNL A   1      39.060  23.523  26.939  1.00  0.00    -0.245 OA
BRANCH  75  77
ATOM     77  C   UNL A   1      37.710  22.440  25.282  1.00  0.00     0.116 A 
ATOM     78  C   UNL A   1      37.303  23.328  24.302  1.00  0.00     0.074 A 
ATOM     79  S   UNL A   1      36.639  21.111  25.399  1.00  0.00    -0.133 S 
ATOM     80  C   UNL A   1      36.035  22.991  23.754  1.00  0.00     0.131 A 
ATOM     81  C   UNL A   1      35.558  21.808  24.271  1.00  0.00     0.112 A 
BRANCH  80  82
ATOM     82  O   UNL A   1      35.264  23.683  22.878  1.00  0.00    -0.488 OA
BRANCH  82  83
ATOM     83  C   UNL A   1      33.925  23.963  23.292  1.00  0.00     0.268 C 
BRANCH  83  84
ATOM     84  C   UNL A   1      33.690  25.342  23.869  1.00  0.00     0.025 A 
ATOM     85  C   UNL A   1      33.806  25.543  25.256  1.00  0.00     0.011 A 
ATOM     86  C   UNL A   1      33.383  26.444  23.063  1.00  0.00     0.130 A 
ATOM     87  C   UNL A   1      33.576  26.804  25.814  1.00  0.00     0.016 A 
ATOM     88  C   UNL A   1      33.148  27.702  23.611  1.00  0.00     0.055 A 
ATOM     89  F   UNL A   1      33.301  26.307  21.733  1.00  0.00    -0.207 F 
ATOM     90  C   UNL A   1      33.241  27.875  24.988  1.00  0.00     0.020 A 
ATOM     91  Br  UNL A   1      32.917  29.576  25.745  1.00  0.00    -0.051 Br
ENDBRANCH  83  84
ENDBRANCH  82  83
ENDBRANCH  80  82
ENDBRANCH  75  77
ENDBRANCH  74  75
ENDBRANCH  73  74
ENDBRANCH   1  73
TORSDOF 17
ENDMDL
