MODEL 1
REMARK VINA RESULT:     -10.6      0.000      0.000
REMARK SMILES CCCCCCOC(=O)Nc1cccc(-c2ccc([C@@H](C)C(=O)OCCOCCOC(=O)c3ccc(-c4c5nc(c(-c6c(F)c(F)c(F)c(F)c6F)c6ccc([nH]6)c(-c6c(F)c(F)c(F)c(F)c6F)c6nc(c(-c7c(F)c(F)c(F)c(F)c7F)c7ccc4[nH]7)C=C6)C=C5)cc3)cc2F)c1
REMARK SMILES IDX 22 1 23 2 20 3 21 4 19 5 16 6 17 7 97 8 18 9 96 10 98 11
REMARK SMILES IDX 15 12 11 13 12 14 99 15 13 16 14 17 10 18 8 19 9 20 7 22
REMARK SMILES IDX 6 23 5 24 4 25 3 26 2 27 1 28 24 29 25 30 26 31 27 32 28 33
REMARK SMILES IDX 29 34 30 35 31 36 32 37 33 38 34 39 95 40 35 41 94 42 36 43
REMARK SMILES IDX 37 44 38 45 88 46 39 47 93 48 87 49 89 50 40 51 92 52 86 53
REMARK SMILES IDX 85 54 41 56 73 57 53 58 72 59 54 60 57 61 71 62 90 63 55 64
REMARK SMILES IDX 56 65 70 67 91 68 58 69 42 70 43 71 51 72 44 73 45 74 49 75
REMARK SMILES IDX 52 76 46 77 47 78 50 79 48 80 74 81 75 82 83 83 76 84 77 85
REMARK SMILES IDX 81 86 84 87 78 88 79 89 82 90 80 91 59 92 60 93 68 94 61 95
REMARK SMILES IDX 62 96 66 97 69 98 63 99 64 100 67 101 65 102
REMARK H PARENT 10 21 89 55 57 66
REMARK Flexibility Score: inf
ROOT
ATOM      1  C   UNL A   1      33.956  34.879  29.284  1.00  0.00     0.313 C 
ATOM      2  O   UNL A   1      33.958  35.798  28.470  1.00  0.00    -0.252 OA
ENDROOT
BRANCH   1   3
ATOM      3  C   UNL A   1      34.733  33.596  29.041  1.00  0.00     0.126 C 
ATOM      4  C   UNL A   1      36.134  33.943  28.546  1.00  0.00     0.025 C 
BRANCH   3   5
ATOM      5  C   UNL A   1      34.087  32.513  28.181  1.00  0.00    -0.031 A 
ATOM      6  C   UNL A   1      32.697  30.449  26.783  1.00  0.00     0.018 A 
ATOM      7  C   UNL A   1      33.996  30.247  27.270  1.00  0.00     0.012 A 
ATOM      8  C   UNL A   1      32.132  31.719  26.973  1.00  0.00     0.131 A 
ATOM      9  C   UNL A   1      34.681  31.261  27.959  1.00  0.00     0.005 A 
ATOM     10  C   UNL A   1      32.806  32.732  27.655  1.00  0.00     0.044 A 
ATOM     11  F   UNL A   1      30.891  31.981  26.533  1.00  0.00    -0.206 F 
BRANCH   6  12
ATOM     12  C   UNL A   1      31.929  29.366  26.146  1.00  0.00    -0.013 A 
ATOM     13  C   UNL A   1      31.035  27.093  26.209  1.00  0.00     0.045 A 
ATOM     14  C   UNL A   1      30.728  27.168  24.852  1.00  0.00     0.026 A 
ATOM     15  C   UNL A   1      31.624  28.191  26.849  1.00  0.00     0.035 A 
ATOM     16  C   UNL A   1      30.963  28.349  24.151  1.00  0.00     0.003 A 
ATOM     17  C   UNL A   1      31.561  29.438  24.792  1.00  0.00     0.009 A 
BRANCH  13  18
ATOM     18  N   UNL A   1      30.852  25.868  26.866  1.00  0.00    -0.291 N 
ATOM     19  C   UNL A   1      31.618  24.741  26.759  1.00  0.00     0.411 C 
ATOM     20  O   UNL A   1      31.159  23.637  27.022  1.00  0.00    -0.224 OA
ATOM     21  H   UNL A   1      30.082  25.815  27.478  1.00  0.00     0.173 HD
BRANCH  19  22
ATOM     22  O   UNL A   1      32.917  25.004  26.468  1.00  0.00    -0.449 OA
BRANCH  22  23
ATOM     23  C   UNL A   1      33.506  24.342  25.338  1.00  0.00     0.235 C 
BRANCH  23  24
ATOM     24  C   UNL A   1      32.640  24.468  24.078  1.00  0.00     0.042 C 
BRANCH  24  25
ATOM     25  C   UNL A   1      33.349  24.178  22.749  1.00  0.00     0.003 C 
BRANCH  25  26
ATOM     26  C   UNL A   1      33.482  22.692  22.390  1.00  0.00    -0.000 C 
BRANCH  26  27
ATOM     27  C   UNL A   1      32.249  21.840  22.693  1.00  0.00    -0.003 C 
ATOM     28  C   UNL A   1      32.519  20.765  23.733  1.00  0.00     0.004 C 
ENDBRANCH  26  27
ENDBRANCH  25  26
ENDBRANCH  24  25
ENDBRANCH  23  24
ENDBRANCH  22  23
ENDBRANCH  19  22
ENDBRANCH  13  18
ENDBRANCH   6  12
ENDBRANCH   3   5
ENDBRANCH   1   3
BRANCH   1  29
ATOM     29  O   UNL A   1      33.256  34.888  30.448  1.00  0.00    -0.463 OA
BRANCH  29  30
ATOM     30  C   UNL A   1      33.986  34.493  31.622  1.00  0.00     0.261 C 
BRANCH  30  31
ATOM     31  C   UNL A   1      34.796  35.659  32.191  1.00  0.00     0.202 C 
BRANCH  31  32
ATOM     32  O   UNL A   1      34.875  35.742  33.613  1.00  0.00    -0.374 OA
BRANCH  32  33
ATOM     33  C   UNL A   1      35.157  34.542  34.332  1.00  0.00     0.202 C 
BRANCH  33  34
ATOM     34  C   UNL A   1      36.525  33.895  34.083  1.00  0.00     0.261 C 
BRANCH  34  35
ATOM     35  O   UNL A   1      36.473  32.459  34.141  1.00  0.00    -0.460 OA
BRANCH  35  36
ATOM     36  C   UNL A   1      36.278  31.850  32.947  1.00  0.00     0.338 C 
ATOM     37  O   UNL A   1      35.214  31.596  32.406  1.00  0.00    -0.246 OA
BRANCH  36  38
ATOM     38  C   UNL A   1      37.568  31.665  32.256  1.00  0.00     0.060 A 
ATOM     39  C   UNL A   1      37.595  31.879  30.872  1.00  0.00     0.016 A 
ATOM     40  C   UNL A   1      38.701  31.201  32.926  1.00  0.00     0.016 A 
ATOM     41  C   UNL A   1      38.741  31.575  30.141  1.00  0.00     0.010 A 
ATOM     42  C   UNL A   1      39.849  30.889  32.188  1.00  0.00     0.010 A 
ATOM     43  C   UNL A   1      39.861  31.037  30.788  1.00  0.00    -0.014 A 
BRANCH  43  44
ATOM     44  C   UNL A   1      40.980  30.495  29.978  1.00  0.00     0.031 A 
ATOM     45  C   UNL A   1      42.153  31.382  29.666  1.00  0.00     0.074 A 
ATOM     46  C   UNL A   1      40.972  29.218  29.557  1.00  0.00     0.049 A 
ATOM     47  N   UNL A   1      43.222  31.131  28.952  1.00  0.00    -0.248 NA
ATOM     48  C   UNL A   1      42.118  32.739  30.235  1.00  0.00     0.031 C 
ATOM     49  C   UNL A   1      39.916  28.246  29.831  1.00  0.00     0.029 A 
ATOM     50  N   UNL A   1      41.884  28.522  28.802  1.00  0.00    -0.354 N 
ATOM     51  C   UNL A   1      43.979  32.295  28.982  1.00  0.00     0.074 A 
ATOM     52  C   UNL A   1      43.237  33.264  29.758  1.00  0.00     0.031 C 
ATOM     53  C   UNL A   1      40.234  27.079  29.243  1.00  0.00     0.029 A 
ATOM     54  C   UNL A   1      41.498  27.233  28.525  1.00  0.00     0.049 A 
ATOM     55  H   UNL A   1      42.733  28.909  28.490  1.00  0.00     0.167 HD
ATOM     56  C   UNL A   1      45.189  32.530  28.420  1.00  0.00     0.037 A 
ATOM     57  C   UNL A   1      42.088  26.294  27.759  1.00  0.00     0.037 A 
ATOM     58  C   UNL A   1      45.931  31.563  27.654  1.00  0.00     0.049 A 
ATOM     59  C   UNL A   1      43.402  26.605  27.088  1.00  0.00     0.074 A 
ATOM     60  C   UNL A   1      47.174  31.701  27.063  1.00  0.00     0.029 A 
ATOM     61  N   UNL A   1      45.494  30.277  27.371  1.00  0.00    -0.354 N 
ATOM     62  N   UNL A   1      44.122  27.699  27.141  1.00  0.00    -0.248 NA
ATOM     63  C   UNL A   1      43.988  25.546  26.253  1.00  0.00     0.031 C 
ATOM     64  C   UNL A   1      47.466  30.518  26.377  1.00  0.00     0.029 A 
ATOM     65  C   UNL A   1      46.432  29.622  26.589  1.00  0.00     0.049 A 
ATOM     66  H   UNL A   1      44.644  29.889  27.679  1.00  0.00     0.167 HD
ATOM     67  C   UNL A   1      45.255  27.451  26.377  1.00  0.00     0.074 A 
ATOM     68  C   UNL A   1      45.134  26.097  25.880  1.00  0.00     0.031 C 
ATOM     69  C   UNL A   1      46.304  28.268  26.114  1.00  0.00     0.037 A 
BRANCH  56  70
ATOM     70  C   UNL A   1      45.781  33.899  28.589  1.00  0.00     0.064 A 
ATOM     71  C   UNL A   1      45.457  34.955  27.725  1.00  0.00     0.173 A 
ATOM     72  C   UNL A   1      46.644  34.169  29.662  1.00  0.00     0.173 A 
ATOM     73  F   UNL A   1      44.646  34.747  26.678  1.00  0.00    -0.203 F 
ATOM     74  C   UNL A   1      45.994  36.227  27.915  1.00  0.00     0.198 A 
ATOM     75  C   UNL A   1      47.156  35.447  29.866  1.00  0.00     0.198 A 
ATOM     76  F   UNL A   1      46.982  33.195  30.521  1.00  0.00    -0.203 F 
ATOM     77  F   UNL A   1      45.704  37.211  27.054  1.00  0.00    -0.200 F 
ATOM     78  C   UNL A   1      46.836  36.473  28.990  1.00  0.00     0.200 A 
ATOM     79  F   UNL A   1      47.959  35.686  30.913  1.00  0.00    -0.200 F 
ATOM     80  F   UNL A   1      47.343  37.700  29.179  1.00  0.00    -0.200 F 
ENDBRANCH  56  70
BRANCH  57  81
ATOM     81  C   UNL A   1      41.436  24.972  27.568  1.00  0.00     0.064 A 
ATOM     82  C   UNL A   1      41.939  23.818  28.185  1.00  0.00     0.173 A 
ATOM     83  C   UNL A   1      40.314  24.831  26.738  1.00  0.00     0.173 A 
ATOM     84  F   UNL A   1      43.027  23.897  28.966  1.00  0.00    -0.203 F 
ATOM     85  C   UNL A   1      41.356  22.572  27.964  1.00  0.00     0.198 A 
ATOM     86  C   UNL A   1      39.713  23.589  26.542  1.00  0.00     0.198 A 
ATOM     87  F   UNL A   1      39.794  25.903  26.122  1.00  0.00    -0.203 F 
ATOM     88  F   UNL A   1      41.889  21.477  28.525  1.00  0.00    -0.200 F 
ATOM     89  C   UNL A   1      40.241  22.459  27.148  1.00  0.00     0.200 A 
ATOM     90  F   UNL A   1      38.629  23.488  25.762  1.00  0.00    -0.200 F 
ATOM     91  F   UNL A   1      39.682  21.260  26.935  1.00  0.00    -0.200 F 
ENDBRANCH  57  81
BRANCH  69  92
ATOM     92  C   UNL A   1      47.427  27.712  25.285  1.00  0.00     0.064 A 
ATOM     93  C   UNL A   1      47.441  27.825  23.888  1.00  0.00     0.173 A 
ATOM     94  C   UNL A   1      48.526  27.098  25.905  1.00  0.00     0.173 A 
ATOM     95  F   UNL A   1      46.408  28.391  23.245  1.00  0.00    -0.203 F 
ATOM     96  C   UNL A   1      48.502  27.320  23.139  1.00  0.00     0.198 A 
ATOM     97  C   UNL A   1      49.599  26.622  25.156  1.00  0.00     0.198 A 
ATOM     98  F   UNL A   1      48.567  26.971  27.240  1.00  0.00    -0.203 F 
ATOM     99  F   UNL A   1      48.471  27.397  21.801  1.00  0.00    -0.200 F 
ATOM    100  C   UNL A   1      49.583  26.727  23.774  1.00  0.00     0.200 A 
ATOM    101  F   UNL A   1      50.650  26.063  25.772  1.00  0.00    -0.200 F 
ATOM    102  F   UNL A   1      50.607  26.250  23.053  1.00  0.00    -0.200 F 
ENDBRANCH  69  92
ENDBRANCH  43  44
ENDBRANCH  36  38
ENDBRANCH  35  36
ENDBRANCH  34  35
ENDBRANCH  33  34
ENDBRANCH  32  33
ENDBRANCH  31  32
ENDBRANCH  30  31
ENDBRANCH  29  30
ENDBRANCH   1  29
TORSDOF 23
ENDMDL
MODEL 2
REMARK VINA RESULT:     -10.6      4.293      7.925
REMARK SMILES CCCCCCOC(=O)Nc1cccc(-c2ccc([C@@H](C)C(=O)OCCOCCOC(=O)c3ccc(-c4c5nc(c(-c6c(F)c(F)c(F)c(F)c6F)c6ccc([nH]6)c(-c6c(F)c(F)c(F)c(F)c6F)c6nc(c(-c7c(F)c(F)c(F)c(F)c7F)c7ccc4[nH]7)C=C6)C=C5)cc3)cc2F)c1
REMARK SMILES IDX 22 1 23 2 20 3 21 4 19 5 16 6 17 7 97 8 18 9 96 10 98 11
REMARK SMILES IDX 15 12 11 13 12 14 99 15 13 16 14 17 10 18 8 19 9 20 7 22
REMARK SMILES IDX 6 23 5 24 4 25 3 26 2 27 1 28 24 29 25 30 26 31 27 32 28 33
REMARK SMILES IDX 29 34 30 35 31 36 32 37 33 38 34 39 95 40 35 41 94 42 36 43
REMARK SMILES IDX 37 44 38 45 88 46 39 47 93 48 87 49 89 50 40 51 92 52 86 53
REMARK SMILES IDX 85 54 41 56 73 57 53 58 72 59 54 60 57 61 71 62 90 63 55 64
REMARK SMILES IDX 56 65 70 67 91 68 58 69 42 70 43 71 51 72 44 73 45 74 49 75
REMARK SMILES IDX 52 76 46 77 47 78 50 79 48 80 74 81 75 82 83 83 76 84 77 85
REMARK SMILES IDX 81 86 84 87 78 88 79 89 82 90 80 91 59 92 60 93 68 94 61 95
REMARK SMILES IDX 62 96 66 97 69 98 63 99 64 100 67 101 65 102
REMARK H PARENT 10 21 89 55 57 66
REMARK Flexibility Score: inf
ROOT
ATOM      1  C   UNL A   1      35.996  32.731  32.625  1.00  0.00     0.313 C 
ATOM      2  O   UNL A   1      34.837  32.392  32.405  1.00  0.00    -0.252 OA
ENDROOT
BRANCH   1   3
ATOM      3  C   UNL A   1      36.701  32.367  33.921  1.00  0.00     0.126 C 
ATOM      4  C   UNL A   1      36.884  33.627  34.763  1.00  0.00     0.025 C 
BRANCH   3   5
ATOM      5  C   UNL A   1      37.990  31.555  33.839  1.00  0.00    -0.031 A 
ATOM      6  C   UNL A   1      40.277  29.848  33.855  1.00  0.00     0.018 A 
ATOM      7  C   UNL A   1      40.297  31.093  34.499  1.00  0.00     0.012 A 
ATOM      8  C   UNL A   1      39.105  29.500  33.169  1.00  0.00     0.131 A 
ATOM      9  C   UNL A   1      39.172  31.934  34.493  1.00  0.00     0.005 A 
ATOM     10  C   UNL A   1      37.983  30.330  33.156  1.00  0.00     0.044 A 
ATOM     11  F   UNL A   1      39.017  28.323  32.531  1.00  0.00    -0.206 F 
BRANCH   6  12
ATOM     12  C   UNL A   1      41.413  28.914  33.935  1.00  0.00    -0.013 A 
ATOM     13  C   UNL A   1      43.334  28.026  35.158  1.00  0.00     0.045 A 
ATOM     14  C   UNL A   1      43.766  27.362  34.012  1.00  0.00     0.026 A 
ATOM     15  C   UNL A   1      42.160  28.789  35.117  1.00  0.00     0.035 A 
ATOM     16  C   UNL A   1      43.004  27.421  32.846  1.00  0.00     0.003 A 
ATOM     17  C   UNL A   1      41.839  28.193  32.807  1.00  0.00     0.009 A 
BRANCH  13  18
ATOM     18  N   UNL A   1      44.159  28.005  36.290  1.00  0.00    -0.291 N 
ATOM     19  C   UNL A   1      43.989  27.276  37.434  1.00  0.00     0.411 C 
ATOM     20  O   UNL A   1      44.496  27.629  38.491  1.00  0.00    -0.224 OA
ATOM     21  H   UNL A   1      44.955  28.585  36.258  1.00  0.00     0.173 HD
BRANCH  19  22
ATOM     22  O   UNL A   1      43.333  26.106  37.228  1.00  0.00    -0.449 OA
BRANCH  22  23
ATOM     23  C   UNL A   1      44.112  24.910  37.071  1.00  0.00     0.235 C 
BRANCH  23  24
ATOM     24  C   UNL A   1      43.590  24.023  35.935  1.00  0.00     0.042 C 
BRANCH  24  25
ATOM     25  C   UNL A   1      44.499  22.857  35.525  1.00  0.00     0.003 C 
BRANCH  25  26
ATOM     26  C   UNL A   1      44.632  22.634  34.013  1.00  0.00    -0.000 C 
BRANCH  26  27
ATOM     27  C   UNL A   1      44.223  23.824  33.144  1.00  0.00    -0.003 C 
ATOM     28  C   UNL A   1      44.284  23.514  31.658  1.00  0.00     0.004 C 
ENDBRANCH  26  27
ENDBRANCH  25  26
ENDBRANCH  24  25
ENDBRANCH  23  24
ENDBRANCH  22  23
ENDBRANCH  19  22
ENDBRANCH  13  18
ENDBRANCH   6  12
ENDBRANCH   3   5
ENDBRANCH   1   3
BRANCH   1  29
ATOM     29  O   UNL A   1      36.750  33.477  31.777  1.00  0.00    -0.463 OA
BRANCH  29  30
ATOM     30  C   UNL A   1      36.927  32.937  30.456  1.00  0.00     0.261 C 
BRANCH  30  31
ATOM     31  C   UNL A   1      36.628  33.985  29.383  1.00  0.00     0.202 C 
BRANCH  31  32
ATOM     32  O   UNL A   1      35.317  34.548  29.394  1.00  0.00    -0.374 OA
BRANCH  32  33
ATOM     33  C   UNL A   1      34.210  33.647  29.399  1.00  0.00     0.202 C 
BRANCH  33  34
ATOM     34  C   UNL A   1      33.792  33.063  28.044  1.00  0.00     0.261 C 
BRANCH  34  35
ATOM     35  O   UNL A   1      34.768  32.147  27.516  1.00  0.00    -0.460 OA
BRANCH  35  36
ATOM     36  C   UNL A   1      34.591  30.855  27.884  1.00  0.00     0.338 C 
ATOM     37  O   UNL A   1      33.540  30.240  27.955  1.00  0.00    -0.246 OA
BRANCH  36  38
ATOM     38  C   UNL A   1      35.898  30.189  28.039  1.00  0.00     0.060 A 
ATOM     39  C   UNL A   1      36.215  29.677  29.303  1.00  0.00     0.016 A 
ATOM     40  C   UNL A   1      36.831  30.152  27.002  1.00  0.00     0.016 A 
ATOM     41  C   UNL A   1      37.490  29.174  29.554  1.00  0.00     0.010 A 
ATOM     42  C   UNL A   1      38.115  29.653  27.258  1.00  0.00     0.010 A 
ATOM     43  C   UNL A   1      38.461  29.199  28.545  1.00  0.00    -0.014 A 
BRANCH  43  44
ATOM     44  C   UNL A   1      39.872  28.889  28.885  1.00  0.00     0.031 A 
ATOM     45  C   UNL A   1      40.671  29.892  29.670  1.00  0.00     0.074 A 
ATOM     46  C   UNL A   1      40.425  27.714  28.534  1.00  0.00     0.049 A 
ATOM     47  N   UNL A   1      41.923  29.846  30.050  1.00  0.00    -0.248 NA
ATOM     48  C   UNL A   1      39.963  31.115  30.083  1.00  0.00     0.031 C 
ATOM     49  C   UNL A   1      39.742  26.643  27.812  1.00  0.00     0.029 A 
ATOM     50  N   UNL A   1      41.694  27.231  28.736  1.00  0.00    -0.354 N 
ATOM     51  C   UNL A   1      42.153  31.031  30.739  1.00  0.00     0.074 A 
ATOM     52  C   UNL A   1      40.922  31.790  30.700  1.00  0.00     0.031 C 
ATOM     53  C   UNL A   1      40.604  25.629  27.621  1.00  0.00     0.029 A 
ATOM     54  C   UNL A   1      41.906  25.994  28.178  1.00  0.00     0.049 A 
ATOM     55  H   UNL A   1      42.385  27.722  29.235  1.00  0.00     0.167 HD
ATOM     56  C   UNL A   1      43.286  31.443  31.354  1.00  0.00     0.037 A 
ATOM     57  C   UNL A   1      43.029  25.253  28.106  1.00  0.00     0.037 A 
ATOM     58  C   UNL A   1      44.509  30.685  31.399  1.00  0.00     0.049 A 
ATOM     59  C   UNL A   1      44.297  25.767  28.741  1.00  0.00     0.074 A 
ATOM     60  C   UNL A   1      45.704  31.010  32.017  1.00  0.00     0.029 A 
ATOM     61  N   UNL A   1      44.693  29.449  30.797  1.00  0.00    -0.354 N 
ATOM     62  N   UNL A   1      44.499  26.876  29.410  1.00  0.00    -0.248 NA
ATOM     63  C   UNL A   1      45.492  24.921  28.614  1.00  0.00     0.031 C 
ATOM     64  C   UNL A   1      46.628  29.995  31.744  1.00  0.00     0.029 A 
ATOM     65  C   UNL A   1      45.992  29.011  31.006  1.00  0.00     0.049 A 
ATOM     66  H   UNL A   1      44.005  28.956  30.295  1.00  0.00     0.167 HD
ATOM     67  C   UNL A   1      45.829  26.846  29.810  1.00  0.00     0.074 A 
ATOM     68  C   UNL A   1      46.385  25.604  29.318  1.00  0.00     0.031 C 
ATOM     69  C   UNL A   1      46.527  27.764  30.522  1.00  0.00     0.037 A 
BRANCH  56  70
ATOM     70  C   UNL A   1      43.270  32.792  32.013  1.00  0.00     0.064 A 
ATOM     71  C   UNL A   1      43.301  33.979  31.267  1.00  0.00     0.173 A 
ATOM     72  C   UNL A   1      43.170  32.897  33.409  1.00  0.00     0.173 A 
ATOM     73  F   UNL A   1      43.408  33.933  29.930  1.00  0.00    -0.203 F 
ATOM     74  C   UNL A   1      43.255  35.222  31.894  1.00  0.00     0.198 A 
ATOM     75  C   UNL A   1      43.095  34.140  34.031  1.00  0.00     0.198 A 
ATOM     76  F   UNL A   1      43.131  31.792  34.170  1.00  0.00    -0.203 F 
ATOM     77  F   UNL A   1      43.328  36.343  31.164  1.00  0.00    -0.200 F 
ATOM     78  C   UNL A   1      43.144  35.301  33.275  1.00  0.00     0.200 A 
ATOM     79  F   UNL A   1      42.974  34.214  35.364  1.00  0.00    -0.200 F 
ATOM     80  F   UNL A   1      43.088  36.497  33.877  1.00  0.00    -0.200 F 
ENDBRANCH  56  70
BRANCH  57  81
ATOM     81  C   UNL A   1      43.017  23.951  27.389  1.00  0.00     0.064 A 
ATOM     82  C   UNL A   1      43.445  23.850  26.058  1.00  0.00     0.173 A 
ATOM     83  C   UNL A   1      42.548  22.785  28.013  1.00  0.00     0.173 A 
ATOM     84  F   UNL A   1      43.878  24.943  25.410  1.00  0.00    -0.203 F 
ATOM     85  C   UNL A   1      43.386  22.639  25.372  1.00  0.00     0.198 A 
ATOM     86  C   UNL A   1      42.517  21.568  27.336  1.00  0.00     0.198 A 
ATOM     87  F   UNL A   1      42.124  22.827  29.284  1.00  0.00    -0.203 F 
ATOM     88  F   UNL A   1      43.753  22.582  24.084  1.00  0.00    -0.200 F 
ATOM     89  C   UNL A   1      42.927  21.498  26.013  1.00  0.00     0.200 A 
ATOM     90  F   UNL A   1      42.084  20.466  27.963  1.00  0.00    -0.200 F 
ATOM     91  F   UNL A   1      42.869  20.333  25.352  1.00  0.00    -0.200 F 
ENDBRANCH  57  81
BRANCH  69  92
ATOM     92  C   UNL A   1      47.957  27.444  30.854  1.00  0.00     0.064 A 
ATOM     93  C   UNL A   1      48.303  26.711  31.998  1.00  0.00     0.173 A 
ATOM     94  C   UNL A   1      48.989  27.839  29.989  1.00  0.00     0.173 A 
ATOM     95  F   UNL A   1      47.356  26.322  32.865  1.00  0.00    -0.203 F 
ATOM     96  C   UNL A   1      49.634  26.407  32.277  1.00  0.00     0.198 A 
ATOM     97  C   UNL A   1      50.315  27.506  30.255  1.00  0.00     0.198 A 
ATOM     98  F   UNL A   1      48.711  28.534  28.876  1.00  0.00    -0.203 F 
ATOM     99  F   UNL A   1      49.947  25.747  33.401  1.00  0.00    -0.200 F 
ATOM    100  C   UNL A   1      50.637  26.797  31.402  1.00  0.00     0.200 A 
ATOM    101  F   UNL A   1      51.281  27.872  29.401  1.00  0.00    -0.200 F 
ATOM    102  F   UNL A   1      51.915  26.496  31.668  1.00  0.00    -0.200 F 
ENDBRANCH  69  92
ENDBRANCH  43  44
ENDBRANCH  36  38
ENDBRANCH  35  36
ENDBRANCH  34  35
ENDBRANCH  33  34
ENDBRANCH  32  33
ENDBRANCH  31  32
ENDBRANCH  30  31
ENDBRANCH  29  30
ENDBRANCH   1  29
TORSDOF 23
ENDMDL
MODEL 3
REMARK VINA RESULT:     -10.4      0.932      2.119
REMARK SMILES CCCCCCOC(=O)Nc1cccc(-c2ccc([C@@H](C)C(=O)OCCOCCOC(=O)c3ccc(-c4c5nc(c(-c6c(F)c(F)c(F)c(F)c6F)c6ccc([nH]6)c(-c6c(F)c(F)c(F)c(F)c6F)c6nc(c(-c7c(F)c(F)c(F)c(F)c7F)c7ccc4[nH]7)C=C6)C=C5)cc3)cc2F)c1
REMARK SMILES IDX 22 1 23 2 20 3 21 4 19 5 16 6 17 7 97 8 18 9 96 10 98 11
REMARK SMILES IDX 15 12 11 13 12 14 99 15 13 16 14 17 10 18 8 19 9 20 7 22
REMARK SMILES IDX 6 23 5 24 4 25 3 26 2 27 1 28 24 29 25 30 26 31 27 32 28 33
REMARK SMILES IDX 29 34 30 35 31 36 32 37 33 38 34 39 95 40 35 41 94 42 36 43
REMARK SMILES IDX 37 44 38 45 88 46 39 47 93 48 87 49 89 50 40 51 92 52 86 53
REMARK SMILES IDX 85 54 41 56 73 57 53 58 72 59 54 60 57 61 71 62 90 63 55 64
REMARK SMILES IDX 56 65 70 67 91 68 58 69 42 70 43 71 51 72 44 73 45 74 49 75
REMARK SMILES IDX 52 76 46 77 47 78 50 79 48 80 74 81 75 82 83 83 76 84 77 85
REMARK SMILES IDX 81 86 84 87 78 88 79 89 82 90 80 91 59 92 60 93 68 94 61 95
REMARK SMILES IDX 62 96 66 97 69 98 63 99 64 100 67 101 65 102
REMARK H PARENT 10 21 89 55 57 66
REMARK Flexibility Score: inf
ROOT
ATOM      1  C   UNL A   1      34.024  34.319  29.325  1.00  0.00     0.313 C 
ATOM      2  O   UNL A   1      33.827  35.150  28.444  1.00  0.00    -0.252 OA
ENDROOT
BRANCH   1   3
ATOM      3  C   UNL A   1      34.944  33.128  29.107  1.00  0.00     0.126 C 
ATOM      4  C   UNL A   1      36.324  33.630  28.692  1.00  0.00     0.025 C 
BRANCH   3   5
ATOM      5  C   UNL A   1      34.461  32.000  28.200  1.00  0.00    -0.031 A 
ATOM      6  C   UNL A   1      33.386  29.813  26.714  1.00  0.00     0.018 A 
ATOM      7  C   UNL A   1      34.707  29.790  27.185  1.00  0.00     0.012 A 
ATOM      8  C   UNL A   1      32.637  30.971  26.966  1.00  0.00     0.131 A 
ATOM      9  C   UNL A   1      35.237  30.865  27.918  1.00  0.00     0.005 A 
ATOM     10  C   UNL A   1      33.155  32.044  27.690  1.00  0.00     0.044 A 
ATOM     11  F   UNL A   1      31.366  31.059  26.543  1.00  0.00    -0.206 F 
BRANCH   6  12
ATOM     12  C   UNL A   1      32.786  28.655  26.031  1.00  0.00    -0.013 A 
ATOM     13  C   UNL A   1      31.758  26.440  26.138  1.00  0.00     0.045 A 
ATOM     14  C   UNL A   1      31.905  26.297  24.760  1.00  0.00     0.026 A 
ATOM     15  C   UNL A   1      32.189  27.617  26.763  1.00  0.00     0.035 A 
ATOM     16  C   UNL A   1      32.436  27.342  24.006  1.00  0.00     0.003 A 
ATOM     17  C   UNL A   1      32.875  28.509  24.636  1.00  0.00     0.009 A 
BRANCH  13  18
ATOM     18  N   UNL A   1      31.288  25.345  26.875  1.00  0.00    -0.291 N 
ATOM     19  C   UNL A   1      31.734  24.053  26.828  1.00  0.00     0.411 C 
ATOM     20  O   UNL A   1      31.016  23.122  27.168  1.00  0.00    -0.224 OA
ATOM     21  H   UNL A   1      30.549  25.527  27.500  1.00  0.00     0.173 HD
BRANCH  19  22
ATOM     22  O   UNL A   1      33.048  23.954  26.500  1.00  0.00    -0.449 OA
BRANCH  22  23
ATOM     23  C   UNL A   1      33.385  23.493  25.183  1.00  0.00     0.235 C 
BRANCH  23  24
ATOM     24  C   UNL A   1      34.860  23.735  24.845  1.00  0.00     0.042 C 
BRANCH  24  25
ATOM     25  C   UNL A   1      35.404  22.963  23.635  1.00  0.00     0.003 C 
BRANCH  25  26
ATOM     26  C   UNL A   1      36.736  22.237  23.870  1.00  0.00    -0.000 C 
BRANCH  26  27
ATOM     27  C   UNL A   1      36.738  21.248  25.035  1.00  0.00    -0.003 C 
ATOM     28  C   UNL A   1      37.461  19.952  24.704  1.00  0.00     0.004 C 
ENDBRANCH  26  27
ENDBRANCH  25  26
ENDBRANCH  24  25
ENDBRANCH  23  24
ENDBRANCH  22  23
ENDBRANCH  19  22
ENDBRANCH  13  18
ENDBRANCH   6  12
ENDBRANCH   3   5
ENDBRANCH   1   3
BRANCH   1  29
ATOM     29  O   UNL A   1      33.436  34.345  30.549  1.00  0.00    -0.463 OA
BRANCH  29  30
ATOM     30  C   UNL A   1      34.289  34.019  31.661  1.00  0.00     0.261 C 
BRANCH  30  31
ATOM     31  C   UNL A   1      35.121  35.228  32.094  1.00  0.00     0.202 C 
BRANCH  31  32
ATOM     32  O   UNL A   1      35.212  35.464  33.498  1.00  0.00    -0.374 OA
BRANCH  32  33
ATOM     33  C   UNL A   1      35.504  34.348  34.340  1.00  0.00     0.202 C 
BRANCH  33  34
ATOM     34  C   UNL A   1      36.869  33.677  34.144  1.00  0.00     0.261 C 
BRANCH  34  35
ATOM     35  O   UNL A   1      36.796  32.244  34.251  1.00  0.00    -0.460 OA
BRANCH  35  36
ATOM     36  C   UNL A   1      36.605  31.597  33.076  1.00  0.00     0.338 C 
ATOM     37  O   UNL A   1      35.543  31.294  32.558  1.00  0.00    -0.246 OA
BRANCH  36  38
ATOM     38  C   UNL A   1      37.891  31.436  32.371  1.00  0.00     0.060 A 
ATOM     39  C   UNL A   1      37.928  31.773  31.012  1.00  0.00     0.016 A 
ATOM     40  C   UNL A   1      39.007  30.878  32.996  1.00  0.00     0.016 A 
ATOM     41  C   UNL A   1      39.066  31.502  30.255  1.00  0.00     0.010 A 
ATOM     42  C   UNL A   1      40.147  30.599  32.232  1.00  0.00     0.010 A 
ATOM     43  C   UNL A   1      40.167  30.873  30.851  1.00  0.00    -0.014 A 
BRANCH  43  44
ATOM     44  C   UNL A   1      41.271  30.372  29.994  1.00  0.00     0.031 A 
ATOM     45  C   UNL A   1      42.410  31.294  29.658  1.00  0.00     0.074 A 
ATOM     46  C   UNL A   1      41.280  29.102  29.554  1.00  0.00     0.049 A 
ATOM     47  N   UNL A   1      43.459  31.081  28.904  1.00  0.00    -0.248 NA
ATOM     48  C   UNL A   1      42.359  32.641  30.250  1.00  0.00     0.031 C 
ATOM     49  C   UNL A   1      40.259  28.099  29.848  1.00  0.00     0.029 A 
ATOM     50  N   UNL A   1      42.183  28.442  28.757  1.00  0.00    -0.354 N 
ATOM     51  C   UNL A   1      44.187  32.264  28.927  1.00  0.00     0.074 A 
ATOM     52  C   UNL A   1      43.448  33.202  29.744  1.00  0.00     0.031 C 
ATOM     53  C   UNL A   1      40.586  26.950  29.230  1.00  0.00     0.029 A 
ATOM     54  C   UNL A   1      41.821  27.147  28.472  1.00  0.00     0.049 A 
ATOM     55  H   UNL A   1      43.010  28.855  28.423  1.00  0.00     0.167 HD
ATOM     56  C   UNL A   1      45.371  32.539  28.328  1.00  0.00     0.037 A 
ATOM     57  C   UNL A   1      42.407  26.236  27.672  1.00  0.00     0.037 A 
ATOM     58  C   UNL A   1      46.110  31.604  27.522  1.00  0.00     0.049 A 
ATOM     59  C   UNL A   1      43.689  26.591  26.961  1.00  0.00     0.074 A 
ATOM     60  C   UNL A   1      47.329  31.783  26.891  1.00  0.00     0.029 A 
ATOM     61  N   UNL A   1      45.696  30.311  27.233  1.00  0.00    -0.354 N 
ATOM     62  N   UNL A   1      44.382  27.703  27.008  1.00  0.00    -0.248 NA
ATOM     63  C   UNL A   1      44.272  25.561  26.090  1.00  0.00     0.031 C 
ATOM     64  C   UNL A   1      47.627  30.618  26.176  1.00  0.00     0.029 A 
ATOM     65  C   UNL A   1      46.623  29.692  26.409  1.00  0.00     0.049 A 
ATOM     66  H   UNL A   1      44.867  29.896  27.563  1.00  0.00     0.167 HD
ATOM     67  C   UNL A   1      45.495  27.495  26.202  1.00  0.00     0.074 A 
ATOM     68  C   UNL A   1      45.391  26.146  25.687  1.00  0.00     0.031 C 
ATOM     69  C   UNL A   1      46.513  28.343  25.916  1.00  0.00     0.037 A 
BRANCH  56  70
ATOM     70  C   UNL A   1      45.933  33.920  28.500  1.00  0.00     0.064 A 
ATOM     71  C   UNL A   1      46.828  34.230  29.534  1.00  0.00     0.173 A 
ATOM     72  C   UNL A   1      45.610  34.934  27.585  1.00  0.00     0.173 A 
ATOM     73  F   UNL A   1      47.159  33.299  30.441  1.00  0.00    -0.203 F 
ATOM     74  C   UNL A   1      47.362  35.510  29.660  1.00  0.00     0.198 A 
ATOM     75  C   UNL A   1      46.168  36.205  27.696  1.00  0.00     0.198 A 
ATOM     76  F   UNL A   1      44.763  34.689  26.574  1.00  0.00    -0.203 F 
ATOM     77  F   UNL A   1      48.184  35.795  30.679  1.00  0.00    -0.200 F 
ATOM     78  C   UNL A   1      47.039  36.494  28.736  1.00  0.00     0.200 A 
ATOM     79  F   UNL A   1      45.865  37.149  26.795  1.00  0.00    -0.200 F 
ATOM     80  F   UNL A   1      47.563  37.722  28.851  1.00  0.00    -0.200 F 
ENDBRANCH  56  70
BRANCH  57  81
ATOM     81  C   UNL A   1      41.782  24.901  27.481  1.00  0.00     0.064 A 
ATOM     82  C   UNL A   1      40.598  24.752  26.746  1.00  0.00     0.173 A 
ATOM     83  C   UNL A   1      42.341  23.751  28.057  1.00  0.00     0.173 A 
ATOM     84  F   UNL A   1      40.010  25.827  26.198  1.00  0.00    -0.203 F 
ATOM     85  C   UNL A   1      39.987  23.507  26.610  1.00  0.00     0.198 A 
ATOM     86  C   UNL A   1      41.745  22.501  27.896  1.00  0.00     0.198 A 
ATOM     87  F   UNL A   1      43.471  23.838  28.772  1.00  0.00    -0.203 F 
ATOM     88  F   UNL A   1      38.827  23.401  25.946  1.00  0.00    -0.200 F 
ATOM     89  C   UNL A   1      40.563  22.383  27.181  1.00  0.00     0.200 A 
ATOM     90  F   UNL A   1      42.313  21.416  28.439  1.00  0.00    -0.200 F 
ATOM     91  F   UNL A   1      39.974  21.186  27.051  1.00  0.00    -0.200 F 
ENDBRANCH  57  81
BRANCH  69  92
ATOM     92  C   UNL A   1      47.620  27.829  25.041  1.00  0.00     0.064 A 
ATOM     93  C   UNL A   1      48.759  27.212  25.578  1.00  0.00     0.173 A 
ATOM     94  C   UNL A   1      47.517  27.915  23.644  1.00  0.00     0.173 A 
ATOM     95  F   UNL A   1      48.913  27.116  26.907  1.00  0.00    -0.203 F 
ATOM     96  C   UNL A   1      49.766  26.722  24.748  1.00  0.00     0.198 A 
ATOM     97  C   UNL A   1      48.510  27.397  22.818  1.00  0.00     0.198 A 
ATOM     98  F   UNL A   1      46.444  28.488  23.079  1.00  0.00    -0.203 F 
ATOM     99  F   UNL A   1      50.868  26.179  25.284  1.00  0.00    -0.200 F 
ATOM    100  C   UNL A   1      49.637  26.808  23.370  1.00  0.00     0.200 A 
ATOM    101  F   UNL A   1      48.377  27.468  21.486  1.00  0.00    -0.200 F 
ATOM    102  F   UNL A   1      50.603  26.329  22.574  1.00  0.00    -0.200 F 
ENDBRANCH  69  92
ENDBRANCH  43  44
ENDBRANCH  36  38
ENDBRANCH  35  36
ENDBRANCH  34  35
ENDBRANCH  33  34
ENDBRANCH  32  33
ENDBRANCH  31  32
ENDBRANCH  30  31
ENDBRANCH  29  30
ENDBRANCH   1  29
TORSDOF 23
ENDMDL
