MODEL 1
REMARK VINA RESULT:     -10.6      0.000      0.000
REMARK SMILES [NH3+][C@H](Cc1ccc2nsnc2c1)C(=O)OCCOCCOC(=O)c1ccc(-c2c3nc(c(-c4c(F)c(F)c(F)c(F)c4F)c4ccc([nH]4)c(-c4c(F)c(F)c(F)c(F)c4F)c4nc(c(-c5c(F)c(F)c(F)c(F)c5F)c5ccc2[nH]5)C=C4)C=C3)cc1
REMARK SMILES IDX 18 1 17 2 16 3 15 4 13 5 14 6 2 7 1 8 3 12 4 13 5 14 12 15
REMARK SMILES IDX 6 16 11 17 7 18 10 19 8 20 9 21 19 22 20 23 21 24 22 25
REMARK SMILES IDX 23 26 24 27 25 28 86 29 26 30 85 31 27 32 28 33 29 34 79 35
REMARK SMILES IDX 30 36 84 37 78 38 80 39 31 40 83 41 77 42 76 43 32 45 64 46
REMARK SMILES IDX 44 47 63 48 45 49 48 50 62 51 81 52 46 53 47 54 61 56 82 57
REMARK SMILES IDX 49 58 33 59 34 60 42 61 35 62 36 63 40 64 43 65 37 66 38 67
REMARK SMILES IDX 41 68 39 69 65 70 66 71 74 72 67 73 68 74 72 75 75 76 69 77
REMARK SMILES IDX 70 78 73 79 71 80 50 81 51 82 59 83 52 84 53 85 57 86 60 87
REMARK SMILES IDX 54 88 55 89 58 90 56 91
REMARK H PARENT 1 9 1 10 1 11 80 44 48 55
REMARK Flexibility Score: inf
ROOT
ATOM      1  O   UNL A   1      42.237  19.429  27.629  1.00  0.00    -0.374 OA
ENDROOT
BRANCH   1   2
ATOM      2  C   UNL A   1      42.650  18.378  26.762  1.00  0.00     0.202 C 
BRANCH   2   3
ATOM      3  C   UNL A   1      43.510  18.750  25.550  1.00  0.00     0.261 C 
BRANCH   3   4
ATOM      4  O   UNL A   1      44.778  18.074  25.500  1.00  0.00    -0.459 OA
BRANCH   4   5
ATOM      5  C   UNL A   1      45.818  18.875  25.127  1.00  0.00     0.365 C 
ATOM      6  O   UNL A   1      46.987  18.701  25.458  1.00  0.00    -0.245 OA
BRANCH   5   7
ATOM      7  C   UNL A   1      45.374  20.069  24.277  1.00  0.00     0.296 C 
BRANCH   7   8
ATOM      8  N   UNL A   1      45.065  19.595  22.909  1.00  0.00    -0.346 N 
ATOM      9  H   UNL A   1      44.633  20.351  22.377  1.00  0.00     0.345 HD
ATOM     10  H   UNL A   1      44.422  18.804  22.960  1.00  0.00     0.345 HD
ATOM     11  H   UNL A   1      45.927  19.303  22.447  1.00  0.00     0.345 HD
ENDBRANCH   7   8
BRANCH   7  12
ATOM     12  C   UNL A   1      46.345  21.275  24.299  1.00  0.00     0.113 C 
BRANCH  12  13
ATOM     13  C   UNL A   1      45.616  22.532  24.765  1.00  0.00    -0.039 A 
ATOM     14  C   UNL A   1      44.192  22.544  24.783  1.00  0.00     0.006 A 
ATOM     15  C   UNL A   1      46.374  23.694  25.036  1.00  0.00     0.035 A 
ATOM     16  C   UNL A   1      43.424  23.709  24.985  1.00  0.00     0.032 A 
ATOM     17  C   UNL A   1      45.654  24.903  25.174  1.00  0.00     0.105 A 
ATOM     18  C   UNL A   1      44.151  24.912  25.139  1.00  0.00     0.104 A 
ATOM     19  N   UNL A   1      46.192  26.123  25.316  1.00  0.00    -0.173 NA
ATOM     20  N   UNL A   1      43.630  26.144  25.252  1.00  0.00    -0.173 NA
ATOM     21  S   UNL A   1      44.918  27.190  25.358  1.00  0.00     0.069 S 
ENDBRANCH  12  13
ENDBRANCH   7  12
ENDBRANCH   5   7
ENDBRANCH   4   5
ENDBRANCH   3   4
ENDBRANCH   2   3
ENDBRANCH   1   2
BRANCH   1  22
ATOM     22  C   UNL A   1      40.937  19.980  27.432  1.00  0.00     0.202 C 
BRANCH  22  23
ATOM     23  C   UNL A   1      40.731  20.832  26.175  1.00  0.00     0.261 C 
BRANCH  23  24
ATOM     24  O   UNL A   1      40.696  22.242  26.473  1.00  0.00    -0.460 OA
BRANCH  24  25
ATOM     25  C   UNL A   1      39.471  22.805  26.363  1.00  0.00     0.338 C 
ATOM     26  O   UNL A   1      38.437  22.266  25.993  1.00  0.00    -0.246 OA
BRANCH  25  27
ATOM     27  C   UNL A   1      39.469  24.169  26.924  1.00  0.00     0.060 A 
ATOM     28  C   UNL A   1      40.083  25.170  26.161  1.00  0.00     0.016 A 
ATOM     29  C   UNL A   1      38.992  24.445  28.207  1.00  0.00     0.016 A 
ATOM     30  C   UNL A   1      40.282  26.435  26.704  1.00  0.00     0.010 A 
ATOM     31  C   UNL A   1      39.198  25.720  28.754  1.00  0.00     0.010 A 
ATOM     32  C   UNL A   1      39.883  26.706  28.022  1.00  0.00    -0.014 A 
BRANCH  32  33
ATOM     33  C   UNL A   1      40.324  27.978  28.646  1.00  0.00     0.031 A 
ATOM     34  C   UNL A   1      41.785  28.185  28.948  1.00  0.00     0.074 A 
ATOM     35  C   UNL A   1      39.448  28.977  28.852  1.00  0.00     0.049 A 
ATOM     36  N   UNL A   1      42.398  29.249  29.403  1.00  0.00    -0.248 NA
ATOM     37  C   UNL A   1      42.675  27.040  28.700  1.00  0.00     0.031 C 
ATOM     38  C   UNL A   1      38.014  28.909  28.581  1.00  0.00     0.029 A 
ATOM     39  N   UNL A   1      39.642  30.250  29.327  1.00  0.00    -0.354 N 
ATOM     40  C   UNL A   1      43.741  28.909  29.477  1.00  0.00     0.074 A 
ATOM     41  C   UNL A   1      43.852  27.525  29.067  1.00  0.00     0.031 C 
ATOM     42  C   UNL A   1      37.455  30.090  28.891  1.00  0.00     0.029 A 
ATOM     43  C   UNL A   1      38.489  30.992  29.396  1.00  0.00     0.049 A 
ATOM     44  H   UNL A   1      40.524  30.598  29.592  1.00  0.00     0.167 HD
ATOM     45  C   UNL A   1      44.793  29.685  29.835  1.00  0.00     0.037 A 
ATOM     46  C   UNL A   1      38.292  32.256  29.820  1.00  0.00     0.037 A 
ATOM     47  C   UNL A   1      44.687  31.059  30.253  1.00  0.00     0.049 A 
ATOM     48  C   UNL A   1      39.473  33.082  30.257  1.00  0.00     0.074 A 
ATOM     49  C   UNL A   1      45.694  31.926  30.640  1.00  0.00     0.029 A 
ATOM     50  N   UNL A   1      43.497  31.767  30.340  1.00  0.00    -0.354 N 
ATOM     51  N   UNL A   1      40.743  32.759  30.298  1.00  0.00    -0.248 NA
ATOM     52  C   UNL A   1      39.191  34.458  30.694  1.00  0.00     0.031 C 
ATOM     53  C   UNL A   1      45.110  33.146  31.000  1.00  0.00     0.029 A 
ATOM     54  C   UNL A   1      43.744  33.054  30.791  1.00  0.00     0.049 A 
ATOM     55  H   UNL A   1      42.609  31.408  30.114  1.00  0.00     0.167 HD
ATOM     56  C   UNL A   1      41.412  33.891  30.745  1.00  0.00     0.074 A 
ATOM     57  C   UNL A   1      40.410  34.919  30.936  1.00  0.00     0.031 C 
ATOM     58  C   UNL A   1      42.735  34.063  30.983  1.00  0.00     0.037 A 
BRANCH  45  59
ATOM     59  C   UNL A   1      46.158  29.062  29.798  1.00  0.00     0.064 A 
ATOM     60  C   UNL A   1      46.714  28.453  30.933  1.00  0.00     0.173 A 
ATOM     61  C   UNL A   1      46.897  29.030  28.606  1.00  0.00     0.173 A 
ATOM     62  F   UNL A   1      46.054  28.468  32.100  1.00  0.00    -0.203 F 
ATOM     63  C   UNL A   1      47.970  27.853  30.880  1.00  0.00     0.198 A 
ATOM     64  C   UNL A   1      48.141  28.408  28.551  1.00  0.00     0.198 A 
ATOM     65  F   UNL A   1      46.408  29.596  27.493  1.00  0.00    -0.203 F 
ATOM     66  F   UNL A   1      48.499  27.310  31.987  1.00  0.00    -0.200 F 
ATOM     67  C   UNL A   1      48.678  27.824  29.688  1.00  0.00     0.200 A 
ATOM     68  F   UNL A   1      48.820  28.371  27.396  1.00  0.00    -0.200 F 
ATOM     69  F   UNL A   1      49.883  27.237  29.637  1.00  0.00    -0.200 F 
ENDBRANCH  45  59
BRANCH  46  70
ATOM     70  C   UNL A   1      36.917  32.818  29.857  1.00  0.00     0.064 A 
ATOM     71  C   UNL A   1      36.335  33.397  28.721  1.00  0.00     0.173 A 
ATOM     72  C   UNL A   1      36.168  32.811  31.042  1.00  0.00     0.173 A 
ATOM     73  F   UNL A   1      37.023  33.453  27.571  1.00  0.00    -0.203 F 
ATOM     74  C   UNL A   1      35.065  33.968  28.775  1.00  0.00     0.198 A 
ATOM     75  C   UNL A   1      34.887  33.354  31.088  1.00  0.00     0.198 A 
ATOM     76  F   UNL A   1      36.680  32.269  32.157  1.00  0.00    -0.203 F 
ATOM     77  F   UNL A   1      34.553  34.562  27.689  1.00  0.00    -0.200 F 
ATOM     78  C   UNL A   1      34.340  33.942  29.957  1.00  0.00     0.200 A 
ATOM     79  F   UNL A   1      34.185  33.316  32.229  1.00  0.00    -0.200 F 
ATOM     80  F   UNL A   1      33.118  34.490  30.009  1.00  0.00    -0.200 F 
ENDBRANCH  46  70
BRANCH  58  81
ATOM     81  C   UNL A   1      43.173  35.417  31.464  1.00  0.00     0.064 A 
ATOM     82  C   UNL A   1      43.635  36.399  30.575  1.00  0.00     0.173 A 
ATOM     83  C   UNL A   1      43.120  35.740  32.829  1.00  0.00     0.173 A 
ATOM     84  F   UNL A   1      43.718  36.134  29.262  1.00  0.00    -0.203 F 
ATOM     85  C   UNL A   1      44.063  37.640  31.037  1.00  0.00     0.198 A 
ATOM     86  C   UNL A   1      43.521  36.994  33.285  1.00  0.00     0.198 A 
ATOM     87  F   UNL A   1      42.679  34.842  33.721  1.00  0.00    -0.203 F 
ATOM     88  F   UNL A   1      44.556  38.541  30.175  1.00  0.00    -0.200 F 
ATOM     89  C   UNL A   1      44.002  37.938  32.391  1.00  0.00     0.200 A 
ATOM     90  F   UNL A   1      43.450  37.285  34.590  1.00  0.00    -0.200 F 
ATOM     91  F   UNL A   1      44.417  39.133  32.834  1.00  0.00    -0.200 F 
ENDBRANCH  58  81
ENDBRANCH  32  33
ENDBRANCH  25  27
ENDBRANCH  24  25
ENDBRANCH  23  24
ENDBRANCH  22  23
ENDBRANCH   1  22
TORSDOF 17
ENDMDL
MODEL 2
REMARK VINA RESULT:     -10.6      4.847     12.065
REMARK SMILES [NH3+][C@H](Cc1ccc2nsnc2c1)C(=O)OCCOCCOC(=O)c1ccc(-c2c3nc(c(-c4c(F)c(F)c(F)c(F)c4F)c4ccc([nH]4)c(-c4c(F)c(F)c(F)c(F)c4F)c4nc(c(-c5c(F)c(F)c(F)c(F)c5F)c5ccc2[nH]5)C=C4)C=C3)cc1
REMARK SMILES IDX 18 1 17 2 16 3 15 4 13 5 14 6 2 7 1 8 3 12 4 13 5 14 12 15
REMARK SMILES IDX 6 16 11 17 7 18 10 19 8 20 9 21 19 22 20 23 21 24 22 25
REMARK SMILES IDX 23 26 24 27 25 28 86 29 26 30 85 31 27 32 28 33 29 34 79 35
REMARK SMILES IDX 30 36 84 37 78 38 80 39 31 40 83 41 77 42 76 43 32 45 64 46
REMARK SMILES IDX 44 47 63 48 45 49 48 50 62 51 81 52 46 53 47 54 61 56 82 57
REMARK SMILES IDX 49 58 33 59 34 60 42 61 35 62 36 63 40 64 43 65 37 66 38 67
REMARK SMILES IDX 41 68 39 69 65 70 66 71 74 72 67 73 68 74 72 75 75 76 69 77
REMARK SMILES IDX 70 78 73 79 71 80 50 81 51 82 59 83 52 84 53 85 57 86 60 87
REMARK SMILES IDX 54 88 55 89 58 90 56 91
REMARK H PARENT 1 9 1 10 1 11 80 44 48 55
REMARK Flexibility Score: inf
ROOT
ATOM      1  O   UNL A   1      32.903  34.882  29.170  1.00  0.00    -0.374 OA
ENDROOT
BRANCH   1   2
ATOM      2  C   UNL A   1      32.980  36.245  28.765  1.00  0.00     0.202 C 
BRANCH   2   3
ATOM      3  C   UNL A   1      33.352  37.284  29.827  1.00  0.00     0.261 C 
BRANCH   3   4
ATOM      4  O   UNL A   1      32.604  37.170  31.049  1.00  0.00    -0.459 OA
BRANCH   4   5
ATOM      5  C   UNL A   1      33.379  37.104  32.170  1.00  0.00     0.365 C 
ATOM      6  O   UNL A   1      33.857  38.076  32.747  1.00  0.00    -0.245 OA
BRANCH   5   7
ATOM      7  C   UNL A   1      33.646  35.666  32.624  1.00  0.00     0.296 C 
BRANCH   7   8
ATOM      8  N   UNL A   1      32.351  34.972  32.805  1.00  0.00    -0.346 N 
ATOM      9  H   UNL A   1      31.675  35.616  33.217  1.00  0.00     0.345 HD
ATOM     10  H   UNL A   1      32.478  34.171  33.424  1.00  0.00     0.345 HD
ATOM     11  H   UNL A   1      32.007  34.651  31.900  1.00  0.00     0.345 HD
ENDBRANCH   7   8
BRANCH   7  12
ATOM     12  C   UNL A   1      34.583  35.538  33.851  1.00  0.00     0.113 C 
BRANCH  12  13
ATOM     13  C   UNL A   1      35.638  34.465  33.602  1.00  0.00    -0.039 A 
ATOM     14  C   UNL A   1      35.843  33.985  32.276  1.00  0.00     0.006 A 
ATOM     15  C   UNL A   1      36.286  33.880  34.714  1.00  0.00     0.035 A 
ATOM     16  C   UNL A   1      36.628  32.855  31.969  1.00  0.00     0.032 A 
ATOM     17  C   UNL A   1      37.027  32.702  34.469  1.00  0.00     0.105 A 
ATOM     18  C   UNL A   1      37.194  32.174  33.071  1.00  0.00     0.104 A 
ATOM     19  N   UNL A   1      37.613  31.937  35.401  1.00  0.00    -0.173 NA
ATOM     20  N   UNL A   1      37.897  31.032  33.021  1.00  0.00    -0.173 NA
ATOM     21  S   UNL A   1      38.278  30.646  34.592  1.00  0.00     0.069 S 
ENDBRANCH  12  13
ENDBRANCH   7  12
ENDBRANCH   5   7
ENDBRANCH   4   5
ENDBRANCH   3   4
ENDBRANCH   2   3
ENDBRANCH   1   2
BRANCH   1  22
ATOM     22  C   UNL A   1      33.312  33.888  28.234  1.00  0.00     0.202 C 
BRANCH  22  23
ATOM     23  C   UNL A   1      34.673  33.227  28.480  1.00  0.00     0.261 C 
BRANCH  23  24
ATOM     24  O   UNL A   1      34.552  31.978  29.189  1.00  0.00    -0.460 OA
BRANCH  24  25
ATOM     25  C   UNL A   1      34.541  30.883  28.394  1.00  0.00     0.338 C 
ATOM     26  O   UNL A   1      33.656  30.534  27.625  1.00  0.00    -0.246 OA
BRANCH  25  27
ATOM     27  C   UNL A   1      35.848  30.201  28.424  1.00  0.00     0.060 A 
ATOM     28  C   UNL A   1      36.277  29.704  29.660  1.00  0.00     0.016 A 
ATOM     29  C   UNL A   1      36.687  30.153  27.309  1.00  0.00     0.016 A 
ATOM     30  C   UNL A   1      37.572  29.215  29.803  1.00  0.00     0.010 A 
ATOM     31  C   UNL A   1      37.994  29.666  27.456  1.00  0.00     0.010 A 
ATOM     32  C   UNL A   1      38.455  29.236  28.713  1.00  0.00    -0.014 A 
BRANCH  32  33
ATOM     33  C   UNL A   1      39.888  28.936  28.960  1.00  0.00     0.031 A 
ATOM     34  C   UNL A   1      40.715  29.900  29.770  1.00  0.00     0.074 A 
ATOM     35  C   UNL A   1      40.422  27.772  28.550  1.00  0.00     0.049 A 
ATOM     36  N   UNL A   1      41.953  29.790  30.182  1.00  0.00    -0.248 NA
ATOM     37  C   UNL A   1      40.057  31.152  30.172  1.00  0.00     0.031 C 
ATOM     38  C   UNL A   1      39.720  26.749  27.780  1.00  0.00     0.029 A 
ATOM     39  N   UNL A   1      41.678  27.251  28.739  1.00  0.00    -0.354 N 
ATOM     40  C   UNL A   1      42.215  30.946  30.905  1.00  0.00     0.074 A 
ATOM     41  C   UNL A   1      41.025  31.767  30.837  1.00  0.00     0.031 C 
ATOM     42  C   UNL A   1      40.555  25.719  27.561  1.00  0.00     0.029 A 
ATOM     43  C   UNL A   1      41.852  26.017  28.165  1.00  0.00     0.049 A 
ATOM     44  H   UNL A   1      42.386  27.719  29.240  1.00  0.00     0.167 HD
ATOM     45  C   UNL A   1      43.338  31.285  31.584  1.00  0.00     0.037 A 
ATOM     46  C   UNL A   1      42.938  25.219  28.130  1.00  0.00     0.037 A 
ATOM     47  C   UNL A   1      44.527  30.475  31.646  1.00  0.00     0.049 A 
ATOM     48  C   UNL A   1      44.190  25.641  28.853  1.00  0.00     0.074 A 
ATOM     49  C   UNL A   1      45.717  30.737  32.303  1.00  0.00     0.029 A 
ATOM     50  N   UNL A   1      44.677  29.244  31.025  1.00  0.00    -0.354 N 
ATOM     51  N   UNL A   1      44.417  26.724  29.556  1.00  0.00    -0.248 NA
ATOM     52  C   UNL A   1      45.333  24.719  28.789  1.00  0.00     0.031 C 
ATOM     53  C   UNL A   1      46.601  29.682  32.046  1.00  0.00     0.029 A 
ATOM     54  C   UNL A   1      45.945  28.742  31.269  1.00  0.00     0.049 A 
ATOM     55  H   UNL A   1      43.984  28.794  30.490  1.00  0.00     0.167 HD
ATOM     56  C   UNL A   1      45.717  26.607  30.032  1.00  0.00     0.074 A 
ATOM     57  C   UNL A   1      46.220  25.334  29.560  1.00  0.00     0.031 C 
ATOM     58  C   UNL A   1      46.433  27.476  30.786  1.00  0.00     0.037 A 
BRANCH  45  59
ATOM     59  C   UNL A   1      43.338  32.598  32.311  1.00  0.00     0.064 A 
ATOM     60  C   UNL A   1      42.962  32.686  33.659  1.00  0.00     0.173 A 
ATOM     61  C   UNL A   1      43.760  33.771  31.668  1.00  0.00     0.173 A 
ATOM     62  F   UNL A   1      42.537  31.595  34.315  1.00  0.00    -0.203 F 
ATOM     63  C   UNL A   1      42.992  33.905  34.332  1.00  0.00     0.198 A 
ATOM     64  C   UNL A   1      43.812  34.982  32.351  1.00  0.00     0.198 A 
ATOM     65  F   UNL A   1      44.132  33.739  30.380  1.00  0.00    -0.203 F 
ATOM     66  F   UNL A   1      42.593  33.972  35.611  1.00  0.00    -0.200 F 
ATOM     67  C   UNL A   1      43.424  35.050  33.681  1.00  0.00     0.200 A 
ATOM     68  F   UNL A   1      44.240  36.087  31.723  1.00  0.00    -0.200 F 
ATOM     69  F   UNL A   1      43.461  36.220  34.333  1.00  0.00    -0.200 F 
ENDBRANCH  45  59
BRANCH  46  70
ATOM     70  C   UNL A   1      42.892  23.939  27.378  1.00  0.00     0.064 A 
ATOM     71  C   UNL A   1      42.481  22.747  27.991  1.00  0.00     0.173 A 
ATOM     72  C   UNL A   1      43.286  23.879  26.034  1.00  0.00     0.173 A 
ATOM     73  F   UNL A   1      42.120  22.749  29.282  1.00  0.00    -0.203 F 
ATOM     74  C   UNL A   1      42.487  21.540  27.294  1.00  0.00     0.198 A 
ATOM     75  C   UNL A   1      43.264  22.678  25.329  1.00  0.00     0.198 A 
ATOM     76  F   UNL A   1      43.688  24.992  25.402  1.00  0.00    -0.203 F 
ATOM     77  F   UNL A   1      42.140  20.407  27.918  1.00  0.00    -0.200 F 
ATOM     78  C   UNL A   1      42.874  21.507  25.962  1.00  0.00     0.200 A 
ATOM     79  F   UNL A   1      43.627  22.653  24.039  1.00  0.00    -0.200 F 
ATOM     80  F   UNL A   1      42.880  20.347  25.292  1.00  0.00    -0.200 F 
ENDBRANCH  46  70
BRANCH  58  81
ATOM     81  C   UNL A   1      47.832  27.071  31.154  1.00  0.00     0.064 A 
ATOM     82  C   UNL A   1      48.935  27.445  30.371  1.00  0.00     0.173 A 
ATOM     83  C   UNL A   1      48.073  26.308  32.307  1.00  0.00     0.173 A 
ATOM     84  F   UNL A   1      48.755  28.163  29.252  1.00  0.00    -0.203 F 
ATOM     85  C   UNL A   1      50.223  27.040  30.709  1.00  0.00     0.198 A 
ATOM     86  C   UNL A   1      49.366  25.929  32.658  1.00  0.00     0.198 A 
ATOM     87  F   UNL A   1      47.056  25.930  33.094  1.00  0.00    -0.203 F 
ATOM     88  F   UNL A   1      51.254  27.360  29.914  1.00  0.00    -0.200 F 
ATOM     89  C   UNL A   1      50.438  26.285  31.853  1.00  0.00     0.200 A 
ATOM     90  F   UNL A   1      49.575  25.211  33.770  1.00  0.00    -0.200 F 
ATOM     91  F   UNL A   1      51.679  25.894  32.175  1.00  0.00    -0.200 F 
ENDBRANCH  58  81
ENDBRANCH  32  33
ENDBRANCH  25  27
ENDBRANCH  24  25
ENDBRANCH  23  24
ENDBRANCH  22  23
ENDBRANCH   1  22
TORSDOF 17
ENDMDL
MODEL 3
REMARK VINA RESULT:     -10.5      8.337     10.941
REMARK SMILES [NH3+][C@H](Cc1ccc2nsnc2c1)C(=O)OCCOCCOC(=O)c1ccc(-c2c3nc(c(-c4c(F)c(F)c(F)c(F)c4F)c4ccc([nH]4)c(-c4c(F)c(F)c(F)c(F)c4F)c4nc(c(-c5c(F)c(F)c(F)c(F)c5F)c5ccc2[nH]5)C=C4)C=C3)cc1
REMARK SMILES IDX 18 1 17 2 16 3 15 4 13 5 14 6 2 7 1 8 3 12 4 13 5 14 12 15
REMARK SMILES IDX 6 16 11 17 7 18 10 19 8 20 9 21 19 22 20 23 21 24 22 25
REMARK SMILES IDX 23 26 24 27 25 28 86 29 26 30 85 31 27 32 28 33 29 34 79 35
REMARK SMILES IDX 30 36 84 37 78 38 80 39 31 40 83 41 77 42 76 43 32 45 64 46
REMARK SMILES IDX 44 47 63 48 45 49 48 50 62 51 81 52 46 53 47 54 61 56 82 57
REMARK SMILES IDX 49 58 33 59 34 60 42 61 35 62 36 63 40 64 43 65 37 66 38 67
REMARK SMILES IDX 41 68 39 69 65 70 66 71 74 72 67 73 68 74 72 75 75 76 69 77
REMARK SMILES IDX 70 78 73 79 71 80 50 81 51 82 59 83 52 84 53 85 57 86 60 87
REMARK SMILES IDX 54 88 55 89 58 90 56 91
REMARK H PARENT 1 9 1 10 1 11 80 44 48 55
REMARK Flexibility Score: inf
ROOT
ATOM      1  O   UNL A   1      45.658  20.490  36.837  1.00  0.00    -0.374 OA
ENDROOT
BRANCH   1   2
ATOM      2  C   UNL A   1      46.080  19.179  37.200  1.00  0.00     0.202 C 
BRANCH   2   3
ATOM      3  C   UNL A   1      46.448  18.929  38.666  1.00  0.00     0.261 C 
BRANCH   3   4
ATOM      4  O   UNL A   1      46.201  17.585  39.113  1.00  0.00    -0.459 OA
BRANCH   4   5
ATOM      5  C   UNL A   1      45.112  17.462  39.925  1.00  0.00     0.365 C 
ATOM      6  O   UNL A   1      44.848  18.215  40.858  1.00  0.00    -0.245 OA
BRANCH   5   7
ATOM      7  C   UNL A   1      44.256  16.237  39.591  1.00  0.00     0.296 C 
BRANCH   7   8
ATOM      8  N   UNL A   1      44.445  15.897  38.162  1.00  0.00    -0.346 N 
ATOM      9  H   UNL A   1      45.212  16.449  37.779  1.00  0.00     0.345 HD
ATOM     10  H   UNL A   1      43.588  16.103  37.648  1.00  0.00     0.345 HD
ATOM     11  H   UNL A   1      44.663  14.904  38.075  1.00  0.00     0.345 HD
ENDBRANCH   7   8
BRANCH   7  12
ATOM     12  C   UNL A   1      42.767  16.359  39.997  1.00  0.00     0.113 C 
BRANCH  12  13
ATOM     13  C   UNL A   1      42.442  15.375  41.117  1.00  0.00    -0.039 A 
ATOM     14  C   UNL A   1      42.694  15.752  42.468  1.00  0.00     0.006 A 
ATOM     15  C   UNL A   1      42.027  14.068  40.773  1.00  0.00     0.035 A 
ATOM     16  C   UNL A   1      42.636  14.852  43.552  1.00  0.00     0.032 A 
ATOM     17  C   UNL A   1      42.022  13.110  41.813  1.00  0.00     0.105 A 
ATOM     18  C   UNL A   1      42.341  13.507  43.227  1.00  0.00     0.104 A 
ATOM     19  N   UNL A   1      41.776  11.801  41.669  1.00  0.00    -0.173 NA
ATOM     20  N   UNL A   1      42.323  12.472  44.081  1.00  0.00    -0.173 NA
ATOM     21  S   UNL A   1      41.971  11.123  43.174  1.00  0.00     0.069 S 
ENDBRANCH  12  13
ENDBRANCH   7  12
ENDBRANCH   5   7
ENDBRANCH   4   5
ENDBRANCH   3   4
ENDBRANCH   2   3
ENDBRANCH   1   2
BRANCH   1  22
ATOM     22  C   UNL A   1      46.083  21.575  37.658  1.00  0.00     0.202 C 
BRANCH  22  23
ATOM     23  C   UNL A   1      47.237  22.433  37.125  1.00  0.00     0.261 C 
BRANCH  23  24
ATOM     24  O   UNL A   1      46.884  23.828  37.042  1.00  0.00    -0.460 OA
BRANCH  24  25
ATOM     25  C   UNL A   1      47.271  24.434  35.896  1.00  0.00     0.338 C 
ATOM     26  O   UNL A   1      48.210  24.127  35.174  1.00  0.00    -0.246 OA
BRANCH  25  27
ATOM     27  C   UNL A   1      46.293  25.460  35.490  1.00  0.00     0.060 A 
ATOM     28  C   UNL A   1      44.937  25.128  35.607  1.00  0.00     0.016 A 
ATOM     29  C   UNL A   1      46.680  26.665  34.900  1.00  0.00     0.016 A 
ATOM     30  C   UNL A   1      43.966  25.969  35.075  1.00  0.00     0.010 A 
ATOM     31  C   UNL A   1      45.699  27.509  34.359  1.00  0.00     0.010 A 
ATOM     32  C   UNL A   1      44.342  27.143  34.406  1.00  0.00    -0.014 A 
BRANCH  32  33
ATOM     33  C   UNL A   1      43.306  27.886  33.646  1.00  0.00     0.031 A 
ATOM     34  C   UNL A   1      43.105  27.586  32.184  1.00  0.00     0.074 A 
ATOM     35  C   UNL A   1      42.487  28.749  34.274  1.00  0.00     0.049 A 
ATOM     36  N   UNL A   1      42.199  28.047  31.358  1.00  0.00    -0.248 NA
ATOM     37  C   UNL A   1      44.047  26.637  31.573  1.00  0.00     0.031 C 
ATOM     38  C   UNL A   1      42.565  29.106  35.688  1.00  0.00     0.029 A 
ATOM     39  N   UNL A   1      41.419  29.470  33.801  1.00  0.00    -0.354 N 
ATOM     40  C   UNL A   1      42.451  27.432  30.139  1.00  0.00     0.074 A 
ATOM     41  C   UNL A   1      43.623  26.601  30.318  1.00  0.00     0.031 C 
ATOM     42  C   UNL A   1      41.584  29.980  35.971  1.00  0.00     0.029 A 
ATOM     43  C   UNL A   1      40.818  30.253  34.755  1.00  0.00     0.049 A 
ATOM     44  H   UNL A   1      41.113  29.430  32.865  1.00  0.00     0.167 HD
ATOM     45  C   UNL A   1      41.757  27.533  28.979  1.00  0.00     0.037 A 
ATOM     46  C   UNL A   1      39.771  31.095  34.657  1.00  0.00     0.037 A 
ATOM     47  C   UNL A   1      40.597  28.365  28.794  1.00  0.00     0.049 A 
ATOM     48  C   UNL A   1      39.046  31.224  33.344  1.00  0.00     0.074 A 
ATOM     49  C   UNL A   1      39.830  28.538  27.655  1.00  0.00     0.029 A 
ATOM     50  N   UNL A   1      40.037  29.168  29.776  1.00  0.00    -0.354 N 
ATOM     51  N   UNL A   1      39.277  30.617  32.205  1.00  0.00    -0.248 NA
ATOM     52  C   UNL A   1      37.902  32.147  33.308  1.00  0.00     0.031 C 
ATOM     53  C   UNL A   1      38.831  29.476  27.937  1.00  0.00     0.029 A 
ATOM     54  C   UNL A   1      38.946  29.851  29.265  1.00  0.00     0.049 A 
ATOM     55  H   UNL A   1      40.367  29.241  30.701  1.00  0.00     0.167 HD
ATOM     56  C   UNL A   1      38.301  31.068  31.325  1.00  0.00     0.074 A 
ATOM     57  C   UNL A   1      37.459  31.980  32.070  1.00  0.00     0.031 C 
ATOM     58  C   UNL A   1      38.122  30.761  30.017  1.00  0.00     0.037 A 
BRANCH  45  59
ATOM     59  C   UNL A   1      42.241  26.724  27.811  1.00  0.00     0.064 A 
ATOM     60  C   UNL A   1      41.756  25.431  27.567  1.00  0.00     0.173 A 
ATOM     61  C   UNL A   1      43.162  27.263  26.901  1.00  0.00     0.173 A 
ATOM     62  F   UNL A   1      40.884  24.865  28.414  1.00  0.00    -0.203 F 
ATOM     63  C   UNL A   1      42.191  24.700  26.464  1.00  0.00     0.198 A 
ATOM     64  C   UNL A   1      43.576  26.539  25.786  1.00  0.00     0.198 A 
ATOM     65  F   UNL A   1      43.654  28.497  27.088  1.00  0.00    -0.203 F 
ATOM     66  F   UNL A   1      41.742  23.451  26.270  1.00  0.00    -0.200 F 
ATOM     67  C   UNL A   1      43.093  25.257  25.571  1.00  0.00     0.200 A 
ATOM     68  F   UNL A   1      44.441  27.082  24.918  1.00  0.00    -0.200 F 
ATOM     69  F   UNL A   1      43.503  24.555  24.505  1.00  0.00    -0.200 F 
ENDBRANCH  45  59
BRANCH  46  70
ATOM     70  C   UNL A   1      39.346  31.887  35.840  1.00  0.00     0.064 A 
ATOM     71  C   UNL A   1      38.373  31.408  36.728  1.00  0.00     0.173 A 
ATOM     72  C   UNL A   1      39.888  33.157  36.088  1.00  0.00     0.173 A 
ATOM     73  F   UNL A   1      37.806  30.212  36.517  1.00  0.00    -0.203 F 
ATOM     74  C   UNL A   1      37.943  32.178  37.807  1.00  0.00     0.198 A 
ATOM     75  C   UNL A   1      39.479  33.913  37.183  1.00  0.00     0.198 A 
ATOM     76  F   UNL A   1      40.822  33.660  35.267  1.00  0.00    -0.203 F 
ATOM     77  F   UNL A   1      36.975  31.719  38.610  1.00  0.00    -0.200 F 
ATOM     78  C   UNL A   1      38.499  33.428  38.037  1.00  0.00     0.200 A 
ATOM     79  F   UNL A   1      40.029  35.115  37.408  1.00  0.00    -0.200 F 
ATOM     80  F   UNL A   1      38.086  34.168  39.074  1.00  0.00    -0.200 F 
ENDBRANCH  46  70
BRANCH  58  81
ATOM     81  C   UNL A   1      36.963  31.410  29.316  1.00  0.00     0.064 A 
ATOM     82  C   UNL A   1      36.969  32.776  28.997  1.00  0.00     0.173 A 
ATOM     83  C   UNL A   1      35.837  30.656  28.949  1.00  0.00     0.173 A 
ATOM     84  F   UNL A   1      38.016  33.543  29.338  1.00  0.00    -0.203 F 
ATOM     85  C   UNL A   1      35.878  33.371  28.371  1.00  0.00     0.198 A 
ATOM     86  C   UNL A   1      34.760  31.248  28.296  1.00  0.00     0.198 A 
ATOM     87  F   UNL A   1      35.783  29.344  29.224  1.00  0.00    -0.203 F 
ATOM     88  F   UNL A   1      35.883  34.690  28.129  1.00  0.00    -0.200 F 
ATOM     89  C   UNL A   1      34.775  32.606  28.018  1.00  0.00     0.200 A 
ATOM     90  F   UNL A   1      33.700  30.506  27.945  1.00  0.00    -0.200 F 
ATOM     91  F   UNL A   1      33.724  33.181  27.417  1.00  0.00    -0.200 F 
ENDBRANCH  58  81
ENDBRANCH  32  33
ENDBRANCH  25  27
ENDBRANCH  24  25
ENDBRANCH  23  24
ENDBRANCH  22  23
ENDBRANCH   1  22
TORSDOF 17
ENDMDL
