MODEL 1
REMARK VINA RESULT:      -9.8      0.000      0.000
REMARK SMILES Cc1nc(CCNc2nccc(-c3cc(C(=O)OCCOCCOC(=O)c4ccc(-c5c6nc(c(-c7c(F)c(F)c(F)c(F)c7F)c7ccc([nH]7)c(-c7c(F)c(F)c(F)c(F)c7F)c7nc(c(-c8c(F)c(F)c(F)c(F)c8F)c8ccc5[nH]8)C=C7)C=C6)cc4)ccn3)n2)cc(=O)[nH]1
REMARK SMILES IDX 19 1 18 2 16 3 17 4 15 5 13 6 14 7 92 8 91 9 90 10 12 11
REMARK SMILES IDX 8 12 9 13 93 14 10 15 11 16 7 17 6 19 5 20 4 21 1 22 2 23
REMARK SMILES IDX 3 24 97 25 95 26 94 28 96 29 20 30 21 31 22 32 23 33 24 34
REMARK SMILES IDX 25 35 26 36 27 37 28 38 89 39 29 40 88 41 30 42 31 43 32 44
REMARK SMILES IDX 82 45 33 46 87 47 81 48 83 49 34 50 86 51 80 52 79 53 35 55
REMARK SMILES IDX 67 56 47 57 66 58 48 59 51 60 65 61 84 62 49 63 50 64 64 66
REMARK SMILES IDX 85 67 52 68 36 69 37 70 45 71 38 72 39 73 43 74 46 75 40 76
REMARK SMILES IDX 41 77 44 78 42 79 68 80 69 81 77 82 70 83 71 84 75 85 78 86
REMARK SMILES IDX 72 87 73 88 76 89 74 90 53 91 54 92 62 93 55 94 56 95 60 96
REMARK SMILES IDX 63 97 57 98 58 99 61 100 59 101
REMARK H PARENT 7 18 97 27 83 54 51 65
REMARK Flexibility Score: inf
ROOT
ATOM      1  C   UNL A   1      46.444  20.338  24.528  1.00  0.00     0.261 C 
ENDROOT
BRANCH   1   2
ATOM      2  O   UNL A   1      46.040  21.541  25.201  1.00  0.00    -0.460 OA
BRANCH   2   3
ATOM      3  C   UNL A   1      45.324  22.408  24.443  1.00  0.00     0.338 C 
ATOM      4  O   UNL A   1      44.406  22.137  23.685  1.00  0.00    -0.246 OA
BRANCH   3   5
ATOM      5  C   UNL A   1      45.689  23.795  24.797  1.00  0.00     0.063 A 
ATOM      6  C   UNL A   1      45.194  26.107  25.157  1.00  0.00     0.090 A 
ATOM      7  C   UNL A   1      44.754  24.832  24.816  1.00  0.00     0.046 A 
ATOM      8  N   UNL A   1      46.504  26.358  25.426  1.00  0.00    -0.255 NA
ATOM      9  C   UNL A   1      47.386  25.341  25.383  1.00  0.00     0.112 A 
ATOM     10  C   UNL A   1      47.027  24.046  25.089  1.00  0.00     0.036 A 
BRANCH   6  11
ATOM     11  C   UNL A   1      44.273  27.243  25.376  1.00  0.00     0.094 A 
ATOM     12  C   UNL A   1      43.906  29.225  26.479  1.00  0.00     0.223 A 
ATOM     13  N   UNL A   1      42.592  29.200  26.218  1.00  0.00    -0.222 NA
ATOM     14  N   UNL A   1      44.774  28.310  26.042  1.00  0.00    -0.211 NA
ATOM     15  C   UNL A   1      42.138  28.180  25.474  1.00  0.00     0.117 A 
ATOM     16  C   UNL A   1      42.937  27.158  25.031  1.00  0.00     0.051 A 
BRANCH  12  17
ATOM     17  N   UNL A   1      44.313  30.212  27.333  1.00  0.00    -0.354 N 
ATOM     18  H   UNL A   1      44.951  29.995  28.051  1.00  0.00     0.163 HD
BRANCH  17  19
ATOM     19  C   UNL A   1      43.827  31.570  27.204  1.00  0.00     0.122 C 
BRANCH  19  20
ATOM     20  C   UNL A   1      44.527  32.302  26.041  1.00  0.00     0.077 C 
BRANCH  20  21
ATOM     21  C   UNL A   1      44.545  33.814  26.192  1.00  0.00     0.050 A 
ATOM     22  C   UNL A   1      47.147  36.413  26.479  1.00  0.00     0.087 C 
ATOM     23  C   UNL A   1      45.838  35.683  26.419  1.00  0.00     0.105 A 
ATOM     24  N   UNL A   1      45.791  34.395  26.292  1.00  0.00    -0.240 NA
ATOM     25  N   UNL A   1      44.729  36.476  26.503  1.00  0.00    -0.311 N 
ATOM     26  C   UNL A   1      43.471  35.966  26.414  1.00  0.00     0.251 A 
ATOM     27  H   UNL A   1      44.844  37.446  26.632  1.00  0.00     0.171 HD
ATOM     28  C   UNL A   1      43.403  34.520  26.180  1.00  0.00     0.095 A 
ATOM     29  O   UNL A   1      42.462  36.650  26.530  1.00  0.00    -0.270 OA
ENDBRANCH  20  21
ENDBRANCH  19  20
ENDBRANCH  17  19
ENDBRANCH  12  17
ENDBRANCH   6  11
ENDBRANCH   3   5
ENDBRANCH   2   3
ENDBRANCH   1   2
BRANCH   1  30
ATOM     30  C   UNL A   1      46.229  19.102  25.407  1.00  0.00     0.202 C 
BRANCH  30  31
ATOM     31  O   UNL A   1      45.086  18.297  25.128  1.00  0.00    -0.374 OA
BRANCH  31  32
ATOM     32  C   UNL A   1      43.798  18.885  25.311  1.00  0.00     0.202 C 
BRANCH  32  33
ATOM     33  C   UNL A   1      42.764  18.093  26.122  1.00  0.00     0.261 C 
BRANCH  33  34
ATOM     34  O   UNL A   1      42.086  18.905  27.096  1.00  0.00    -0.460 OA
BRANCH  34  35
ATOM     35  C   UNL A   1      41.309  19.884  26.571  1.00  0.00     0.338 C 
ATOM     36  O   UNL A   1      40.231  19.759  26.014  1.00  0.00    -0.246 OA
BRANCH  35  37
ATOM     37  C   UNL A   1      41.862  21.202  26.925  1.00  0.00     0.060 A 
ATOM     38  C   UNL A   1      42.324  21.382  28.235  1.00  0.00     0.016 A 
ATOM     39  C   UNL A   1      41.858  22.266  26.021  1.00  0.00     0.016 A 
ATOM     40  C   UNL A   1      42.739  22.641  28.663  1.00  0.00     0.010 A 
ATOM     41  C   UNL A   1      42.269  23.531  26.454  1.00  0.00     0.010 A 
ATOM     42  C   UNL A   1      42.679  23.731  27.786  1.00  0.00    -0.014 A 
BRANCH  42  43
ATOM     43  C   UNL A   1      42.917  25.101  28.299  1.00  0.00     0.031 A 
ATOM     44  C   UNL A   1      44.313  25.508  28.680  1.00  0.00     0.074 A 
ATOM     45  C   UNL A   1      41.904  25.979  28.405  1.00  0.00     0.049 A 
ATOM     46  N   UNL A   1      44.740  26.633  29.195  1.00  0.00    -0.248 NA
ATOM     47  C   UNL A   1      45.371  24.511  28.453  1.00  0.00     0.031 C 
ATOM     48  C   UNL A   1      40.517  25.714  28.029  1.00  0.00     0.029 A 
ATOM     49  N   UNL A   1      41.888  27.271  28.868  1.00  0.00    -0.354 N 
ATOM     50  C   UNL A   1      46.110  26.476  29.362  1.00  0.00     0.074 A 
ATOM     51  C   UNL A   1      46.438  25.135  28.925  1.00  0.00     0.031 C 
ATOM     52  C   UNL A   1      39.780  26.808  28.288  1.00  0.00     0.029 A 
ATOM     53  C   UNL A   1      40.636  27.834  28.879  1.00  0.00     0.049 A 
ATOM     54  H   UNL A   1      42.697  27.748  29.164  1.00  0.00     0.167 HD
ATOM     55  C   UNL A   1      47.012  27.372  29.828  1.00  0.00     0.037 A 
ATOM     56  C   UNL A   1      40.227  29.032  29.340  1.00  0.00     0.037 A 
ATOM     57  C   UNL A   1      46.681  28.704  30.260  1.00  0.00     0.049 A 
ATOM     58  C   UNL A   1      41.240  29.983  29.924  1.00  0.00     0.074 A 
ATOM     59  C   UNL A   1      47.526  29.697  30.726  1.00  0.00     0.029 A 
ATOM     60  N   UNL A   1      45.397  29.230  30.285  1.00  0.00    -0.354 N 
ATOM     61  N   UNL A   1      42.537  29.839  30.052  1.00  0.00    -0.248 NA
ATOM     62  C   UNL A   1      40.730  31.268  30.424  1.00  0.00     0.031 C 
ATOM     63  C   UNL A   1      46.747  30.799  31.092  1.00  0.00     0.029 A 
ATOM     64  C   UNL A   1      45.424  30.521  30.791  1.00  0.00     0.049 A 
ATOM     65  H   UNL A   1      44.586  28.756  29.990  1.00  0.00     0.167 HD
ATOM     66  C   UNL A   1      43.001  31.022  30.614  1.00  0.00     0.074 A 
ATOM     67  C   UNL A   1      41.849  31.879  30.790  1.00  0.00     0.031 C 
ATOM     68  C   UNL A   1      44.269  31.367  30.952  1.00  0.00     0.037 A 
BRANCH  55  69
ATOM     69  C   UNL A   1      48.446  26.931  29.925  1.00  0.00     0.064 A 
ATOM     70  C   UNL A   1      48.960  26.329  31.084  1.00  0.00     0.173 A 
ATOM     71  C   UNL A   1      49.307  27.080  28.828  1.00  0.00     0.173 A 
ATOM     72  F   UNL A   1      48.182  26.174  32.166  1.00  0.00    -0.203 F 
ATOM     73  C   UNL A   1      50.289  25.918  31.149  1.00  0.00     0.198 A 
ATOM     74  C   UNL A   1      50.627  26.638  28.885  1.00  0.00     0.198 A 
ATOM     75  F   UNL A   1      48.868  27.645  27.693  1.00  0.00    -0.203 F 
ATOM     76  F   UNL A   1      50.770  25.390  32.282  1.00  0.00    -0.200 F 
ATOM     77  C   UNL A   1      51.119  26.065  30.048  1.00  0.00     0.200 A 
ATOM     78  F   UNL A   1      51.422  26.768  27.814  1.00  0.00    -0.200 F 
ATOM     79  F   UNL A   1      52.394  25.660  30.109  1.00  0.00    -0.200 F 
ENDBRANCH  55  69
BRANCH  56  80
ATOM     80  C   UNL A   1      38.787  29.398  29.281  1.00  0.00     0.064 A 
ATOM     81  C   UNL A   1      38.171  29.720  28.064  1.00  0.00     0.173 A 
ATOM     82  C   UNL A   1      38.002  29.454  30.443  1.00  0.00     0.173 A 
ATOM     83  F   UNL A   1      38.883  29.705  26.928  1.00  0.00    -0.203 F 
ATOM     84  C   UNL A   1      36.832  30.105  28.014  1.00  0.00     0.198 A 
ATOM     85  C   UNL A   1      36.656  29.807  30.387  1.00  0.00     0.198 A 
ATOM     86  F   UNL A   1      38.543  29.155  31.634  1.00  0.00    -0.203 F 
ATOM     87  F   UNL A   1      36.282  30.457  26.844  1.00  0.00    -0.200 F 
ATOM     88  C   UNL A   1      36.074  30.141  29.175  1.00  0.00     0.200 A 
ATOM     89  F   UNL A   1      35.925  29.825  31.511  1.00  0.00    -0.200 F 
ATOM     90  F   UNL A   1      34.787  30.507  29.126  1.00  0.00    -0.200 F 
ENDBRANCH  56  80
BRANCH  68  91
ATOM     91  C   UNL A   1      44.486  32.748  31.505  1.00  0.00     0.064 A 
ATOM     92  C   UNL A   1      44.918  33.811  30.698  1.00  0.00     0.173 A 
ATOM     93  C   UNL A   1      44.215  33.021  32.856  1.00  0.00     0.173 A 
ATOM     94  F   UNL A   1      45.204  33.602  29.403  1.00  0.00    -0.203 F 
ATOM     95  C   UNL A   1      45.101  35.085  31.227  1.00  0.00     0.198 A 
ATOM     96  C   UNL A   1      44.365  34.304  33.373  1.00  0.00     0.198 A 
ATOM     97  F   UNL A   1      43.790  32.043  33.671  1.00  0.00    -0.203 F 
ATOM     98  F   UNL A   1      45.566  36.072  30.449  1.00  0.00    -0.200 F 
ATOM     99  C   UNL A   1      44.816  35.333  32.562  1.00  0.00     0.200 A 
ATOM    100  F   UNL A   1      44.073  34.544  34.659  1.00  0.00    -0.200 F 
ATOM    101  F   UNL A   1      44.983  36.562  33.068  1.00  0.00    -0.200 F 
ENDBRANCH  68  91
ENDBRANCH  42  43
ENDBRANCH  35  37
ENDBRANCH  34  35
ENDBRANCH  33  34
ENDBRANCH  32  33
ENDBRANCH  31  32
ENDBRANCH  30  31
ENDBRANCH   1  30
TORSDOF 19
ENDMDL
MODEL 2
REMARK VINA RESULT:      -9.5      5.447      9.187
REMARK SMILES Cc1nc(CCNc2nccc(-c3cc(C(=O)OCCOCCOC(=O)c4ccc(-c5c6nc(c(-c7c(F)c(F)c(F)c(F)c7F)c7ccc([nH]7)c(-c7c(F)c(F)c(F)c(F)c7F)c7nc(c(-c8c(F)c(F)c(F)c(F)c8F)c8ccc5[nH]8)C=C7)C=C6)cc4)ccn3)n2)cc(=O)[nH]1
REMARK SMILES IDX 19 1 18 2 16 3 17 4 15 5 13 6 14 7 92 8 91 9 90 10 12 11
REMARK SMILES IDX 8 12 9 13 93 14 10 15 11 16 7 17 6 19 5 20 4 21 1 22 2 23
REMARK SMILES IDX 3 24 97 25 95 26 94 28 96 29 20 30 21 31 22 32 23 33 24 34
REMARK SMILES IDX 25 35 26 36 27 37 28 38 89 39 29 40 88 41 30 42 31 43 32 44
REMARK SMILES IDX 82 45 33 46 87 47 81 48 83 49 34 50 86 51 80 52 79 53 35 55
REMARK SMILES IDX 67 56 47 57 66 58 48 59 51 60 65 61 84 62 49 63 50 64 64 66
REMARK SMILES IDX 85 67 52 68 36 69 37 70 45 71 38 72 39 73 43 74 46 75 40 76
REMARK SMILES IDX 41 77 44 78 42 79 68 80 69 81 77 82 70 83 71 84 75 85 78 86
REMARK SMILES IDX 72 87 73 88 76 89 74 90 53 91 54 92 62 93 55 94 56 95 60 96
REMARK SMILES IDX 63 97 57 98 58 99 61 100 59 101
REMARK H PARENT 7 18 97 27 83 54 51 65
REMARK Flexibility Score: inf
ROOT
ATOM      1  C   UNL A   1      42.654  20.602  26.452  1.00  0.00     0.261 C 
ENDROOT
BRANCH   1   2
ATOM      2  O   UNL A   1      41.541  21.218  25.784  1.00  0.00    -0.460 OA
BRANCH   2   3
ATOM      3  C   UNL A   1      40.558  21.665  26.603  1.00  0.00     0.338 C 
ATOM      4  O   UNL A   1      40.688  22.374  27.589  1.00  0.00    -0.246 OA
BRANCH   3   5
ATOM      5  C   UNL A   1      39.241  21.324  26.029  1.00  0.00     0.063 A 
ATOM      6  C   UNL A   1      36.949  21.785  25.520  1.00  0.00     0.090 A 
ATOM      7  C   UNL A   1      38.152  22.198  26.083  1.00  0.00     0.046 A 
ATOM      8  N   UNL A   1      36.812  20.549  24.965  1.00  0.00    -0.255 NA
ATOM      9  C   UNL A   1      37.874  19.721  24.943  1.00  0.00     0.112 A 
ATOM     10  C   UNL A   1      39.107  20.066  25.446  1.00  0.00     0.036 A 
BRANCH   6  11
ATOM     11  C   UNL A   1      35.785  22.682  25.366  1.00  0.00     0.094 A 
ATOM     12  C   UNL A   1      33.580  22.869  24.744  1.00  0.00     0.223 A 
ATOM     13  N   UNL A   1      33.656  24.202  24.642  1.00  0.00    -0.222 NA
ATOM     14  N   UNL A   1      34.587  22.089  25.143  1.00  0.00    -0.211 NA
ATOM     15  C   UNL A   1      34.828  24.772  24.961  1.00  0.00     0.117 A 
ATOM     16  C   UNL A   1      35.939  24.055  25.322  1.00  0.00     0.051 A 
BRANCH  12  17
ATOM     17  N   UNL A   1      32.411  22.314  24.301  1.00  0.00    -0.354 N 
ATOM     18  H   UNL A   1      31.589  22.855  24.306  1.00  0.00     0.163 HD
BRANCH  17  19
ATOM     19  C   UNL A   1      32.357  20.948  23.825  1.00  0.00     0.122 C 
BRANCH  19  20
ATOM     20  C   UNL A   1      32.157  19.960  24.993  1.00  0.00     0.077 C 
BRANCH  20  21
ATOM     21  C   UNL A   1      32.582  18.537  24.671  1.00  0.00     0.050 A 
ATOM     22  C   UNL A   1      32.141  15.226  26.235  1.00  0.00     0.087 C 
ATOM     23  C   UNL A   1      32.552  16.352  25.333  1.00  0.00     0.105 A 
ATOM     24  N   UNL A   1      32.206  17.575  25.582  1.00  0.00    -0.240 NA
ATOM     25  N   UNL A   1      33.300  15.983  24.250  1.00  0.00    -0.311 N 
ATOM     26  C   UNL A   1      33.705  16.883  23.316  1.00  0.00     0.251 A 
ATOM     27  H   UNL A   1      33.551  15.037  24.145  1.00  0.00     0.171 HD
ATOM     28  C   UNL A   1      33.246  18.258  23.537  1.00  0.00     0.095 A 
ATOM     29  O   UNL A   1      34.412  16.585  22.361  1.00  0.00    -0.270 OA
ENDBRANCH  20  21
ENDBRANCH  19  20
ENDBRANCH  17  19
ENDBRANCH  12  17
ENDBRANCH   6  11
ENDBRANCH   3   5
ENDBRANCH   2   3
ENDBRANCH   1   2
BRANCH   1  30
ATOM     30  C   UNL A   1      43.417  19.656  25.519  1.00  0.00     0.202 C 
BRANCH  30  31
ATOM     31  O   UNL A   1      44.010  20.228  24.356  1.00  0.00    -0.374 OA
BRANCH  31  32
ATOM     32  C   UNL A   1      44.896  21.334  24.537  1.00  0.00     0.202 C 
BRANCH  32  33
ATOM     33  C   UNL A   1      44.466  22.690  23.963  1.00  0.00     0.261 C 
BRANCH  33  34
ATOM     34  O   UNL A   1      43.828  23.529  24.942  1.00  0.00    -0.460 OA
BRANCH  34  35
ATOM     35  C   UNL A   1      44.452  24.711  25.163  1.00  0.00     0.338 C 
ATOM     36  O   UNL A   1      45.433  25.154  24.587  1.00  0.00    -0.246 OA
BRANCH  35  37
ATOM     37  C   UNL A   1      43.664  25.521  26.108  1.00  0.00     0.060 A 
ATOM     38  C   UNL A   1      43.966  26.885  26.203  1.00  0.00     0.016 A 
ATOM     39  C   UNL A   1      42.704  24.945  26.942  1.00  0.00     0.016 A 
ATOM     40  C   UNL A   1      43.343  27.672  27.168  1.00  0.00     0.010 A 
ATOM     41  C   UNL A   1      42.084  25.736  27.915  1.00  0.00     0.010 A 
ATOM     42  C   UNL A   1      42.425  27.095  28.054  1.00  0.00    -0.014 A 
BRANCH  42  43
ATOM     43  C   UNL A   1      41.926  27.879  29.209  1.00  0.00     0.031 A 
ATOM     44  C   UNL A   1      42.650  27.790  30.523  1.00  0.00     0.074 A 
ATOM     45  C   UNL A   1      40.851  28.677  29.082  1.00  0.00     0.049 A 
ATOM     46  N   UNL A   1      42.362  28.348  31.672  1.00  0.00    -0.248 NA
ATOM     47  C   UNL A   1      43.864  26.958  30.547  1.00  0.00     0.031 C 
ATOM     48  C   UNL A   1      40.091  28.876  27.851  1.00  0.00     0.029 A 
ATOM     49  N   UNL A   1      40.210  29.463  30.006  1.00  0.00    -0.354 N 
ATOM     50  C   UNL A   1      43.349  27.927  32.554  1.00  0.00     0.074 A 
ATOM     51  C   UNL A   1      44.226  27.042  31.818  1.00  0.00     0.031 C 
ATOM     52  C   UNL A   1      39.076  29.722  28.098  1.00  0.00     0.029 A 
ATOM     53  C   UNL A   1      39.096  30.094  29.511  1.00  0.00     0.049 A 
ATOM     54  H   UNL A   1      40.519  29.564  30.936  1.00  0.00     0.167 HD
ATOM     55  C   UNL A   1      43.513  28.258  33.857  1.00  0.00     0.037 A 
ATOM     56  C   UNL A   1      38.183  30.862  30.137  1.00  0.00     0.037 A 
ATOM     57  C   UNL A   1      42.639  29.140  34.585  1.00  0.00     0.049 A 
ATOM     58  C   UNL A   1      38.346  31.154  31.606  1.00  0.00     0.074 A 
ATOM     59  C   UNL A   1      42.733  29.557  35.901  1.00  0.00     0.029 A 
ATOM     60  N   UNL A   1      41.503  29.737  34.058  1.00  0.00    -0.354 N 
ATOM     61  N   UNL A   1      39.297  30.777  32.427  1.00  0.00    -0.248 NA
ATOM     62  C   UNL A   1      37.310  31.985  32.236  1.00  0.00     0.031 C 
ATOM     63  C   UNL A   1      41.621  30.356  36.189  1.00  0.00     0.029 A 
ATOM     64  C   UNL A   1      40.869  30.492  35.033  1.00  0.00     0.049 A 
ATOM     65  H   UNL A   1      41.191  29.639  33.129  1.00  0.00     0.167 HD
ATOM     66  C   UNL A   1      38.992  31.349  33.656  1.00  0.00     0.074 A 
ATOM     67  C   UNL A   1      37.776  32.110  33.470  1.00  0.00     0.031 C 
ATOM     68  C   UNL A   1      39.662  31.254  34.832  1.00  0.00     0.037 A 
BRANCH  55  69
ATOM     69  C   UNL A   1      44.668  27.639  34.593  1.00  0.00     0.064 A 
ATOM     70  C   UNL A   1      44.558  26.393  35.231  1.00  0.00     0.173 A 
ATOM     71  C   UNL A   1      45.913  28.284  34.628  1.00  0.00     0.173 A 
ATOM     72  F   UNL A   1      43.387  25.739  35.238  1.00  0.00    -0.203 F 
ATOM     73  C   UNL A   1      45.644  25.832  35.898  1.00  0.00     0.198 A 
ATOM     74  C   UNL A   1      47.006  27.705  35.268  1.00  0.00     0.198 A 
ATOM     75  F   UNL A   1      46.075  29.475  34.031  1.00  0.00    -0.203 F 
ATOM     76  F   UNL A   1      45.502  24.665  36.541  1.00  0.00    -0.200 F 
ATOM     77  C   UNL A   1      46.868  26.483  35.910  1.00  0.00     0.200 A 
ATOM     78  F   UNL A   1      48.191  28.330  35.265  1.00  0.00    -0.200 F 
ATOM     79  F   UNL A   1      47.914  25.937  36.544  1.00  0.00    -0.200 F 
ENDBRANCH  55  69
BRANCH  56  80
ATOM     80  C   UNL A   1      37.021  31.400  29.381  1.00  0.00     0.064 A 
ATOM     81  C   UNL A   1      36.969  32.747  28.996  1.00  0.00     0.173 A 
ATOM     82  C   UNL A   1      35.931  30.584  29.043  1.00  0.00     0.173 A 
ATOM     83  F   UNL A   1      37.975  33.574  29.316  1.00  0.00    -0.203 F 
ATOM     84  C   UNL A   1      35.861  33.262  28.325  1.00  0.00     0.198 A 
ATOM     85  C   UNL A   1      34.839  31.092  28.343  1.00  0.00     0.198 A 
ATOM     86  F   UNL A   1      35.931  29.287  29.386  1.00  0.00    -0.203 F 
ATOM     87  F   UNL A   1      35.814  34.565  28.016  1.00  0.00    -0.200 F 
ATOM     88  C   UNL A   1      34.800  32.432  27.993  1.00  0.00     0.200 A 
ATOM     89  F   UNL A   1      33.824  30.282  28.011  1.00  0.00    -0.200 F 
ATOM     90  F   UNL A   1      33.738  32.927  27.344  1.00  0.00    -0.200 F 
ENDBRANCH  56  80
BRANCH  68  91
ATOM     91  C   UNL A   1      39.120  32.027  36.002  1.00  0.00     0.064 A 
ATOM     92  C   UNL A   1      39.462  33.369  36.225  1.00  0.00     0.173 A 
ATOM     93  C   UNL A   1      38.212  31.426  36.888  1.00  0.00     0.173 A 
ATOM     94  F   UNL A   1      40.336  33.987  35.416  1.00  0.00    -0.203 F 
ATOM     95  C   UNL A   1      38.938  34.071  37.308  1.00  0.00     0.198 A 
ATOM     96  C   UNL A   1      37.664  32.142  37.949  1.00  0.00     0.198 A 
ATOM     97  F   UNL A   1      37.844  30.147  36.717  1.00  0.00    -0.203 F 
ATOM     98  F   UNL A   1      39.320  35.337  37.531  1.00  0.00    -0.200 F 
ATOM     99  C   UNL A   1      38.034  33.460  38.164  1.00  0.00     0.200 A 
ATOM    100  F   UNL A   1      36.777  31.554  38.764  1.00  0.00    -0.200 F 
ATOM    101  F   UNL A   1      37.524  34.140  39.199  1.00  0.00    -0.200 F 
ENDBRANCH  68  91
ENDBRANCH  42  43
ENDBRANCH  35  37
ENDBRANCH  34  35
ENDBRANCH  33  34
ENDBRANCH  32  33
ENDBRANCH  31  32
ENDBRANCH  30  31
ENDBRANCH   1  30
TORSDOF 19
ENDMDL
MODEL 3
REMARK VINA RESULT:      -9.5      5.310      8.089
REMARK SMILES Cc1nc(CCNc2nccc(-c3cc(C(=O)OCCOCCOC(=O)c4ccc(-c5c6nc(c(-c7c(F)c(F)c(F)c(F)c7F)c7ccc([nH]7)c(-c7c(F)c(F)c(F)c(F)c7F)c7nc(c(-c8c(F)c(F)c(F)c(F)c8F)c8ccc5[nH]8)C=C7)C=C6)cc4)ccn3)n2)cc(=O)[nH]1
REMARK SMILES IDX 19 1 18 2 16 3 17 4 15 5 13 6 14 7 92 8 91 9 90 10 12 11
REMARK SMILES IDX 8 12 9 13 93 14 10 15 11 16 7 17 6 19 5 20 4 21 1 22 2 23
REMARK SMILES IDX 3 24 97 25 95 26 94 28 96 29 20 30 21 31 22 32 23 33 24 34
REMARK SMILES IDX 25 35 26 36 27 37 28 38 89 39 29 40 88 41 30 42 31 43 32 44
REMARK SMILES IDX 82 45 33 46 87 47 81 48 83 49 34 50 86 51 80 52 79 53 35 55
REMARK SMILES IDX 67 56 47 57 66 58 48 59 51 60 65 61 84 62 49 63 50 64 64 66
REMARK SMILES IDX 85 67 52 68 36 69 37 70 45 71 38 72 39 73 43 74 46 75 40 76
REMARK SMILES IDX 41 77 44 78 42 79 68 80 69 81 77 82 70 83 71 84 75 85 78 86
REMARK SMILES IDX 72 87 73 88 76 89 74 90 53 91 54 92 62 93 55 94 56 95 60 96
REMARK SMILES IDX 63 97 57 98 58 99 61 100 59 101
REMARK H PARENT 7 18 97 27 83 54 51 65
REMARK Flexibility Score: inf
ROOT
ATOM      1  C   UNL A   1      41.766  21.086  26.735  1.00  0.00     0.261 C 
ENDROOT
BRANCH   1   2
ATOM      2  O   UNL A   1      40.779  21.629  25.843  1.00  0.00    -0.460 OA
BRANCH   2   3
ATOM      3  C   UNL A   1      39.695  22.168  26.451  1.00  0.00     0.338 C 
ATOM      4  O   UNL A   1      39.687  23.054  27.292  1.00  0.00    -0.246 OA
BRANCH   3   5
ATOM      5  C   UNL A   1      38.463  21.657  25.815  1.00  0.00     0.063 A 
ATOM      6  C   UNL A   1      36.249  21.903  24.944  1.00  0.00     0.090 A 
ATOM      7  C   UNL A   1      37.367  22.477  25.540  1.00  0.00     0.046 A 
ATOM      8  N   UNL A   1      36.197  20.570  24.670  1.00  0.00    -0.255 NA
ATOM      9  C   UNL A   1      37.262  19.800  24.963  1.00  0.00     0.112 A 
ATOM     10  C   UNL A   1      38.418  20.296  25.520  1.00  0.00     0.036 A 
BRANCH   6  11
ATOM     11  C   UNL A   1      35.104  22.696  24.452  1.00  0.00     0.094 A 
ATOM     12  C   UNL A   1      32.930  23.350  24.815  1.00  0.00     0.223 A 
ATOM     13  N   UNL A   1      32.774  23.754  23.548  1.00  0.00    -0.222 NA
ATOM     14  N   UNL A   1      34.072  22.870  25.313  1.00  0.00    -0.211 NA
ATOM     15  C   UNL A   1      33.842  23.659  22.742  1.00  0.00     0.117 A 
ATOM     16  C   UNL A   1      35.039  23.124  23.139  1.00  0.00     0.051 A 
BRANCH  12  17
ATOM     17  N   UNL A   1      31.793  23.353  25.574  1.00  0.00    -0.354 N 
ATOM     18  H   UNL A   1      31.590  22.575  26.142  1.00  0.00     0.163 HD
BRANCH  17  19
ATOM     19  C   UNL A   1      30.880  24.477  25.562  1.00  0.00     0.122 C 
BRANCH  19  20
ATOM     20  C   UNL A   1      31.549  25.741  26.139  1.00  0.00     0.077 C 
BRANCH  20  21
ATOM     21  C   UNL A   1      31.356  26.982  25.282  1.00  0.00     0.050 A 
ATOM     22  C   UNL A   1      31.681  30.622  25.784  1.00  0.00     0.087 C 
ATOM     23  C   UNL A   1      31.416  29.263  25.204  1.00  0.00     0.105 A 
ATOM     24  N   UNL A   1      31.570  28.189  25.911  1.00  0.00    -0.240 NA
ATOM     25  N   UNL A   1      31.013  29.259  23.899  1.00  0.00    -0.311 N 
ATOM     26  C   UNL A   1      30.783  28.103  23.221  1.00  0.00     0.251 A 
ATOM     27  H   UNL A   1      30.887  30.119  23.436  1.00  0.00     0.171 HD
ATOM     28  C   UNL A   1      31.040  26.875  23.981  1.00  0.00     0.095 A 
ATOM     29  O   UNL A   1      30.379  28.074  22.065  1.00  0.00    -0.270 OA
ENDBRANCH  20  21
ENDBRANCH  19  20
ENDBRANCH  17  19
ENDBRANCH  12  17
ENDBRANCH   6  11
ENDBRANCH   3   5
ENDBRANCH   2   3
ENDBRANCH   1   2
BRANCH   1  30
ATOM     30  C   UNL A   1      42.512  19.908  26.097  1.00  0.00     0.202 C 
BRANCH  30  31
ATOM     31  O   UNL A   1      43.372  20.201  24.999  1.00  0.00    -0.374 OA
BRANCH  31  32
ATOM     32  C   UNL A   1      44.336  21.241  25.169  1.00  0.00     0.202 C 
BRANCH  32  33
ATOM     33  C   UNL A   1      44.275  22.430  24.202  1.00  0.00     0.261 C 
BRANCH  33  34
ATOM     34  O   UNL A   1      43.495  23.523  24.718  1.00  0.00    -0.460 OA
BRANCH  34  35
ATOM     35  C   UNL A   1      44.218  24.614  25.069  1.00  0.00     0.338 C 
ATOM     36  O   UNL A   1      45.277  24.990  24.593  1.00  0.00    -0.246 OA
BRANCH  35  37
ATOM     37  C   UNL A   1      43.450  25.435  26.022  1.00  0.00     0.060 A 
ATOM     38  C   UNL A   1      43.778  26.793  26.120  1.00  0.00     0.016 A 
ATOM     39  C   UNL A   1      42.484  24.874  26.859  1.00  0.00     0.016 A 
ATOM     40  C   UNL A   1      43.175  27.588  27.092  1.00  0.00     0.010 A 
ATOM     41  C   UNL A   1      41.884  25.673  27.838  1.00  0.00     0.010 A 
ATOM     42  C   UNL A   1      42.252  27.024  27.981  1.00  0.00    -0.014 A 
BRANCH  42  43
ATOM     43  C   UNL A   1      41.773  27.813  29.141  1.00  0.00     0.031 A 
ATOM     44  C   UNL A   1      42.504  27.707  30.451  1.00  0.00     0.074 A 
ATOM     45  C   UNL A   1      40.712  28.630  29.023  1.00  0.00     0.049 A 
ATOM     46  N   UNL A   1      42.232  28.265  31.603  1.00  0.00    -0.248 NA
ATOM     47  C   UNL A   1      43.702  26.853  30.464  1.00  0.00     0.031 C 
ATOM     48  C   UNL A   1      39.948  28.848  27.797  1.00  0.00     0.029 A 
ATOM     49  N   UNL A   1      40.090  29.425  29.954  1.00  0.00    -0.354 N 
ATOM     50  C   UNL A   1      43.216  27.824  32.478  1.00  0.00     0.074 A 
ATOM     51  C   UNL A   1      44.073  26.925  31.733  1.00  0.00     0.031 C 
ATOM     52  C   UNL A   1      38.951  29.711  28.053  1.00  0.00     0.029 A 
ATOM     53  C   UNL A   1      38.985  30.077  29.467  1.00  0.00     0.049 A 
ATOM     54  H   UNL A   1      40.407  29.517  30.882  1.00  0.00     0.167 HD
ATOM     55  C   UNL A   1      43.394  28.147  33.781  1.00  0.00     0.037 A 
ATOM     56  C   UNL A   1      38.090  30.859  30.102  1.00  0.00     0.037 A 
ATOM     57  C   UNL A   1      42.540  29.042  34.517  1.00  0.00     0.049 A 
ATOM     58  C   UNL A   1      38.267  31.144  31.570  1.00  0.00     0.074 A 
ATOM     59  C   UNL A   1      42.649  29.453  35.834  1.00  0.00     0.029 A 
ATOM     60  N   UNL A   1      41.411  29.661  33.998  1.00  0.00    -0.354 N 
ATOM     61  N   UNL A   1      39.216  30.747  32.385  1.00  0.00    -0.248 NA
ATOM     62  C   UNL A   1      37.250  31.991  32.209  1.00  0.00     0.031 C 
ATOM     63  C   UNL A   1      41.553  30.270  36.131  1.00  0.00     0.029 A 
ATOM     64  C   UNL A   1      40.797  30.424  34.980  1.00  0.00     0.049 A 
ATOM     65  H   UNL A   1      41.093  29.572  33.071  1.00  0.00     0.167 HD
ATOM     66  C   UNL A   1      38.928  31.319  33.617  1.00  0.00     0.074 A 
ATOM     67  C   UNL A   1      37.725  32.103  33.441  1.00  0.00     0.031 C 
ATOM     68  C   UNL A   1      39.603  31.208  34.789  1.00  0.00     0.037 A 
BRANCH  55  69
ATOM     69  C   UNL A   1      44.541  27.504  34.508  1.00  0.00     0.064 A 
ATOM     70  C   UNL A   1      45.752  28.180  34.727  1.00  0.00     0.173 A 
ATOM     71  C   UNL A   1      44.414  26.206  35.025  1.00  0.00     0.173 A 
ATOM     72  F   UNL A   1      45.930  29.418  34.243  1.00  0.00    -0.203 F 
ATOM     73  C   UNL A   1      46.799  27.570  35.412  1.00  0.00     0.198 A 
ATOM     74  C   UNL A   1      45.452  25.611  35.738  1.00  0.00     0.198 A 
ATOM     75  F   UNL A   1      43.278  25.515  34.849  1.00  0.00    -0.203 F 
ATOM     76  F   UNL A   1      47.963  28.217  35.566  1.00  0.00    -0.200 F 
ATOM     77  C   UNL A   1      46.647  26.291  35.923  1.00  0.00     0.200 A 
ATOM     78  F   UNL A   1      45.296  24.381  36.244  1.00  0.00    -0.200 F 
ATOM     79  F   UNL A   1      47.652  25.709  36.591  1.00  0.00    -0.200 F 
ENDBRANCH  55  69
BRANCH  56  80
ATOM     80  C   UNL A   1      36.934  31.421  29.354  1.00  0.00     0.064 A 
ATOM     81  C   UNL A   1      36.901  32.772  28.979  1.00  0.00     0.173 A 
ATOM     82  C   UNL A   1      35.830  30.625  29.015  1.00  0.00     0.173 A 
ATOM     83  F   UNL A   1      37.921  33.581  29.300  1.00  0.00    -0.203 F 
ATOM     84  C   UNL A   1      35.799  33.309  28.316  1.00  0.00     0.198 A 
ATOM     85  C   UNL A   1      34.743  31.155  28.323  1.00  0.00     0.198 A 
ATOM     86  F   UNL A   1      35.810  29.325  29.348  1.00  0.00    -0.203 F 
ATOM     87  F   UNL A   1      35.771  34.615  28.016  1.00  0.00    -0.200 F 
ATOM     88  C   UNL A   1      34.724  32.498  27.982  1.00  0.00     0.200 A 
ATOM     89  F   UNL A   1      33.714  30.364  27.989  1.00  0.00    -0.200 F 
ATOM     90  F   UNL A   1      33.667  33.014  27.341  1.00  0.00    -0.200 F 
ENDBRANCH  56  80
BRANCH  68  91
ATOM     91  C   UNL A   1      39.082  31.987  35.965  1.00  0.00     0.064 A 
ATOM     92  C   UNL A   1      38.217  31.414  36.909  1.00  0.00     0.173 A 
ATOM     93  C   UNL A   1      39.490  33.314  36.171  1.00  0.00     0.173 A 
ATOM     94  F   UNL A   1      37.786  30.153  36.752  1.00  0.00    -0.203 F 
ATOM     95  C   UNL A   1      37.756  32.149  37.997  1.00  0.00     0.198 A 
ATOM     96  C   UNL A   1      39.055  34.035  37.279  1.00  0.00     0.198 A 
ATOM     97  F   UNL A   1      40.324  33.909  35.304  1.00  0.00    -0.203 F 
ATOM     98  F   UNL A   1      36.888  31.598  38.857  1.00  0.00    -0.200 F 
ATOM     99  C   UNL A   1      38.182  33.456  38.187  1.00  0.00     0.200 A 
ATOM    100  F   UNL A   1      39.482  35.291  37.469  1.00  0.00    -0.200 F 
ATOM    101  F   UNL A   1      37.745  34.159  39.240  1.00  0.00    -0.200 F 
ENDBRANCH  68  91
ENDBRANCH  42  43
ENDBRANCH  35  37
ENDBRANCH  34  35
ENDBRANCH  33  34
ENDBRANCH  32  33
ENDBRANCH  31  32
ENDBRANCH  30  31
ENDBRANCH   1  30
TORSDOF 19
ENDMDL
