MODEL 1
REMARK VINA RESULT:     -13.2      0.000      0.000
REMARK SMILES Cc1c(C(=O)OCCOCCOC(=O)c2ccc(-c3c4nc(c(-c5c(F)c(F)c(F)c(F)c5F)c5ccc([nH]5)c(-c5c(F)c(F)c(F)c(F)c5F)c5nc(c(-c6c(F)c(F)c(F)c(F)c6F)c6ccc3[nH]6)C=C5)C=C4)cc2)cccc1-n1c(C)cc(/C=C2/C(=O)NC(=S)N=C2O)c1C
REMARK SMILES IDX 8 1 7 2 6 3 4 4 5 5 3 6 1 7 2 8 81 9 78 10 80 11 79 12 82 13
REMARK SMILES IDX 83 14 97 15 84 16 85 17 86 18 98 19 87 20 88 21 89 22 95 23
REMARK SMILES IDX 90 24 91 25 94 26 92 27 93 29 96 30 9 32 10 33 11 34 12 35
REMARK SMILES IDX 13 36 14 37 15 38 16 39 77 40 17 41 76 42 18 43 19 44 20 45
REMARK SMILES IDX 70 46 21 47 75 48 69 49 71 50 22 51 74 52 68 53 67 54 23 56
REMARK SMILES IDX 55 57 35 58 54 59 36 60 39 61 53 62 72 63 37 64 38 65 52 67
REMARK SMILES IDX 73 68 40 69 24 70 25 71 33 72 26 73 27 74 31 75 34 76 28 77
REMARK SMILES IDX 29 78 32 79 30 80 56 81 57 82 65 83 58 84 59 85 63 86 66 87
REMARK SMILES IDX 60 88 61 89 64 90 62 91 41 92 42 93 50 94 43 95 44 96 48 97
REMARK SMILES IDX 51 98 45 99 46 100 49 101 47 102
REMARK H PARENT 91 28 96 31 71 55 39 66
REMARK Flexibility Score: inf
ROOT
ATOM      1  C   UNL A   1      33.232  31.534  27.781  1.00  0.00     0.202 C 
ENDROOT
BRANCH   1   2
ATOM      2  C   UNL A   1      34.301  30.653  27.226  1.00  0.00     0.261 C 
BRANCH   2   3
ATOM      3  O   UNL A   1      33.811  29.369  26.826  1.00  0.00    -0.460 OA
BRANCH   3   4
ATOM      4  C   UNL A   1      33.230  29.104  25.635  1.00  0.00     0.338 C 
ATOM      5  O   UNL A   1      33.220  29.789  24.645  1.00  0.00    -0.246 OA
BRANCH   4   6
ATOM      6  C   UNL A   1      32.585  27.764  25.785  1.00  0.00     0.065 A 
ATOM      7  C   UNL A   1      34.177  26.592  24.110  1.00  0.00     0.047 C 
ATOM      8  C   UNL A   1      33.050  26.597  25.130  1.00  0.00    -0.012 A 
ATOM      9  C   UNL A   1      32.345  25.412  25.371  1.00  0.00     0.049 A 
ATOM     10  C   UNL A   1      31.408  27.723  26.559  1.00  0.00     0.016 A 
ATOM     11  C   UNL A   1      31.157  25.371  26.108  1.00  0.00     0.027 A 
ATOM     12  C   UNL A   1      30.683  26.538  26.698  1.00  0.00     0.003 A 
BRANCH   9  13
ATOM     13  N   UNL A   1      32.753  24.245  24.702  1.00  0.00    -0.318 N 
ATOM     14  C   UNL A   1      32.185  23.749  23.538  1.00  0.00     0.020 A 
ATOM     15  C   UNL A   1      33.419  23.208  25.347  1.00  0.00     0.027 A 
ATOM     16  C   UNL A   1      31.084  24.426  22.791  1.00  0.00     0.065 C 
ATOM     17  C   UNL A   1      32.815  22.548  23.282  1.00  0.00     0.031 A 
ATOM     18  C   UNL A   1      33.667  22.250  24.383  1.00  0.00    -0.003 A 
ATOM     19  C   UNL A   1      33.660  23.254  26.828  1.00  0.00     0.065 C 
BRANCH  18  20
ATOM     20  C   UNL A   1      34.437  21.055  24.476  1.00  0.00     0.029 C 
ATOM     21  C   UNL A   1      34.118  19.823  24.914  1.00  0.00     0.102 C 
ATOM     22  C   UNL A   1      35.188  18.801  24.797  1.00  0.00     0.262 C 
ATOM     23  C   UNL A   1      32.858  19.287  25.431  1.00  0.00     0.226 C 
ATOM     24  O   UNL A   1      36.374  19.057  24.626  1.00  0.00    -0.269 OA
ATOM     25  N   UNL A   1      34.732  17.514  24.869  1.00  0.00    -0.297 N 
ATOM     26  N   UNL A   1      32.521  18.051  25.501  1.00  0.00    -0.184 NA
ATOM     27  C   UNL A   1      33.442  17.115  25.117  1.00  0.00     0.203 C 
ATOM     28  H   UNL A   1      35.396  16.800  24.726  1.00  0.00     0.172 HD
ATOM     29  S   UNL A   1      33.095  15.480  25.001  1.00  0.00    -0.038 S 
BRANCH  23  30
ATOM     30  O   UNL A   1      31.991  20.161  25.944  1.00  0.00    -0.493 OA
ATOM     31  H   UNL A   1      31.270  20.463  25.429  1.00  0.00     0.295 HD
ENDBRANCH  23  30
ENDBRANCH  18  20
ENDBRANCH   9  13
ENDBRANCH   4   6
ENDBRANCH   3   4
ENDBRANCH   2   3
ENDBRANCH   1   2
BRANCH   1  32
ATOM     32  O   UNL A   1      33.755  32.844  27.690  1.00  0.00    -0.374 OA
BRANCH  32  33
ATOM     33  C   UNL A   1      32.809  33.884  27.792  1.00  0.00     0.202 C 
BRANCH  33  34
ATOM     34  C   UNL A   1      33.282  34.990  28.742  1.00  0.00     0.261 C 
BRANCH  34  35
ATOM     35  O   UNL A   1      33.017  34.590  30.108  1.00  0.00    -0.460 OA
BRANCH  35  36
ATOM     36  C   UNL A   1      34.079  34.577  30.964  1.00  0.00     0.338 C 
ATOM     37  O   UNL A   1      34.476  35.534  31.610  1.00  0.00    -0.246 OA
BRANCH  36  38
ATOM     38  C   UNL A   1      34.880  33.324  30.771  1.00  0.00     0.060 A 
ATOM     39  C   UNL A   1      34.828  32.284  31.724  1.00  0.00     0.016 A 
ATOM     40  C   UNL A   1      35.928  33.357  29.856  1.00  0.00     0.016 A 
ATOM     41  C   UNL A   1      35.900  31.375  31.860  1.00  0.00     0.010 A 
ATOM     42  C   UNL A   1      37.023  32.544  30.073  1.00  0.00     0.010 A 
ATOM     43  C   UNL A   1      37.044  31.563  31.084  1.00  0.00    -0.014 A 
BRANCH  43  44
ATOM     44  C   UNL A   1      38.366  30.947  31.290  1.00  0.00     0.031 A 
ATOM     45  C   UNL A   1      38.717  29.750  30.487  1.00  0.00     0.074 A 
ATOM     46  C   UNL A   1      39.390  31.610  31.892  1.00  0.00     0.049 A 
ATOM     47  N   UNL A   1      39.755  29.019  30.709  1.00  0.00    -0.248 NA
ATOM     48  C   UNL A   1      37.921  29.274  29.358  1.00  0.00     0.031 C 
ATOM     49  C   UNL A   1      40.819  31.501  31.566  1.00  0.00     0.029 A 
ATOM     50  N   UNL A   1      39.381  32.598  32.888  1.00  0.00    -0.354 N 
ATOM     51  C   UNL A   1      39.957  28.254  29.587  1.00  0.00     0.074 A 
ATOM     52  C   UNL A   1      38.742  28.372  28.818  1.00  0.00     0.031 C 
ATOM     53  C   UNL A   1      41.546  32.169  32.475  1.00  0.00     0.029 A 
ATOM     54  C   UNL A   1      40.642  32.601  33.520  1.00  0.00     0.049 A 
ATOM     55  H   UNL A   1      38.625  33.188  33.108  1.00  0.00     0.167 HD
ATOM     56  C   UNL A   1      41.192  27.732  29.342  1.00  0.00     0.037 A 
ATOM     57  C   UNL A   1      40.765  32.437  34.865  1.00  0.00     0.037 A 
ATOM     58  C   UNL A   1      42.179  28.185  30.332  1.00  0.00     0.049 A 
ATOM     59  C   UNL A   1      41.501  31.162  35.167  1.00  0.00     0.074 A 
ATOM     60  C   UNL A   1      43.217  29.102  30.309  1.00  0.00     0.029 A 
ATOM     61  N   UNL A   1      41.966  27.917  31.677  1.00  0.00    -0.354 N 
ATOM     62  N   UNL A   1      41.990  30.405  34.228  1.00  0.00    -0.248 NA
ATOM     63  C   UNL A   1      41.677  30.578  36.489  1.00  0.00     0.031 C 
ATOM     64  C   UNL A   1      43.671  29.309  31.646  1.00  0.00     0.029 A 
ATOM     65  C   UNL A   1      42.915  28.512  32.487  1.00  0.00     0.049 A 
ATOM     66  H   UNL A   1      41.223  27.366  32.016  1.00  0.00     0.167 HD
ATOM     67  C   UNL A   1      42.436  29.235  34.743  1.00  0.00     0.074 A 
ATOM     68  C   UNL A   1      42.219  29.385  36.175  1.00  0.00     0.031 C 
ATOM     69  C   UNL A   1      42.902  28.245  33.922  1.00  0.00     0.037 A 
BRANCH  56  70
ATOM     70  C   UNL A   1      41.542  27.029  28.047  1.00  0.00     0.064 A 
ATOM     71  C   UNL A   1      41.612  25.623  27.974  1.00  0.00     0.173 A 
ATOM     72  C   UNL A   1      41.821  27.693  26.835  1.00  0.00     0.173 A 
ATOM     73  F   UNL A   1      41.254  24.848  29.005  1.00  0.00    -0.203 F 
ATOM     74  C   UNL A   1      42.043  24.952  26.827  1.00  0.00     0.198 A 
ATOM     75  C   UNL A   1      42.315  27.028  25.707  1.00  0.00     0.198 A 
ATOM     76  F   UNL A   1      41.567  29.000  26.680  1.00  0.00    -0.203 F 
ATOM     77  F   UNL A   1      42.080  23.612  26.818  1.00  0.00    -0.200 F 
ATOM     78  C   UNL A   1      42.433  25.655  25.707  1.00  0.00     0.200 A 
ATOM     79  F   UNL A   1      42.666  27.730  24.620  1.00  0.00    -0.200 F 
ATOM     80  F   UNL A   1      42.885  25.011  24.622  1.00  0.00    -0.200 F 
ENDBRANCH  56  70
BRANCH  57  81
ATOM     81  C   UNL A   1      39.608  33.042  35.588  1.00  0.00     0.064 A 
ATOM     82  C   UNL A   1      38.667  32.139  36.132  1.00  0.00     0.173 A 
ATOM     83  C   UNL A   1      39.748  34.287  36.218  1.00  0.00     0.173 A 
ATOM     84  F   UNL A   1      38.499  30.929  35.575  1.00  0.00    -0.203 F 
ATOM     85  C   UNL A   1      38.040  32.398  37.351  1.00  0.00     0.198 A 
ATOM     86  C   UNL A   1      39.123  34.536  37.443  1.00  0.00     0.198 A 
ATOM     87  F   UNL A   1      40.628  35.182  35.748  1.00  0.00    -0.203 F 
ATOM     88  F   UNL A   1      37.299  31.446  37.938  1.00  0.00    -0.200 F 
ATOM     89  C   UNL A   1      38.309  33.576  38.028  1.00  0.00     0.200 A 
ATOM     90  F   UNL A   1      39.408  35.658  38.121  1.00  0.00    -0.200 F 
ATOM     91  F   UNL A   1      37.850  33.750  39.277  1.00  0.00    -0.200 F 
ENDBRANCH  57  81
BRANCH  69  92
ATOM     92  C   UNL A   1      43.349  26.909  34.430  1.00  0.00     0.064 A 
ATOM     93  C   UNL A   1      42.445  25.928  34.856  1.00  0.00     0.173 A 
ATOM     94  C   UNL A   1      44.717  26.581  34.552  1.00  0.00     0.173 A 
ATOM     95  F   UNL A   1      41.134  26.194  34.956  1.00  0.00    -0.203 F 
ATOM     96  C   UNL A   1      42.871  24.651  35.212  1.00  0.00     0.198 A 
ATOM     97  C   UNL A   1      45.143  25.327  34.972  1.00  0.00     0.198 A 
ATOM     98  F   UNL A   1      45.693  27.445  34.247  1.00  0.00    -0.203 F 
ATOM     99  F   UNL A   1      41.964  23.709  35.503  1.00  0.00    -0.200 F 
ATOM    100  C   UNL A   1      44.219  24.347  35.260  1.00  0.00     0.200 A 
ATOM    101  F   UNL A   1      46.455  25.073  35.071  1.00  0.00    -0.200 F 
ATOM    102  F   UNL A   1      44.627  23.115  35.588  1.00  0.00    -0.200 F 
ENDBRANCH  69  92
ENDBRANCH  43  44
ENDBRANCH  36  38
ENDBRANCH  35  36
ENDBRANCH  34  35
ENDBRANCH  33  34
ENDBRANCH  32  33
ENDBRANCH   1  32
TORSDOF 17
ENDMDL
MODEL 2
REMARK VINA RESULT:     -12.7      1.171      2.013
REMARK SMILES Cc1c(C(=O)OCCOCCOC(=O)c2ccc(-c3c4nc(c(-c5c(F)c(F)c(F)c(F)c5F)c5ccc([nH]5)c(-c5c(F)c(F)c(F)c(F)c5F)c5nc(c(-c6c(F)c(F)c(F)c(F)c6F)c6ccc3[nH]6)C=C5)C=C4)cc2)cccc1-n1c(C)cc(/C=C2/C(=O)NC(=S)N=C2O)c1C
REMARK SMILES IDX 8 1 7 2 6 3 4 4 5 5 3 6 1 7 2 8 81 9 78 10 80 11 79 12 82 13
REMARK SMILES IDX 83 14 97 15 84 16 85 17 86 18 98 19 87 20 88 21 89 22 95 23
REMARK SMILES IDX 90 24 91 25 94 26 92 27 93 29 96 30 9 32 10 33 11 34 12 35
REMARK SMILES IDX 13 36 14 37 15 38 16 39 77 40 17 41 76 42 18 43 19 44 20 45
REMARK SMILES IDX 70 46 21 47 75 48 69 49 71 50 22 51 74 52 68 53 67 54 23 56
REMARK SMILES IDX 55 57 35 58 54 59 36 60 39 61 53 62 72 63 37 64 38 65 52 67
REMARK SMILES IDX 73 68 40 69 24 70 25 71 33 72 26 73 27 74 31 75 34 76 28 77
REMARK SMILES IDX 29 78 32 79 30 80 56 81 57 82 65 83 58 84 59 85 63 86 66 87
REMARK SMILES IDX 60 88 61 89 64 90 62 91 41 92 42 93 50 94 43 95 44 96 48 97
REMARK SMILES IDX 51 98 45 99 46 100 49 101 47 102
REMARK H PARENT 91 28 96 31 71 55 39 66
REMARK Flexibility Score: inf
ROOT
ATOM      1  C   UNL A   1      33.505  31.466  27.608  1.00  0.00     0.202 C 
ENDROOT
BRANCH   1   2
ATOM      2  C   UNL A   1      34.538  30.436  27.297  1.00  0.00     0.261 C 
BRANCH   2   3
ATOM      3  O   UNL A   1      33.973  29.199  26.849  1.00  0.00    -0.460 OA
BRANCH   3   4
ATOM      4  C   UNL A   1      33.266  29.045  25.707  1.00  0.00     0.338 C 
ATOM      5  O   UNL A   1      33.176  29.810  24.782  1.00  0.00    -0.246 OA
BRANCH   4   6
ATOM      6  C   UNL A   1      32.600  27.712  25.816  1.00  0.00     0.065 A 
ATOM      7  C   UNL A   1      34.235  26.542  24.182  1.00  0.00     0.047 C 
ATOM      8  C   UNL A   1      33.073  26.548  25.162  1.00  0.00    -0.012 A 
ATOM      9  C   UNL A   1      32.346  25.368  25.362  1.00  0.00     0.049 A 
ATOM     10  C   UNL A   1      31.396  27.675  26.548  1.00  0.00     0.016 A 
ATOM     11  C   UNL A   1      31.132  25.333  26.057  1.00  0.00     0.027 A 
ATOM     12  C   UNL A   1      30.653  26.498  26.646  1.00  0.00     0.003 A 
BRANCH   9  13
ATOM     13  N   UNL A   1      32.763  24.205  24.692  1.00  0.00    -0.318 N 
ATOM     14  C   UNL A   1      32.210  23.715  23.519  1.00  0.00     0.020 A 
ATOM     15  C   UNL A   1      33.421  23.165  25.340  1.00  0.00     0.027 A 
ATOM     16  C   UNL A   1      31.117  24.396  22.761  1.00  0.00     0.065 C 
ATOM     17  C   UNL A   1      32.843  22.517  23.264  1.00  0.00     0.031 A 
ATOM     18  C   UNL A   1      33.682  22.212  24.374  1.00  0.00    -0.003 A 
ATOM     19  C   UNL A   1      33.644  23.203  26.823  1.00  0.00     0.065 C 
BRANCH  18  20
ATOM     20  C   UNL A   1      34.451  21.017  24.470  1.00  0.00     0.029 C 
ATOM     21  C   UNL A   1      34.131  19.786  24.909  1.00  0.00     0.102 C 
ATOM     22  C   UNL A   1      35.200  18.764  24.796  1.00  0.00     0.262 C 
ATOM     23  C   UNL A   1      32.870  19.251  25.425  1.00  0.00     0.226 C 
ATOM     24  O   UNL A   1      36.387  19.019  24.626  1.00  0.00    -0.269 OA
ATOM     25  N   UNL A   1      34.744  17.477  24.869  1.00  0.00    -0.297 N 
ATOM     26  N   UNL A   1      32.533  18.016  25.497  1.00  0.00    -0.184 NA
ATOM     27  C   UNL A   1      33.453  17.079  25.115  1.00  0.00     0.203 C 
ATOM     28  H   UNL A   1      35.408  16.763  24.729  1.00  0.00     0.172 HD
ATOM     29  S   UNL A   1      33.107  15.444  25.002  1.00  0.00    -0.038 S 
BRANCH  23  30
ATOM     30  O   UNL A   1      32.003  20.127  25.935  1.00  0.00    -0.493 OA
ATOM     31  H   UNL A   1      31.192  19.827  26.295  1.00  0.00     0.295 HD
ENDBRANCH  23  30
ENDBRANCH  18  20
ENDBRANCH   9  13
ENDBRANCH   4   6
ENDBRANCH   3   4
ENDBRANCH   2   3
ENDBRANCH   1   2
BRANCH   1  32
ATOM     32  O   UNL A   1      34.234  32.653  27.846  1.00  0.00    -0.374 OA
BRANCH  32  33
ATOM     33  C   UNL A   1      33.456  33.808  28.070  1.00  0.00     0.202 C 
BRANCH  33  34
ATOM     34  C   UNL A   1      33.903  34.558  29.330  1.00  0.00     0.261 C 
BRANCH  34  35
ATOM     35  O   UNL A   1      33.935  33.636  30.445  1.00  0.00    -0.460 OA
BRANCH  35  36
ATOM     36  C   UNL A   1      35.062  33.636  31.214  1.00  0.00     0.338 C 
ATOM     37  O   UNL A   1      35.506  34.602  31.816  1.00  0.00    -0.246 OA
BRANCH  36  38
ATOM     38  C   UNL A   1      35.851  32.384  30.971  1.00  0.00     0.060 A 
ATOM     39  C   UNL A   1      35.882  31.357  31.939  1.00  0.00     0.016 A 
ATOM     40  C   UNL A   1      36.819  32.409  29.972  1.00  0.00     0.016 A 
ATOM     41  C   UNL A   1      36.967  30.453  31.997  1.00  0.00     0.010 A 
ATOM     42  C   UNL A   1      37.932  31.603  30.108  1.00  0.00     0.010 A 
ATOM     43  C   UNL A   1      38.041  30.635  31.127  1.00  0.00    -0.014 A 
BRANCH  43  44
ATOM     44  C   UNL A   1      39.380  30.027  31.230  1.00  0.00     0.031 A 
ATOM     45  C   UNL A   1      39.662  28.811  30.429  1.00  0.00     0.074 A 
ATOM     46  C   UNL A   1      40.450  30.707  31.723  1.00  0.00     0.049 A 
ATOM     47  N   UNL A   1      40.719  28.088  30.577  1.00  0.00    -0.248 NA
ATOM     48  C   UNL A   1      38.772  28.305  29.387  1.00  0.00     0.031 C 
ATOM     49  C   UNL A   1      41.845  30.593  31.275  1.00  0.00     0.029 A 
ATOM     50  N   UNL A   1      40.524  31.719  32.691  1.00  0.00    -0.354 N 
ATOM     51  C   UNL A   1      40.825  27.295  29.460  1.00  0.00     0.074 A 
ATOM     52  C   UNL A   1      39.546  27.392  28.799  1.00  0.00     0.031 C 
ATOM     53  C   UNL A   1      42.646  31.284  32.099  1.00  0.00     0.029 A 
ATOM     54  C   UNL A   1      41.836  31.740  33.209  1.00  0.00     0.049 A 
ATOM     55  H   UNL A   1      39.789  32.313  32.963  1.00  0.00     0.167 HD
ATOM     56  C   UNL A   1      42.035  26.770  29.120  1.00  0.00     0.037 A 
ATOM     57  C   UNL A   1      42.078  31.610  34.542  1.00  0.00     0.037 A 
ATOM     58  C   UNL A   1      43.104  27.249  30.009  1.00  0.00     0.049 A 
ATOM     59  C   UNL A   1      42.843  30.345  34.809  1.00  0.00     0.074 A 
ATOM     60  C   UNL A   1      44.133  28.167  29.871  1.00  0.00     0.029 A 
ATOM     61  N   UNL A   1      43.011  27.014  31.374  1.00  0.00    -0.354 N 
ATOM     62  N   UNL A   1      43.250  29.565  33.850  1.00  0.00    -0.248 NA
ATOM     63  C   UNL A   1      43.138  29.794  36.125  1.00  0.00     0.031 C 
ATOM     64  C   UNL A   1      44.701  28.408  31.157  1.00  0.00     0.029 A 
ATOM     65  C   UNL A   1      44.026  27.631  32.081  1.00  0.00     0.049 A 
ATOM     66  H   UNL A   1      42.304  26.471  31.789  1.00  0.00     0.167 HD
ATOM     67  C   UNL A   1      43.744  28.409  34.352  1.00  0.00     0.074 A 
ATOM     68  C   UNL A   1      43.654  28.595  35.793  1.00  0.00     0.031 C 
ATOM     69  C   UNL A   1      44.140  27.400  33.518  1.00  0.00     0.037 A 
BRANCH  56  70
ATOM     70  C   UNL A   1      42.273  26.035  27.818  1.00  0.00     0.064 A 
ATOM     71  C   UNL A   1      42.125  24.636  27.730  1.00  0.00     0.173 A 
ATOM     72  C   UNL A   1      42.650  26.661  26.612  1.00  0.00     0.173 A 
ATOM     73  F   UNL A   1      41.652  23.914  28.753  1.00  0.00    -0.203 F 
ATOM     74  C   UNL A   1      42.447  23.919  26.574  1.00  0.00     0.198 A 
ATOM     75  C   UNL A   1      43.037  25.940  25.477  1.00  0.00     0.198 A 
ATOM     76  F   UNL A   1      42.601  27.993  26.472  1.00  0.00    -0.203 F 
ATOM     77  F   UNL A   1      42.278  22.589  26.551  1.00  0.00    -0.200 F 
ATOM     78  C   UNL A   1      42.941  24.566  25.461  1.00  0.00     0.200 A 
ATOM     79  F   UNL A   1      43.492  26.591  24.396  1.00  0.00    -0.200 F 
ATOM     80  F   UNL A   1      43.289  23.872  24.369  1.00  0.00    -0.200 F 
ENDBRANCH  56  70
BRANCH  57  81
ATOM     81  C   UNL A   1      40.987  32.231  35.349  1.00  0.00     0.064 A 
ATOM     82  C   UNL A   1      40.950  33.642  35.375  1.00  0.00     0.173 A 
ATOM     83  C   UNL A   1      39.774  31.550  35.530  1.00  0.00     0.173 A 
ATOM     84  F   UNL A   1      42.081  34.346  35.196  1.00  0.00    -0.203 F 
ATOM     85  C   UNL A   1      39.739  34.333  35.389  1.00  0.00     0.198 A 
ATOM     86  C   UNL A   1      38.563  32.247  35.537  1.00  0.00     0.198 A 
ATOM     87  F   UNL A   1      39.747  30.210  35.511  1.00  0.00    -0.203 F 
ATOM     88  F   UNL A   1      39.725  35.664  35.222  1.00  0.00    -0.200 F 
ATOM     89  C   UNL A   1      38.545  33.630  35.421  1.00  0.00     0.200 A 
ATOM     90  F   UNL A   1      37.404  31.572  35.529  1.00  0.00    -0.200 F 
ATOM     91  F   UNL A   1      37.383  34.280  35.257  1.00  0.00    -0.200 F 
ENDBRANCH  57  81
BRANCH  69  92
ATOM     92  C   UNL A   1      44.635  26.077  34.017  1.00  0.00     0.064 A 
ATOM     93  C   UNL A   1      45.973  25.682  33.893  1.00  0.00     0.173 A 
ATOM     94  C   UNL A   1      43.764  25.131  34.601  1.00  0.00     0.173 A 
ATOM     95  F   UNL A   1      46.849  26.420  33.196  1.00  0.00    -0.203 F 
ATOM     96  C   UNL A   1      46.439  24.503  34.469  1.00  0.00     0.198 A 
ATOM     97  C   UNL A   1      44.220  23.924  35.114  1.00  0.00     0.198 A 
ATOM     98  F   UNL A   1      42.448  25.345  34.722  1.00  0.00    -0.203 F 
ATOM     99  F   UNL A   1      47.748  24.219  34.425  1.00  0.00    -0.200 F 
ATOM    100  C   UNL A   1      45.565  23.628  35.088  1.00  0.00     0.200 A 
ATOM    101  F   UNL A   1      43.347  23.063  35.654  1.00  0.00    -0.200 F 
ATOM    102  F   UNL A   1      46.016  22.502  35.653  1.00  0.00    -0.200 F 
ENDBRANCH  69  92
ENDBRANCH  43  44
ENDBRANCH  36  38
ENDBRANCH  35  36
ENDBRANCH  34  35
ENDBRANCH  33  34
ENDBRANCH  32  33
ENDBRANCH   1  32
TORSDOF 17
ENDMDL
MODEL 3
REMARK VINA RESULT:     -12.6      6.219     10.166
REMARK SMILES Cc1c(C(=O)OCCOCCOC(=O)c2ccc(-c3c4nc(c(-c5c(F)c(F)c(F)c(F)c5F)c5ccc([nH]5)c(-c5c(F)c(F)c(F)c(F)c5F)c5nc(c(-c6c(F)c(F)c(F)c(F)c6F)c6ccc3[nH]6)C=C5)C=C4)cc2)cccc1-n1c(C)cc(/C=C2/C(=O)NC(=S)N=C2O)c1C
REMARK SMILES IDX 8 1 7 2 6 3 4 4 5 5 3 6 1 7 2 8 81 9 78 10 80 11 79 12 82 13
REMARK SMILES IDX 83 14 97 15 84 16 85 17 86 18 98 19 87 20 88 21 89 22 95 23
REMARK SMILES IDX 90 24 91 25 94 26 92 27 93 29 96 30 9 32 10 33 11 34 12 35
REMARK SMILES IDX 13 36 14 37 15 38 16 39 77 40 17 41 76 42 18 43 19 44 20 45
REMARK SMILES IDX 70 46 21 47 75 48 69 49 71 50 22 51 74 52 68 53 67 54 23 56
REMARK SMILES IDX 55 57 35 58 54 59 36 60 39 61 53 62 72 63 37 64 38 65 52 67
REMARK SMILES IDX 73 68 40 69 24 70 25 71 33 72 26 73 27 74 31 75 34 76 28 77
REMARK SMILES IDX 29 78 32 79 30 80 56 81 57 82 65 83 58 84 59 85 63 86 66 87
REMARK SMILES IDX 60 88 61 89 64 90 62 91 41 92 42 93 50 94 43 95 44 96 48 97
REMARK SMILES IDX 51 98 45 99 46 100 49 101 47 102
REMARK H PARENT 91 28 96 31 71 55 39 66
REMARK Flexibility Score: inf
ROOT
ATOM      1  C   UNL A   1      39.160  29.821  33.381  1.00  0.00     0.202 C 
ENDROOT
BRANCH   1   2
ATOM      2  C   UNL A   1      40.287  29.083  32.740  1.00  0.00     0.261 C 
BRANCH   2   3
ATOM      3  O   UNL A   1      40.056  28.808  31.354  1.00  0.00    -0.460 OA
BRANCH   3   4
ATOM      4  C   UNL A   1      39.006  28.105  30.875  1.00  0.00     0.338 C 
ATOM      5  O   UNL A   1      38.532  27.088  31.311  1.00  0.00    -0.246 OA
BRANCH   4   6
ATOM      6  C   UNL A   1      38.533  28.850  29.669  1.00  0.00     0.065 A 
ATOM      7  C   UNL A   1      36.324  29.632  30.774  1.00  0.00     0.047 C 
ATOM      8  C   UNL A   1      37.331  29.598  29.635  1.00  0.00    -0.012 A 
ATOM      9  C   UNL A   1      37.021  30.247  28.434  1.00  0.00     0.049 A 
ATOM     10  C   UNL A   1      39.312  28.704  28.502  1.00  0.00     0.016 A 
ATOM     11  C   UNL A   1      37.769  30.077  27.264  1.00  0.00     0.027 A 
ATOM     12  C   UNL A   1      38.917  29.294  27.300  1.00  0.00     0.003 A 
BRANCH   9  13
ATOM     13  N   UNL A   1      35.812  30.960  28.353  1.00  0.00    -0.318 N 
ATOM     14  C   UNL A   1      34.686  30.552  27.654  1.00  0.00     0.020 A 
ATOM     15  C   UNL A   1      35.745  32.337  28.538  1.00  0.00     0.027 A 
ATOM     16  C   UNL A   1      34.579  29.251  26.928  1.00  0.00     0.065 C 
ATOM     17  C   UNL A   1      33.774  31.582  27.756  1.00  0.00     0.031 A 
ATOM     18  C   UNL A   1      34.413  32.680  28.399  1.00  0.00    -0.003 A 
ATOM     19  C   UNL A   1      36.990  33.146  28.752  1.00  0.00     0.065 C 
BRANCH  18  20
ATOM     20  C   UNL A   1      33.776  33.934  28.626  1.00  0.00     0.029 C 
ATOM     21  C   UNL A   1      33.602  34.652  29.750  1.00  0.00     0.102 C 
ATOM     22  C   UNL A   1      32.931  35.965  29.578  1.00  0.00     0.262 C 
ATOM     23  C   UNL A   1      34.027  34.394  31.127  1.00  0.00     0.226 C 
ATOM     24  O   UNL A   1      32.284  36.287  28.589  1.00  0.00    -0.269 OA
ATOM     25  N   UNL A   1      33.119  36.823  30.626  1.00  0.00    -0.297 N 
ATOM     26  N   UNL A   1      34.139  35.256  32.069  1.00  0.00    -0.184 NA
ATOM     27  C   UNL A   1      33.772  36.547  31.803  1.00  0.00     0.203 C 
ATOM     28  H   UNL A   1      32.751  37.731  30.527  1.00  0.00     0.172 HD
ATOM     29  S   UNL A   1      34.010  37.811  32.876  1.00  0.00    -0.038 S 
BRANCH  23  30
ATOM     30  O   UNL A   1      34.261  33.125  31.462  1.00  0.00    -0.493 OA
ATOM     31  H   UNL A   1      33.580  32.487  31.384  1.00  0.00     0.295 HD
ENDBRANCH  23  30
ENDBRANCH  18  20
ENDBRANCH   9  13
ENDBRANCH   4   6
ENDBRANCH   3   4
ENDBRANCH   2   3
ENDBRANCH   1   2
BRANCH   1  32
ATOM     32  O   UNL A   1      39.389  29.701  34.771  1.00  0.00    -0.374 OA
BRANCH  32  33
ATOM     33  C   UNL A   1      39.455  30.917  35.482  1.00  0.00     0.202 C 
BRANCH  33  34
ATOM     34  C   UNL A   1      38.110  31.653  35.474  1.00  0.00     0.261 C 
BRANCH  34  35
ATOM     35  O   UNL A   1      38.169  32.741  34.522  1.00  0.00    -0.460 OA
BRANCH  35  36
ATOM     36  C   UNL A   1      38.962  33.803  34.848  1.00  0.00     0.338 C 
ATOM     37  O   UNL A   1      39.007  34.339  35.943  1.00  0.00    -0.246 OA
BRANCH  36  38
ATOM     38  C   UNL A   1      39.535  34.417  33.606  1.00  0.00     0.060 A 
ATOM     39  C   UNL A   1      38.886  34.259  32.361  1.00  0.00     0.016 A 
ATOM     40  C   UNL A   1      40.867  34.816  33.633  1.00  0.00     0.016 A 
ATOM     41  C   UNL A   1      39.612  34.349  31.153  1.00  0.00     0.010 A 
ATOM     42  C   UNL A   1      41.594  34.782  32.459  1.00  0.00     0.010 A 
ATOM     43  C   UNL A   1      40.994  34.526  31.209  1.00  0.00    -0.014 A 
BRANCH  43  44
ATOM     44  C   UNL A   1      41.960  34.327  30.114  1.00  0.00     0.031 A 
ATOM     45  C   UNL A   1      42.471  32.957  29.869  1.00  0.00     0.074 A 
ATOM     46  C   UNL A   1      42.124  35.238  29.117  1.00  0.00     0.049 A 
ATOM     47  N   UNL A   1      43.451  32.692  29.073  1.00  0.00    -0.248 NA
ATOM     48  C   UNL A   1      41.918  31.763  30.502  1.00  0.00     0.031 C 
ATOM     49  C   UNL A   1      42.423  34.952  27.707  1.00  0.00     0.029 A 
ATOM     50  N   UNL A   1      41.983  36.633  29.120  1.00  0.00    -0.354 N 
ATOM     51  C   UNL A   1      43.406  31.344  28.814  1.00  0.00     0.074 A 
ATOM     52  C   UNL A   1      42.504  30.794  29.797  1.00  0.00     0.031 C 
ATOM     53  C   UNL A   1      42.682  36.095  27.055  1.00  0.00     0.029 A 
ATOM     54  C   UNL A   1      42.726  37.155  28.040  1.00  0.00     0.049 A 
ATOM     55  H   UNL A   1      41.456  37.159  29.763  1.00  0.00     0.167 HD
ATOM     56  C   UNL A   1      44.006  30.854  27.693  1.00  0.00     0.037 A 
ATOM     57  C   UNL A   1      43.691  38.095  28.228  1.00  0.00     0.037 A 
ATOM     58  C   UNL A   1      44.549  31.932  26.854  1.00  0.00     0.049 A 
ATOM     59  C   UNL A   1      45.036  37.541  27.853  1.00  0.00     0.074 A 
ATOM     60  C   UNL A   1      44.153  32.519  25.663  1.00  0.00     0.029 A 
ATOM     61  N   UNL A   1      45.495  32.798  27.385  1.00  0.00    -0.354 N 
ATOM     62  N   UNL A   1      45.178  36.347  27.354  1.00  0.00    -0.248 NA
ATOM     63  C   UNL A   1      46.316  38.199  28.073  1.00  0.00     0.031 C 
ATOM     64  C   UNL A   1      44.933  33.696  25.455  1.00  0.00     0.029 A 
ATOM     65  C   UNL A   1      45.813  33.824  26.515  1.00  0.00     0.049 A 
ATOM     66  H   UNL A   1      45.893  32.693  28.279  1.00  0.00     0.167 HD
ATOM     67  C   UNL A   1      46.489  36.015  27.277  1.00  0.00     0.074 A 
ATOM     68  C   UNL A   1      47.174  37.214  27.742  1.00  0.00     0.031 C 
ATOM     69  C   UNL A   1      46.869  34.765  26.873  1.00  0.00     0.037 A 
BRANCH  56  70
ATOM     70  C   UNL A   1      43.855  29.416  27.245  1.00  0.00     0.064 A 
ATOM     71  C   UNL A   1      42.724  28.990  26.519  1.00  0.00     0.173 A 
ATOM     72  C   UNL A   1      44.801  28.402  27.502  1.00  0.00     0.173 A 
ATOM     73  F   UNL A   1      41.798  29.856  26.091  1.00  0.00    -0.203 F 
ATOM     74  C   UNL A   1      42.504  27.649  26.192  1.00  0.00     0.198 A 
ATOM     75  C   UNL A   1      44.551  27.052  27.234  1.00  0.00     0.198 A 
ATOM     76  F   UNL A   1      46.025  28.692  27.966  1.00  0.00    -0.203 F 
ATOM     77  F   UNL A   1      41.411  27.309  25.494  1.00  0.00    -0.200 F 
ATOM     78  C   UNL A   1      43.397  26.675  26.584  1.00  0.00     0.200 A 
ATOM     79  F   UNL A   1      45.445  26.122  27.603  1.00  0.00    -0.200 F 
ATOM     80  F   UNL A   1      43.163  25.385  26.306  1.00  0.00    -0.200 F 
ENDBRANCH  56  70
BRANCH  57  81
ATOM     81  C   UNL A   1      43.339  39.010  29.354  1.00  0.00     0.064 A 
ATOM     82  C   UNL A   1      43.864  38.675  30.622  1.00  0.00     0.173 A 
ATOM     83  C   UNL A   1      43.074  40.364  29.102  1.00  0.00     0.173 A 
ATOM     84  F   UNL A   1      44.146  37.395  30.915  1.00  0.00    -0.203 F 
ATOM     85  C   UNL A   1      44.279  39.663  31.516  1.00  0.00     0.198 A 
ATOM     86  C   UNL A   1      43.498  41.348  29.997  1.00  0.00     0.198 A 
ATOM     87  F   UNL A   1      42.579  40.741  27.914  1.00  0.00    -0.203 F 
ATOM     88  F   UNL A   1      44.946  39.322  32.628  1.00  0.00    -0.200 F 
ATOM     89  C   UNL A   1      44.139  40.999  31.178  1.00  0.00     0.200 A 
ATOM     90  F   UNL A   1      43.401  42.644  29.661  1.00  0.00    -0.200 F 
ATOM     91  F   UNL A   1      44.694  41.945  31.951  1.00  0.00    -0.200 F 
ENDBRANCH  57  81
BRANCH  69  92
ATOM     92  C   UNL A   1      48.300  34.323  26.829  1.00  0.00     0.064 A 
ATOM     93  C   UNL A   1      48.921  33.686  27.910  1.00  0.00     0.173 A 
ATOM     94  C   UNL A   1      49.118  34.570  25.704  1.00  0.00     0.173 A 
ATOM     95  F   UNL A   1      48.298  33.563  29.090  1.00  0.00    -0.203 F 
ATOM     96  C   UNL A   1      50.214  33.176  27.808  1.00  0.00     0.198 A 
ATOM     97  C   UNL A   1      50.430  34.120  25.631  1.00  0.00     0.198 A 
ATOM     98  F   UNL A   1      48.677  35.230  24.626  1.00  0.00    -0.203 F 
ATOM     99  F   UNL A   1      50.728  32.473  28.826  1.00  0.00    -0.200 F 
ATOM    100  C   UNL A   1      50.964  33.384  26.665  1.00  0.00     0.200 A 
ATOM    101  F   UNL A   1      51.160  34.385  24.539  1.00  0.00    -0.200 F 
ATOM    102  F   UNL A   1      52.200  32.881  26.563  1.00  0.00    -0.200 F 
ENDBRANCH  69  92
ENDBRANCH  43  44
ENDBRANCH  36  38
ENDBRANCH  35  36
ENDBRANCH  34  35
ENDBRANCH  33  34
ENDBRANCH  32  33
ENDBRANCH   1  32
TORSDOF 17
ENDMDL
