MODEL 1
REMARK VINA RESULT:     -11.7      0.000      0.000
REMARK SMILES COc1ccccc1-c1nnc(S[C@@H](C)C(=O)OCCOCCOC(=O)c2ccc(-c3c4nc(c(-c5c(F)c(F)c(F)c(F)c5F)c5ccc([nH]5)c(-c5c(F)c(F)c(F)c(F)c5F)c5nc(c(-c6c(F)c(F)c(F)c(F)c6F)c6ccc3[nH]6)C=C5)C=C4)cc2)n1-c1ccccc1
REMARK SMILES IDX 20 1 19 2 18 3 16 4 17 5 14 6 15 7 13 8 12 9 9 10 10 11
REMARK SMILES IDX 90 12 11 13 8 14 3 15 4 16 5 17 7 18 6 19 2 20 1 21 91 22
REMARK SMILES IDX 92 23 96 24 93 25 95 26 94 27 21 28 22 29 23 30 24 31 25 32
REMARK SMILES IDX 26 33 27 34 28 35 89 36 29 37 88 38 30 39 31 40 32 41 82 42
REMARK SMILES IDX 33 43 87 44 81 45 83 46 34 47 86 48 80 49 79 50 35 52 67 53
REMARK SMILES IDX 47 54 66 55 48 56 51 57 65 58 84 59 49 60 50 61 64 63 85 64
REMARK SMILES IDX 52 65 36 66 37 67 45 68 38 69 39 70 43 71 46 72 40 73 41 74
REMARK SMILES IDX 44 75 42 76 68 77 69 78 77 79 70 80 71 81 75 82 78 83 72 84
REMARK SMILES IDX 73 85 76 86 74 87 53 88 54 89 62 90 55 91 56 92 60 93 63 94
REMARK SMILES IDX 57 95 58 96 61 97 59 98
REMARK H PARENT 83 51 51 62
REMARK Flexibility Score: inf
ROOT
ATOM      1  C   UNL A   1      34.301  32.169  27.937  1.00  0.00     0.202 C 
ENDROOT
BRANCH   1   2
ATOM      2  C   UNL A   1      34.038  30.665  27.948  1.00  0.00     0.261 C 
BRANCH   2   3
ATOM      3  O   UNL A   1      34.449  30.022  26.723  1.00  0.00    -0.462 OA
BRANCH   3   4
ATOM      4  C   UNL A   1      33.730  28.919  26.365  1.00  0.00     0.319 C 
ATOM      5  O   UNL A   1      33.394  28.039  27.152  1.00  0.00    -0.251 OA
BRANCH   4   6
ATOM      6  C   UNL A   1      33.213  28.958  24.936  1.00  0.00     0.161 C 
ATOM      7  C   UNL A   1      31.743  29.343  24.779  1.00  0.00     0.032 C 
BRANCH   6   8
ATOM      8  S   UNL A   1      33.684  27.672  23.787  1.00  0.00    -0.071 SA
BRANCH   8   9
ATOM      9  C   UNL A   1      32.835  26.173  23.917  1.00  0.00     0.196 A 
ATOM     10  C   UNL A   1      32.091  24.110  23.773  1.00  0.00     0.173 A 
ATOM     11  N   UNL A   1      31.070  24.919  23.586  1.00  0.00    -0.129 NA
ATOM     12  N   UNL A   1      33.253  24.855  23.981  1.00  0.00    -0.270 N 
ATOM     13  N   UNL A   1      31.528  26.197  23.719  1.00  0.00    -0.122 NA
BRANCH  10  14
ATOM     14  C   UNL A   1      32.009  22.660  23.896  1.00  0.00     0.062 A 
ATOM     15  C   UNL A   1      32.009  22.025  25.151  1.00  0.00     0.129 A 
ATOM     16  C   UNL A   1      32.232  20.650  25.227  1.00  0.00     0.047 A 
ATOM     17  C   UNL A   1      32.387  19.896  24.063  1.00  0.00     0.004 A 
ATOM     18  C   UNL A   1      32.101  21.887  22.729  1.00  0.00     0.016 A 
ATOM     19  C   UNL A   1      32.299  20.508  22.814  1.00  0.00     0.001 A 
BRANCH  15  20
ATOM     20  O   UNL A   1      31.975  22.687  26.355  1.00  0.00    -0.496 OA
ATOM     21  C   UNL A   1      30.665  23.021  26.810  1.00  0.00     0.278 C 
ENDBRANCH  15  20
ENDBRANCH  10  14
BRANCH  12  22
ATOM     22  C   UNL A   1      34.520  24.289  24.240  1.00  0.00     0.050 A 
ATOM     23  C   UNL A   1      35.214  23.629  23.229  1.00  0.00     0.027 A 
ATOM     24  C   UNL A   1      35.117  24.480  25.493  1.00  0.00     0.027 A 
ATOM     25  C   UNL A   1      36.445  23.036  23.514  1.00  0.00     0.002 A 
ATOM     26  C   UNL A   1      36.348  23.889  25.772  1.00  0.00     0.002 A 
ATOM     27  C   UNL A   1      36.996  23.141  24.791  1.00  0.00     0.000 A 
ENDBRANCH  12  22
ENDBRANCH   8   9
ENDBRANCH   6   8
ENDBRANCH   4   6
ENDBRANCH   3   4
ENDBRANCH   2   3
ENDBRANCH   1   2
BRANCH   1  28
ATOM     28  O   UNL A   1      33.170  33.032  27.853  1.00  0.00    -0.374 OA
BRANCH  28  29
ATOM     29  C   UNL A   1      33.335  34.417  28.128  1.00  0.00     0.202 C 
BRANCH  29  30
ATOM     30  C   UNL A   1      33.998  34.801  29.445  1.00  0.00     0.261 C 
BRANCH  30  31
ATOM     31  O   UNL A   1      33.224  34.471  30.588  1.00  0.00    -0.460 OA
BRANCH  31  32
ATOM     32  C   UNL A   1      33.663  35.055  31.727  1.00  0.00     0.338 C 
ATOM     33  O   UNL A   1      33.393  36.173  32.132  1.00  0.00    -0.246 OA
BRANCH  32  34
ATOM     34  C   UNL A   1      34.703  34.217  32.330  1.00  0.00     0.060 A 
ATOM     35  C   UNL A   1      35.892  34.863  32.672  1.00  0.00     0.016 A 
ATOM     36  C   UNL A   1      34.623  32.827  32.207  1.00  0.00     0.016 A 
ATOM     37  C   UNL A   1      37.055  34.131  32.652  1.00  0.00     0.010 A 
ATOM     38  C   UNL A   1      35.782  32.092  32.193  1.00  0.00     0.010 A 
ATOM     39  C   UNL A   1      36.986  32.775  32.312  1.00  0.00    -0.014 A 
BRANCH  39  40
ATOM     40  C   UNL A   1      38.232  32.069  32.110  1.00  0.00     0.031 A 
ATOM     41  C   UNL A   1      39.009  31.924  33.351  1.00  0.00     0.074 A 
ATOM     42  C   UNL A   1      38.567  31.539  30.918  1.00  0.00     0.049 A 
ATOM     43  N   UNL A   1      40.160  32.441  33.621  1.00  0.00    -0.248 NA
ATOM     44  C   UNL A   1      38.364  31.252  34.489  1.00  0.00     0.031 C 
ATOM     45  C   UNL A   1      37.695  31.394  29.747  1.00  0.00     0.029 A 
ATOM     46  N   UNL A   1      39.716  30.915  30.530  1.00  0.00    -0.354 N 
ATOM     47  C   UNL A   1      40.484  31.963  34.885  1.00  0.00     0.074 A 
ATOM     48  C   UNL A   1      39.276  31.424  35.444  1.00  0.00     0.031 C 
ATOM     49  C   UNL A   1      38.262  30.532  28.877  1.00  0.00     0.029 A 
ATOM     50  C   UNL A   1      39.585  30.177  29.363  1.00  0.00     0.049 A 
ATOM     51  H   UNL A   1      40.561  30.981  31.032  1.00  0.00     0.167 HD
ATOM     52  C   UNL A   1      41.787  31.750  35.206  1.00  0.00     0.037 A 
ATOM     53  C   UNL A   1      40.474  29.287  28.862  1.00  0.00     0.037 A 
ATOM     54  C   UNL A   1      42.664  32.445  34.298  1.00  0.00     0.049 A 
ATOM     55  C   UNL A   1      41.800  29.565  29.460  1.00  0.00     0.074 A 
ATOM     56  C   UNL A   1      43.136  33.728  34.139  1.00  0.00     0.029 A 
ATOM     57  N   UNL A   1      42.905  31.773  33.132  1.00  0.00    -0.354 N 
ATOM     58  N   UNL A   1      42.501  30.633  29.198  1.00  0.00    -0.248 NA
ATOM     59  C   UNL A   1      42.237  28.805  30.628  1.00  0.00     0.031 C 
ATOM     60  C   UNL A   1      43.594  33.826  32.790  1.00  0.00     0.029 A 
ATOM     61  C   UNL A   1      43.396  32.601  32.160  1.00  0.00     0.049 A 
ATOM     62  H   UNL A   1      42.745  30.809  33.007  1.00  0.00     0.167 HD
ATOM     63  C   UNL A   1      43.161  30.902  30.379  1.00  0.00     0.074 A 
ATOM     64  C   UNL A   1      43.117  29.666  31.144  1.00  0.00     0.031 C 
ATOM     65  C   UNL A   1      43.373  32.188  30.778  1.00  0.00     0.037 A 
BRANCH  52  66
ATOM     66  C   UNL A   1      42.284  30.532  35.962  1.00  0.00     0.064 A 
ATOM     67  C   UNL A   1      43.300  30.717  36.923  1.00  0.00     0.173 A 
ATOM     68  C   UNL A   1      42.072  29.195  35.556  1.00  0.00     0.173 A 
ATOM     69  F   UNL A   1      43.588  31.942  37.386  1.00  0.00    -0.203 F 
ATOM     70  C   UNL A   1      44.104  29.661  37.362  1.00  0.00     0.198 A 
ATOM     71  C   UNL A   1      42.845  28.138  36.034  1.00  0.00     0.198 A 
ATOM     72  F   UNL A   1      41.195  28.859  34.606  1.00  0.00    -0.203 F 
ATOM     73  F   UNL A   1      45.140  29.908  38.175  1.00  0.00    -0.200 F 
ATOM     74  C   UNL A   1      43.883  28.375  36.908  1.00  0.00     0.200 A 
ATOM     75  F   UNL A   1      42.624  26.900  35.570  1.00  0.00    -0.200 F 
ATOM     76  F   UNL A   1      44.694  27.374  37.272  1.00  0.00    -0.200 F 
ENDBRANCH  52  66
BRANCH  53  77
ATOM     77  C   UNL A   1      40.209  28.076  28.055  1.00  0.00     0.064 A 
ATOM     78  C   UNL A   1      40.867  27.856  26.835  1.00  0.00     0.173 A 
ATOM     79  C   UNL A   1      39.502  26.983  28.593  1.00  0.00     0.173 A 
ATOM     80  F   UNL A   1      41.594  28.834  26.275  1.00  0.00    -0.203 F 
ATOM     81  C   UNL A   1      40.843  26.609  26.205  1.00  0.00     0.198 A 
ATOM     82  C   UNL A   1      39.470  25.742  27.959  1.00  0.00     0.198 A 
ATOM     83  F   UNL A   1      38.906  27.073  29.791  1.00  0.00    -0.203 F 
ATOM     84  F   UNL A   1      41.535  26.420  25.072  1.00  0.00    -0.200 F 
ATOM     85  C   UNL A   1      40.153  25.551  26.772  1.00  0.00     0.200 A 
ATOM     86  F   UNL A   1      38.825  24.717  28.534  1.00  0.00    -0.200 F 
ATOM     87  F   UNL A   1      40.180  24.340  26.200  1.00  0.00    -0.200 F 
ENDBRANCH  53  77
BRANCH  65  88
ATOM     88  C   UNL A   1      43.403  33.233  29.713  1.00  0.00     0.064 A 
ATOM     89  C   UNL A   1      44.493  33.454  28.856  1.00  0.00     0.173 A 
ATOM     90  C   UNL A   1      42.256  34.014  29.524  1.00  0.00     0.173 A 
ATOM     91  F   UNL A   1      45.593  32.692  28.931  1.00  0.00    -0.203 F 
ATOM     92  C   UNL A   1      44.448  34.450  27.881  1.00  0.00     0.198 A 
ATOM     93  C   UNL A   1      42.200  34.982  28.528  1.00  0.00     0.198 A 
ATOM     94  F   UNL A   1      41.174  33.816  30.293  1.00  0.00    -0.203 F 
ATOM     95  F   UNL A   1      45.508  34.664  27.089  1.00  0.00    -0.200 F 
ATOM     96  C   UNL A   1      43.299  35.209  27.715  1.00  0.00     0.200 A 
ATOM     97  F   UNL A   1      41.074  35.686  28.347  1.00  0.00    -0.200 F 
ATOM     98  F   UNL A   1      43.245  36.148  26.760  1.00  0.00    -0.200 F 
ENDBRANCH  65  88
ENDBRANCH  39  40
ENDBRANCH  32  34
ENDBRANCH  31  32
ENDBRANCH  30  31
ENDBRANCH  29  30
ENDBRANCH  28  29
ENDBRANCH   1  28
TORSDOF 19
ENDMDL
MODEL 2
REMARK VINA RESULT:     -11.4      2.994      4.409
REMARK SMILES COc1ccccc1-c1nnc(S[C@@H](C)C(=O)OCCOCCOC(=O)c2ccc(-c3c4nc(c(-c5c(F)c(F)c(F)c(F)c5F)c5ccc([nH]5)c(-c5c(F)c(F)c(F)c(F)c5F)c5nc(c(-c6c(F)c(F)c(F)c(F)c6F)c6ccc3[nH]6)C=C5)C=C4)cc2)n1-c1ccccc1
REMARK SMILES IDX 20 1 19 2 18 3 16 4 17 5 14 6 15 7 13 8 12 9 9 10 10 11
REMARK SMILES IDX 90 12 11 13 8 14 3 15 4 16 5 17 7 18 6 19 2 20 1 21 91 22
REMARK SMILES IDX 92 23 96 24 93 25 95 26 94 27 21 28 22 29 23 30 24 31 25 32
REMARK SMILES IDX 26 33 27 34 28 35 89 36 29 37 88 38 30 39 31 40 32 41 82 42
REMARK SMILES IDX 33 43 87 44 81 45 83 46 34 47 86 48 80 49 79 50 35 52 67 53
REMARK SMILES IDX 47 54 66 55 48 56 51 57 65 58 84 59 49 60 50 61 64 63 85 64
REMARK SMILES IDX 52 65 36 66 37 67 45 68 38 69 39 70 43 71 46 72 40 73 41 74
REMARK SMILES IDX 44 75 42 76 68 77 69 78 77 79 70 80 71 81 75 82 78 83 72 84
REMARK SMILES IDX 73 85 76 86 74 87 53 88 54 89 62 90 55 91 56 92 60 93 63 94
REMARK SMILES IDX 57 95 58 96 61 97 59 98
REMARK H PARENT 83 51 51 62
REMARK Flexibility Score: inf
ROOT
ATOM      1  C   UNL A   1      31.434  30.537  25.784  1.00  0.00     0.202 C 
ENDROOT
BRANCH   1   2
ATOM      2  C   UNL A   1      31.342  29.626  24.564  1.00  0.00     0.261 C 
BRANCH   2   3
ATOM      3  O   UNL A   1      30.865  28.305  24.893  1.00  0.00    -0.462 OA
BRANCH   3   4
ATOM      4  C   UNL A   1      30.218  27.643  23.890  1.00  0.00     0.319 C 
ATOM      5  O   UNL A   1      30.303  27.951  22.705  1.00  0.00    -0.251 OA
BRANCH   4   6
ATOM      6  C   UNL A   1      29.524  26.368  24.340  1.00  0.00     0.161 C 
ATOM      7  C   UNL A   1      28.028  26.292  24.038  1.00  0.00     0.032 C 
BRANCH   6   8
ATOM      8  S   UNL A   1      29.909  25.664  25.938  1.00  0.00    -0.071 SA
BRANCH   8   9
ATOM      9  C   UNL A   1      31.442  24.879  26.085  1.00  0.00     0.196 A 
ATOM     10  C   UNL A   1      33.310  23.755  25.815  1.00  0.00     0.173 A 
ATOM     11  N   UNL A   1      32.744  23.331  26.924  1.00  0.00    -0.129 NA
ATOM     12  N   UNL A   1      32.518  24.741  25.226  1.00  0.00    -0.270 N 
ATOM     13  N   UNL A   1      31.607  24.061  27.111  1.00  0.00    -0.122 NA
BRANCH  10  14
ATOM     14  C   UNL A   1      34.634  23.370  25.340  1.00  0.00     0.062 A 
ATOM     15  C   UNL A   1      34.842  22.176  24.626  1.00  0.00     0.129 A 
ATOM     16  C   UNL A   1      36.140  21.695  24.453  1.00  0.00     0.047 A 
ATOM     17  C   UNL A   1      37.231  22.426  24.924  1.00  0.00     0.004 A 
ATOM     18  C   UNL A   1      35.737  24.131  25.754  1.00  0.00     0.016 A 
ATOM     19  C   UNL A   1      37.033  23.654  25.554  1.00  0.00     0.001 A 
BRANCH  15  20
ATOM     20  O   UNL A   1      33.838  21.331  24.219  1.00  0.00    -0.496 OA
ATOM     21  C   UNL A   1      33.863  20.042  24.832  1.00  0.00     0.278 C 
ENDBRANCH  15  20
ENDBRANCH  10  14
BRANCH  12  22
ATOM     22  C   UNL A   1      32.855  25.423  24.037  1.00  0.00     0.050 A 
ATOM     23  C   UNL A   1      33.613  26.591  24.088  1.00  0.00     0.027 A 
ATOM     24  C   UNL A   1      32.506  24.866  22.799  1.00  0.00     0.027 A 
ATOM     25  C   UNL A   1      33.899  27.278  22.908  1.00  0.00     0.002 A 
ATOM     26  C   UNL A   1      32.797  25.555  21.623  1.00  0.00     0.002 A 
ATOM     27  C   UNL A   1      33.466  26.775  21.681  1.00  0.00     0.000 A 
ENDBRANCH  12  22
ENDBRANCH   8   9
ENDBRANCH   6   8
ENDBRANCH   4   6
ENDBRANCH   3   4
ENDBRANCH   2   3
ENDBRANCH   1   2
BRANCH   1  28
ATOM     28  O   UNL A   1      32.380  30.191  26.792  1.00  0.00    -0.374 OA
BRANCH  28  29
ATOM     29  C   UNL A   1      33.686  29.786  26.404  1.00  0.00     0.202 C 
BRANCH  29  30
ATOM     30  C   UNL A   1      34.681  29.458  27.511  1.00  0.00     0.261 C 
BRANCH  30  31
ATOM     31  O   UNL A   1      35.693  30.438  27.674  1.00  0.00    -0.460 OA
BRANCH  31  32
ATOM     32  C   UNL A   1      35.625  31.098  28.854  1.00  0.00     0.338 C 
ATOM     33  O   UNL A   1      34.900  32.038  29.131  1.00  0.00    -0.246 OA
BRANCH  32  34
ATOM     34  C   UNL A   1      36.719  30.652  29.721  1.00  0.00     0.060 A 
ATOM     35  C   UNL A   1      37.919  31.356  29.609  1.00  0.00     0.016 A 
ATOM     36  C   UNL A   1      36.653  29.388  30.316  1.00  0.00     0.016 A 
ATOM     37  C   UNL A   1      39.089  30.687  29.877  1.00  0.00     0.010 A 
ATOM     38  C   UNL A   1      37.820  28.721  30.591  1.00  0.00     0.010 A 
ATOM     39  C   UNL A   1      39.019  29.345  30.267  1.00  0.00    -0.014 A 
BRANCH  39  40
ATOM     40  C   UNL A   1      40.258  28.606  30.358  1.00  0.00     0.031 A 
ATOM     41  C   UNL A   1      40.790  28.558  31.730  1.00  0.00     0.074 A 
ATOM     42  C   UNL A   1      40.789  27.970  29.298  1.00  0.00     0.049 A 
ATOM     43  N   UNL A   1      41.887  29.080  32.165  1.00  0.00    -0.248 NA
ATOM     44  C   UNL A   1      39.926  27.997  32.780  1.00  0.00     0.031 C 
ATOM     45  C   UNL A   1      40.143  27.736  28.002  1.00  0.00     0.029 A 
ATOM     46  N   UNL A   1      41.971  27.297  29.182  1.00  0.00    -0.354 N 
ATOM     47  C   UNL A   1      41.959  28.709  33.502  1.00  0.00     0.074 A 
ATOM     48  C   UNL A   1      40.652  28.239  33.871  1.00  0.00     0.031 C 
ATOM     49  C   UNL A   1      40.833  26.793  27.326  1.00  0.00     0.029 A 
ATOM     50  C   UNL A   1      42.033  26.462  28.076  1.00  0.00     0.049 A 
ATOM     51  H   UNL A   1      42.711  27.394  29.825  1.00  0.00     0.167 HD
ATOM     52  C   UNL A   1      43.174  28.505  34.076  1.00  0.00     0.037 A 
ATOM     53  C   UNL A   1      42.971  25.519  27.824  1.00  0.00     0.037 A 
ATOM     54  C   UNL A   1      44.223  29.106  33.291  1.00  0.00     0.049 A 
ATOM     55  C   UNL A   1      44.173  25.828  28.633  1.00  0.00     0.074 A 
ATOM     56  C   UNL A   1      44.756  30.363  33.116  1.00  0.00     0.029 A 
ATOM     57  N   UNL A   1      44.653  28.331  32.249  1.00  0.00    -0.354 N 
ATOM     58  N   UNL A   1      44.942  26.859  28.417  1.00  0.00    -0.248 NA
ATOM     59  C   UNL A   1      44.365  25.166  29.920  1.00  0.00     0.031 C 
ATOM     60  C   UNL A   1      45.455  30.336  31.873  1.00  0.00     0.029 A 
ATOM     61  C   UNL A   1      45.339  29.065  31.321  1.00  0.00     0.049 A 
ATOM     62  H   UNL A   1      44.489  27.363  32.177  1.00  0.00     0.167 HD
ATOM     63  C   UNL A   1      45.383  27.220  29.674  1.00  0.00     0.074 A 
ATOM     64  C   UNL A   1      45.161  26.057  30.517  1.00  0.00     0.031 C 
ATOM     65  C   UNL A   1      45.558  28.532  29.997  1.00  0.00     0.037 A 
BRANCH  52  66
ATOM     66  C   UNL A   1      43.486  27.351  35.008  1.00  0.00     0.064 A 
ATOM     67  C   UNL A   1      43.893  27.653  36.325  1.00  0.00     0.173 A 
ATOM     68  C   UNL A   1      43.738  26.025  34.588  1.00  0.00     0.173 A 
ATOM     69  F   UNL A   1      43.702  28.879  36.835  1.00  0.00    -0.203 F 
ATOM     70  C   UNL A   1      44.587  26.732  37.115  1.00  0.00     0.198 A 
ATOM     71  C   UNL A   1      44.387  25.095  35.397  1.00  0.00     0.198 A 
ATOM     72  F   UNL A   1      43.475  25.598  33.350  1.00  0.00    -0.203 F 
ATOM     73  F   UNL A   1      45.068  27.109  38.307  1.00  0.00    -0.200 F 
ATOM     74  C   UNL A   1      44.844  25.458  36.645  1.00  0.00     0.200 A 
ATOM     75  F   UNL A   1      44.639  23.869  34.918  1.00  0.00    -0.200 F 
ATOM     76  F   UNL A   1      45.568  24.596  37.370  1.00  0.00    -0.200 F 
ENDBRANCH  52  66
BRANCH  53  77
ATOM     77  C   UNL A   1      42.822  24.246  27.086  1.00  0.00     0.064 A 
ATOM     78  C   UNL A   1      43.311  24.102  25.777  1.00  0.00     0.173 A 
ATOM     79  C   UNL A   1      42.432  23.064  27.744  1.00  0.00     0.173 A 
ATOM     80  F   UNL A   1      43.738  25.175  25.096  1.00  0.00    -0.203 F 
ATOM     81  C   UNL A   1      43.429  22.847  25.175  1.00  0.00     0.198 A 
ATOM     82  C   UNL A   1      42.541  21.812  27.139  1.00  0.00     0.198 A 
ATOM     83  F   UNL A   1      42.025  23.092  29.022  1.00  0.00    -0.203 F 
ATOM     84  F   UNL A   1      43.958  22.743  23.948  1.00  0.00    -0.200 F 
ATOM     85  C   UNL A   1      43.054  21.703  25.859  1.00  0.00     0.200 A 
ATOM     86  F   UNL A   1      42.204  20.710  27.823  1.00  0.00    -0.200 F 
ATOM     87  F   UNL A   1      43.223  20.495  25.305  1.00  0.00    -0.200 F 
ENDBRANCH  53  77
BRANCH  65  88
ATOM     88  C   UNL A   1      45.814  29.481  28.873  1.00  0.00     0.064 A 
ATOM     89  C   UNL A   1      47.083  29.728  28.325  1.00  0.00     0.173 A 
ATOM     90  C   UNL A   1      44.716  30.131  28.296  1.00  0.00     0.173 A 
ATOM     91  F   UNL A   1      48.166  29.084  28.779  1.00  0.00    -0.203 F 
ATOM     92  C   UNL A   1      47.246  30.628  27.273  1.00  0.00     0.198 A 
ATOM     93  C   UNL A   1      44.876  31.000  27.224  1.00  0.00     0.198 A 
ATOM     94  F   UNL A   1      43.478  29.898  28.759  1.00  0.00    -0.203 F 
ATOM     95  F   UNL A   1      48.468  30.872  26.780  1.00  0.00    -0.200 F 
ATOM     96  C   UNL A   1      46.141  31.259  26.720  1.00  0.00     0.200 A 
ATOM     97  F   UNL A   1      43.801  31.576  26.667  1.00  0.00    -0.200 F 
ATOM     98  F   UNL A   1      46.294  32.103  25.690  1.00  0.00    -0.200 F 
ENDBRANCH  65  88
ENDBRANCH  39  40
ENDBRANCH  32  34
ENDBRANCH  31  32
ENDBRANCH  30  31
ENDBRANCH  29  30
ENDBRANCH  28  29
ENDBRANCH   1  28
TORSDOF 19
ENDMDL
MODEL 3
REMARK VINA RESULT:     -11.1      2.843      4.069
REMARK SMILES COc1ccccc1-c1nnc(S[C@@H](C)C(=O)OCCOCCOC(=O)c2ccc(-c3c4nc(c(-c5c(F)c(F)c(F)c(F)c5F)c5ccc([nH]5)c(-c5c(F)c(F)c(F)c(F)c5F)c5nc(c(-c6c(F)c(F)c(F)c(F)c6F)c6ccc3[nH]6)C=C5)C=C4)cc2)n1-c1ccccc1
REMARK SMILES IDX 20 1 19 2 18 3 16 4 17 5 14 6 15 7 13 8 12 9 9 10 10 11
REMARK SMILES IDX 90 12 11 13 8 14 3 15 4 16 5 17 7 18 6 19 2 20 1 21 91 22
REMARK SMILES IDX 92 23 96 24 93 25 95 26 94 27 21 28 22 29 23 30 24 31 25 32
REMARK SMILES IDX 26 33 27 34 28 35 89 36 29 37 88 38 30 39 31 40 32 41 82 42
REMARK SMILES IDX 33 43 87 44 81 45 83 46 34 47 86 48 80 49 79 50 35 52 67 53
REMARK SMILES IDX 47 54 66 55 48 56 51 57 65 58 84 59 49 60 50 61 64 63 85 64
REMARK SMILES IDX 52 65 36 66 37 67 45 68 38 69 39 70 43 71 46 72 40 73 41 74
REMARK SMILES IDX 44 75 42 76 68 77 69 78 77 79 70 80 71 81 75 82 78 83 72 84
REMARK SMILES IDX 73 85 76 86 74 87 53 88 54 89 62 90 55 91 56 92 60 93 63 94
REMARK SMILES IDX 57 95 58 96 61 97 59 98
REMARK H PARENT 83 51 51 62
REMARK Flexibility Score: inf
ROOT
ATOM      1  C   UNL A   1      31.833  32.435  26.975  1.00  0.00     0.202 C 
ENDROOT
BRANCH   1   2
ATOM      2  C   UNL A   1      31.400  31.288  26.067  1.00  0.00     0.261 C 
BRANCH   2   3
ATOM      3  O   UNL A   1      31.760  29.995  26.597  1.00  0.00    -0.462 OA
BRANCH   3   4
ATOM      4  C   UNL A   1      31.815  28.978  25.688  1.00  0.00     0.319 C 
ATOM      5  O   UNL A   1      31.014  28.842  24.769  1.00  0.00    -0.251 OA
BRANCH   4   6
ATOM      6  C   UNL A   1      33.067  28.123  25.795  1.00  0.00     0.161 C 
ATOM      7  C   UNL A   1      34.291  28.821  26.386  1.00  0.00     0.032 C 
BRANCH   6   8
ATOM      8  S   UNL A   1      33.515  27.034  24.451  1.00  0.00    -0.071 SA
BRANCH   8   9
ATOM      9  C   UNL A   1      32.786  25.467  24.452  1.00  0.00     0.196 A 
ATOM     10  C   UNL A   1      32.184  23.381  24.111  1.00  0.00     0.173 A 
ATOM     11  N   UNL A   1      31.099  24.123  24.075  1.00  0.00    -0.129 NA
ATOM     12  N   UNL A   1      33.301  24.187  24.339  1.00  0.00    -0.270 N 
ATOM     13  N   UNL A   1      31.471  25.410  24.330  1.00  0.00    -0.122 NA
BRANCH  10  14
ATOM     14  C   UNL A   1      32.215  21.924  24.068  1.00  0.00     0.062 A 
ATOM     15  C   UNL A   1      32.474  21.159  25.220  1.00  0.00     0.129 A 
ATOM     16  C   UNL A   1      32.792  19.807  25.091  1.00  0.00     0.047 A 
ATOM     17  C   UNL A   1      32.788  19.198  23.834  1.00  0.00     0.004 A 
ATOM     18  C   UNL A   1      32.150  21.293  22.817  1.00  0.00     0.016 A 
ATOM     19  C   UNL A   1      32.445  19.934  22.700  1.00  0.00     0.001 A 
BRANCH  15  20
ATOM     20  O   UNL A   1      32.609  21.681  26.484  1.00  0.00    -0.496 OA
ATOM     21  C   UNL A   1      33.657  21.096  27.257  1.00  0.00     0.278 C 
ENDBRANCH  15  20
ENDBRANCH  10  14
BRANCH  12  22
ATOM     22  C   UNL A   1      34.619  23.698  24.461  1.00  0.00     0.050 A 
ATOM     23  C   UNL A   1      35.277  23.750  25.688  1.00  0.00     0.027 A 
ATOM     24  C   UNL A   1      35.227  23.072  23.364  1.00  0.00     0.027 A 
ATOM     25  C   UNL A   1      36.596  23.304  25.781  1.00  0.00     0.002 A 
ATOM     26  C   UNL A   1      36.544  22.625  23.463  1.00  0.00     0.002 A 
ATOM     27  C   UNL A   1      37.236  22.770  24.662  1.00  0.00     0.000 A 
ENDBRANCH  12  22
ENDBRANCH   8   9
ENDBRANCH   6   8
ENDBRANCH   4   6
ENDBRANCH   3   4
ENDBRANCH   2   3
ENDBRANCH   1   2
BRANCH   1  28
ATOM     28  O   UNL A   1      33.165  32.405  27.481  1.00  0.00    -0.374 OA
BRANCH  28  29
ATOM     29  C   UNL A   1      33.678  33.550  28.149  1.00  0.00     0.202 C 
BRANCH  29  30
ATOM     30  C   UNL A   1      34.657  33.319  29.293  1.00  0.00     0.261 C 
BRANCH  30  31
ATOM     31  O   UNL A   1      34.822  31.952  29.634  1.00  0.00    -0.460 OA
BRANCH  31  32
ATOM     32  C   UNL A   1      35.820  31.729  30.520  1.00  0.00     0.338 C 
ATOM     33  O   UNL A   1      35.963  32.248  31.614  1.00  0.00    -0.246 OA
BRANCH  32  34
ATOM     34  C   UNL A   1      36.854  30.906  29.886  1.00  0.00     0.060 A 
ATOM     35  C   UNL A   1      36.647  29.527  29.917  1.00  0.00     0.016 A 
ATOM     36  C   UNL A   1      38.110  31.463  29.624  1.00  0.00     0.016 A 
ATOM     37  C   UNL A   1      37.751  28.707  29.924  1.00  0.00     0.010 A 
ATOM     38  C   UNL A   1      39.212  30.646  29.623  1.00  0.00     0.010 A 
ATOM     39  C   UNL A   1      39.021  29.294  29.878  1.00  0.00    -0.014 A 
BRANCH  39  40
ATOM     40  C   UNL A   1      40.166  28.434  30.078  1.00  0.00     0.031 A 
ATOM     41  C   UNL A   1      40.597  28.381  31.484  1.00  0.00     0.074 A 
ATOM     42  C   UNL A   1      40.696  27.707  29.076  1.00  0.00     0.049 A 
ATOM     43  N   UNL A   1      41.711  28.801  31.980  1.00  0.00    -0.248 NA
ATOM     44  C   UNL A   1      39.610  27.951  32.487  1.00  0.00     0.031 C 
ATOM     45  C   UNL A   1      40.116  27.495  27.745  1.00  0.00     0.029 A 
ATOM     46  N   UNL A   1      41.804  26.911  29.063  1.00  0.00    -0.354 N 
ATOM     47  C   UNL A   1      41.655  28.473  33.329  1.00  0.00     0.074 A 
ATOM     48  C   UNL A   1      40.283  28.155  33.618  1.00  0.00     0.031 C 
ATOM     49  C   UNL A   1      40.746  26.462  27.147  1.00  0.00     0.029 A 
ATOM     50  C   UNL A   1      41.851  26.035  27.990  1.00  0.00     0.049 A 
ATOM     51  H   UNL A   1      42.506  26.955  29.753  1.00  0.00     0.167 HD
ATOM     52  C   UNL A   1      42.800  28.165  33.992  1.00  0.00     0.037 A 
ATOM     53  C   UNL A   1      42.698  24.991  27.831  1.00  0.00     0.037 A 
ATOM     54  C   UNL A   1      43.957  28.625  33.266  1.00  0.00     0.049 A 
ATOM     55  C   UNL A   1      43.869  25.203  28.713  1.00  0.00     0.074 A 
ATOM     56  C   UNL A   1      44.631  29.812  33.092  1.00  0.00     0.029 A 
ATOM     57  N   UNL A   1      44.371  27.772  32.280  1.00  0.00    -0.354 N 
ATOM     58  N   UNL A   1      44.756  26.139  28.522  1.00  0.00    -0.248 NA
ATOM     59  C   UNL A   1      43.903  24.572  30.030  1.00  0.00     0.031 C 
ATOM     60  C   UNL A   1      45.405  29.668  31.902  1.00  0.00     0.029 A 
ATOM     61  C   UNL A   1      45.191  28.396  31.381  1.00  0.00     0.049 A 
ATOM     62  H   UNL A   1      44.110  26.824  32.225  1.00  0.00     0.167 HD
ATOM     63  C   UNL A   1      45.148  26.498  29.796  1.00  0.00     0.074 A 
ATOM     64  C   UNL A   1      44.748  25.395  30.655  1.00  0.00     0.031 C 
ATOM     65  C   UNL A   1      45.440  27.796  30.091  1.00  0.00     0.037 A 
BRANCH  52  66
ATOM     66  C   UNL A   1      42.925  27.019  34.978  1.00  0.00     0.064 A 
ATOM     67  C   UNL A   1      43.152  27.332  36.334  1.00  0.00     0.173 A 
ATOM     68  C   UNL A   1      43.175  25.676  34.618  1.00  0.00     0.173 A 
ATOM     69  F   UNL A   1      42.945  28.576  36.793  1.00  0.00    -0.203 F 
ATOM     70  C   UNL A   1      43.686  26.401  37.229  1.00  0.00     0.198 A 
ATOM     71  C   UNL A   1      43.661  24.738  35.527  1.00  0.00     0.198 A 
ATOM     72  F   UNL A   1      43.073  25.233  33.361  1.00  0.00    -0.203 F 
ATOM     73  F   UNL A   1      44.008  26.783  38.472  1.00  0.00    -0.200 F 
ATOM     74  C   UNL A   1      43.951  25.108  36.821  1.00  0.00     0.200 A 
ATOM     75  F   UNL A   1      43.924  23.491  35.107  1.00  0.00    -0.200 F 
ATOM     76  F   UNL A   1      44.525  24.232  37.656  1.00  0.00    -0.200 F 
ENDBRANCH  52  66
BRANCH  53  77
ATOM     77  C   UNL A   1      42.464  23.714  27.122  1.00  0.00     0.064 A 
ATOM     78  C   UNL A   1      43.276  23.320  26.046  1.00  0.00     0.173 A 
ATOM     79  C   UNL A   1      41.605  22.733  27.653  1.00  0.00     0.173 A 
ATOM     80  F   UNL A   1      44.149  24.185  25.509  1.00  0.00    -0.203 F 
ATOM     81  C   UNL A   1      43.250  22.014  25.551  1.00  0.00     0.198 A 
ATOM     82  C   UNL A   1      41.572  21.432  27.152  1.00  0.00     0.198 A 
ATOM     83  F   UNL A   1      40.848  22.993  28.729  1.00  0.00    -0.203 F 
ATOM     84  F   UNL A   1      44.084  21.657  24.564  1.00  0.00    -0.200 F 
ATOM     85  C   UNL A   1      42.406  21.069  26.110  1.00  0.00     0.200 A 
ATOM     86  F   UNL A   1      40.775  20.519  27.723  1.00  0.00    -0.200 F 
ATOM     87  F   UNL A   1      42.425  19.801  25.676  1.00  0.00    -0.200 F 
ENDBRANCH  53  77
BRANCH  65  88
ATOM     88  C   UNL A   1      45.870  28.671  28.961  1.00  0.00     0.064 A 
ATOM     89  C   UNL A   1      47.177  28.713  28.451  1.00  0.00     0.173 A 
ATOM     90  C   UNL A   1      44.900  29.466  28.338  1.00  0.00     0.173 A 
ATOM     91  F   UNL A   1      48.136  27.922  28.951  1.00  0.00    -0.203 F 
ATOM     92  C   UNL A   1      47.505  29.556  27.390  1.00  0.00     0.198 A 
ATOM     93  C   UNL A   1      45.222  30.279  27.257  1.00  0.00     0.198 A 
ATOM     94  F   UNL A   1      43.628  29.432  28.764  1.00  0.00    -0.203 F 
ATOM     95  F   UNL A   1      48.765  29.603  26.934  1.00  0.00    -0.200 F 
ATOM     96  C   UNL A   1      46.526  30.333  26.791  1.00  0.00     0.200 A 
ATOM     97  F   UNL A   1      44.263  30.998  26.657  1.00  0.00    -0.200 F 
ATOM     98  F   UNL A   1      46.835  31.123  25.753  1.00  0.00    -0.200 F 
ENDBRANCH  65  88
ENDBRANCH  39  40
ENDBRANCH  32  34
ENDBRANCH  31  32
ENDBRANCH  30  31
ENDBRANCH  29  30
ENDBRANCH  28  29
ENDBRANCH   1  28
TORSDOF 19
ENDMDL
