MODEL 1
REMARK VINA RESULT:     -11.4      0.000      0.000
REMARK SMILES O=C(OCCOCCOC(=O)[C@H](Cc1ccccn1)c1ccc(F)cc1)c1ccc(-c2c3nc(c(-c4c(F)c(F)c(F)c(F)c4F)c4ccc([nH]4)c(-c4c(F)c(F)c(F)c(F)c4F)c4nc(c(-c5c(F)c(F)c(F)c(F)c5F)c5ccc2[nH]5)C=C4)C=C3)cc1
REMARK SMILES IDX 6 1 5 2 4 3 3 4 2 5 1 6 27 7 28 8 89 9 29 10 88 11 30 12
REMARK SMILES IDX 31 13 32 14 82 15 33 16 87 17 81 18 83 19 34 20 86 21 80 22
REMARK SMILES IDX 79 23 35 25 67 26 47 27 66 28 48 29 51 30 65 31 84 32 49 33
REMARK SMILES IDX 50 34 64 36 85 37 52 38 36 39 37 40 45 41 38 42 39 43 43 44
REMARK SMILES IDX 46 45 40 46 41 47 44 48 42 49 68 50 69 51 77 52 70 53 71 54
REMARK SMILES IDX 75 55 78 56 72 57 73 58 76 59 74 60 53 61 54 62 62 63 55 64
REMARK SMILES IDX 56 65 60 66 63 67 57 68 58 69 61 70 59 71 7 72 8 73 9 74
REMARK SMILES IDX 10 75 11 76 12 77 20 78 21 79 26 80 22 81 25 82 23 83 24 84
REMARK SMILES IDX 13 85 14 86 15 87 19 88 16 89 18 90 17 91
REMARK H PARENT 83 24 51 35
REMARK Flexibility Score: inf
ROOT
ATOM      1  O   UNL A   1      31.954  27.891  25.402  1.00  0.00    -0.374 OA
ENDROOT
BRANCH   1   2
ATOM      2  C   UNL A   1      31.239  28.951  24.773  1.00  0.00     0.202 C 
BRANCH   2   3
ATOM      3  C   UNL A   1      31.459  30.288  25.480  1.00  0.00     0.261 C 
BRANCH   3   4
ATOM      4  O   UNL A   1      32.847  30.470  25.790  1.00  0.00    -0.460 OA
BRANCH   4   5
ATOM      5  C   UNL A   1      33.324  31.214  26.822  1.00  0.00     0.338 C 
ATOM      6  O   UNL A   1      32.667  32.157  27.247  1.00  0.00    -0.246 OA
BRANCH   5   7
ATOM      7  C   UNL A   1      34.543  30.802  27.578  1.00  0.00     0.060 A 
ATOM      8  C   UNL A   1      34.876  29.484  27.901  1.00  0.00     0.016 A 
ATOM      9  C   UNL A   1      35.447  31.821  27.915  1.00  0.00     0.016 A 
ATOM     10  C   UNL A   1      36.023  29.187  28.617  1.00  0.00     0.010 A 
ATOM     11  C   UNL A   1      36.632  31.525  28.593  1.00  0.00     0.010 A 
ATOM     12  C   UNL A   1      36.907  30.205  28.965  1.00  0.00    -0.014 A 
BRANCH  12  13
ATOM     13  C   UNL A   1      38.053  29.848  29.816  1.00  0.00     0.031 A 
ATOM     14  C   UNL A   1      39.149  29.024  29.220  1.00  0.00     0.074 A 
ATOM     15  C   UNL A   1      38.164  30.400  31.038  1.00  0.00     0.049 A 
ATOM     16  N   UNL A   1      40.237  28.566  29.775  1.00  0.00    -0.248 NA
ATOM     17  C   UNL A   1      39.008  28.682  27.794  1.00  0.00     0.031 C 
ATOM     18  C   UNL A   1      37.198  31.330  31.628  1.00  0.00     0.029 A 
ATOM     19  N   UNL A   1      39.152  30.302  31.979  1.00  0.00    -0.354 N 
ATOM     20  C   UNL A   1      40.893  27.858  28.779  1.00  0.00     0.074 A 
ATOM     21  C   UNL A   1      40.085  27.942  27.584  1.00  0.00     0.031 C 
ATOM     22  C   UNL A   1      37.664  31.751  32.813  1.00  0.00     0.029 A 
ATOM     23  C   UNL A   1      38.917  31.063  33.099  1.00  0.00     0.049 A 
ATOM     24  H   UNL A   1      39.952  29.740  31.867  1.00  0.00     0.167 HD
ATOM     25  C   UNL A   1      42.066  27.191  28.872  1.00  0.00     0.037 A 
ATOM     26  C   UNL A   1      39.631  31.162  34.235  1.00  0.00     0.037 A 
ATOM     27  C   UNL A   1      42.841  27.135  30.080  1.00  0.00     0.049 A 
ATOM     28  C   UNL A   1      40.889  30.345  34.344  1.00  0.00     0.074 A 
ATOM     29  C   UNL A   1      43.989  26.415  30.345  1.00  0.00     0.029 A 
ATOM     30  N   UNL A   1      42.534  27.848  31.235  1.00  0.00    -0.354 N 
ATOM     31  N   UNL A   1      41.450  29.573  33.442  1.00  0.00    -0.248 NA
ATOM     32  C   UNL A   1      41.599  30.386  35.627  1.00  0.00     0.031 C 
ATOM     33  C   UNL A   1      44.359  26.666  31.671  1.00  0.00     0.029 A 
ATOM     34  C   UNL A   1      43.470  27.582  32.218  1.00  0.00     0.049 A 
ATOM     35  H   UNL A   1      41.764  28.454  31.337  1.00  0.00     0.167 HD
ATOM     36  C   UNL A   1      42.582  29.042  34.041  1.00  0.00     0.074 A 
ATOM     37  C   UNL A   1      42.638  29.598  35.379  1.00  0.00     0.031 C 
ATOM     38  C   UNL A   1      43.487  28.167  33.537  1.00  0.00     0.037 A 
BRANCH  25  39
ATOM     39  C   UNL A   1      42.516  26.428  27.663  1.00  0.00     0.064 A 
ATOM     40  C   UNL A   1      43.458  26.988  26.785  1.00  0.00     0.173 A 
ATOM     41  C   UNL A   1      42.054  25.133  27.386  1.00  0.00     0.173 A 
ATOM     42  F   UNL A   1      43.941  28.220  27.009  1.00  0.00    -0.203 F 
ATOM     43  C   UNL A   1      43.919  26.280  25.679  1.00  0.00     0.198 A 
ATOM     44  C   UNL A   1      42.538  24.417  26.293  1.00  0.00     0.198 A 
ATOM     45  F   UNL A   1      41.179  24.538  28.211  1.00  0.00    -0.203 F 
ATOM     46  F   UNL A   1      44.816  26.839  24.855  1.00  0.00    -0.200 F 
ATOM     47  C   UNL A   1      43.468  24.992  25.439  1.00  0.00     0.200 A 
ATOM     48  F   UNL A   1      42.128  23.158  26.083  1.00  0.00    -0.200 F 
ATOM     49  F   UNL A   1      43.939  24.299  24.393  1.00  0.00    -0.200 F 
ENDBRANCH  25  39
BRANCH  26  50
ATOM     50  C   UNL A   1      39.150  32.033  35.340  1.00  0.00     0.064 A 
ATOM     51  C   UNL A   1      39.488  33.395  35.392  1.00  0.00     0.173 A 
ATOM     52  C   UNL A   1      38.381  31.519  36.392  1.00  0.00     0.173 A 
ATOM     53  F   UNL A   1      40.220  33.943  34.409  1.00  0.00    -0.203 F 
ATOM     54  C   UNL A   1      39.107  34.197  36.465  1.00  0.00     0.198 A 
ATOM     55  C   UNL A   1      37.973  32.330  37.451  1.00  0.00     0.198 A 
ATOM     56  F   UNL A   1      38.009  30.230  36.382  1.00  0.00    -0.203 F 
ATOM     57  F   UNL A   1      39.484  35.483  36.506  1.00  0.00    -0.200 F 
ATOM     58  C   UNL A   1      38.346  33.664  37.493  1.00  0.00     0.200 A 
ATOM     59  F   UNL A   1      37.216  31.817  38.432  1.00  0.00    -0.200 F 
ATOM     60  F   UNL A   1      37.970  34.438  38.521  1.00  0.00    -0.200 F 
ENDBRANCH  26  50
BRANCH  38  61
ATOM     61  C   UNL A   1      44.624  27.776  34.429  1.00  0.00     0.064 A 
ATOM     62  C   UNL A   1      45.818  28.514  34.415  1.00  0.00     0.173 A 
ATOM     63  C   UNL A   1      44.564  26.625  35.226  1.00  0.00     0.173 A 
ATOM     64  F   UNL A   1      45.922  29.616  33.658  1.00  0.00    -0.203 F 
ATOM     65  C   UNL A   1      46.918  28.100  35.156  1.00  0.00     0.198 A 
ATOM     66  C   UNL A   1      45.659  26.230  35.988  1.00  0.00     0.198 A 
ATOM     67  F   UNL A   1      43.438  25.897  35.279  1.00  0.00    -0.203 F 
ATOM     68  F   UNL A   1      48.062  28.797  35.099  1.00  0.00    -0.200 F 
ATOM     69  C   UNL A   1      46.838  26.961  35.944  1.00  0.00     0.200 A 
ATOM     70  F   UNL A   1      45.574  25.142  36.765  1.00  0.00    -0.200 F 
ATOM     71  F   UNL A   1      47.898  26.566  36.662  1.00  0.00    -0.200 F 
ENDBRANCH  38  61
ENDBRANCH  12  13
ENDBRANCH   5   7
ENDBRANCH   4   5
ENDBRANCH   3   4
ENDBRANCH   2   3
ENDBRANCH   1   2
BRANCH   1  72
ATOM     72  C   UNL A   1      32.710  27.055  24.534  1.00  0.00     0.202 C 
BRANCH  72  73
ATOM     73  C   UNL A   1      31.842  26.557  23.378  1.00  0.00     0.261 C 
BRANCH  73  74
ATOM     74  O   UNL A   1      32.018  25.146  23.150  1.00  0.00    -0.463 OA
BRANCH  74  75
ATOM     75  C   UNL A   1      33.107  24.815  22.393  1.00  0.00     0.313 C 
ATOM     76  O   UNL A   1      33.650  25.564  21.587  1.00  0.00    -0.252 OA
BRANCH  75  77
ATOM     77  C   UNL A   1      33.596  23.396  22.707  1.00  0.00     0.135 C 
BRANCH  77  78
ATOM     78  C   UNL A   1      34.795  23.462  23.659  1.00  0.00    -0.033 A 
ATOM     79  C   UNL A   1      36.011  22.861  23.264  1.00  0.00     0.007 A 
ATOM     80  C   UNL A   1      34.749  24.058  24.930  1.00  0.00     0.007 A 
ATOM     81  C   UNL A   1      37.140  22.900  24.085  1.00  0.00     0.039 A 
ATOM     82  C   UNL A   1      35.872  24.076  25.761  1.00  0.00     0.039 A 
ATOM     83  C   UNL A   1      37.059  23.507  25.326  1.00  0.00     0.123 A 
ATOM     84  F   UNL A   1      38.137  23.540  26.121  1.00  0.00    -0.207 F 
ENDBRANCH  77  78
BRANCH  77  85
ATOM     85  C   UNL A   1      32.313  22.673  23.171  1.00  0.00     0.076 C 
BRANCH  85  86
ATOM     86  C   UNL A   1      32.382  21.231  23.597  1.00  0.00     0.042 A 
ATOM     87  C   UNL A   1      32.691  20.931  24.926  1.00  0.00     0.024 A 
ATOM     88  N   UNL A   1      32.137  20.275  22.675  1.00  0.00    -0.261 NA
ATOM     89  C   UNL A   1      32.815  19.600  25.305  1.00  0.00     0.003 A 
ATOM     90  C   UNL A   1      32.271  18.990  23.070  1.00  0.00     0.111 A 
ATOM     91  C   UNL A   1      32.615  18.606  24.357  1.00  0.00     0.020 A 
ENDBRANCH  85  86
ENDBRANCH  77  85
ENDBRANCH  75  77
ENDBRANCH  74  75
ENDBRANCH  73  74
ENDBRANCH  72  73
ENDBRANCH   1  72
TORSDOF 17
ENDMDL
MODEL 2
REMARK VINA RESULT:     -11.3      2.500      8.530
REMARK SMILES O=C(OCCOCCOC(=O)[C@H](Cc1ccccn1)c1ccc(F)cc1)c1ccc(-c2c3nc(c(-c4c(F)c(F)c(F)c(F)c4F)c4ccc([nH]4)c(-c4c(F)c(F)c(F)c(F)c4F)c4nc(c(-c5c(F)c(F)c(F)c(F)c5F)c5ccc2[nH]5)C=C4)C=C3)cc1
REMARK SMILES IDX 6 1 5 2 4 3 3 4 2 5 1 6 27 7 28 8 89 9 29 10 88 11 30 12
REMARK SMILES IDX 31 13 32 14 82 15 33 16 87 17 81 18 83 19 34 20 86 21 80 22
REMARK SMILES IDX 79 23 35 25 67 26 47 27 66 28 48 29 51 30 65 31 84 32 49 33
REMARK SMILES IDX 50 34 64 36 85 37 52 38 36 39 37 40 45 41 38 42 39 43 43 44
REMARK SMILES IDX 46 45 40 46 41 47 44 48 42 49 68 50 69 51 77 52 70 53 71 54
REMARK SMILES IDX 75 55 78 56 72 57 73 58 76 59 74 60 53 61 54 62 62 63 55 64
REMARK SMILES IDX 56 65 60 66 63 67 57 68 58 69 61 70 59 71 7 72 8 73 9 74
REMARK SMILES IDX 10 75 11 76 12 77 20 78 21 79 26 80 22 81 25 82 23 83 24 84
REMARK SMILES IDX 13 85 14 86 15 87 19 88 16 89 18 90 17 91
REMARK H PARENT 83 24 51 35
REMARK Flexibility Score: inf
ROOT
ATOM      1  O   UNL A   1      32.408  30.739  27.390  1.00  0.00    -0.374 OA
ENDROOT
BRANCH   1   2
ATOM      2  C   UNL A   1      31.552  31.709  26.794  1.00  0.00     0.202 C 
BRANCH   2   3
ATOM      3  C   UNL A   1      32.249  33.060  26.626  1.00  0.00     0.261 C 
BRANCH   3   4
ATOM      4  O   UNL A   1      32.182  33.814  27.843  1.00  0.00    -0.460 OA
BRANCH   4   5
ATOM      5  C   UNL A   1      33.237  34.432  28.436  1.00  0.00     0.338 C 
ATOM      6  O   UNL A   1      33.184  35.633  28.675  1.00  0.00    -0.246 OA
BRANCH   5   7
ATOM      7  C   UNL A   1      34.391  33.654  28.974  1.00  0.00     0.060 A 
ATOM      8  C   UNL A   1      34.307  32.364  29.505  1.00  0.00     0.016 A 
ATOM      9  C   UNL A   1      35.658  34.248  28.860  1.00  0.00     0.016 A 
ATOM     10  C   UNL A   1      35.427  31.714  29.996  1.00  0.00     0.010 A 
ATOM     11  C   UNL A   1      36.800  33.578  29.306  1.00  0.00     0.010 A 
ATOM     12  C   UNL A   1      36.678  32.317  29.897  1.00  0.00    -0.014 A 
BRANCH  12  13
ATOM     13  C   UNL A   1      37.815  31.630  30.530  1.00  0.00     0.031 A 
ATOM     14  C   UNL A   1      38.040  31.834  31.995  1.00  0.00     0.074 A 
ATOM     15  C   UNL A   1      38.514  30.722  29.825  1.00  0.00     0.049 A 
ATOM     16  N   UNL A   1      38.982  31.361  32.762  1.00  0.00    -0.248 NA
ATOM     17  C   UNL A   1      37.055  32.675  32.696  1.00  0.00     0.031 C 
ATOM     18  C   UNL A   1      38.255  30.368  28.428  1.00  0.00     0.029 A 
ATOM     19  N   UNL A   1      39.544  29.902  30.193  1.00  0.00    -0.354 N 
ATOM     20  C   UNL A   1      38.723  31.871  34.026  1.00  0.00     0.074 A 
ATOM     21  C   UNL A   1      37.537  32.691  33.928  1.00  0.00     0.031 C 
ATOM     22  C   UNL A   1      39.076  29.370  28.070  1.00  0.00     0.029 A 
ATOM     23  C   UNL A   1      39.968  29.070  29.185  1.00  0.00     0.049 A 
ATOM     24  H   UNL A   1      39.945  29.906  31.092  1.00  0.00     0.167 HD
ATOM     25  C   UNL A   1      39.430  31.670  35.162  1.00  0.00     0.037 A 
ATOM     26  C   UNL A   1      40.984  28.188  29.168  1.00  0.00     0.037 A 
ATOM     27  C   UNL A   1      40.604  30.843  35.216  1.00  0.00     0.049 A 
ATOM     28  C   UNL A   1      41.806  28.045  30.419  1.00  0.00     0.074 A 
ATOM     29  C   UNL A   1      41.472  30.635  36.270  1.00  0.00     0.029 A 
ATOM     30  N   UNL A   1      41.066  30.076  34.152  1.00  0.00    -0.354 N 
ATOM     31  N   UNL A   1      41.636  28.622  31.586  1.00  0.00    -0.248 NA
ATOM     32  C   UNL A   1      42.971  27.156  30.351  1.00  0.00     0.031 C 
ATOM     33  C   UNL A   1      42.479  29.767  35.832  1.00  0.00     0.029 A 
ATOM     34  C   UNL A   1      42.211  29.394  34.522  1.00  0.00     0.049 A 
ATOM     35  H   UNL A   1      40.639  30.025  33.265  1.00  0.00     0.167 HD
ATOM     36  C   UNL A   1      42.664  28.163  32.395  1.00  0.00     0.074 A 
ATOM     37  C   UNL A   1      43.442  27.242  31.589  1.00  0.00     0.031 C 
ATOM     38  C   UNL A   1      42.948  28.481  33.682  1.00  0.00     0.037 A 
BRANCH  25  39
ATOM     39  C   UNL A   1      38.984  32.412  36.385  1.00  0.00     0.064 A 
ATOM     40  C   UNL A   1      38.119  31.800  37.306  1.00  0.00     0.173 A 
ATOM     41  C   UNL A   1      39.436  33.709  36.675  1.00  0.00     0.173 A 
ATOM     42  F   UNL A   1      37.664  30.558  37.083  1.00  0.00    -0.203 F 
ATOM     43  C   UNL A   1      37.725  32.458  38.468  1.00  0.00     0.198 A 
ATOM     44  C   UNL A   1      39.062  34.353  37.852  1.00  0.00     0.198 A 
ATOM     45  F   UNL A   1      40.292  34.326  35.845  1.00  0.00    -0.203 F 
ATOM     46  F   UNL A   1      36.895  31.853  39.329  1.00  0.00    -0.200 F 
ATOM     47  C   UNL A   1      38.205  33.728  38.746  1.00  0.00     0.200 A 
ATOM     48  F   UNL A   1      39.555  35.566  38.137  1.00  0.00    -0.200 F 
ATOM     49  F   UNL A   1      37.852  34.345  39.882  1.00  0.00    -0.200 F 
ENDBRANCH  25  39
BRANCH  26  50
ATOM     50  C   UNL A   1      41.279  27.420  27.929  1.00  0.00     0.064 A 
ATOM     51  C   UNL A   1      40.876  26.082  27.791  1.00  0.00     0.173 A 
ATOM     52  C   UNL A   1      42.009  27.986  26.876  1.00  0.00     0.173 A 
ATOM     53  F   UNL A   1      40.171  25.488  28.766  1.00  0.00    -0.203 F 
ATOM     54  C   UNL A   1      41.219  25.333  26.667  1.00  0.00     0.198 A 
ATOM     55  C   UNL A   1      42.325  27.246  25.737  1.00  0.00     0.198 A 
ATOM     56  F   UNL A   1      42.399  29.268  26.946  1.00  0.00    -0.203 F 
ATOM     57  F   UNL A   1      40.857  24.045  26.585  1.00  0.00    -0.200 F 
ATOM     58  C   UNL A   1      41.940  25.918  25.638  1.00  0.00     0.200 A 
ATOM     59  F   UNL A   1      43.002  27.821  24.734  1.00  0.00    -0.200 F 
ATOM     60  F   UNL A   1      42.261  25.201  24.552  1.00  0.00    -0.200 F 
ENDBRANCH  26  50
BRANCH  38  61
ATOM     61  C   UNL A   1      44.134  27.810  34.303  1.00  0.00     0.064 A 
ATOM     62  C   UNL A   1      43.984  26.586  34.971  1.00  0.00     0.173 A 
ATOM     63  C   UNL A   1      45.396  28.421  34.311  1.00  0.00     0.173 A 
ATOM     64  F   UNL A   1      42.792  25.972  34.996  1.00  0.00    -0.203 F 
ATOM     65  C   UNL A   1      45.054  26.007  35.643  1.00  0.00     0.198 A 
ATOM     66  C   UNL A   1      46.470  27.824  34.961  1.00  0.00     0.198 A 
ATOM     67  F   UNL A   1      45.587  29.586  33.673  1.00  0.00    -0.203 F 
ATOM     68  F   UNL A   1      44.880  24.856  36.309  1.00  0.00    -0.200 F 
ATOM     69  C   UNL A   1      46.296  26.623  35.635  1.00  0.00     0.200 A 
ATOM     70  F   UNL A   1      47.675  28.409  34.936  1.00  0.00    -0.200 F 
ATOM     71  F   UNL A   1      47.328  26.061  36.279  1.00  0.00    -0.200 F 
ENDBRANCH  38  61
ENDBRANCH  12  13
ENDBRANCH   5   7
ENDBRANCH   4   5
ENDBRANCH   3   4
ENDBRANCH   2   3
ENDBRANCH   1   2
BRANCH   1  72
ATOM     72  C   UNL A   1      32.921  29.744  26.511  1.00  0.00     0.202 C 
BRANCH  72  73
ATOM     73  C   UNL A   1      31.840  29.282  25.534  1.00  0.00     0.261 C 
BRANCH  73  74
ATOM     74  O   UNL A   1      32.360  29.128  24.199  1.00  0.00    -0.463 OA
BRANCH  74  75
ATOM     75  C   UNL A   1      31.492  28.571  23.303  1.00  0.00     0.313 C 
ATOM     76  O   UNL A   1      31.826  27.993  22.274  1.00  0.00    -0.252 OA
BRANCH  75  77
ATOM     77  C   UNL A   1      30.037  28.724  23.765  1.00  0.00     0.135 C 
BRANCH  77  78
ATOM     78  C   UNL A   1      29.424  29.977  23.128  1.00  0.00    -0.033 A 
ATOM     79  C   UNL A   1      29.090  29.948  21.755  1.00  0.00     0.007 A 
ATOM     80  C   UNL A   1      29.205  31.177  23.823  1.00  0.00     0.007 A 
ATOM     81  C   UNL A   1      28.518  31.053  21.124  1.00  0.00     0.039 A 
ATOM     82  C   UNL A   1      28.656  32.292  23.184  1.00  0.00     0.039 A 
ATOM     83  C   UNL A   1      28.307  32.216  21.845  1.00  0.00     0.123 A 
ATOM     84  F   UNL A   1      27.767  33.283  21.241  1.00  0.00    -0.207 F 
ENDBRANCH  77  78
BRANCH  77  85
ATOM     85  C   UNL A   1      29.416  27.347  23.448  1.00  0.00     0.076 C 
BRANCH  85  86
ATOM     86  C   UNL A   1      29.957  26.113  24.118  1.00  0.00     0.042 A 
ATOM     87  C   UNL A   1      30.015  26.070  25.514  1.00  0.00     0.024 A 
ATOM     88  N   UNL A   1      30.366  25.085  23.343  1.00  0.00    -0.261 NA
ATOM     89  C   UNL A   1      30.571  24.957  26.132  1.00  0.00     0.003 A 
ATOM     90  C   UNL A   1      30.909  24.019  23.971  1.00  0.00     0.111 A 
ATOM     91  C   UNL A   1      31.041  23.913  25.347  1.00  0.00     0.020 A 
ENDBRANCH  85  86
ENDBRANCH  77  85
ENDBRANCH  75  77
ENDBRANCH  74  75
ENDBRANCH  73  74
ENDBRANCH  72  73
ENDBRANCH   1  72
TORSDOF 17
ENDMDL
MODEL 3
REMARK VINA RESULT:     -11.3      4.731     10.188
REMARK SMILES O=C(OCCOCCOC(=O)[C@H](Cc1ccccn1)c1ccc(F)cc1)c1ccc(-c2c3nc(c(-c4c(F)c(F)c(F)c(F)c4F)c4ccc([nH]4)c(-c4c(F)c(F)c(F)c(F)c4F)c4nc(c(-c5c(F)c(F)c(F)c(F)c5F)c5ccc2[nH]5)C=C4)C=C3)cc1
REMARK SMILES IDX 6 1 5 2 4 3 3 4 2 5 1 6 27 7 28 8 89 9 29 10 88 11 30 12
REMARK SMILES IDX 31 13 32 14 82 15 33 16 87 17 81 18 83 19 34 20 86 21 80 22
REMARK SMILES IDX 79 23 35 25 67 26 47 27 66 28 48 29 51 30 65 31 84 32 49 33
REMARK SMILES IDX 50 34 64 36 85 37 52 38 36 39 37 40 45 41 38 42 39 43 43 44
REMARK SMILES IDX 46 45 40 46 41 47 44 48 42 49 68 50 69 51 77 52 70 53 71 54
REMARK SMILES IDX 75 55 78 56 72 57 73 58 76 59 74 60 53 61 54 62 62 63 55 64
REMARK SMILES IDX 56 65 60 66 63 67 57 68 58 69 61 70 59 71 7 72 8 73 9 74
REMARK SMILES IDX 10 75 11 76 12 77 20 78 21 79 26 80 22 81 25 82 23 83 24 84
REMARK SMILES IDX 13 85 14 86 15 87 19 88 16 89 18 90 17 91
REMARK H PARENT 83 24 51 35
REMARK Flexibility Score: inf
ROOT
ATOM      1  O   UNL A   1      33.126  33.948  29.247  1.00  0.00    -0.374 OA
ENDROOT
BRANCH   1   2
ATOM      2  C   UNL A   1      33.744  33.575  28.018  1.00  0.00     0.202 C 
BRANCH   2   3
ATOM      3  C   UNL A   1      33.377  32.150  27.603  1.00  0.00     0.261 C 
BRANCH   3   4
ATOM      4  O   UNL A   1      34.113  31.196  28.379  1.00  0.00    -0.460 OA
BRANCH   4   5
ATOM      5  C   UNL A   1      34.738  30.099  27.877  1.00  0.00     0.338 C 
ATOM      6  O   UNL A   1      34.150  29.374  27.082  1.00  0.00    -0.246 OA
BRANCH   5   7
ATOM      7  C   UNL A   1      36.188  29.850  28.123  1.00  0.00     0.060 A 
ATOM      8  C   UNL A   1      37.216  30.162  27.229  1.00  0.00     0.016 A 
ATOM      9  C   UNL A   1      36.532  29.335  29.383  1.00  0.00     0.016 A 
ATOM     10  C   UNL A   1      38.539  29.888  27.530  1.00  0.00     0.010 A 
ATOM     11  C   UNL A   1      37.870  29.102  29.715  1.00  0.00     0.010 A 
ATOM     12  C   UNL A   1      38.873  29.358  28.774  1.00  0.00    -0.014 A 
BRANCH  12  13
ATOM     13  C   UNL A   1      40.278  28.986  29.000  1.00  0.00     0.031 A 
ATOM     14  C   UNL A   1      41.110  29.864  29.881  1.00  0.00     0.074 A 
ATOM     15  C   UNL A   1      40.728  27.801  28.551  1.00  0.00     0.049 A 
ATOM     16  N   UNL A   1      42.369  29.758  30.204  1.00  0.00    -0.248 NA
ATOM     17  C   UNL A   1      40.422  31.011  30.497  1.00  0.00     0.031 C 
ATOM     18  C   UNL A   1      39.925  26.829  27.806  1.00  0.00     0.029 A 
ATOM     19  N   UNL A   1      41.944  27.191  28.695  1.00  0.00    -0.354 N 
ATOM     20  C   UNL A   1      42.632  30.839  31.033  1.00  0.00     0.074 A 
ATOM     21  C   UNL A   1      41.406  31.591  31.166  1.00  0.00     0.031 C 
ATOM     22  C   UNL A   1      40.657  25.725  27.597  1.00  0.00     0.029 A 
ATOM     23  C   UNL A   1      42.000  25.944  28.122  1.00  0.00     0.049 A 
ATOM     24  H   UNL A   1      42.704  27.605  29.162  1.00  0.00     0.167 HD
ATOM     25  C   UNL A   1      43.806  31.166  31.620  1.00  0.00     0.037 A 
ATOM     26  C   UNL A   1      43.037  25.093  28.016  1.00  0.00     0.037 A 
ATOM     27  C   UNL A   1      45.003  30.387  31.464  1.00  0.00     0.049 A 
ATOM     28  C   UNL A   1      44.354  25.519  28.605  1.00  0.00     0.074 A 
ATOM     29  C   UNL A   1      46.281  30.656  31.913  1.00  0.00     0.029 A 
ATOM     30  N   UNL A   1      45.056  29.165  30.801  1.00  0.00    -0.354 N 
ATOM     31  N   UNL A   1      44.637  26.604  29.288  1.00  0.00    -0.248 NA
ATOM     32  C   UNL A   1      45.498  24.626  28.391  1.00  0.00     0.031 C 
ATOM     33  C   UNL A   1      47.114  29.613  31.493  1.00  0.00     0.029 A 
ATOM     34  C   UNL A   1      46.346  28.668  30.826  1.00  0.00     0.049 A 
ATOM     35  H   UNL A   1      44.287  28.719  30.377  1.00  0.00     0.167 HD
ATOM     36  C   UNL A   1      45.987  26.524  29.593  1.00  0.00     0.074 A 
ATOM     37  C   UNL A   1      46.461  25.272  29.037  1.00  0.00     0.031 C 
ATOM     38  C   UNL A   1      46.768  27.409  30.262  1.00  0.00     0.037 A 
BRANCH  25  39
ATOM     39  C   UNL A   1      43.846  32.443  32.404  1.00  0.00     0.064 A 
ATOM     40  C   UNL A   1      43.708  32.418  33.801  1.00  0.00     0.173 A 
ATOM     41  C   UNL A   1      44.056  33.687  31.790  1.00  0.00     0.173 A 
ATOM     42  F   UNL A   1      43.515  31.254  34.439  1.00  0.00    -0.203 F 
ATOM     43  C   UNL A   1      43.783  33.588  34.551  1.00  0.00     0.198 A 
ATOM     44  C   UNL A   1      44.157  34.852  32.547  1.00  0.00     0.198 A 
ATOM     45  F   UNL A   1      44.228  33.763  30.461  1.00  0.00    -0.203 F 
ATOM     46  F   UNL A   1      43.645  33.537  35.883  1.00  0.00    -0.200 F 
ATOM     47  C   UNL A   1      44.017  34.802  33.926  1.00  0.00     0.200 A 
ATOM     48  F   UNL A   1      44.420  36.020  31.944  1.00  0.00    -0.200 F 
ATOM     49  F   UNL A   1      44.123  35.923  34.653  1.00  0.00    -0.200 F 
ENDBRANCH  25  39
BRANCH  26  50
ATOM     50  C   UNL A   1      42.866  23.798  27.306  1.00  0.00     0.064 A 
ATOM     51  C   UNL A   1      42.367  22.665  27.971  1.00  0.00     0.173 A 
ATOM     52  C   UNL A   1      43.236  23.647  25.964  1.00  0.00     0.173 A 
ATOM     53  F   UNL A   1      41.993  22.752  29.257  1.00  0.00    -0.203 F 
ATOM     54  C   UNL A   1      42.278  21.430  27.333  1.00  0.00     0.198 A 
ATOM     55  C   UNL A   1      43.118  22.417  25.316  1.00  0.00     0.198 A 
ATOM     56  F   UNL A   1      43.696  24.701  25.273  1.00  0.00    -0.203 F 
ATOM     57  F   UNL A   1      41.841  20.358  28.009  1.00  0.00    -0.200 F 
ATOM     58  C   UNL A   1      42.650  21.307  26.004  1.00  0.00     0.200 A 
ATOM     59  F   UNL A   1      43.455  22.307  24.024  1.00  0.00    -0.200 F 
ATOM     60  F   UNL A   1      42.556  20.121  25.387  1.00  0.00    -0.200 F 
ENDBRANCH  26  50
BRANCH  38  61
ATOM     61  C   UNL A   1      48.207  27.041  30.447  1.00  0.00     0.064 A 
ATOM     62  C   UNL A   1      49.162  27.428  29.495  1.00  0.00     0.173 A 
ATOM     63  C   UNL A   1      48.623  26.234  31.514  1.00  0.00     0.173 A 
ATOM     64  F   UNL A   1      48.806  28.193  28.452  1.00  0.00    -0.203 F 
ATOM     65  C   UNL A   1      50.482  27.004  29.597  1.00  0.00     0.198 A 
ATOM     66  C   UNL A   1      49.950  25.834  31.628  1.00  0.00     0.198 A 
ATOM     67  F   UNL A   1      47.746  25.851  32.454  1.00  0.00    -0.203 F 
ATOM     68  F   UNL A   1      51.371  27.353  28.656  1.00  0.00    -0.200 F 
ATOM     69  C   UNL A   1      50.876  26.210  30.664  1.00  0.00     0.200 A 
ATOM     70  F   UNL A   1      50.335  25.085  32.670  1.00  0.00    -0.200 F 
ATOM     71  F   UNL A   1      52.149  25.805  30.764  1.00  0.00    -0.200 F 
ENDBRANCH  38  61
ENDBRANCH  12  13
ENDBRANCH   5   7
ENDBRANCH   4   5
ENDBRANCH   3   4
ENDBRANCH   2   3
ENDBRANCH   1   2
BRANCH   1  72
ATOM     72  C   UNL A   1      33.806  34.945  30.003  1.00  0.00     0.202 C 
BRANCH  72  73
ATOM     73  C   UNL A   1      33.981  34.491  31.452  1.00  0.00     0.261 C 
BRANCH  73  74
ATOM     74  O   UNL A   1      34.369  33.106  31.533  1.00  0.00    -0.463 OA
BRANCH  74  75
ATOM     75  C   UNL A   1      35.124  32.781  32.625  1.00  0.00     0.313 C 
ATOM     76  O   UNL A   1      34.826  33.050  33.784  1.00  0.00    -0.252 OA
BRANCH  75  77
ATOM     77  C   UNL A   1      36.381  32.000  32.223  1.00  0.00     0.135 C 
BRANCH  77  78
ATOM     78  C   UNL A   1      37.276  32.882  31.344  1.00  0.00    -0.033 A 
ATOM     79  C   UNL A   1      37.198  32.744  29.940  1.00  0.00     0.007 A 
ATOM     80  C   UNL A   1      38.206  33.802  31.854  1.00  0.00     0.007 A 
ATOM     81  C   UNL A   1      37.979  33.527  29.089  1.00  0.00     0.039 A 
ATOM     82  C   UNL A   1      39.005  34.568  31.002  1.00  0.00     0.039 A 
ATOM     83  C   UNL A   1      38.877  34.432  29.629  1.00  0.00     0.123 A 
ATOM     84  F   UNL A   1      39.635  35.180  28.817  1.00  0.00    -0.207 F 
ENDBRANCH  77  78
BRANCH  77  85
ATOM     85  C   UNL A   1      36.931  31.491  33.573  1.00  0.00     0.076 C 
BRANCH  85  86
ATOM     86  C   UNL A   1      38.190  30.667  33.603  1.00  0.00     0.042 A 
ATOM     87  C   UNL A   1      38.217  29.445  32.925  1.00  0.00     0.024 A 
ATOM     88  N   UNL A   1      39.255  31.143  34.283  1.00  0.00    -0.261 NA
ATOM     89  C   UNL A   1      39.357  28.656  33.003  1.00  0.00     0.003 A 
ATOM     90  C   UNL A   1      40.348  30.350  34.347  1.00  0.00     0.111 A 
ATOM     91  C   UNL A   1      40.443  29.109  33.740  1.00  0.00     0.020 A 
ENDBRANCH  85  86
ENDBRANCH  77  85
ENDBRANCH  75  77
ENDBRANCH  74  75
ENDBRANCH  73  74
ENDBRANCH  72  73
ENDBRANCH   1  72
TORSDOF 17
ENDMDL
