MODEL 1
REMARK VINA RESULT:     -10.5      0.000      0.000
REMARK SMILES CC(C)C[C@@H](NC(=O)c1cccnc1)C(=O)OCCOCCOC(=O)c1ccc(-c2c3nc(c(-c4c(F)c(F)c(F)c(F)c4F)c4ccc([nH]4)c(-c4c(F)c(F)c(F)c(F)c4F)c4nc(c(-c5c(F)c(F)c(F)c(F)c5F)c5ccc2[nH]5)C=C4)C=C3)cc1
REMARK SMILES IDX 20 1 19 2 18 3 17 4 15 5 16 6 5 7 4 8 2 9 1 10 3 11 6 12
REMARK SMILES IDX 7 13 8 15 9 16 10 17 14 18 11 19 13 20 12 21 21 22 22 23
REMARK SMILES IDX 23 24 24 25 25 26 26 27 27 28 88 29 28 30 87 31 29 32 30 33
REMARK SMILES IDX 31 34 81 35 32 36 86 37 80 38 82 39 33 40 85 41 79 42 78 43
REMARK SMILES IDX 34 45 66 46 46 47 65 48 47 49 50 50 64 51 83 52 48 53 49 54
REMARK SMILES IDX 63 56 84 57 51 58 35 59 36 60 44 61 37 62 38 63 42 64 45 65
REMARK SMILES IDX 39 66 40 67 43 68 41 69 67 70 68 71 76 72 69 73 70 74 74 75
REMARK SMILES IDX 77 76 71 77 72 78 75 79 73 80 52 81 53 82 61 83 54 84 55 85
REMARK SMILES IDX 59 86 62 87 56 88 57 89 60 90 58 91
REMARK H PARENT 6 14 82 44 50 55
REMARK Flexibility Score: inf
ROOT
ATOM      1  O   UNL A   1      31.975  30.335  27.154  1.00  0.00    -0.374 OA
ENDROOT
BRANCH   1   2
ATOM      2  C   UNL A   1      32.104  29.147  26.392  1.00  0.00     0.202 C 
BRANCH   2   3
ATOM      3  C   UNL A   1      33.505  28.662  25.997  1.00  0.00     0.261 C 
BRANCH   3   4
ATOM      4  O   UNL A   1      33.800  27.271  26.169  1.00  0.00    -0.462 OA
BRANCH   4   5
ATOM      5  C   UNL A   1      33.682  26.532  25.031  1.00  0.00     0.328 C 
ATOM      6  O   UNL A   1      33.522  26.996  23.907  1.00  0.00    -0.250 OA
BRANCH   5   7
ATOM      7  C   UNL A   1      33.662  25.020  25.299  1.00  0.00     0.192 C 
BRANCH   7   8
ATOM      8  C   UNL A   1      35.042  24.542  25.811  1.00  0.00     0.040 C 
BRANCH   8   9
ATOM      9  C   UNL A   1      35.972  23.918  24.746  1.00  0.00    -0.015 C 
ATOM     10  C   UNL A   1      36.791  22.751  25.302  1.00  0.00     0.007 C 
ATOM     11  C   UNL A   1      35.134  23.423  23.561  1.00  0.00     0.007 C 
ENDBRANCH   8   9
ENDBRANCH   7   8
BRANCH   7  12
ATOM     12  N   UNL A   1      32.597  24.493  26.176  1.00  0.00    -0.339 N 
ATOM     13  C   UNL A   1      32.245  23.229  26.563  1.00  0.00     0.253 C 
ATOM     14  H   UNL A   1      32.024  25.195  26.560  1.00  0.00     0.164 HD
ATOM     15  O   UNL A   1      31.530  23.075  27.550  1.00  0.00    -0.269 OA
BRANCH  13  16
ATOM     16  C   UNL A   1      32.562  22.055  25.751  1.00  0.00     0.058 A 
ATOM     17  C   UNL A   1      31.978  21.815  24.511  1.00  0.00     0.017 A 
ATOM     18  C   UNL A   1      33.552  21.191  26.200  1.00  0.00     0.124 A 
ATOM     19  C   UNL A   1      32.360  20.678  23.799  1.00  0.00     0.021 A 
ATOM     20  N   UNL A   1      33.938  20.076  25.529  1.00  0.00    -0.264 NA
ATOM     21  C   UNL A   1      33.334  19.850  24.340  1.00  0.00     0.111 A 
ENDBRANCH  13  16
ENDBRANCH   7  12
ENDBRANCH   5   7
ENDBRANCH   4   5
ENDBRANCH   3   4
ENDBRANCH   2   3
ENDBRANCH   1   2
BRANCH   1  22
ATOM     22  C   UNL A   1      31.641  31.547  26.483  1.00  0.00     0.202 C 
BRANCH  22  23
ATOM     23  C   UNL A   1      31.825  32.863  27.244  1.00  0.00     0.261 C 
BRANCH  23  24
ATOM     24  O   UNL A   1      33.172  33.368  27.143  1.00  0.00    -0.460 OA
BRANCH  24  25
ATOM     25  C   UNL A   1      33.805  33.511  28.330  1.00  0.00     0.338 C 
ATOM     26  O   UNL A   1      33.379  34.071  29.332  1.00  0.00    -0.246 OA
BRANCH  25  27
ATOM     27  C   UNL A   1      35.072  32.765  28.356  1.00  0.00     0.060 A 
ATOM     28  C   UNL A   1      35.005  31.381  28.567  1.00  0.00     0.016 A 
ATOM     29  C   UNL A   1      36.298  33.433  28.381  1.00  0.00     0.016 A 
ATOM     30  C   UNL A   1      36.156  30.673  28.902  1.00  0.00     0.010 A 
ATOM     31  C   UNL A   1      37.452  32.721  28.726  1.00  0.00     0.010 A 
ATOM     32  C   UNL A   1      37.371  31.355  29.051  1.00  0.00    -0.014 A 
BRANCH  32  33
ATOM     33  C   UNL A   1      38.479  30.690  29.779  1.00  0.00     0.031 A 
ATOM     34  C   UNL A   1      38.694  31.035  31.230  1.00  0.00     0.074 A 
ATOM     35  C   UNL A   1      39.243  29.758  29.187  1.00  0.00     0.049 A 
ATOM     36  N   UNL A   1      39.584  30.578  32.074  1.00  0.00    -0.248 NA
ATOM     37  C   UNL A   1      37.777  32.031  31.807  1.00  0.00     0.031 C 
ATOM     38  C   UNL A   1      39.103  29.302  27.808  1.00  0.00     0.029 A 
ATOM     39  N   UNL A   1      40.292  29.026  29.684  1.00  0.00    -0.354 N 
ATOM     40  C   UNL A   1      39.339  31.235  33.273  1.00  0.00     0.074 A 
ATOM     41  C   UNL A   1      38.236  32.143  33.043  1.00  0.00     0.031 C 
ATOM     42  C   UNL A   1      40.034  28.364  27.565  1.00  0.00     0.029 A 
ATOM     43  C   UNL A   1      40.848  28.173  28.765  1.00  0.00     0.049 A 
ATOM     44  H   UNL A   1      40.615  29.104  30.611  1.00  0.00     0.167 HD
ATOM     45  C   UNL A   1      39.968  31.089  34.463  1.00  0.00     0.037 A 
ATOM     46  C   UNL A   1      41.899  27.339  28.883  1.00  0.00     0.037 A 
ATOM     47  C   UNL A   1      41.060  30.183  34.697  1.00  0.00     0.049 A 
ATOM     48  C   UNL A   1      42.622  27.236  30.200  1.00  0.00     0.074 A 
ATOM     49  C   UNL A   1      41.755  29.949  35.871  1.00  0.00     0.029 A 
ATOM     50  N   UNL A   1      41.618  29.360  33.730  1.00  0.00    -0.354 N 
ATOM     51  N   UNL A   1      42.371  27.844  31.334  1.00  0.00    -0.248 NA
ATOM     52  C   UNL A   1      43.773  26.323  30.253  1.00  0.00     0.031 C 
ATOM     53  C   UNL A   1      42.763  29.016  35.603  1.00  0.00     0.029 A 
ATOM     54  C   UNL A   1      42.664  28.633  34.275  1.00  0.00     0.049 A 
ATOM     55  H   UNL A   1      41.316  29.301  32.795  1.00  0.00     0.167 HD
ATOM     56  C   UNL A   1      43.306  27.362  32.243  1.00  0.00     0.074 A 
ATOM     57  C   UNL A   1      44.129  26.409  31.527  1.00  0.00     0.031 C 
ATOM     58  C   UNL A   1      43.464  27.677  33.552  1.00  0.00     0.037 A 
BRANCH  45  59
ATOM     59  C   UNL A   1      39.507  31.960  35.595  1.00  0.00     0.064 A 
ATOM     60  C   UNL A   1      38.538  31.527  36.513  1.00  0.00     0.173 A 
ATOM     61  C   UNL A   1      40.042  33.245  35.764  1.00  0.00     0.173 A 
ATOM     62  F   UNL A   1      37.982  30.312  36.385  1.00  0.00    -0.203 F 
ATOM     63  C   UNL A   1      38.100  32.360  37.539  1.00  0.00     0.198 A 
ATOM     64  C   UNL A   1      39.622  34.066  36.807  1.00  0.00     0.198 A 
ATOM     65  F   UNL A   1      40.972  33.707  34.914  1.00  0.00    -0.203 F 
ATOM     66  F   UNL A   1      37.136  31.946  38.372  1.00  0.00    -0.200 F 
ATOM     67  C   UNL A   1      38.645  33.627  37.688  1.00  0.00     0.200 A 
ATOM     68  F   UNL A   1      40.156  35.287  36.954  1.00  0.00    -0.200 F 
ATOM     69  F   UNL A   1      38.222  34.429  38.674  1.00  0.00    -0.200 F 
ENDBRANCH  45  59
BRANCH  46  70
ATOM     70  C   UNL A   1      42.323  26.519  27.719  1.00  0.00     0.064 A 
ATOM     71  C   UNL A   1      43.316  26.973  26.841  1.00  0.00     0.173 A 
ATOM     72  C   UNL A   1      41.740  25.270  27.460  1.00  0.00     0.173 A 
ATOM     73  F   UNL A   1      43.881  28.174  27.033  1.00  0.00    -0.203 F 
ATOM     74  C   UNL A   1      43.703  26.212  25.740  1.00  0.00     0.198 A 
ATOM     75  C   UNL A   1      42.146  24.500  26.372  1.00  0.00     0.198 A 
ATOM     76  F   UNL A   1      40.782  24.795  28.270  1.00  0.00    -0.203 F 
ATOM     77  F   UNL A   1      44.627  26.687  24.892  1.00  0.00    -0.200 F 
ATOM     78  C   UNL A   1      43.122  24.974  25.510  1.00  0.00     0.200 A 
ATOM     79  F   UNL A   1      41.586  23.302  26.156  1.00  0.00    -0.200 F 
ATOM     80  F   UNL A   1      43.497  24.243  24.451  1.00  0.00    -0.200 F 
ENDBRANCH  46  70
BRANCH  58  81
ATOM     81  C   UNL A   1      44.536  26.951  34.312  1.00  0.00     0.064 A 
ATOM     82  C   UNL A   1      45.831  27.472  34.443  1.00  0.00     0.173 A 
ATOM     83  C   UNL A   1      44.248  25.733  34.949  1.00  0.00     0.173 A 
ATOM     84  F   UNL A   1      46.158  28.626  33.842  1.00  0.00    -0.203 F 
ATOM     85  C   UNL A   1      46.806  26.789  35.166  1.00  0.00     0.198 A 
ATOM     86  C   UNL A   1      45.218  25.067  35.693  1.00  0.00     0.198 A 
ATOM     87  F   UNL A   1      43.023  25.197  34.860  1.00  0.00    -0.203 F 
ATOM     88  F   UNL A   1      48.049  27.284  35.242  1.00  0.00    -0.200 F 
ATOM     89  C   UNL A   1      46.498  25.592  35.794  1.00  0.00     0.200 A 
ATOM     90  F   UNL A   1      44.916  23.917  36.310  1.00  0.00    -0.200 F 
ATOM     91  F   UNL A   1      47.437  24.939  36.492  1.00  0.00    -0.200 F 
ENDBRANCH  58  81
ENDBRANCH  32  33
ENDBRANCH  25  27
ENDBRANCH  24  25
ENDBRANCH  23  24
ENDBRANCH  22  23
ENDBRANCH   1  22
TORSDOF 18
ENDMDL
MODEL 2
REMARK VINA RESULT:     -10.5      4.396      7.329
REMARK SMILES CC(C)C[C@@H](NC(=O)c1cccnc1)C(=O)OCCOCCOC(=O)c1ccc(-c2c3nc(c(-c4c(F)c(F)c(F)c(F)c4F)c4ccc([nH]4)c(-c4c(F)c(F)c(F)c(F)c4F)c4nc(c(-c5c(F)c(F)c(F)c(F)c5F)c5ccc2[nH]5)C=C4)C=C3)cc1
REMARK SMILES IDX 20 1 19 2 18 3 17 4 15 5 16 6 5 7 4 8 2 9 1 10 3 11 6 12
REMARK SMILES IDX 7 13 8 15 9 16 10 17 14 18 11 19 13 20 12 21 21 22 22 23
REMARK SMILES IDX 23 24 24 25 25 26 26 27 27 28 88 29 28 30 87 31 29 32 30 33
REMARK SMILES IDX 31 34 81 35 32 36 86 37 80 38 82 39 33 40 85 41 79 42 78 43
REMARK SMILES IDX 34 45 66 46 46 47 65 48 47 49 50 50 64 51 83 52 48 53 49 54
REMARK SMILES IDX 63 56 84 57 51 58 35 59 36 60 44 61 37 62 38 63 42 64 45 65
REMARK SMILES IDX 39 66 40 67 43 68 41 69 67 70 68 71 76 72 69 73 70 74 74 75
REMARK SMILES IDX 77 76 71 77 72 78 75 79 73 80 52 81 53 82 61 83 54 84 55 85
REMARK SMILES IDX 59 86 62 87 56 88 57 89 60 90 58 91
REMARK H PARENT 6 14 82 44 50 55
REMARK Flexibility Score: inf
ROOT
ATOM      1  O   UNL A   1      35.440  23.006  25.725  1.00  0.00    -0.374 OA
ENDROOT
BRANCH   1   2
ATOM      2  C   UNL A   1      35.123  24.236  25.094  1.00  0.00     0.202 C 
BRANCH   2   3
ATOM      3  C   UNL A   1      34.137  24.240  23.919  1.00  0.00     0.261 C 
BRANCH   3   4
ATOM      4  O   UNL A   1      34.514  24.956  22.737  1.00  0.00    -0.462 OA
BRANCH   4   5
ATOM      5  C   UNL A   1      33.511  25.699  22.193  1.00  0.00     0.328 C 
ATOM      6  O   UNL A   1      33.278  25.790  20.991  1.00  0.00    -0.250 OA
BRANCH   5   7
ATOM      7  C   UNL A   1      32.740  26.519  23.238  1.00  0.00     0.192 C 
BRANCH   7   8
ATOM      8  C   UNL A   1      33.191  27.998  23.206  1.00  0.00     0.040 C 
BRANCH   8   9
ATOM      9  C   UNL A   1      33.273  28.703  24.579  1.00  0.00    -0.015 C 
ATOM     10  C   UNL A   1      31.946  29.351  24.980  1.00  0.00     0.007 C 
ATOM     11  C   UNL A   1      33.679  27.687  25.652  1.00  0.00     0.007 C 
ENDBRANCH   8   9
ENDBRANCH   7   8
BRANCH   7  12
ATOM     12  N   UNL A   1      31.265  26.447  23.213  1.00  0.00    -0.339 N 
ATOM     13  C   UNL A   1      30.339  25.932  24.079  1.00  0.00     0.253 C 
ATOM     14  H   UNL A   1      30.867  26.854  22.410  1.00  0.00     0.164 HD
ATOM     15  O   UNL A   1      29.166  26.285  23.992  1.00  0.00    -0.269 OA
BRANCH  13  16
ATOM     16  C   UNL A   1      30.668  24.856  25.012  1.00  0.00     0.058 A 
ATOM     17  C   UNL A   1      30.686  23.515  24.641  1.00  0.00     0.017 A 
ATOM     18  C   UNL A   1      31.063  25.196  26.299  1.00  0.00     0.124 A 
ATOM     19  C   UNL A   1      31.034  22.559  25.595  1.00  0.00     0.021 A 
ATOM     20  N   UNL A   1      31.401  24.286  27.248  1.00  0.00    -0.264 NA
ATOM     21  C   UNL A   1      31.382  22.987  26.870  1.00  0.00     0.111 A 
ENDBRANCH  13  16
ENDBRANCH   7  12
ENDBRANCH   5   7
ENDBRANCH   4   5
ENDBRANCH   3   4
ENDBRANCH   2   3
ENDBRANCH   1   2
BRANCH   1  22
ATOM     22  C   UNL A   1      35.685  21.862  24.911  1.00  0.00     0.202 C 
BRANCH  22  23
ATOM     23  C   UNL A   1      36.909  21.001  25.232  1.00  0.00     0.261 C 
BRANCH  23  24
ATOM     24  O   UNL A   1      38.144  21.730  25.077  1.00  0.00    -0.460 OA
BRANCH  24  25
ATOM     25  C   UNL A   1      39.090  21.429  25.995  1.00  0.00     0.338 C 
ATOM     26  O   UNL A   1      39.676  20.362  26.131  1.00  0.00    -0.246 OA
BRANCH  25  27
ATOM     27  C   UNL A   1      39.477  22.614  26.775  1.00  0.00     0.060 A 
ATOM     28  C   UNL A   1      38.833  23.823  26.479  1.00  0.00     0.016 A 
ATOM     29  C   UNL A   1      40.585  22.584  27.624  1.00  0.00     0.016 A 
ATOM     30  C   UNL A   1      39.356  25.023  26.955  1.00  0.00     0.010 A 
ATOM     31  C   UNL A   1      41.113  23.791  28.095  1.00  0.00     0.010 A 
ATOM     32  C   UNL A   1      40.537  25.015  27.707  1.00  0.00    -0.014 A 
BRANCH  32  33
ATOM     33  C   UNL A   1      41.291  26.282  27.867  1.00  0.00     0.031 A 
ATOM     34  C   UNL A   1      40.637  27.418  28.611  1.00  0.00     0.074 A 
ATOM     35  C   UNL A   1      42.549  26.408  27.415  1.00  0.00     0.049 A 
ATOM     36  N   UNL A   1      41.099  28.611  28.888  1.00  0.00    -0.248 NA
ATOM     37  C   UNL A   1      39.275  27.171  29.113  1.00  0.00     0.031 C 
ATOM     38  C   UNL A   1      43.307  25.369  26.726  1.00  0.00     0.029 A 
ATOM     39  N   UNL A   1      43.410  27.475  27.477  1.00  0.00    -0.354 N 
ATOM     40  C   UNL A   1      40.086  29.255  29.587  1.00  0.00     0.074 A 
ATOM     41  C   UNL A   1      38.973  28.334  29.667  1.00  0.00     0.031 C 
ATOM     42  C   UNL A   1      44.526  25.849  26.425  1.00  0.00     0.029 A 
ATOM     43  C   UNL A   1      44.622  27.235  26.881  1.00  0.00     0.049 A 
ATOM     44  H   UNL A   1      43.181  28.331  27.907  1.00  0.00     0.167 HD
ATOM     45  C   UNL A   1      40.084  30.499  30.122  1.00  0.00     0.037 A 
ATOM     46  C   UNL A   1      45.684  28.049  26.719  1.00  0.00     0.037 A 
ATOM     47  C   UNL A   1      41.191  31.414  30.049  1.00  0.00     0.049 A 
ATOM     48  C   UNL A   1      45.637  29.449  27.272  1.00  0.00     0.074 A 
ATOM     49  C   UNL A   1      41.295  32.691  30.573  1.00  0.00     0.029 A 
ATOM     50  N   UNL A   1      42.390  31.147  29.406  1.00  0.00    -0.354 N 
ATOM     51  N   UNL A   1      44.685  30.044  27.948  1.00  0.00    -0.248 NA
ATOM     52  C   UNL A   1      46.821  30.290  27.041  1.00  0.00     0.031 C 
ATOM     53  C   UNL A   1      42.541  33.213  30.209  1.00  0.00     0.029 A 
ATOM     54  C   UNL A   1      43.232  32.242  29.500  1.00  0.00     0.049 A 
ATOM     55  H   UNL A   1      42.611  30.302  28.950  1.00  0.00     0.167 HD
ATOM     56  C   UNL A   1      45.165  31.310  28.256  1.00  0.00     0.074 A 
ATOM     57  C   UNL A   1      46.497  31.398  27.692  1.00  0.00     0.031 C 
ATOM     58  C   UNL A   1      44.560  32.308  28.946  1.00  0.00     0.037 A 
BRANCH  45  59
ATOM     59  C   UNL A   1      38.826  30.951  30.805  1.00  0.00     0.064 A 
ATOM     60  C   UNL A   1      37.752  31.498  30.087  1.00  0.00     0.173 A 
ATOM     61  C   UNL A   1      38.694  30.834  32.196  1.00  0.00     0.173 A 
ATOM     62  F   UNL A   1      37.836  31.648  28.756  1.00  0.00    -0.203 F 
ATOM     63  C   UNL A   1      36.605  31.940  30.740  1.00  0.00     0.198 A 
ATOM     64  C   UNL A   1      37.535  31.251  32.844  1.00  0.00     0.198 A 
ATOM     65  F   UNL A   1      39.691  30.315  32.928  1.00  0.00    -0.203 F 
ATOM     66  F   UNL A   1      35.612  32.508  30.041  1.00  0.00    -0.200 F 
ATOM     67  C   UNL A   1      36.494  31.812  32.117  1.00  0.00     0.200 A 
ATOM     68  F   UNL A   1      37.427  31.119  34.173  1.00  0.00    -0.200 F 
ATOM     69  F   UNL A   1      35.392  32.239  32.746  1.00  0.00    -0.200 F 
ENDBRANCH  45  59
BRANCH  46  70
ATOM     70  C   UNL A   1      46.892  27.551  26.014  1.00  0.00     0.064 A 
ATOM     71  C   UNL A   1      47.013  27.666  24.623  1.00  0.00     0.173 A 
ATOM     72  C   UNL A   1      47.945  26.946  26.715  1.00  0.00     0.173 A 
ATOM     73  F   UNL A   1      46.018  28.211  23.907  1.00  0.00    -0.203 F 
ATOM     74  C   UNL A   1      48.139  27.185  23.957  1.00  0.00     0.198 A 
ATOM     75  C   UNL A   1      49.081  26.488  26.052  1.00  0.00     0.198 A 
ATOM     76  F   UNL A   1      47.873  26.809  28.048  1.00  0.00    -0.203 F 
ATOM     77  F   UNL A   1      48.213  27.271  22.622  1.00  0.00    -0.200 F 
ATOM     78  C   UNL A   1      49.174  26.602  24.673  1.00  0.00     0.200 A 
ATOM     79  F   UNL A   1      50.081  25.930  26.747  1.00  0.00    -0.200 F 
ATOM     80  F   UNL A   1      50.257  26.142  24.032  1.00  0.00    -0.200 F 
ENDBRANCH  46  70
BRANCH  58  81
ATOM     81  C   UNL A   1      45.349  33.565  29.176  1.00  0.00     0.064 A 
ATOM     82  C   UNL A   1      46.190  33.717  30.287  1.00  0.00     0.173 A 
ATOM     83  C   UNL A   1      45.288  34.616  28.246  1.00  0.00     0.173 A 
ATOM     84  F   UNL A   1      46.272  32.746  31.209  1.00  0.00    -0.203 F 
ATOM     85  C   UNL A   1      46.925  34.885  30.472  1.00  0.00     0.198 A 
ATOM     86  C   UNL A   1      46.045  35.771  28.421  1.00  0.00     0.198 A 
ATOM     87  F   UNL A   1      44.505  34.516  27.163  1.00  0.00    -0.203 F 
ATOM     88  F   UNL A   1      47.689  35.027  31.563  1.00  0.00    -0.200 F 
ATOM     89  C   UNL A   1      46.857  35.908  29.537  1.00  0.00     0.200 A 
ATOM     90  F   UNL A   1      45.988  36.752  27.511  1.00  0.00    -0.200 F 
ATOM     91  F   UNL A   1      47.568  37.029  29.716  1.00  0.00    -0.200 F 
ENDBRANCH  58  81
ENDBRANCH  32  33
ENDBRANCH  25  27
ENDBRANCH  24  25
ENDBRANCH  23  24
ENDBRANCH  22  23
ENDBRANCH   1  22
TORSDOF 18
ENDMDL
MODEL 3
REMARK VINA RESULT:     -10.5      4.378      7.652
REMARK SMILES CC(C)C[C@@H](NC(=O)c1cccnc1)C(=O)OCCOCCOC(=O)c1ccc(-c2c3nc(c(-c4c(F)c(F)c(F)c(F)c4F)c4ccc([nH]4)c(-c4c(F)c(F)c(F)c(F)c4F)c4nc(c(-c5c(F)c(F)c(F)c(F)c5F)c5ccc2[nH]5)C=C4)C=C3)cc1
REMARK SMILES IDX 20 1 19 2 18 3 17 4 15 5 16 6 5 7 4 8 2 9 1 10 3 11 6 12
REMARK SMILES IDX 7 13 8 15 9 16 10 17 14 18 11 19 13 20 12 21 21 22 22 23
REMARK SMILES IDX 23 24 24 25 25 26 26 27 27 28 88 29 28 30 87 31 29 32 30 33
REMARK SMILES IDX 31 34 81 35 32 36 86 37 80 38 82 39 33 40 85 41 79 42 78 43
REMARK SMILES IDX 34 45 66 46 46 47 65 48 47 49 50 50 64 51 83 52 48 53 49 54
REMARK SMILES IDX 63 56 84 57 51 58 35 59 36 60 44 61 37 62 38 63 42 64 45 65
REMARK SMILES IDX 39 66 40 67 43 68 41 69 67 70 68 71 76 72 69 73 70 74 74 75
REMARK SMILES IDX 77 76 71 77 72 78 75 79 73 80 52 81 53 82 61 83 54 84 55 85
REMARK SMILES IDX 59 86 62 87 56 88 57 89 60 90 58 91
REMARK H PARENT 6 14 82 44 50 55
REMARK Flexibility Score: inf
ROOT
ATOM      1  O   UNL A   1      35.830  22.359  25.769  1.00  0.00    -0.374 OA
ENDROOT
BRANCH   1   2
ATOM      2  C   UNL A   1      35.789  23.602  25.089  1.00  0.00     0.202 C 
BRANCH   2   3
ATOM      3  C   UNL A   1      34.552  24.497  25.243  1.00  0.00     0.261 C 
BRANCH   3   4
ATOM      4  O   UNL A   1      34.041  25.133  24.066  1.00  0.00    -0.462 OA
BRANCH   4   5
ATOM      5  C   UNL A   1      33.852  26.475  24.196  1.00  0.00     0.328 C 
ATOM      6  O   UNL A   1      33.889  27.282  23.272  1.00  0.00    -0.250 OA
BRANCH   5   7
ATOM      7  C   UNL A   1      33.688  26.917  25.658  1.00  0.00     0.192 C 
BRANCH   7   8
ATOM      8  C   UNL A   1      34.121  28.392  25.830  1.00  0.00     0.040 C 
BRANCH   8   9
ATOM      9  C   UNL A   1      34.060  28.944  27.273  1.00  0.00    -0.015 C 
ATOM     10  C   UNL A   1      35.438  29.360  27.794  1.00  0.00     0.007 C 
ATOM     11  C   UNL A   1      33.120  30.154  27.318  1.00  0.00     0.007 C 
ENDBRANCH   8   9
ENDBRANCH   7   8
BRANCH   7  12
ATOM     12  N   UNL A   1      32.372  26.706  26.293  1.00  0.00    -0.339 N 
ATOM     13  C   UNL A   1      31.086  26.780  25.830  1.00  0.00     0.253 C 
ATOM     14  H   UNL A   1      32.433  26.462  27.245  1.00  0.00     0.164 HD
ATOM     15  O   UNL A   1      30.182  26.245  26.465  1.00  0.00    -0.269 OA
BRANCH  13  16
ATOM     16  C   UNL A   1      30.726  27.609  24.681  1.00  0.00     0.058 A 
ATOM     17  C   UNL A   1      30.821  28.997  24.693  1.00  0.00     0.017 A 
ATOM     18  C   UNL A   1      30.356  26.977  23.502  1.00  0.00     0.124 A 
ATOM     19  C   UNL A   1      30.476  29.703  23.540  1.00  0.00     0.021 A 
ATOM     20  N   UNL A   1      30.010  27.639  22.369  1.00  0.00    -0.264 NA
ATOM     21  C   UNL A   1      30.083  28.989  22.415  1.00  0.00     0.111 A 
ENDBRANCH  13  16
ENDBRANCH   7  12
ENDBRANCH   5   7
ENDBRANCH   4   5
ENDBRANCH   3   4
ENDBRANCH   2   3
ENDBRANCH   1   2
BRANCH   1  22
ATOM     22  C   UNL A   1      36.048  21.171  25.014  1.00  0.00     0.202 C 
BRANCH  22  23
ATOM     23  C   UNL A   1      37.412  20.485  25.131  1.00  0.00     0.261 C 
BRANCH  23  24
ATOM     24  O   UNL A   1      38.500  21.433  25.135  1.00  0.00    -0.460 OA
BRANCH  24  25
ATOM     25  C   UNL A   1      39.447  21.190  26.069  1.00  0.00     0.338 C 
ATOM     26  O   UNL A   1      40.075  20.152  26.234  1.00  0.00    -0.246 OA
BRANCH  25  27
ATOM     27  C   UNL A   1      39.779  22.407  26.826  1.00  0.00     0.060 A 
ATOM     28  C   UNL A   1      39.128  23.594  26.461  1.00  0.00     0.016 A 
ATOM     29  C   UNL A   1      40.847  22.425  27.725  1.00  0.00     0.016 A 
ATOM     30  C   UNL A   1      39.608  24.818  26.920  1.00  0.00     0.010 A 
ATOM     31  C   UNL A   1      41.332  23.657  28.178  1.00  0.00     0.010 A 
ATOM     32  C   UNL A   1      40.754  24.856  27.724  1.00  0.00    -0.014 A 
BRANCH  32  33
ATOM     33  C   UNL A   1      41.478  26.142  27.876  1.00  0.00     0.031 A 
ATOM     34  C   UNL A   1      40.797  27.268  28.610  1.00  0.00     0.074 A 
ATOM     35  C   UNL A   1      42.734  26.294  27.426  1.00  0.00     0.049 A 
ATOM     36  N   UNL A   1      41.231  28.474  28.879  1.00  0.00    -0.248 NA
ATOM     37  C   UNL A   1      39.440  26.994  29.111  1.00  0.00     0.031 C 
ATOM     38  C   UNL A   1      43.517  25.266  26.746  1.00  0.00     0.029 A 
ATOM     39  N   UNL A   1      43.570  27.380  27.480  1.00  0.00    -0.354 N 
ATOM     40  C   UNL A   1      40.201  29.099  29.570  1.00  0.00     0.074 A 
ATOM     41  C   UNL A   1      39.110  28.154  29.655  1.00  0.00     0.031 C 
ATOM     42  C   UNL A   1      44.725  25.772  26.443  1.00  0.00     0.029 A 
ATOM     43  C   UNL A   1      44.789  27.164  26.889  1.00  0.00     0.049 A 
ATOM     44  H   UNL A   1      43.320  28.234  27.903  1.00  0.00     0.167 HD
ATOM     45  C   UNL A   1      40.170  30.347  30.095  1.00  0.00     0.037 A 
ATOM     46  C   UNL A   1      45.831  28.000  26.723  1.00  0.00     0.037 A 
ATOM     47  C   UNL A   1      41.256  31.287  30.017  1.00  0.00     0.049 A 
ATOM     48  C   UNL A   1      45.751  29.403  27.264  1.00  0.00     0.074 A 
ATOM     49  C   UNL A   1      41.329  32.570  30.531  1.00  0.00     0.029 A 
ATOM     50  N   UNL A   1      42.462  31.042  29.378  1.00  0.00    -0.354 N 
ATOM     51  N   UNL A   1      44.784  29.981  27.934  1.00  0.00    -0.248 NA
ATOM     52  C   UNL A   1      46.916  30.269  27.030  1.00  0.00     0.031 C 
ATOM     53  C   UNL A   1      42.563  33.117  30.165  1.00  0.00     0.029 A 
ATOM     54  C   UNL A   1      43.278  32.158  29.466  1.00  0.00     0.049 A 
ATOM     55  H   UNL A   1      42.702  30.200  28.930  1.00  0.00     0.167 HD
ATOM     56  C   UNL A   1      45.235  31.261  28.232  1.00  0.00     0.074 A 
ATOM     57  C   UNL A   1      46.565  31.375  27.671  1.00  0.00     0.031 C 
ATOM     58  C   UNL A   1      44.606  32.250  28.914  1.00  0.00     0.037 A 
BRANCH  45  59
ATOM     59  C   UNL A   1      38.900  30.775  30.772  1.00  0.00     0.064 A 
ATOM     60  C   UNL A   1      38.726  30.655  32.159  1.00  0.00     0.173 A 
ATOM     61  C   UNL A   1      37.845  31.313  30.022  1.00  0.00     0.173 A 
ATOM     62  F   UNL A   1      39.699  30.130  32.919  1.00  0.00    -0.203 F 
ATOM     63  C   UNL A   1      37.530  31.029  32.765  1.00  0.00     0.198 A 
ATOM     64  C   UNL A   1      36.660  31.712  30.635  1.00  0.00     0.198 A 
ATOM     65  F   UNL A   1      37.961  31.451  28.692  1.00  0.00    -0.203 F 
ATOM     66  F   UNL A   1      37.366  30.857  34.084  1.00  0.00    -0.200 F 
ATOM     67  C   UNL A   1      36.499  31.562  32.005  1.00  0.00     0.200 A 
ATOM     68  F   UNL A   1      35.669  32.234  29.899  1.00  0.00    -0.200 F 
ATOM     69  F   UNL A   1      35.348  31.919  32.588  1.00  0.00    -0.200 F 
ENDBRANCH  45  59
BRANCH  46  70
ATOM     70  C   UNL A   1      47.052  27.525  26.024  1.00  0.00     0.064 A 
ATOM     71  C   UNL A   1      47.168  27.619  24.631  1.00  0.00     0.173 A 
ATOM     72  C   UNL A   1      48.123  26.963  26.733  1.00  0.00     0.173 A 
ATOM     73  F   UNL A   1      46.157  28.124  23.907  1.00  0.00    -0.203 F 
ATOM     74  C   UNL A   1      48.306  27.159  23.972  1.00  0.00     0.198 A 
ATOM     75  C   UNL A   1      49.271  26.525  26.076  1.00  0.00     0.198 A 
ATOM     76  F   UNL A   1      48.057  26.847  28.068  1.00  0.00    -0.203 F 
ATOM     77  F   UNL A   1      48.375  27.224  22.634  1.00  0.00    -0.200 F 
ATOM     78  C   UNL A   1      49.359  26.618  24.695  1.00  0.00     0.200 A 
ATOM     79  F   UNL A   1      50.288  26.009  26.778  1.00  0.00    -0.200 F 
ATOM     80  F   UNL A   1      50.453  26.178  24.060  1.00  0.00    -0.200 F 
ENDBRANCH  46  70
BRANCH  58  81
ATOM     81  C   UNL A   1      45.365  33.526  29.135  1.00  0.00     0.064 A 
ATOM     82  C   UNL A   1      46.202  33.705  30.245  1.00  0.00     0.173 A 
ATOM     83  C   UNL A   1      45.280  34.569  28.199  1.00  0.00     0.173 A 
ATOM     84  F   UNL A   1      46.306  32.743  31.174  1.00  0.00    -0.203 F 
ATOM     85  C   UNL A   1      46.909  34.891  30.422  1.00  0.00     0.198 A 
ATOM     86  C   UNL A   1      46.010  35.742  28.366  1.00  0.00     0.198 A 
ATOM     87  F   UNL A   1      44.499  34.444  27.116  1.00  0.00    -0.203 F 
ATOM     88  F   UNL A   1      47.669  35.059  31.513  1.00  0.00    -0.200 F 
ATOM     89  C   UNL A   1      46.818  35.906  29.481  1.00  0.00     0.200 A 
ATOM     90  F   UNL A   1      45.930  36.716  27.449  1.00  0.00    -0.200 F 
ATOM     91  F   UNL A   1      47.502  37.045  29.652  1.00  0.00    -0.200 F 
ENDBRANCH  58  81
ENDBRANCH  32  33
ENDBRANCH  25  27
ENDBRANCH  24  25
ENDBRANCH  23  24
ENDBRANCH  22  23
ENDBRANCH   1  22
TORSDOF 18
ENDMDL
