MODEL 1
REMARK VINA RESULT:     -10.3      0.000      0.000
REMARK SMILES COCCCC(=O)N[C@H]1CC[C@@H](C(=O)OCCOCCOC(=O)c2ccc(-c3c4nc(c(-c5c(F)c(F)c(F)c(F)c5F)c5ccc([nH]5)c(-c5c(F)c(F)c(F)c(F)c5F)c5nc(c(-c6c(F)c(F)c(F)c(F)c6F)c6ccc3[nH]6)C=C5)C=C4)cc2)CC1
REMARK SMILES IDX 16 1 15 2 13 3 14 4 12 5 9 6 10 7 88 8 11 9 87 10 8 11 6 12
REMARK SMILES IDX 7 13 5 15 4 16 3 17 2 18 1 19 17 20 18 21 19 22 20 23 21 24
REMARK SMILES IDX 22 25 23 26 24 27 25 28 86 29 26 30 85 31 27 32 28 33 29 34
REMARK SMILES IDX 79 35 30 36 84 37 78 38 80 39 31 40 83 41 77 42 76 43 32 45
REMARK SMILES IDX 64 46 44 47 63 48 45 49 48 50 62 51 81 52 46 53 47 54 61 56
REMARK SMILES IDX 82 57 49 58 33 59 34 60 42 61 35 62 36 63 40 64 43 65 37 66
REMARK SMILES IDX 38 67 41 68 39 69 65 70 66 71 74 72 67 73 68 74 72 75 75 76
REMARK SMILES IDX 69 77 70 78 73 79 71 80 50 81 51 82 59 83 52 84 53 85 57 86
REMARK SMILES IDX 60 87 54 88 55 89 58 90 56 91
REMARK H PARENT 8 14 80 44 48 55
REMARK Flexibility Score: inf
ROOT
ATOM      1  C   UNL A   1      35.111  31.851  28.467  1.00  0.00     0.261 C 
ENDROOT
BRANCH   1   2
ATOM      2  O   UNL A   1      34.029  31.072  27.924  1.00  0.00    -0.463 OA
BRANCH   2   3
ATOM      3  C   UNL A   1      34.353  29.895  27.330  1.00  0.00     0.309 C 
ATOM      4  O   UNL A   1      35.469  29.591  26.935  1.00  0.00    -0.252 OA
BRANCH   3   5
ATOM      5  C   UNL A   1      33.141  28.989  27.175  1.00  0.00     0.099 C 
ATOM      6  C   UNL A   1      31.627  29.239  24.643  1.00  0.00     0.082 C 
ATOM      7  C   UNL A   1      33.031  28.632  24.660  1.00  0.00     0.026 C 
ATOM      8  C   UNL A   1      31.455  30.304  25.718  1.00  0.00     0.026 C 
ATOM      9  C   UNL A   1      33.366  28.018  26.016  1.00  0.00     0.017 C 
ATOM     10  C   UNL A   1      31.781  29.705  27.092  1.00  0.00     0.017 C 
BRANCH   6  11
ATOM     11  N   UNL A   1      31.321  29.701  23.308  1.00  0.00    -0.353 N 
ATOM     12  C   UNL A   1      30.195  29.455  22.580  1.00  0.00     0.220 C 
ATOM     13  O   UNL A   1      30.251  29.593  21.359  1.00  0.00    -0.275 OA
ATOM     14  H   UNL A   1      32.005  30.260  22.874  1.00  0.00     0.163 HD
BRANCH  12  15
ATOM     15  C   UNL A   1      28.879  29.143  23.275  1.00  0.00     0.102 C 
BRANCH  15  16
ATOM     16  C   UNL A   1      27.693  30.095  23.103  1.00  0.00     0.038 C 
BRANCH  16  17
ATOM     17  C   UNL A   1      27.771  31.577  23.501  1.00  0.00     0.160 C 
BRANCH  17  18
ATOM     18  O   UNL A   1      27.918  32.626  22.550  1.00  0.00    -0.385 OA
ATOM     19  C   UNL A   1      28.031  32.324  21.175  1.00  0.00     0.194 C 
ENDBRANCH  17  18
ENDBRANCH  16  17
ENDBRANCH  15  16
ENDBRANCH  12  15
ENDBRANCH   6  11
ENDBRANCH   3   5
ENDBRANCH   2   3
ENDBRANCH   1   2
BRANCH   1  20
ATOM     20  C   UNL A   1      34.993  33.303  28.001  1.00  0.00     0.202 C 
BRANCH  20  21
ATOM     21  O   UNL A   1      34.673  34.252  29.018  1.00  0.00    -0.374 OA
BRANCH  21  22
ATOM     22  C   UNL A   1      33.291  34.531  29.232  1.00  0.00     0.202 C 
BRANCH  22  23
ATOM     23  C   UNL A   1      32.938  36.006  29.455  1.00  0.00     0.261 C 
BRANCH  23  24
ATOM     24  O   UNL A   1      33.259  36.449  30.787  1.00  0.00    -0.460 OA
BRANCH  24  25
ATOM     25  C   UNL A   1      32.784  35.658  31.775  1.00  0.00     0.338 C 
ATOM     26  O   UNL A   1      31.612  35.386  32.011  1.00  0.00    -0.246 OA
BRANCH  25  27
ATOM     27  C   UNL A   1      33.894  34.995  32.479  1.00  0.00     0.060 A 
ATOM     28  C   UNL A   1      35.157  35.599  32.409  1.00  0.00     0.016 A 
ATOM     29  C   UNL A   1      33.731  33.761  33.114  1.00  0.00     0.016 A 
ATOM     30  C   UNL A   1      36.273  34.947  32.926  1.00  0.00     0.010 A 
ATOM     31  C   UNL A   1      34.855  33.103  33.623  1.00  0.00     0.010 A 
ATOM     32  C   UNL A   1      36.135  33.675  33.495  1.00  0.00    -0.014 A 
BRANCH  32  33
ATOM     33  C   UNL A   1      37.343  32.873  33.803  1.00  0.00     0.031 A 
ATOM     34  C   UNL A   1      38.097  33.153  35.073  1.00  0.00     0.074 A 
ATOM     35  C   UNL A   1      37.761  31.905  32.971  1.00  0.00     0.049 A 
ATOM     36  N   UNL A   1      39.218  32.639  35.507  1.00  0.00    -0.248 NA
ATOM     37  C   UNL A   1      37.505  34.157  35.972  1.00  0.00     0.031 C 
ATOM     38  C   UNL A   1      37.095  31.515  31.731  1.00  0.00     0.029 A 
ATOM     39  N   UNL A   1      38.862  31.088  33.038  1.00  0.00    -0.354 N 
ATOM     40  C   UNL A   1      39.475  33.266  36.719  1.00  0.00     0.074 A 
ATOM     41  C   UNL A   1      38.406  34.215  36.941  1.00  0.00     0.031 C 
ATOM     42  C   UNL A   1      37.821  30.556  31.133  1.00  0.00     0.029 A 
ATOM     43  C   UNL A   1      39.016  30.289  31.933  1.00  0.00     0.049 A 
ATOM     44  H   UNL A   1      39.481  31.077  33.804  1.00  0.00     0.167 HD
ATOM     45  C   UNL A   1      40.509  33.065  37.571  1.00  0.00     0.037 A 
ATOM     46  C   UNL A   1      40.027  29.466  31.590  1.00  0.00     0.037 A 
ATOM     47  C   UNL A   1      41.569  32.118  37.347  1.00  0.00     0.049 A 
ATOM     48  C   UNL A   1      41.199  29.301  32.520  1.00  0.00     0.074 A 
ATOM     49  C   UNL A   1      42.640  31.812  38.166  1.00  0.00     0.029 A 
ATOM     50  N   UNL A   1      41.695  31.331  36.211  1.00  0.00    -0.354 N 
ATOM     51  N   UNL A   1      41.420  29.869  33.681  1.00  0.00    -0.248 NA
ATOM     52  C   UNL A   1      42.261  28.378  32.094  1.00  0.00     0.031 C 
ATOM     53  C   UNL A   1      43.446  30.881  37.502  1.00  0.00     0.029 A 
ATOM     54  C   UNL A   1      42.846  30.564  36.293  1.00  0.00     0.049 A 
ATOM     55  H   UNL A   1      41.061  31.319  35.458  1.00  0.00     0.167 HD
ATOM     56  C   UNL A   1      42.630  29.359  34.134  1.00  0.00     0.074 A 
ATOM     57  C   UNL A   1      43.094  28.429  33.127  1.00  0.00     0.031 C 
ATOM     58  C   UNL A   1      43.293  29.636  35.285  1.00  0.00     0.037 A 
BRANCH  45  59
ATOM     59  C   UNL A   1      40.561  33.918  38.805  1.00  0.00     0.064 A 
ATOM     60  C   UNL A   1      41.230  35.150  38.827  1.00  0.00     0.173 A 
ATOM     61  C   UNL A   1      39.921  33.498  39.981  1.00  0.00     0.173 A 
ATOM     62  F   UNL A   1      41.869  35.591  37.733  1.00  0.00    -0.203 F 
ATOM     63  C   UNL A   1      41.288  35.913  39.991  1.00  0.00     0.198 A 
ATOM     64  C   UNL A   1      39.956  34.277  41.134  1.00  0.00     0.198 A 
ATOM     65  F   UNL A   1      39.262  32.329  40.013  1.00  0.00    -0.203 F 
ATOM     66  F   UNL A   1      41.983  37.059  40.006  1.00  0.00    -0.200 F 
ATOM     67  C   UNL A   1      40.648  35.478  41.142  1.00  0.00     0.200 A 
ATOM     68  F   UNL A   1      39.326  33.860  42.241  1.00  0.00    -0.200 F 
ATOM     69  F   UNL A   1      40.706  36.212  42.261  1.00  0.00    -0.200 F 
ENDBRANCH  45  59
BRANCH  46  70
ATOM     70  C   UNL A   1      39.977  28.759  30.285  1.00  0.00     0.064 A 
ATOM     71  C   UNL A   1      40.503  29.340  29.124  1.00  0.00     0.173 A 
ATOM     72  C   UNL A   1      39.421  27.475  30.180  1.00  0.00     0.173 A 
ATOM     73  F   UNL A   1      41.020  30.576  29.169  1.00  0.00    -0.203 F 
ATOM     74  C   UNL A   1      40.471  28.664  27.906  1.00  0.00     0.198 A 
ATOM     75  C   UNL A   1      39.413  26.790  28.968  1.00  0.00     0.198 A 
ATOM     76  F   UNL A   1      38.897  26.882  31.262  1.00  0.00    -0.203 F 
ATOM     77  F   UNL A   1      40.951  29.254  26.802  1.00  0.00    -0.200 F 
ATOM     78  C   UNL A   1      39.935  27.387  27.830  1.00  0.00     0.200 A 
ATOM     79  F   UNL A   1      38.903  25.553  28.900  1.00  0.00    -0.200 F 
ATOM     80  F   UNL A   1      39.917  26.734  26.661  1.00  0.00    -0.200 F 
ENDBRANCH  46  70
BRANCH  58  81
ATOM     81  C   UNL A   1      44.579  28.904  35.542  1.00  0.00     0.064 A 
ATOM     82  C   UNL A   1      45.818  29.436  35.162  1.00  0.00     0.173 A 
ATOM     83  C   UNL A   1      44.571  27.690  36.248  1.00  0.00     0.173 A 
ATOM     84  F   UNL A   1      45.878  30.586  34.474  1.00  0.00    -0.203 F 
ATOM     85  C   UNL A   1      47.005  28.775  35.471  1.00  0.00     0.198 A 
ATOM     86  C   UNL A   1      45.760  27.046  36.577  1.00  0.00     0.198 A 
ATOM     87  F   UNL A   1      43.411  27.142  36.639  1.00  0.00    -0.203 F 
ATOM     88  F   UNL A   1      48.178  29.286  35.073  1.00  0.00    -0.200 F 
ATOM     89  C   UNL A   1      46.975  27.587  36.187  1.00  0.00     0.200 A 
ATOM     90  F   UNL A   1      45.730  25.906  37.282  1.00  0.00    -0.200 F 
ATOM     91  F   UNL A   1      48.118  26.962  36.499  1.00  0.00    -0.200 F 
ENDBRANCH  58  81
ENDBRANCH  32  33
ENDBRANCH  25  27
ENDBRANCH  24  25
ENDBRANCH  23  24
ENDBRANCH  22  23
ENDBRANCH  21  22
ENDBRANCH  20  21
ENDBRANCH   1  20
TORSDOF 19
ENDMDL
MODEL 2
REMARK VINA RESULT:     -10.2      5.437      8.035
REMARK SMILES COCCCC(=O)N[C@H]1CC[C@@H](C(=O)OCCOCCOC(=O)c2ccc(-c3c4nc(c(-c5c(F)c(F)c(F)c(F)c5F)c5ccc([nH]5)c(-c5c(F)c(F)c(F)c(F)c5F)c5nc(c(-c6c(F)c(F)c(F)c(F)c6F)c6ccc3[nH]6)C=C5)C=C4)cc2)CC1
REMARK SMILES IDX 16 1 15 2 13 3 14 4 12 5 9 6 10 7 88 8 11 9 87 10 8 11 6 12
REMARK SMILES IDX 7 13 5 15 4 16 3 17 2 18 1 19 17 20 18 21 19 22 20 23 21 24
REMARK SMILES IDX 22 25 23 26 24 27 25 28 86 29 26 30 85 31 27 32 28 33 29 34
REMARK SMILES IDX 79 35 30 36 84 37 78 38 80 39 31 40 83 41 77 42 76 43 32 45
REMARK SMILES IDX 64 46 44 47 63 48 45 49 48 50 62 51 81 52 46 53 47 54 61 56
REMARK SMILES IDX 82 57 49 58 33 59 34 60 42 61 35 62 36 63 40 64 43 65 37 66
REMARK SMILES IDX 38 67 41 68 39 69 65 70 66 71 74 72 67 73 68 74 72 75 75 76
REMARK SMILES IDX 69 77 70 78 73 79 71 80 50 81 51 82 59 83 52 84 53 85 57 86
REMARK SMILES IDX 60 87 54 88 55 89 58 90 56 91
REMARK H PARENT 8 14 80 44 48 55
REMARK Flexibility Score: inf
ROOT
ATOM      1  C   UNL A   1      34.690  31.855  27.661  1.00  0.00     0.261 C 
ENDROOT
BRANCH   1   2
ATOM      2  O   UNL A   1      33.602  31.036  28.129  1.00  0.00    -0.463 OA
BRANCH   2   3
ATOM      3  C   UNL A   1      32.859  30.403  27.187  1.00  0.00     0.309 C 
ATOM      4  O   UNL A   1      32.195  30.959  26.324  1.00  0.00    -0.252 OA
BRANCH   3   5
ATOM      5  C   UNL A   1      32.912  28.891  27.347  1.00  0.00     0.099 C 
ATOM      6  C   UNL A   1      32.811  27.300  24.852  1.00  0.00     0.082 C 
ATOM      7  C   UNL A   1      34.041  28.143  25.195  1.00  0.00     0.026 C 
ATOM      8  C   UNL A   1      31.528  27.922  25.387  1.00  0.00     0.026 C 
ATOM      9  C   UNL A   1      34.185  28.347  26.700  1.00  0.00     0.017 C 
ATOM     10  C   UNL A   1      31.650  28.130  26.902  1.00  0.00     0.017 C 
BRANCH   6  11
ATOM     11  N   UNL A   1      32.787  27.043  23.430  1.00  0.00    -0.353 N 
ATOM     12  C   UNL A   1      33.496  26.105  22.741  1.00  0.00     0.220 C 
ATOM     13  O   UNL A   1      33.649  26.264  21.531  1.00  0.00    -0.275 OA
ATOM     14  H   UNL A   1      32.187  27.613  22.895  1.00  0.00     0.163 HD
BRANCH  12  15
ATOM     15  C   UNL A   1      33.972  24.837  23.432  1.00  0.00     0.102 C 
BRANCH  15  16
ATOM     16  C   UNL A   1      32.956  23.754  23.801  1.00  0.00     0.038 C 
BRANCH  16  17
ATOM     17  C   UNL A   1      33.376  22.431  24.458  1.00  0.00     0.160 C 
BRANCH  17  18
ATOM     18  O   UNL A   1      32.439  21.466  24.924  1.00  0.00    -0.385 OA
ATOM     19  C   UNL A   1      32.404  20.178  24.346  1.00  0.00     0.194 C 
ENDBRANCH  17  18
ENDBRANCH  16  17
ENDBRANCH  15  16
ENDBRANCH  12  15
ENDBRANCH   6  11
ENDBRANCH   3   5
ENDBRANCH   2   3
ENDBRANCH   1   2
BRANCH   1  20
ATOM     20  C   UNL A   1      34.469  33.307  28.087  1.00  0.00     0.202 C 
BRANCH  20  21
ATOM     21  O   UNL A   1      33.754  33.488  29.310  1.00  0.00    -0.374 OA
BRANCH  21  22
ATOM     22  C   UNL A   1      34.360  34.319  30.298  1.00  0.00     0.202 C 
BRANCH  22  23
ATOM     23  C   UNL A   1      34.252  33.818  31.743  1.00  0.00     0.261 C 
BRANCH  23  24
ATOM     24  O   UNL A   1      34.611  32.429  31.868  1.00  0.00    -0.460 OA
BRANCH  24  25
ATOM     25  C   UNL A   1      35.684  32.192  32.656  1.00  0.00     0.338 C 
ATOM     26  O   UNL A   1      35.810  32.466  33.843  1.00  0.00    -0.246 OA
BRANCH  25  27
ATOM     27  C   UNL A   1      36.680  31.383  31.933  1.00  0.00     0.060 A 
ATOM     28  C   UNL A   1      37.629  30.691  32.698  1.00  0.00     0.016 A 
ATOM     29  C   UNL A   1      36.748  31.374  30.538  1.00  0.00     0.016 A 
ATOM     30  C   UNL A   1      38.684  30.031  32.072  1.00  0.00     0.010 A 
ATOM     31  C   UNL A   1      37.814  30.719  29.912  1.00  0.00     0.010 A 
ATOM     32  C   UNL A   1      38.807  30.080  30.678  1.00  0.00    -0.014 A 
BRANCH  32  33
ATOM     33  C   UNL A   1      40.057  29.610  30.034  1.00  0.00     0.031 A 
ATOM     34  C   UNL A   1      41.195  30.576  29.867  1.00  0.00     0.074 A 
ATOM     35  C   UNL A   1      40.182  28.341  29.611  1.00  0.00     0.049 A 
ATOM     36  N   UNL A   1      42.344  30.413  29.263  1.00  0.00    -0.248 NA
ATOM     37  C   UNL A   1      41.006  31.911  30.457  1.00  0.00     0.031 C 
ATOM     38  C   UNL A   1      39.164  27.302  29.750  1.00  0.00     0.029 A 
ATOM     39  N   UNL A   1      41.216  27.719  28.957  1.00  0.00    -0.354 N 
ATOM     40  C   UNL A   1      43.009  31.627  29.386  1.00  0.00     0.074 A 
ATOM     41  C   UNL A   1      42.125  32.524  30.100  1.00  0.00     0.031 C 
ATOM     42  C   UNL A   1      39.610  26.178  29.166  1.00  0.00     0.029 A 
ATOM     43  C   UNL A   1      40.929  26.430  28.585  1.00  0.00     0.049 A 
ATOM     44  H   UNL A   1      42.079  28.156  28.771  1.00  0.00     0.167 HD
ATOM     45  C   UNL A   1      44.244  31.960  28.945  1.00  0.00     0.037 A 
ATOM     46  C   UNL A   1      41.635  25.566  27.830  1.00  0.00     0.037 A 
ATOM     47  C   UNL A   1      45.120  31.064  28.238  1.00  0.00     0.049 A 
ATOM     48  C   UNL A   1      42.982  25.975  27.295  1.00  0.00     0.074 A 
ATOM     49  C   UNL A   1      46.406  31.294  27.782  1.00  0.00     0.029 A 
ATOM     50  N   UNL A   1      44.792  29.767  27.873  1.00  0.00    -0.354 N 
ATOM     51  N   UNL A   1      43.620  27.110  27.443  1.00  0.00    -0.248 NA
ATOM     52  C   UNL A   1      43.708  24.981  26.490  1.00  0.00     0.031 C 
ATOM     53  C   UNL A   1      46.834  30.156  27.092  1.00  0.00     0.029 A 
ATOM     54  C   UNL A   1      45.838  29.195  27.168  1.00  0.00     0.049 A 
ATOM     55  H   UNL A   1      43.941  29.318  28.083  1.00  0.00     0.167 HD
ATOM     56  C   UNL A   1      44.827  26.963  26.772  1.00  0.00     0.074 A 
ATOM     57  C   UNL A   1      44.838  25.624  26.221  1.00  0.00     0.031 C 
ATOM     58  C   UNL A   1      45.837  27.858  26.630  1.00  0.00     0.037 A 
BRANCH  45  59
ATOM     59  C   UNL A   1      44.704  33.370  29.182  1.00  0.00     0.064 A 
ATOM     60  C   UNL A   1      44.442  34.400  28.266  1.00  0.00     0.173 A 
ATOM     61  C   UNL A   1      45.408  33.696  30.350  1.00  0.00     0.173 A 
ATOM     62  F   UNL A   1      43.782  34.138  27.127  1.00  0.00    -0.203 F 
ATOM     63  C   UNL A   1      44.900  35.695  28.493  1.00  0.00     0.198 A 
ATOM     64  C   UNL A   1      45.839  34.998  30.589  1.00  0.00     0.198 A 
ATOM     65  F   UNL A   1      45.681  32.751  31.263  1.00  0.00    -0.203 F 
ATOM     66  F   UNL A   1      44.689  36.650  27.576  1.00  0.00    -0.200 F 
ATOM     67  C   UNL A   1      45.594  35.994  29.656  1.00  0.00     0.200 A 
ATOM     68  F   UNL A   1      46.499  35.287  31.719  1.00  0.00    -0.200 F 
ATOM     69  F   UNL A   1      46.036  37.240  29.873  1.00  0.00    -0.200 F 
ENDBRANCH  45  59
BRANCH  46  70
ATOM     70  C   UNL A   1      41.057  24.234  27.515  1.00  0.00     0.064 A 
ATOM     71  C   UNL A   1      40.005  24.097  26.601  1.00  0.00     0.173 A 
ATOM     72  C   UNL A   1      41.564  23.068  28.110  1.00  0.00     0.173 A 
ATOM     73  F   UNL A   1      39.469  25.184  26.028  1.00  0.00    -0.203 F 
ATOM     74  C   UNL A   1      39.479  22.843  26.296  1.00  0.00     0.198 A 
ATOM     75  C   UNL A   1      41.055  21.814  27.783  1.00  0.00     0.198 A 
ATOM     76  F   UNL A   1      42.564  23.151  28.998  1.00  0.00    -0.203 F 
ATOM     77  F   UNL A   1      38.450  22.741  25.442  1.00  0.00    -0.200 F 
ATOM     78  C   UNL A   1      40.010  21.702  26.879  1.00  0.00     0.200 A 
ATOM     79  F   UNL A   1      41.576  20.713  28.343  1.00  0.00    -0.200 F 
ATOM     80  F   UNL A   1      39.511  20.497  26.575  1.00  0.00    -0.200 F 
ENDBRANCH  46  70
BRANCH  58  81
ATOM     81  C   UNL A   1      47.059  27.416  25.877  1.00  0.00     0.064 A 
ATOM     82  C   UNL A   1      47.176  27.596  24.492  1.00  0.00     0.173 A 
ATOM     83  C   UNL A   1      48.157  26.876  26.566  1.00  0.00     0.173 A 
ATOM     84  F   UNL A   1      46.150  28.094  23.786  1.00  0.00    -0.203 F 
ATOM     85  C   UNL A   1      48.345  27.243  23.821  1.00  0.00     0.198 A 
ATOM     86  C   UNL A   1      49.333  26.550  25.897  1.00  0.00     0.198 A 
ATOM     87  F   UNL A   1      48.098  26.690  27.894  1.00  0.00    -0.203 F 
ATOM     88  F   UNL A   1      48.425  27.396  22.493  1.00  0.00    -0.200 F 
ATOM     89  C   UNL A   1      49.426  26.731  24.526  1.00  0.00     0.200 A 
ATOM     90  F   UNL A   1      50.381  26.070  26.581  1.00  0.00    -0.200 F 
ATOM     91  F   UNL A   1      50.555  26.409  23.881  1.00  0.00    -0.200 F 
ENDBRANCH  58  81
ENDBRANCH  32  33
ENDBRANCH  25  27
ENDBRANCH  24  25
ENDBRANCH  23  24
ENDBRANCH  22  23
ENDBRANCH  21  22
ENDBRANCH  20  21
ENDBRANCH   1  20
TORSDOF 19
ENDMDL
MODEL 3
REMARK VINA RESULT:      -9.9      2.499      4.050
REMARK SMILES COCCCC(=O)N[C@H]1CC[C@@H](C(=O)OCCOCCOC(=O)c2ccc(-c3c4nc(c(-c5c(F)c(F)c(F)c(F)c5F)c5ccc([nH]5)c(-c5c(F)c(F)c(F)c(F)c5F)c5nc(c(-c6c(F)c(F)c(F)c(F)c6F)c6ccc3[nH]6)C=C5)C=C4)cc2)CC1
REMARK SMILES IDX 16 1 15 2 13 3 14 4 12 5 9 6 10 7 88 8 11 9 87 10 8 11 6 12
REMARK SMILES IDX 7 13 5 15 4 16 3 17 2 18 1 19 17 20 18 21 19 22 20 23 21 24
REMARK SMILES IDX 22 25 23 26 24 27 25 28 86 29 26 30 85 31 27 32 28 33 29 34
REMARK SMILES IDX 79 35 30 36 84 37 78 38 80 39 31 40 83 41 77 42 76 43 32 45
REMARK SMILES IDX 64 46 44 47 63 48 45 49 48 50 62 51 81 52 46 53 47 54 61 56
REMARK SMILES IDX 82 57 49 58 33 59 34 60 42 61 35 62 36 63 40 64 43 65 37 66
REMARK SMILES IDX 38 67 41 68 39 69 65 70 66 71 74 72 67 73 68 74 72 75 75 76
REMARK SMILES IDX 69 77 70 78 73 79 71 80 50 81 51 82 59 83 52 84 53 85 57 86
REMARK SMILES IDX 60 87 54 88 55 89 58 90 56 91
REMARK H PARENT 8 14 80 44 48 55
REMARK Flexibility Score: inf
ROOT
ATOM      1  C   UNL A   1      33.999  29.006  27.112  1.00  0.00     0.261 C 
ENDROOT
BRANCH   1   2
ATOM      2  O   UNL A   1      33.961  29.100  25.676  1.00  0.00    -0.463 OA
BRANCH   2   3
ATOM      3  C   UNL A   1      32.737  29.088  25.090  1.00  0.00     0.309 C 
ATOM      4  O   UNL A   1      31.879  29.948  25.233  1.00  0.00    -0.252 OA
BRANCH   3   5
ATOM      5  C   UNL A   1      32.529  27.841  24.243  1.00  0.00     0.099 C 
ATOM      6  C   UNL A   1      31.612  25.417  25.674  1.00  0.00     0.082 C 
ATOM      7  C   UNL A   1      30.684  26.620  25.494  1.00  0.00     0.026 C 
ATOM      8  C   UNL A   1      33.071  25.838  25.788  1.00  0.00     0.026 C 
ATOM      9  C   UNL A   1      31.055  27.441  24.264  1.00  0.00     0.017 C 
ATOM     10  C   UNL A   1      33.467  26.661  24.556  1.00  0.00     0.017 C 
BRANCH   6  11
ATOM     11  N   UNL A   1      31.147  24.614  26.783  1.00  0.00    -0.353 N 
ATOM     12  C   UNL A   1      30.653  23.344  26.740  1.00  0.00     0.220 C 
ATOM     13  O   UNL A   1      29.966  22.956  27.685  1.00  0.00    -0.275 OA
ATOM     14  H   UNL A   1      31.194  25.032  27.672  1.00  0.00     0.163 HD
BRANCH  12  15
ATOM     15  C   UNL A   1      31.049  22.398  25.618  1.00  0.00     0.102 C 
BRANCH  15  16
ATOM     16  C   UNL A   1      32.305  21.537  25.767  1.00  0.00     0.038 C 
BRANCH  16  17
ATOM     17  C   UNL A   1      33.360  21.813  26.849  1.00  0.00     0.160 C 
BRANCH  17  18
ATOM     18  O   UNL A   1      34.760  21.790  26.588  1.00  0.00    -0.385 OA
ATOM     19  C   UNL A   1      35.424  22.971  26.191  1.00  0.00     0.194 C 
ENDBRANCH  17  18
ENDBRANCH  16  17
ENDBRANCH  15  16
ENDBRANCH  12  15
ENDBRANCH   6  11
ENDBRANCH   3   5
ENDBRANCH   2   3
ENDBRANCH   1   2
BRANCH   1  20
ATOM     20  C   UNL A   1      34.870  30.124  27.685  1.00  0.00     0.202 C 
BRANCH  20  21
ATOM     21  O   UNL A   1      34.495  31.450  27.310  1.00  0.00    -0.374 OA
BRANCH  21  22
ATOM     22  C   UNL A   1      33.305  31.976  27.895  1.00  0.00     0.202 C 
BRANCH  22  23
ATOM     23  C   UNL A   1      32.912  33.388  27.444  1.00  0.00     0.261 C 
BRANCH  23  24
ATOM     24  O   UNL A   1      32.362  34.172  28.520  1.00  0.00    -0.460 OA
BRANCH  24  25
ATOM     25  C   UNL A   1      33.135  35.209  28.914  1.00  0.00     0.338 C 
ATOM     26  O   UNL A   1      32.912  36.404  28.761  1.00  0.00    -0.246 OA
BRANCH  25  27
ATOM     27  C   UNL A   1      34.261  34.726  29.733  1.00  0.00     0.060 A 
ATOM     28  C   UNL A   1      35.532  34.716  29.143  1.00  0.00     0.016 A 
ATOM     29  C   UNL A   1      34.068  34.204  31.014  1.00  0.00     0.016 A 
ATOM     30  C   UNL A   1      36.607  34.134  29.809  1.00  0.00     0.010 A 
ATOM     31  C   UNL A   1      35.147  33.612  31.678  1.00  0.00     0.010 A 
ATOM     32  C   UNL A   1      36.410  33.539  31.062  1.00  0.00    -0.014 A 
BRANCH  32  33
ATOM     33  C   UNL A   1      37.478  32.696  31.650  1.00  0.00     0.031 A 
ATOM     34  C   UNL A   1      38.010  33.043  33.012  1.00  0.00     0.074 A 
ATOM     35  C   UNL A   1      37.964  31.633  30.988  1.00  0.00     0.049 A 
ATOM     36  N   UNL A   1      38.993  32.503  33.685  1.00  0.00    -0.248 NA
ATOM     37  C   UNL A   1      37.344  34.158  33.705  1.00  0.00     0.031 C 
ATOM     38  C   UNL A   1      37.505  31.174  29.680  1.00  0.00     0.029 A 
ATOM     39  N   UNL A   1      38.969  30.760  31.321  1.00  0.00    -0.354 N 
ATOM     40  C   UNL A   1      39.074  33.220  34.872  1.00  0.00     0.074 A 
ATOM     41  C   UNL A   1      38.058  34.249  34.817  1.00  0.00     0.031 C 
ATOM     42  C   UNL A   1      38.250  30.122  29.303  1.00  0.00     0.029 A 
ATOM     43  C   UNL A   1      39.258  29.857  30.330  1.00  0.00     0.049 A 
ATOM     44  H   UNL A   1      39.438  30.780  32.187  1.00  0.00     0.167 HD
ATOM     45  C   UNL A   1      39.919  33.034  35.913  1.00  0.00     0.037 A 
ATOM     46  C   UNL A   1      40.248  28.946  30.245  1.00  0.00     0.037 A 
ATOM     47  C   UNL A   1      40.927  32.008  35.965  1.00  0.00     0.049 A 
ATOM     48  C   UNL A   1      41.218  28.794  31.387  1.00  0.00     0.074 A 
ATOM     49  C   UNL A   1      41.807  31.713  36.990  1.00  0.00     0.029 A 
ATOM     50  N   UNL A   1      41.195  31.116  34.937  1.00  0.00    -0.354 N 
ATOM     51  N   UNL A   1      41.269  29.450  32.521  1.00  0.00    -0.248 NA
ATOM     52  C   UNL A   1      42.266  27.774  31.239  1.00  0.00     0.031 C 
ATOM     53  C   UNL A   1      42.646  30.679  36.561  1.00  0.00     0.029 A 
ATOM     54  C   UNL A   1      42.250  30.291  35.291  1.00  0.00     0.049 A 
ATOM     55  H   UNL A   1      40.708  31.075  34.082  1.00  0.00     0.167 HD
ATOM     56  C   UNL A   1      42.336  28.911  33.229  1.00  0.00     0.074 A 
ATOM     57  C   UNL A   1      42.901  27.867  32.401  1.00  0.00     0.031 C 
ATOM     58  C   UNL A   1      42.799  29.250  34.458  1.00  0.00     0.037 A 
BRANCH  45  59
ATOM     59  C   UNL A   1      39.813  33.991  37.066  1.00  0.00     0.064 A 
ATOM     60  C   UNL A   1      38.999  33.725  38.178  1.00  0.00     0.173 A 
ATOM     61  C   UNL A   1      40.546  35.186  37.061  1.00  0.00     0.173 A 
ATOM     62  F   UNL A   1      38.268  32.601  38.226  1.00  0.00    -0.203 F 
ATOM     63  C   UNL A   1      38.895  34.639  39.223  1.00  0.00     0.198 A 
ATOM     64  C   UNL A   1      40.463  36.083  38.122  1.00  0.00     0.198 A 
ATOM     65  F   UNL A   1      41.344  35.487  36.025  1.00  0.00    -0.203 F 
ATOM     66  F   UNL A   1      38.066  34.391  40.248  1.00  0.00    -0.200 F 
ATOM     67  C   UNL A   1      39.630  35.815  39.197  1.00  0.00     0.200 A 
ATOM     68  F   UNL A   1      41.183  37.214  38.100  1.00  0.00    -0.200 F 
ATOM     69  F   UNL A   1      39.528  36.693  40.204  1.00  0.00    -0.200 F 
ENDBRANCH  45  59
BRANCH  46  70
ATOM     70  C   UNL A   1      40.381  28.128  29.013  1.00  0.00     0.064 A 
ATOM     71  C   UNL A   1      39.711  26.905  28.878  1.00  0.00     0.173 A 
ATOM     72  C   UNL A   1      41.166  28.567  27.936  1.00  0.00     0.173 A 
ATOM     73  F   UNL A   1      38.972  26.431  29.890  1.00  0.00    -0.203 F 
ATOM     74  C   UNL A   1      39.824  26.151  27.711  1.00  0.00     0.198 A 
ATOM     75  C   UNL A   1      41.256  27.825  26.761  1.00  0.00     0.198 A 
ATOM     76  F   UNL A   1      41.833  29.726  28.023  1.00  0.00    -0.203 F 
ATOM     77  F   UNL A   1      39.200  24.968  27.618  1.00  0.00    -0.200 F 
ATOM     78  C   UNL A   1      40.588  26.615  26.651  1.00  0.00     0.200 A 
ATOM     79  F   UNL A   1      41.989  28.280  25.735  1.00  0.00    -0.200 F 
ATOM     80  F   UNL A   1      40.685  25.894  25.526  1.00  0.00    -0.200 F 
ENDBRANCH  46  70
BRANCH  58  81
ATOM     81  C   UNL A   1      43.958  28.467  35.006  1.00  0.00     0.064 A 
ATOM     82  C   UNL A   1      45.283  28.886  34.821  1.00  0.00     0.173 A 
ATOM     83  C   UNL A   1      43.731  27.326  35.792  1.00  0.00     0.173 A 
ATOM     84  F   UNL A   1      45.553  29.962  34.067  1.00  0.00    -0.203 F 
ATOM     85  C   UNL A   1      46.341  28.184  35.396  1.00  0.00     0.198 A 
ATOM     86  C   UNL A   1      44.789  26.643  36.386  1.00  0.00     0.198 A 
ATOM     87  F   UNL A   1      42.481  26.888  36.003  1.00  0.00    -0.203 F 
ATOM     88  F   UNL A   1      47.602  28.584  35.182  1.00  0.00    -0.200 F 
ATOM     89  C   UNL A   1      46.092  27.071  36.186  1.00  0.00     0.200 A 
ATOM     90  F   UNL A   1      44.545  25.577  37.161  1.00  0.00    -0.200 F 
ATOM     91  F   UNL A   1      47.109  26.409  36.752  1.00  0.00    -0.200 F 
ENDBRANCH  58  81
ENDBRANCH  32  33
ENDBRANCH  25  27
ENDBRANCH  24  25
ENDBRANCH  23  24
ENDBRANCH  22  23
ENDBRANCH  21  22
ENDBRANCH  20  21
ENDBRANCH   1  20
TORSDOF 19
ENDMDL
