MODEL 1
REMARK VINA RESULT:     -10.6      0.000      0.000
REMARK SMILES C[C@@H](C(=O)OCCOCCOC(=O)c1ccc(-c2c3nc(c(-c4c(F)c(F)c(F)c(F)c4F)c4ccc([nH]4)c(-c4c(F)c(F)c(F)c(F)c4F)c4nc(c(-c5c(F)c(F)c(F)c(F)c5F)c5ccc2[nH]5)C=C4)C=C3)cc1)c1ccc(C[C@@H]2CCC[C@@H]2O)cc1Br
REMARK SMILES IDX 7 1 6 2 5 3 3 4 4 5 2 6 1 7 77 8 78 9 89 10 79 11 88 12
REMARK SMILES IDX 90 13 80 14 81 15 82 16 83 17 86 18 84 19 85 20 87 21 8 23
REMARK SMILES IDX 9 24 10 25 11 26 12 27 13 28 14 29 15 30 76 31 16 32 75 33
REMARK SMILES IDX 17 34 18 35 19 36 69 37 20 38 74 39 68 40 70 41 21 42 73 43
REMARK SMILES IDX 67 44 66 45 22 47 54 48 34 49 53 50 35 51 38 52 52 53 71 54
REMARK SMILES IDX 36 55 37 56 51 58 72 59 39 60 23 61 24 62 32 63 25 64 26 65
REMARK SMILES IDX 30 66 33 67 27 68 28 69 31 70 29 71 55 72 56 73 64 74 57 75
REMARK SMILES IDX 58 76 62 77 65 78 59 79 60 80 63 81 61 82 40 83 41 84 49 85
REMARK SMILES IDX 42 86 43 87 47 88 50 89 44 90 45 91 48 92 46 93
REMARK H PARENT 87 22 70 46 38 57
REMARK Flexibility Score: inf
ROOT
ATOM      1  C   UNL A   1      38.160  23.401  26.118  1.00  0.00     0.202 C 
ENDROOT
BRANCH   1   2
ATOM      2  C   UNL A   1      36.640  23.227  26.065  1.00  0.00     0.261 C 
BRANCH   2   3
ATOM      3  O   UNL A   1      36.049  24.107  25.090  1.00  0.00    -0.463 OA
BRANCH   3   4
ATOM      4  C   UNL A   1      35.422  23.483  24.054  1.00  0.00     0.313 C 
ATOM      5  O   UNL A   1      35.942  23.317  22.955  1.00  0.00    -0.252 OA
BRANCH   4   6
ATOM      6  C   UNL A   1      34.006  22.990  24.410  1.00  0.00     0.127 C 
ATOM      7  C   UNL A   1      33.498  21.838  23.529  1.00  0.00     0.025 C 
BRANCH   6   8
ATOM      8  C   UNL A   1      33.057  24.191  24.486  1.00  0.00    -0.020 A 
ATOM      9  C   UNL A   1      33.133  25.237  23.544  1.00  0.00     0.006 A 
ATOM     10  C   UNL A   1      32.170  24.364  25.566  1.00  0.00     0.022 A 
ATOM     11  C   UNL A   1      32.408  26.425  23.707  1.00  0.00     0.004 A 
ATOM     12  C   UNL A   1      31.474  25.567  25.741  1.00  0.00     0.019 A 
ATOM     13  Br  UNL A   1      31.838  23.009  26.866  1.00  0.00    -0.050 Br
ATOM     14  C   UNL A   1      31.608  26.623  24.833  1.00  0.00    -0.047 A 
BRANCH  14  15
ATOM     15  C   UNL A   1      30.895  27.928  25.088  1.00  0.00     0.041 C 
BRANCH  15  16
ATOM     16  C   UNL A   1      31.658  29.075  25.791  1.00  0.00     0.022 C 
ATOM     17  C   UNL A   1      33.009  29.428  25.158  1.00  0.00     0.007 C 
ATOM     18  C   UNL A   1      32.013  28.900  27.272  1.00  0.00     0.117 C 
ATOM     19  C   UNL A   1      34.092  28.815  26.049  1.00  0.00     0.003 C 
ATOM     20  C   UNL A   1      33.381  28.232  27.266  1.00  0.00     0.032 C 
BRANCH  18  21
ATOM     21  O   UNL A   1      31.063  28.158  28.005  1.00  0.00    -0.393 OA
ATOM     22  H   UNL A   1      31.292  27.216  27.972  1.00  0.00     0.210 HD
ENDBRANCH  18  21
ENDBRANCH  15  16
ENDBRANCH  14  15
ENDBRANCH   6   8
ENDBRANCH   4   6
ENDBRANCH   3   4
ENDBRANCH   2   3
ENDBRANCH   1   2
BRANCH   1  23
ATOM     23  O   UNL A   1      38.941  22.214  25.981  1.00  0.00    -0.374 OA
BRANCH  23  24
ATOM     24  C   UNL A   1      38.298  21.067  25.429  1.00  0.00     0.202 C 
BRANCH  24  25
ATOM     25  C   UNL A   1      39.161  19.805  25.297  1.00  0.00     0.261 C 
BRANCH  25  26
ATOM     26  O   UNL A   1      40.001  19.595  26.448  1.00  0.00    -0.460 OA
BRANCH  26  27
ATOM     27  C   UNL A   1      41.321  19.484  26.171  1.00  0.00     0.338 C 
ATOM     28  O   UNL A   1      41.895  18.535  25.654  1.00  0.00    -0.246 OA
BRANCH  27  29
ATOM     29  C   UNL A   1      42.009  20.764  26.421  1.00  0.00     0.060 A 
ATOM     30  C   UNL A   1      42.215  21.134  27.756  1.00  0.00     0.016 A 
ATOM     31  C   UNL A   1      42.370  21.626  25.382  1.00  0.00     0.016 A 
ATOM     32  C   UNL A   1      42.732  22.390  28.062  1.00  0.00     0.010 A 
ATOM     33  C   UNL A   1      42.881  22.894  25.693  1.00  0.00     0.010 A 
ATOM     34  C   UNL A   1      43.028  23.294  27.034  1.00  0.00    -0.014 A 
BRANCH  34  35
ATOM     35  C   UNL A   1      43.339  24.704  27.375  1.00  0.00     0.031 A 
ATOM     36  C   UNL A   1      44.741  25.211  27.168  1.00  0.00     0.074 A 
ATOM     37  C   UNL A   1      42.380  25.535  27.817  1.00  0.00     0.049 A 
ATOM     38  N   UNL A   1      45.238  26.400  27.400  1.00  0.00    -0.248 NA
ATOM     39  C   UNL A   1      45.710  24.249  26.623  1.00  0.00     0.031 C 
ATOM     40  C   UNL A   1      40.979  25.174  28.019  1.00  0.00     0.029 A 
ATOM     41  N   UNL A   1      42.444  26.858  28.177  1.00  0.00    -0.354 N 
ATOM     42  C   UNL A   1      46.574  26.328  27.029  1.00  0.00     0.074 A 
ATOM     43  C   UNL A   1      46.820  24.972  26.588  1.00  0.00     0.031 C 
ATOM     44  C   UNL A   1      40.315  26.249  28.477  1.00  0.00     0.029 A 
ATOM     45  C   UNL A   1      41.250  27.364  28.624  1.00  0.00     0.049 A 
ATOM     46  H   UNL A   1      43.269  27.393  28.119  1.00  0.00     0.167 HD
ATOM     47  C   UNL A   1      47.509  27.307  27.045  1.00  0.00     0.037 A 
ATOM     48  C   UNL A   1      40.952  28.584  29.113  1.00  0.00     0.037 A 
ATOM     49  C   UNL A   1      47.267  28.656  27.485  1.00  0.00     0.049 A 
ATOM     50  C   UNL A   1      42.026  29.637  29.185  1.00  0.00     0.074 A 
ATOM     51  C   UNL A   1      48.148  29.722  27.529  1.00  0.00     0.029 A 
ATOM     52  N   UNL A   1      46.052  29.121  27.964  1.00  0.00    -0.354 N 
ATOM     53  N   UNL A   1      43.282  29.566  28.815  1.00  0.00    -0.248 NA
ATOM     54  C   UNL A   1      41.641  30.942  29.742  1.00  0.00     0.031 C 
ATOM     55  C   UNL A   1      47.477  30.821  28.076  1.00  0.00     0.029 A 
ATOM     56  C   UNL A   1      46.166  30.453  28.329  1.00  0.00     0.049 A 
ATOM     57  H   UNL A   1      45.229  28.585  28.036  1.00  0.00     0.167 HD
ATOM     58  C   UNL A   1      43.828  30.819  29.068  1.00  0.00     0.074 A 
ATOM     59  C   UNL A   1      42.763  31.635  29.614  1.00  0.00     0.031 C 
ATOM     60  C   UNL A   1      45.095  31.254  28.865  1.00  0.00     0.037 A 
BRANCH  47  61
ATOM     61  C   UNL A   1      48.893  26.948  26.591  1.00  0.00     0.064 A 
ATOM     62  C   UNL A   1      49.860  26.469  27.486  1.00  0.00     0.173 A 
ATOM     63  C   UNL A   1      49.247  27.057  25.238  1.00  0.00     0.173 A 
ATOM     64  F   UNL A   1      49.575  26.362  28.793  1.00  0.00    -0.203 F 
ATOM     65  C   UNL A   1      51.137  26.132  27.047  1.00  0.00     0.198 A 
ATOM     66  C   UNL A   1      50.517  26.694  24.798  1.00  0.00     0.198 A 
ATOM     67  F   UNL A   1      48.356  27.508  24.340  1.00  0.00    -0.203 F 
ATOM     68  F   UNL A   1      52.060  25.717  27.927  1.00  0.00    -0.200 F 
ATOM     69  C   UNL A   1      51.463  26.239  25.703  1.00  0.00     0.200 A 
ATOM     70  F   UNL A   1      50.826  26.789  23.497  1.00  0.00    -0.200 F 
ATOM     71  F   UNL A   1      52.692  25.910  25.281  1.00  0.00    -0.200 F 
ENDBRANCH  47  61
BRANCH  48  72
ATOM     72  C   UNL A   1      39.574  28.875  29.584  1.00  0.00     0.064 A 
ATOM     73  C   UNL A   1      38.615  29.428  28.725  1.00  0.00     0.173 A 
ATOM     74  C   UNL A   1      39.192  28.619  30.910  1.00  0.00     0.173 A 
ATOM     75  F   UNL A   1      38.940  29.717  27.456  1.00  0.00    -0.203 F 
ATOM     76  C   UNL A   1      37.331  29.729  29.178  1.00  0.00     0.198 A 
ATOM     77  C   UNL A   1      37.901  28.895  31.355  1.00  0.00     0.198 A 
ATOM     78  F   UNL A   1      40.074  28.093  31.772  1.00  0.00    -0.203 F 
ATOM     79  F   UNL A   1      36.447  30.298  28.348  1.00  0.00    -0.200 F 
ATOM     80  C   UNL A   1      36.973  29.456  30.490  1.00  0.00     0.200 A 
ATOM     81  F   UNL A   1      37.558  28.621  32.620  1.00  0.00    -0.200 F 
ATOM     82  F   UNL A   1      35.739  29.743  30.924  1.00  0.00    -0.200 F 
ENDBRANCH  48  72
BRANCH  60  83
ATOM     83  C   UNL A   1      45.397  32.684  29.206  1.00  0.00     0.064 A 
ATOM     84  C   UNL A   1      45.899  33.051  30.463  1.00  0.00     0.173 A 
ATOM     85  C   UNL A   1      45.226  33.694  28.246  1.00  0.00     0.173 A 
ATOM     86  F   UNL A   1      46.066  32.124  31.419  1.00  0.00    -0.203 F 
ATOM     87  C   UNL A   1      46.195  34.379  30.754  1.00  0.00     0.198 A 
ATOM     88  C   UNL A   1      45.549  35.017  28.532  1.00  0.00     0.198 A 
ATOM     89  F   UNL A   1      44.756  33.393  27.025  1.00  0.00    -0.203 F 
ATOM     90  F   UNL A   1      46.634  34.713  31.977  1.00  0.00    -0.200 F 
ATOM     91  C   UNL A   1      46.028  35.359  29.788  1.00  0.00     0.200 A 
ATOM     92  F   UNL A   1      45.398  35.961  27.593  1.00  0.00    -0.200 F 
ATOM     93  F   UNL A   1      46.321  36.637  30.068  1.00  0.00    -0.200 F 
ENDBRANCH  60  83
ENDBRANCH  34  35
ENDBRANCH  27  29
ENDBRANCH  26  27
ENDBRANCH  25  26
ENDBRANCH  24  25
ENDBRANCH  23  24
ENDBRANCH   1  23
TORSDOF 18
ENDMDL
MODEL 2
REMARK VINA RESULT:     -10.5      4.750      8.608
REMARK SMILES C[C@@H](C(=O)OCCOCCOC(=O)c1ccc(-c2c3nc(c(-c4c(F)c(F)c(F)c(F)c4F)c4ccc([nH]4)c(-c4c(F)c(F)c(F)c(F)c4F)c4nc(c(-c5c(F)c(F)c(F)c(F)c5F)c5ccc2[nH]5)C=C4)C=C3)cc1)c1ccc(C[C@@H]2CCC[C@@H]2O)cc1Br
REMARK SMILES IDX 7 1 6 2 5 3 3 4 4 5 2 6 1 7 77 8 78 9 89 10 79 11 88 12
REMARK SMILES IDX 90 13 80 14 81 15 82 16 83 17 86 18 84 19 85 20 87 21 8 23
REMARK SMILES IDX 9 24 10 25 11 26 12 27 13 28 14 29 15 30 76 31 16 32 75 33
REMARK SMILES IDX 17 34 18 35 19 36 69 37 20 38 74 39 68 40 70 41 21 42 73 43
REMARK SMILES IDX 67 44 66 45 22 47 54 48 34 49 53 50 35 51 38 52 52 53 71 54
REMARK SMILES IDX 36 55 37 56 51 58 72 59 39 60 23 61 24 62 32 63 25 64 26 65
REMARK SMILES IDX 30 66 33 67 27 68 28 69 31 70 29 71 55 72 56 73 64 74 57 75
REMARK SMILES IDX 58 76 62 77 65 78 59 79 60 80 63 81 61 82 40 83 41 84 49 85
REMARK SMILES IDX 42 86 43 87 47 88 50 89 44 90 45 91 48 92 46 93
REMARK H PARENT 87 22 70 46 38 57
REMARK Flexibility Score: inf
ROOT
ATOM      1  C   UNL A   1      30.624  28.631  24.318  1.00  0.00     0.202 C 
ENDROOT
BRANCH   1   2
ATOM      2  C   UNL A   1      30.004  27.449  23.569  1.00  0.00     0.261 C 
BRANCH   2   3
ATOM      3  O   UNL A   1      30.087  26.239  24.347  1.00  0.00    -0.463 OA
BRANCH   3   4
ATOM      4  C   UNL A   1      30.835  25.246  23.790  1.00  0.00     0.313 C 
ATOM      5  O   UNL A   1      30.521  24.667  22.755  1.00  0.00    -0.252 OA
BRANCH   4   6
ATOM      6  C   UNL A   1      32.122  24.940  24.580  1.00  0.00     0.127 C 
ATOM      7  C   UNL A   1      33.325  25.813  24.190  1.00  0.00     0.025 C 
BRANCH   6   8
ATOM      8  C   UNL A   1      32.397  23.432  24.535  1.00  0.00    -0.020 A 
ATOM      9  C   UNL A   1      33.284  22.883  23.587  1.00  0.00     0.006 A 
ATOM     10  C   UNL A   1      31.679  22.528  25.342  1.00  0.00     0.022 A 
ATOM     11  C   UNL A   1      33.400  21.499  23.408  1.00  0.00     0.004 A 
ATOM     12  C   UNL A   1      31.775  21.146  25.135  1.00  0.00     0.019 A 
ATOM     13  Br  UNL A   1      30.535  23.083  26.762  1.00  0.00    -0.050 Br
ATOM     14  C   UNL A   1      32.611  20.615  24.145  1.00  0.00    -0.047 A 
BRANCH  14  15
ATOM     15  C   UNL A   1      32.641  19.126  23.906  1.00  0.00     0.041 C 
BRANCH  15  16
ATOM     16  C   UNL A   1      33.735  18.278  24.595  1.00  0.00     0.022 C 
ATOM     17  C   UNL A   1      34.511  17.347  23.655  1.00  0.00     0.007 C 
ATOM     18  C   UNL A   1      33.310  17.339  25.729  1.00  0.00     0.117 C 
ATOM     19  C   UNL A   1      33.963  15.935  23.878  1.00  0.00     0.003 C 
ATOM     20  C   UNL A   1      32.977  16.024  25.038  1.00  0.00     0.032 C 
BRANCH  18  21
ATOM     21  O   UNL A   1      32.231  17.822  26.499  1.00  0.00    -0.393 OA
ATOM     22  H   UNL A   1      32.195  17.342  27.342  1.00  0.00     0.210 HD
ENDBRANCH  18  21
ENDBRANCH  15  16
ENDBRANCH  14  15
ENDBRANCH   6   8
ENDBRANCH   4   6
ENDBRANCH   3   4
ENDBRANCH   2   3
ENDBRANCH   1   2
BRANCH   1  23
ATOM     23  O   UNL A   1      32.019  28.853  24.111  1.00  0.00    -0.374 OA
BRANCH  23  24
ATOM     24  C   UNL A   1      32.689  29.712  25.031  1.00  0.00     0.202 C 
BRANCH  24  25
ATOM     25  C   UNL A   1      31.797  30.473  26.020  1.00  0.00     0.261 C 
BRANCH  25  26
ATOM     26  O   UNL A   1      32.437  30.669  27.295  1.00  0.00    -0.460 OA
BRANCH  26  27
ATOM     27  C   UNL A   1      33.253  31.747  27.358  1.00  0.00     0.338 C 
ATOM     28  O   UNL A   1      32.953  32.919  27.174  1.00  0.00    -0.246 OA
BRANCH  27  29
ATOM     29  C   UNL A   1      34.583  31.357  27.862  1.00  0.00     0.060 A 
ATOM     30  C   UNL A   1      34.788  30.003  28.158  1.00  0.00     0.016 A 
ATOM     31  C   UNL A   1      35.582  32.298  28.122  1.00  0.00     0.016 A 
ATOM     32  C   UNL A   1      35.971  29.591  28.766  1.00  0.00     0.010 A 
ATOM     33  C   UNL A   1      36.768  31.882  28.743  1.00  0.00     0.010 A 
ATOM     34  C   UNL A   1      36.950  30.534  29.101  1.00  0.00    -0.014 A 
BRANCH  34  35
ATOM     35  C   UNL A   1      38.085  30.125  29.964  1.00  0.00     0.031 A 
ATOM     36  C   UNL A   1      39.109  29.167  29.416  1.00  0.00     0.074 A 
ATOM     37  C   UNL A   1      38.232  30.633  31.200  1.00  0.00     0.049 A 
ATOM     38  N   UNL A   1      40.176  28.672  29.991  1.00  0.00    -0.248 NA
ATOM     39  C   UNL A   1      38.901  28.709  28.034  1.00  0.00     0.031 C 
ATOM     40  C   UNL A   1      37.332  31.598  31.827  1.00  0.00     0.029 A 
ATOM     41  N   UNL A   1      39.196  30.404  32.149  1.00  0.00    -0.354 N 
ATOM     42  C   UNL A   1      40.765  27.847  29.042  1.00  0.00     0.074 A 
ATOM     43  C   UNL A   1      39.922  27.882  27.867  1.00  0.00     0.031 C 
ATOM     44  C   UNL A   1      37.782  31.872  33.063  1.00  0.00     0.029 A 
ATOM     45  C   UNL A   1      38.985  31.083  33.322  1.00  0.00     0.049 A 
ATOM     46  H   UNL A   1      39.967  29.808  32.002  1.00  0.00     0.167 HD
ATOM     47  C   UNL A   1      41.912  27.133  29.138  1.00  0.00     0.037 A 
ATOM     48  C   UNL A   1      39.676  31.055  34.479  1.00  0.00     0.037 A 
ATOM     49  C   UNL A   1      42.751  27.096  30.306  1.00  0.00     0.049 A 
ATOM     50  C   UNL A   1      40.912  30.200  34.584  1.00  0.00     0.074 A 
ATOM     51  C   UNL A   1      43.938  26.411  30.497  1.00  0.00     0.029 A 
ATOM     52  N   UNL A   1      42.485  27.771  31.488  1.00  0.00    -0.354 N 
ATOM     53  N   UNL A   1      41.473  29.439  33.676  1.00  0.00    -0.248 NA
ATOM     54  C   UNL A   1      41.612  30.202  35.878  1.00  0.00     0.031 C 
ATOM     55  C   UNL A   1      44.368  26.637  31.809  1.00  0.00     0.029 A 
ATOM     56  C   UNL A   1      43.474  27.500  32.421  1.00  0.00     0.049 A 
ATOM     57  H   UNL A   1      41.708  28.357  31.643  1.00  0.00     0.167 HD
ATOM     58  C   UNL A   1      42.601  28.895  34.276  1.00  0.00     0.074 A 
ATOM     59  C   UNL A   1      42.652  29.421  35.624  1.00  0.00     0.031 C 
ATOM     60  C   UNL A   1      43.514  28.037  33.757  1.00  0.00     0.037 A 
BRANCH  47  61
ATOM     61  C   UNL A   1      42.318  26.315  27.949  1.00  0.00     0.064 A 
ATOM     62  C   UNL A   1      41.801  25.029  27.730  1.00  0.00     0.173 A 
ATOM     63  C   UNL A   1      43.212  26.833  27.000  1.00  0.00     0.173 A 
ATOM     64  F   UNL A   1      40.954  24.483  28.616  1.00  0.00    -0.203 F 
ATOM     65  C   UNL A   1      42.181  24.285  26.617  1.00  0.00     0.198 A 
ATOM     66  C   UNL A   1      43.569  26.096  25.874  1.00  0.00     0.198 A 
ATOM     67  F   UNL A   1      43.733  28.059  27.162  1.00  0.00    -0.203 F 
ATOM     68  F   UNL A   1      41.707  23.042  26.450  1.00  0.00    -0.200 F 
ATOM     69  C   UNL A   1      43.059  24.821  25.687  1.00  0.00     0.200 A 
ATOM     70  F   UNL A   1      44.411  26.619  24.973  1.00  0.00    -0.200 F 
ATOM     71  F   UNL A   1      43.421  24.105  24.613  1.00  0.00    -0.200 F 
ENDBRANCH  47  61
BRANCH  48  72
ATOM     72  C   UNL A   1      39.209  31.858  35.638  1.00  0.00     0.064 A 
ATOM     73  C   UNL A   1      39.670  33.164  35.849  1.00  0.00     0.173 A 
ATOM     74  C   UNL A   1      38.304  31.327  36.569  1.00  0.00     0.173 A 
ATOM     75  F   UNL A   1      40.558  33.706  35.002  1.00  0.00    -0.203 F 
ATOM     76  C   UNL A   1      39.254  33.904  36.955  1.00  0.00     0.198 A 
ATOM     77  C   UNL A   1      37.868  32.077  37.659  1.00  0.00     0.198 A 
ATOM     78  F   UNL A   1      37.836  30.079  36.414  1.00  0.00    -0.203 F 
ATOM     79  F   UNL A   1      39.742  35.135  37.156  1.00  0.00    -0.200 F 
ATOM     80  C   UNL A   1      38.348  33.363  37.855  1.00  0.00     0.200 A 
ATOM     81  F   UNL A   1      36.986  31.552  38.521  1.00  0.00    -0.200 F 
ATOM     82  F   UNL A   1      37.947  34.075  38.916  1.00  0.00    -0.200 F 
ENDBRANCH  48  72
BRANCH  60  83
ATOM     83  C   UNL A   1      44.662  27.636  34.635  1.00  0.00     0.064 A 
ATOM     84  C   UNL A   1      45.841  28.394  34.698  1.00  0.00     0.173 A 
ATOM     85  C   UNL A   1      44.564  26.503  35.460  1.00  0.00     0.173 A 
ATOM     86  F   UNL A   1      45.988  29.476  33.918  1.00  0.00    -0.203 F 
ATOM     87  C   UNL A   1      46.887  28.020  35.535  1.00  0.00     0.198 A 
ATOM     88  C   UNL A   1      45.602  26.149  36.316  1.00  0.00     0.198 A 
ATOM     89  F   UNL A   1      43.454  25.750  35.443  1.00  0.00    -0.203 F 
ATOM     90  F   UNL A   1      48.022  28.735  35.547  1.00  0.00    -0.200 F 
ATOM     91  C   UNL A   1      46.765  26.903  36.349  1.00  0.00     0.200 A 
ATOM     92  F   UNL A   1      45.478  25.077  37.111  1.00  0.00    -0.200 F 
ATOM     93  F   UNL A   1      47.772  26.549  37.160  1.00  0.00    -0.200 F 
ENDBRANCH  60  83
ENDBRANCH  34  35
ENDBRANCH  27  29
ENDBRANCH  26  27
ENDBRANCH  25  26
ENDBRANCH  24  25
ENDBRANCH  23  24
ENDBRANCH   1  23
TORSDOF 18
ENDMDL
MODEL 3
REMARK VINA RESULT:     -10.5      2.093      7.841
REMARK SMILES C[C@@H](C(=O)OCCOCCOC(=O)c1ccc(-c2c3nc(c(-c4c(F)c(F)c(F)c(F)c4F)c4ccc([nH]4)c(-c4c(F)c(F)c(F)c(F)c4F)c4nc(c(-c5c(F)c(F)c(F)c(F)c5F)c5ccc2[nH]5)C=C4)C=C3)cc1)c1ccc(C[C@@H]2CCC[C@@H]2O)cc1Br
REMARK SMILES IDX 7 1 6 2 5 3 3 4 4 5 2 6 1 7 77 8 78 9 89 10 79 11 88 12
REMARK SMILES IDX 90 13 80 14 81 15 82 16 83 17 86 18 84 19 85 20 87 21 8 23
REMARK SMILES IDX 9 24 10 25 11 26 12 27 13 28 14 29 15 30 76 31 16 32 75 33
REMARK SMILES IDX 17 34 18 35 19 36 69 37 20 38 74 39 68 40 70 41 21 42 73 43
REMARK SMILES IDX 67 44 66 45 22 47 54 48 34 49 53 50 35 51 38 52 52 53 71 54
REMARK SMILES IDX 36 55 37 56 51 58 72 59 39 60 23 61 24 62 32 63 25 64 26 65
REMARK SMILES IDX 30 66 33 67 27 68 28 69 31 70 29 71 55 72 56 73 64 74 57 75
REMARK SMILES IDX 58 76 62 77 65 78 59 79 60 80 63 81 61 82 40 83 41 84 49 85
REMARK SMILES IDX 42 86 43 87 47 88 50 89 44 90 45 91 48 92 46 93
REMARK H PARENT 87 22 70 46 38 57
REMARK Flexibility Score: inf
ROOT
ATOM      1  C   UNL A   1      34.223  20.816  25.054  1.00  0.00     0.202 C 
ENDROOT
BRANCH   1   2
ATOM      2  C   UNL A   1      33.119  21.388  24.163  1.00  0.00     0.261 C 
BRANCH   2   3
ATOM      3  O   UNL A   1      32.290  22.315  24.893  1.00  0.00    -0.463 OA
BRANCH   3   4
ATOM      4  C   UNL A   1      32.626  23.627  24.746  1.00  0.00     0.313 C 
ATOM      5  O   UNL A   1      33.355  24.038  23.850  1.00  0.00    -0.252 OA
BRANCH   4   6
ATOM      6  C   UNL A   1      31.979  24.541  25.806  1.00  0.00     0.127 C 
ATOM      7  C   UNL A   1      31.043  23.811  26.781  1.00  0.00     0.025 C 
BRANCH   6   8
ATOM      8  C   UNL A   1      31.346  25.752  25.111  1.00  0.00    -0.020 A 
ATOM      9  C   UNL A   1      30.233  25.601  24.260  1.00  0.00     0.006 A 
ATOM     10  C   UNL A   1      31.928  27.032  25.186  1.00  0.00     0.022 A 
ATOM     11  C   UNL A   1      29.763  26.660  23.473  1.00  0.00     0.004 A 
ATOM     12  C   UNL A   1      31.474  28.078  24.372  1.00  0.00     0.019 A 
ATOM     13  Br  UNL A   1      33.354  27.459  26.377  1.00  0.00    -0.050 Br
ATOM     14  C   UNL A   1      30.409  27.897  23.482  1.00  0.00    -0.047 A 
BRANCH  14  15
ATOM     15  C   UNL A   1      29.989  29.026  22.573  1.00  0.00     0.041 C 
BRANCH  15  16
ATOM     16  C   UNL A   1      28.726  29.844  22.929  1.00  0.00     0.022 C 
ATOM     17  C   UNL A   1      27.795  30.133  21.745  1.00  0.00     0.007 C 
ATOM     18  C   UNL A   1      28.919  31.229  23.556  1.00  0.00     0.117 C 
ATOM     19  C   UNL A   1      28.030  31.591  21.341  1.00  0.00     0.003 C 
ATOM     20  C   UNL A   1      28.986  32.183  22.372  1.00  0.00     0.032 C 
BRANCH  18  21
ATOM     21  O   UNL A   1      30.057  31.330  24.385  1.00  0.00    -0.393 OA
ATOM     22  H   UNL A   1      30.855  31.153  23.861  1.00  0.00     0.210 HD
ENDBRANCH  18  21
ENDBRANCH  15  16
ENDBRANCH  14  15
ENDBRANCH   6   8
ENDBRANCH   4   6
ENDBRANCH   3   4
ENDBRANCH   2   3
ENDBRANCH   1   2
BRANCH   1  23
ATOM     23  O   UNL A   1      35.565  21.008  24.605  1.00  0.00    -0.374 OA
BRANCH  23  24
ATOM     24  C   UNL A   1      36.508  19.980  24.901  1.00  0.00     0.202 C 
BRANCH  24  25
ATOM     25  C   UNL A   1      37.986  20.393  24.886  1.00  0.00     0.261 C 
BRANCH  25  26
ATOM     26  O   UNL A   1      38.358  21.138  26.061  1.00  0.00    -0.460 OA
BRANCH  26  27
ATOM     27  C   UNL A   1      39.664  21.042  26.402  1.00  0.00     0.338 C 
ATOM     28  O   UNL A   1      40.420  20.103  26.192  1.00  0.00    -0.246 OA
BRANCH  27  29
ATOM     29  C   UNL A   1      40.153  22.327  26.936  1.00  0.00     0.060 A 
ATOM     30  C   UNL A   1      39.589  23.498  26.412  1.00  0.00     0.016 A 
ATOM     31  C   UNL A   1      41.195  22.395  27.863  1.00  0.00     0.016 A 
ATOM     32  C   UNL A   1      40.101  24.742  26.771  1.00  0.00     0.010 A 
ATOM     33  C   UNL A   1      41.715  23.648  28.215  1.00  0.00     0.010 A 
ATOM     34  C   UNL A   1      41.195  24.823  27.642  1.00  0.00    -0.014 A 
BRANCH  34  35
ATOM     35  C   UNL A   1      41.885  26.124  27.820  1.00  0.00     0.031 A 
ATOM     36  C   UNL A   1      41.190  27.218  28.586  1.00  0.00     0.074 A 
ATOM     37  C   UNL A   1      43.130  26.317  27.351  1.00  0.00     0.049 A 
ATOM     38  N   UNL A   1      41.600  28.431  28.860  1.00  0.00    -0.248 NA
ATOM     39  C   UNL A   1      39.856  26.898  29.115  1.00  0.00     0.031 C 
ATOM     40  C   UNL A   1      43.922  25.322  26.631  1.00  0.00     0.029 A 
ATOM     41  N   UNL A   1      43.944  27.419  27.411  1.00  0.00    -0.354 N 
ATOM     42  C   UNL A   1      40.576  29.017  29.593  1.00  0.00     0.074 A 
ATOM     43  C   UNL A   1      39.513  28.041  29.693  1.00  0.00     0.031 C 
ATOM     44  C   UNL A   1      45.108  25.865  26.306  1.00  0.00     0.029 A 
ATOM     45  C   UNL A   1      45.147  27.250  26.774  1.00  0.00     0.049 A 
ATOM     46  H   UNL A   1      43.689  28.253  27.869  1.00  0.00     0.167 HD
ATOM     47  C   UNL A   1      40.531  30.254  30.141  1.00  0.00     0.037 A 
ATOM     48  C   UNL A   1      46.156  28.121  26.575  1.00  0.00     0.037 A 
ATOM     49  C   UNL A   1      41.586  31.227  30.041  1.00  0.00     0.049 A 
ATOM     50  C   UNL A   1      46.053  29.515  27.137  1.00  0.00     0.074 A 
ATOM     51  C   UNL A   1      41.638  32.504  30.571  1.00  0.00     0.029 A 
ATOM     52  N   UNL A   1      42.776  31.030  29.356  1.00  0.00    -0.354 N 
ATOM     53  N   UNL A   1      45.091  30.054  27.845  1.00  0.00    -0.248 NA
ATOM     54  C   UNL A   1      47.181  30.421  26.873  1.00  0.00     0.031 C 
ATOM     55  C   UNL A   1      42.841  33.096  30.171  1.00  0.00     0.029 A 
ATOM     56  C   UNL A   1      43.559  32.171  29.430  1.00  0.00     0.049 A 
ATOM     57  H   UNL A   1      43.028  30.202  28.886  1.00  0.00     0.167 HD
ATOM     58  C   UNL A   1      45.505  31.348  28.133  1.00  0.00     0.074 A 
ATOM     59  C   UNL A   1      46.813  31.511  27.531  1.00  0.00     0.031 C 
ATOM     60  C   UNL A   1      44.862  32.315  28.832  1.00  0.00     0.037 A 
BRANCH  47  61
ATOM     61  C   UNL A   1      39.285  30.634  30.885  1.00  0.00     0.064 A 
ATOM     62  C   UNL A   1      38.193  31.229  30.236  1.00  0.00     0.173 A 
ATOM     63  C   UNL A   1      39.171  30.375  32.259  1.00  0.00     0.173 A 
ATOM     64  F   UNL A   1      38.259  31.511  28.926  1.00  0.00    -0.203 F 
ATOM     65  C   UNL A   1      37.041  31.568  30.940  1.00  0.00     0.198 A 
ATOM     66  C   UNL A   1      38.008  30.692  32.954  1.00  0.00     0.198 A 
ATOM     67  F   UNL A   1      40.187  29.806  32.927  1.00  0.00    -0.203 F 
ATOM     68  F   UNL A   1      36.025  32.174  30.307  1.00  0.00    -0.200 F 
ATOM     69  C   UNL A   1      36.946  31.294  32.296  1.00  0.00     0.200 A 
ATOM     70  F   UNL A   1      37.914  30.418  34.263  1.00  0.00    -0.200 F 
ATOM     71  F   UNL A   1      35.834  31.617  32.971  1.00  0.00    -0.200 F 
ENDBRANCH  47  61
BRANCH  48  72
ATOM     72  C   UNL A   1      47.351  27.703  25.799  1.00  0.00     0.064 A 
ATOM     73  C   UNL A   1      48.519  27.272  26.441  1.00  0.00     0.173 A 
ATOM     74  C   UNL A   1      47.354  27.742  24.396  1.00  0.00     0.173 A 
ATOM     75  F   UNL A   1      48.575  27.243  27.781  1.00  0.00    -0.203 F 
ATOM     76  C   UNL A   1      49.650  26.909  25.711  1.00  0.00     0.198 A 
ATOM     77  C   UNL A   1      48.476  27.355  23.667  1.00  0.00     0.198 A 
ATOM     78  F   UNL A   1      46.262  28.152  23.735  1.00  0.00    -0.203 F 
ATOM     79  F   UNL A   1      50.768  26.542  26.351  1.00  0.00    -0.200 F 
ATOM     80  C   UNL A   1      49.625  26.945  24.325  1.00  0.00     0.200 A 
ATOM     81  F   UNL A   1      48.443  27.383  22.328  1.00  0.00    -0.200 F 
ATOM     82  F   UNL A   1      50.712  26.594  23.623  1.00  0.00    -0.200 F 
ENDBRANCH  48  72
BRANCH  60  83
ATOM     83  C   UNL A   1      45.571  33.624  29.014  1.00  0.00     0.064 A 
ATOM     84  C   UNL A   1      45.397  34.687  28.115  1.00  0.00     0.173 A 
ATOM     85  C   UNL A   1      46.401  33.834  30.127  1.00  0.00     0.173 A 
ATOM     86  F   UNL A   1      44.626  34.531  27.028  1.00  0.00    -0.203 F 
ATOM     87  C   UNL A   1      46.045  35.903  28.311  1.00  0.00     0.198 A 
ATOM     88  C   UNL A   1      47.025  35.061  30.334  1.00  0.00     0.198 A 
ATOM     89  F   UNL A   1      46.594  32.852  31.020  1.00  0.00    -0.203 F 
ATOM     90  F   UNL A   1      45.897  36.891  27.417  1.00  0.00    -0.200 F 
ATOM     91  C   UNL A   1      46.852  36.092  29.423  1.00  0.00     0.200 A 
ATOM     92  F   UNL A   1      47.795  35.245  31.415  1.00  0.00    -0.200 F 
ATOM     93  F   UNL A   1      47.469  37.266  29.614  1.00  0.00    -0.200 F 
ENDBRANCH  60  83
ENDBRANCH  34  35
ENDBRANCH  27  29
ENDBRANCH  26  27
ENDBRANCH  25  26
ENDBRANCH  24  25
ENDBRANCH  23  24
ENDBRANCH   1  23
TORSDOF 18
ENDMDL
