MODEL 1
REMARK VINA RESULT:     -12.9      0.000      0.000
REMARK SMILES Cc1cc(C)n(C)c(=O)c1C(=O)[NH+]1CCC2(CC1)C[NH2+][C@@H](C(=O)OCCOCCOC(=O)c1ccc(-c3c4nc(c(-c5c(F)c(F)c(F)c(F)c5F)c5ccc([nH]5)c(-c5c(F)c(F)c(F)c(F)c5F)c5nc(c(-c6c(F)c(F)c(F)c(F)c6F)c6ccc3[nH]6)C=C5)C=C4)cc1)C2
REMARK SMILES IDX 27 1 26 2 25 3 24 4 22 5 23 6 21 7 13 8 14 9 18 10 15 12
REMARK SMILES IDX 17 13 16 14 19 15 96 16 20 17 11 20 12 21 10 22 1 23 2 24
REMARK SMILES IDX 3 25 4 26 8 27 5 28 6 29 9 30 7 31 28 32 29 33 30 34 31 35
REMARK SMILES IDX 32 36 33 37 34 38 95 39 35 40 94 41 36 42 37 43 38 44 88 45
REMARK SMILES IDX 39 46 93 47 87 48 89 49 40 50 92 51 86 52 85 53 41 55 73 56
REMARK SMILES IDX 53 57 72 58 54 59 57 60 71 61 90 62 55 63 56 64 70 66 91 67
REMARK SMILES IDX 58 68 42 69 43 70 51 71 44 72 45 73 49 74 52 75 46 76 47 77
REMARK SMILES IDX 50 78 48 79 74 80 75 81 83 82 76 83 77 84 81 85 84 86 78 87
REMARK SMILES IDX 79 88 82 89 80 90 59 91 60 92 68 93 61 94 62 95 66 96 69 97
REMARK SMILES IDX 63 98 64 99 67 100 65 101
REMARK H PARENT 13 11 20 18 20 19 89 54 57 65
REMARK Flexibility Score: inf
ROOT
ATOM      1  O   UNL A   1      33.035  35.061  31.662  1.00  0.00    -0.374 OA
ENDROOT
BRANCH   1   2
ATOM      2  C   UNL A   1      32.951  35.304  30.258  1.00  0.00     0.202 C 
BRANCH   2   3
ATOM      3  C   UNL A   1      34.091  34.750  29.401  1.00  0.00     0.261 C 
BRANCH   3   4
ATOM      4  O   UNL A   1      33.788  33.416  28.966  1.00  0.00    -0.459 OA
BRANCH   4   5
ATOM      5  C   UNL A   1      34.731  32.818  28.192  1.00  0.00     0.364 C 
ATOM      6  O   UNL A   1      35.668  33.397  27.649  1.00  0.00    -0.245 OA
BRANCH   5   7
ATOM      7  C   UNL A   1      34.496  31.320  28.026  1.00  0.00     0.294 C 
ATOM      8  N   UNL A   1      31.959  27.388  25.637  1.00  0.00    -0.267 N 
ATOM      9  C   UNL A   1      31.621  27.934  26.938  1.00  0.00     0.271 C 
ATOM     10  C   UNL A   1      32.375  28.393  24.678  1.00  0.00     0.271 C 
ATOM     11  H   UNL A   1      32.423  27.563  26.487  1.00  0.00     0.357 HD
ATOM     12  C   UNL A   1      32.911  28.392  27.587  1.00  0.00     0.075 C 
ATOM     13  C   UNL A   1      33.557  29.237  25.184  1.00  0.00     0.075 C 
ATOM     14  C   UNL A   1      33.708  29.413  26.732  1.00  0.00     0.036 C 
ATOM     15  C   UNL A   1      35.204  29.312  27.150  1.00  0.00     0.268 C 
ATOM     16  C   UNL A   1      33.331  30.861  27.150  1.00  0.00     0.090 C 
ATOM     17  N   UNL A   1      35.646  30.684  27.362  1.00  0.00    -0.334 N 
ATOM     18  H   UNL A   1      35.854  31.141  26.475  1.00  0.00     0.347 HD
ATOM     19  H   UNL A   1      36.504  30.743  27.913  1.00  0.00     0.347 HD
BRANCH   8  20
ATOM     20  C   UNL A   1      31.409  26.160  25.301  1.00  0.00     0.350 C 
ATOM     21  O   UNL A   1      30.184  26.078  25.190  1.00  0.00    -0.225 OA
BRANCH  20  22
ATOM     22  C   UNL A   1      32.269  24.902  25.289  1.00  0.00     0.147 A 
ATOM     23  C   UNL A   1      33.633  25.321  23.148  1.00  0.00     0.045 C 
ATOM     24  C   UNL A   1      33.224  24.576  24.381  1.00  0.00    -0.027 A 
ATOM     25  C   UNL A   1      34.075  23.417  24.574  1.00  0.00     0.026 A 
ATOM     26  C   UNL A   1      34.094  22.721  25.714  1.00  0.00     0.018 A 
ATOM     27  C   UNL A   1      32.171  23.998  26.518  1.00  0.00     0.267 A 
ATOM     28  C   UNL A   1      35.102  21.614  25.868  1.00  0.00     0.064 C 
ATOM     29  N   UNL A   1      33.176  23.031  26.706  1.00  0.00    -0.315 N 
ATOM     30  O   UNL A   1      31.243  24.111  27.319  1.00  0.00    -0.268 OA
ATOM     31  C   UNL A   1      33.186  22.304  27.970  1.00  0.00     0.153 C 
ENDBRANCH  20  22
ENDBRANCH   8  20
ENDBRANCH   5   7
ENDBRANCH   4   5
ENDBRANCH   3   4
ENDBRANCH   2   3
ENDBRANCH   1   2
BRANCH   1  32
ATOM     32  C   UNL A   1      34.284  34.603  32.178  1.00  0.00     0.202 C 
BRANCH  32  33
ATOM     33  C   UNL A   1      34.272  33.280  32.953  1.00  0.00     0.261 C 
BRANCH  33  34
ATOM     34  O   UNL A   1      35.125  32.284  32.359  1.00  0.00    -0.460 OA
BRANCH  34  35
ATOM     35  C   UNL A   1      36.263  32.034  33.045  1.00  0.00     0.338 C 
ATOM     36  O   UNL A   1      36.462  32.203  34.243  1.00  0.00    -0.246 OA
BRANCH  35  37
ATOM     37  C   UNL A   1      37.236  31.337  32.188  1.00  0.00     0.060 A 
ATOM     38  C   UNL A   1      38.270  30.636  32.823  1.00  0.00     0.016 A 
ATOM     39  C   UNL A   1      37.199  31.443  30.796  1.00  0.00     0.016 A 
ATOM     40  C   UNL A   1      39.298  30.076  32.070  1.00  0.00     0.010 A 
ATOM     41  C   UNL A   1      38.241  30.890  30.041  1.00  0.00     0.010 A 
ATOM     42  C   UNL A   1      39.311  30.236  30.679  1.00  0.00    -0.014 A 
BRANCH  42  43
ATOM     43  C   UNL A   1      40.525  29.853  29.918  1.00  0.00     0.031 A 
ATOM     44  C   UNL A   1      40.602  28.479  29.316  1.00  0.00     0.074 A 
ATOM     45  C   UNL A   1      41.518  30.736  29.718  1.00  0.00     0.049 A 
ATOM     46  N   UNL A   1      41.566  27.929  28.620  1.00  0.00    -0.248 NA
ATOM     47  C   UNL A   1      39.434  27.606  29.517  1.00  0.00     0.031 C 
ATOM     48  C   UNL A   1      41.529  32.115  30.201  1.00  0.00     0.029 A 
ATOM     49  N   UNL A   1      42.709  30.602  29.048  1.00  0.00    -0.354 N 
ATOM     50  C   UNL A   1      41.118  26.655  28.297  1.00  0.00     0.074 A 
ATOM     51  C   UNL A   1      39.813  26.497  28.900  1.00  0.00     0.031 C 
ATOM     52  C   UNL A   1      42.672  32.704  29.809  1.00  0.00     0.029 A 
ATOM     53  C   UNL A   1      43.485  31.734  29.076  1.00  0.00     0.049 A 
ATOM     54  H   UNL A   1      42.979  29.774  28.590  1.00  0.00     0.167 HD
ATOM     55  C   UNL A   1      41.736  25.709  27.552  1.00  0.00     0.037 A 
ATOM     56  C   UNL A   1      44.718  31.954  28.578  1.00  0.00     0.037 A 
ATOM     57  C   UNL A   1      43.035  25.866  26.955  1.00  0.00     0.049 A 
ATOM     58  C   UNL A   1      45.425  30.851  27.836  1.00  0.00     0.074 A 
ATOM     59  C   UNL A   1      43.747  24.960  26.189  1.00  0.00     0.029 A 
ATOM     60  N   UNL A   1      43.819  27.005  27.060  1.00  0.00    -0.354 N 
ATOM     61  N   UNL A   1      44.996  29.648  27.537  1.00  0.00    -0.248 NA
ATOM     62  C   UNL A   1      46.788  31.136  27.361  1.00  0.00     0.031 C 
ATOM     63  C   UNL A   1      44.981  25.534  25.870  1.00  0.00     0.029 A 
ATOM     64  C   UNL A   1      45.017  26.817  26.392  1.00  0.00     0.049 A 
ATOM     65  H   UNL A   1      43.561  27.827  27.539  1.00  0.00     0.167 HD
ATOM     66  C   UNL A   1      46.021  29.043  26.820  1.00  0.00     0.074 A 
ATOM     67  C   UNL A   1      47.090  30.015  26.719  1.00  0.00     0.031 C 
ATOM     68  C   UNL A   1      46.070  27.795  26.292  1.00  0.00     0.037 A 
BRANCH  55  69
ATOM     69  C   UNL A   1      41.019  24.406  27.347  1.00  0.00     0.064 A 
ATOM     70  C   UNL A   1      39.925  24.300  26.476  1.00  0.00     0.173 A 
ATOM     71  C   UNL A   1      41.470  23.239  27.981  1.00  0.00     0.173 A 
ATOM     72  F   UNL A   1      39.449  25.392  25.856  1.00  0.00    -0.203 F 
ATOM     73  C   UNL A   1      39.301  23.076  26.256  1.00  0.00     0.198 A 
ATOM     74  C   UNL A   1      40.859  22.011  27.739  1.00  0.00     0.198 A 
ATOM     75  F   UNL A   1      42.514  23.286  28.821  1.00  0.00    -0.203 F 
ATOM     76  F   UNL A   1      38.237  23.004  25.444  1.00  0.00    -0.200 F 
ATOM     77  C   UNL A   1      39.774  21.931  26.881  1.00  0.00     0.200 A 
ATOM     78  F   UNL A   1      41.327  20.904  28.334  1.00  0.00    -0.200 F 
ATOM     79  F   UNL A   1      39.182  20.750  26.657  1.00  0.00    -0.200 F 
ENDBRANCH  55  69
BRANCH  56  80
ATOM     80  C   UNL A   1      45.361  33.281  28.765  1.00  0.00     0.064 A 
ATOM     81  C   UNL A   1      45.206  34.298  27.813  1.00  0.00     0.173 A 
ATOM     82  C   UNL A   1      46.136  33.562  29.900  1.00  0.00     0.173 A 
ATOM     83  F   UNL A   1      44.497  34.067  26.698  1.00  0.00    -0.203 F 
ATOM     84  C   UNL A   1      45.806  35.543  27.986  1.00  0.00     0.198 A 
ATOM     85  C   UNL A   1      46.713  34.817  30.085  1.00  0.00     0.198 A 
ATOM     86  F   UNL A   1      46.318  32.623  30.839  1.00  0.00    -0.203 F 
ATOM     87  F   UNL A   1      45.670  36.486  27.044  1.00  0.00    -0.200 F 
ATOM     88  C   UNL A   1      46.551  35.805  29.127  1.00  0.00     0.200 A 
ATOM     89  F   UNL A   1      47.423  35.068  31.193  1.00  0.00    -0.200 F 
ATOM     90  F   UNL A   1      47.118  37.006  29.298  1.00  0.00    -0.200 F 
ENDBRANCH  56  80
BRANCH  68  91
ATOM     91  C   UNL A   1      47.304  27.405  25.533  1.00  0.00     0.064 A 
ATOM     92  C   UNL A   1      47.432  27.657  24.160  1.00  0.00     0.173 A 
ATOM     93  C   UNL A   1      48.402  26.845  26.204  1.00  0.00     0.173 A 
ATOM     94  F   UNL A   1      46.406  28.180  23.471  1.00  0.00    -0.203 F 
ATOM     95  C   UNL A   1      48.609  27.350  23.484  1.00  0.00     0.198 A 
ATOM     96  C   UNL A   1      49.588  26.566  25.531  1.00  0.00     0.198 A 
ATOM     97  F   UNL A   1      48.335  26.593  27.520  1.00  0.00    -0.203 F 
ATOM     98  F   UNL A   1      48.698  27.570  22.164  1.00  0.00    -0.200 F 
ATOM     99  C   UNL A   1      49.690  26.815  24.171  1.00  0.00     0.200 A 
ATOM    100  F   UNL A   1      50.635  26.065  26.199  1.00  0.00    -0.200 F 
ATOM    101  F   UNL A   1      50.829  26.538  23.521  1.00  0.00    -0.200 F 
ENDBRANCH  68  91
ENDBRANCH  42  43
ENDBRANCH  35  37
ENDBRANCH  34  35
ENDBRANCH  33  34
ENDBRANCH  32  33
ENDBRANCH   1  32
TORSDOF 16
ENDMDL
MODEL 2
REMARK VINA RESULT:     -12.4      0.661      6.986
REMARK SMILES Cc1cc(C)n(C)c(=O)c1C(=O)[NH+]1CCC2(CC1)C[NH2+][C@@H](C(=O)OCCOCCOC(=O)c1ccc(-c3c4nc(c(-c5c(F)c(F)c(F)c(F)c5F)c5ccc([nH]5)c(-c5c(F)c(F)c(F)c(F)c5F)c5nc(c(-c6c(F)c(F)c(F)c(F)c6F)c6ccc3[nH]6)C=C5)C=C4)cc1)C2
REMARK SMILES IDX 27 1 26 2 25 3 24 4 22 5 23 6 21 7 13 8 14 9 18 10 15 12
REMARK SMILES IDX 17 13 16 14 19 15 96 16 20 17 11 20 12 21 10 22 1 23 2 24
REMARK SMILES IDX 3 25 4 26 8 27 5 28 6 29 9 30 7 31 28 32 29 33 30 34 31 35
REMARK SMILES IDX 32 36 33 37 34 38 95 39 35 40 94 41 36 42 37 43 38 44 88 45
REMARK SMILES IDX 39 46 93 47 87 48 89 49 40 50 92 51 86 52 85 53 41 55 73 56
REMARK SMILES IDX 53 57 72 58 54 59 57 60 71 61 90 62 55 63 56 64 70 66 91 67
REMARK SMILES IDX 58 68 42 69 43 70 51 71 44 72 45 73 49 74 52 75 46 76 47 77
REMARK SMILES IDX 50 78 48 79 74 80 75 81 83 82 76 83 77 84 81 85 84 86 78 87
REMARK SMILES IDX 79 88 82 89 80 90 59 91 60 92 68 93 61 94 62 95 66 96 69 97
REMARK SMILES IDX 63 98 64 99 67 100 65 101
REMARK H PARENT 13 11 20 18 20 19 89 54 57 65
REMARK Flexibility Score: inf
ROOT
ATOM      1  O   UNL A   1      34.256  35.975  31.789  1.00  0.00    -0.374 OA
ENDROOT
BRANCH   1   2
ATOM      2  C   UNL A   1      33.243  35.254  31.088  1.00  0.00     0.202 C 
BRANCH   2   3
ATOM      3  C   UNL A   1      33.518  34.951  29.614  1.00  0.00     0.261 C 
BRANCH   3   4
ATOM      4  O   UNL A   1      33.509  33.534  29.382  1.00  0.00    -0.459 OA
BRANCH   4   5
ATOM      5  C   UNL A   1      34.121  33.118  28.243  1.00  0.00     0.364 C 
ATOM      6  O   UNL A   1      34.683  33.851  27.435  1.00  0.00    -0.245 OA
BRANCH   5   7
ATOM      7  C   UNL A   1      34.018  31.609  28.036  1.00  0.00     0.294 C 
ATOM      8  N   UNL A   1      31.670  27.525  25.712  1.00  0.00    -0.267 N 
ATOM      9  C   UNL A   1      31.399  27.991  27.058  1.00  0.00     0.271 C 
ATOM     10  C   UNL A   1      31.900  28.597  24.763  1.00  0.00     0.271 C 
ATOM     11  H   UNL A   1      32.190  27.717  26.525  1.00  0.00     0.357 HD
ATOM     12  C   UNL A   1      32.691  28.554  27.613  1.00  0.00     0.075 C 
ATOM     13  C   UNL A   1      33.035  29.539  25.201  1.00  0.00     0.075 C 
ATOM     14  C   UNL A   1      33.306  29.677  26.736  1.00  0.00     0.036 C 
ATOM     15  C   UNL A   1      34.837  29.713  27.020  1.00  0.00     0.268 C 
ATOM     16  C   UNL A   1      32.830  31.066  27.245  1.00  0.00     0.090 C 
ATOM     17  N   UNL A   1      35.161  31.114  27.251  1.00  0.00    -0.334 N 
ATOM     18  H   UNL A   1      35.243  31.619  26.369  1.00  0.00     0.347 HD
ATOM     19  H   UNL A   1      36.054  31.240  27.728  1.00  0.00     0.347 HD
BRANCH   8  20
ATOM     20  C   UNL A   1      31.213  26.260  25.373  1.00  0.00     0.350 C 
ATOM     21  O   UNL A   1      29.998  26.087  25.258  1.00  0.00    -0.225 OA
BRANCH  20  22
ATOM     22  C   UNL A   1      32.165  25.069  25.363  1.00  0.00     0.147 A 
ATOM     23  C   UNL A   1      33.663  25.718  23.375  1.00  0.00     0.045 C 
ATOM     24  C   UNL A   1      33.212  24.869  24.524  1.00  0.00    -0.027 A 
ATOM     25  C   UNL A   1      34.130  23.763  24.722  1.00  0.00     0.026 A 
ATOM     26  C   UNL A   1      34.108  23.000  25.818  1.00  0.00     0.018 A 
ATOM     27  C   UNL A   1      32.035  24.084  26.526  1.00  0.00     0.267 A 
ATOM     28  C   UNL A   1      35.181  21.959  25.995  1.00  0.00     0.064 C 
ATOM     29  N   UNL A   1      33.092  23.181  26.744  1.00  0.00    -0.315 N 
ATOM     30  O   UNL A   1      31.039  24.080  27.249  1.00  0.00    -0.268 OA
ATOM     31  C   UNL A   1      33.054  22.378  27.960  1.00  0.00     0.153 C 
ENDBRANCH  20  22
ENDBRANCH   8  20
ENDBRANCH   5   7
ENDBRANCH   4   5
ENDBRANCH   3   4
ENDBRANCH   2   3
ENDBRANCH   1   2
BRANCH   1  32
ATOM     32  C   UNL A   1      34.872  35.331  32.903  1.00  0.00     0.202 C 
BRANCH  32  33
ATOM     33  C   UNL A   1      36.198  34.606  32.641  1.00  0.00     0.261 C 
BRANCH  33  34
ATOM     34  O   UNL A   1      36.230  33.287  33.216  1.00  0.00    -0.460 OA
BRANCH  34  35
ATOM     35  C   UNL A   1      35.624  32.333  32.472  1.00  0.00     0.338 C 
ATOM     36  O   UNL A   1      34.422  32.195  32.276  1.00  0.00    -0.246 OA
BRANCH  35  37
ATOM     37  C   UNL A   1      36.625  31.538  31.744  1.00  0.00     0.060 A 
ATOM     38  C   UNL A   1      37.661  30.963  32.491  1.00  0.00     0.016 A 
ATOM     39  C   UNL A   1      36.609  31.432  30.351  1.00  0.00     0.016 A 
ATOM     40  C   UNL A   1      38.713  30.319  31.847  1.00  0.00     0.010 A 
ATOM     41  C   UNL A   1      37.675  30.795  29.703  1.00  0.00     0.010 A 
ATOM     42  C   UNL A   1      38.747  30.269  30.447  1.00  0.00    -0.014 A 
BRANCH  42  43
ATOM     43  C   UNL A   1      39.981  29.803  29.770  1.00  0.00     0.031 A 
ATOM     44  C   UNL A   1      41.146  30.746  29.652  1.00  0.00     0.074 A 
ATOM     45  C   UNL A   1      40.085  28.541  29.320  1.00  0.00     0.049 A 
ATOM     46  N   UNL A   1      42.316  30.555  29.096  1.00  0.00    -0.248 NA
ATOM     47  C   UNL A   1      40.972  32.082  30.245  1.00  0.00     0.031 C 
ATOM     48  C   UNL A   1      39.047  27.519  29.432  1.00  0.00     0.029 A 
ATOM     49  N   UNL A   1      41.120  27.904  28.682  1.00  0.00    -0.354 N 
ATOM     50  C   UNL A   1      43.017  31.741  29.278  1.00  0.00     0.074 A 
ATOM     51  C   UNL A   1      42.132  32.657  29.964  1.00  0.00     0.031 C 
ATOM     52  C   UNL A   1      39.498  26.378  28.883  1.00  0.00     0.029 A 
ATOM     53  C   UNL A   1      40.843  26.600  28.353  1.00  0.00     0.049 A 
ATOM     54  H   UNL A   1      41.980  28.340  28.481  1.00  0.00     0.167 HD
ATOM     55  C   UNL A   1      44.289  32.031  28.919  1.00  0.00     0.037 A 
ATOM     56  C   UNL A   1      41.587  25.695  27.687  1.00  0.00     0.037 A 
ATOM     57  C   UNL A   1      45.166  31.120  28.234  1.00  0.00     0.049 A 
ATOM     58  C   UNL A   1      42.965  26.075  27.211  1.00  0.00     0.074 A 
ATOM     59  C   UNL A   1      46.471  31.326  27.821  1.00  0.00     0.029 A 
ATOM     60  N   UNL A   1      44.827  29.828  27.860  1.00  0.00    -0.354 N 
ATOM     61  N   UNL A   1      43.620  27.198  27.385  1.00  0.00    -0.248 NA
ATOM     62  C   UNL A   1      43.708  25.062  26.446  1.00  0.00     0.031 C 
ATOM     63  C   UNL A   1      46.904  30.176  27.155  1.00  0.00     0.029 A 
ATOM     64  C   UNL A   1      45.890  29.233  27.201  1.00  0.00     0.049 A 
ATOM     65  H   UNL A   1      43.959  29.397  28.039  1.00  0.00     0.167 HD
ATOM     66  C   UNL A   1      44.855  27.020  26.776  1.00  0.00     0.074 A 
ATOM     67  C   UNL A   1      44.865  25.676  26.237  1.00  0.00     0.031 C 
ATOM     68  C   UNL A   1      45.889  27.892  26.676  1.00  0.00     0.037 A 
BRANCH  55  69
ATOM     69  C   UNL A   1      44.810  33.399  29.246  1.00  0.00     0.064 A 
ATOM     70  C   UNL A   1      44.629  34.481  28.372  1.00  0.00     0.173 A 
ATOM     71  C   UNL A   1      45.444  33.645  30.473  1.00  0.00     0.173 A 
ATOM     72  F   UNL A   1      44.040  34.294  27.180  1.00  0.00    -0.203 F 
ATOM     73  C   UNL A   1      45.073  35.757  28.709  1.00  0.00     0.198 A 
ATOM     74  C   UNL A   1      45.864  34.927  30.819  1.00  0.00     0.198 A 
ATOM     75  F   UNL A   1      45.639  32.645  31.345  1.00  0.00    -0.203 F 
ATOM     76  F   UNL A   1      44.917  36.769  27.845  1.00  0.00    -0.200 F 
ATOM     77  C   UNL A   1      45.682  35.980  29.936  1.00  0.00     0.200 A 
ATOM     78  F   UNL A   1      46.439  35.143  32.010  1.00  0.00    -0.200 F 
ATOM     79  F   UNL A   1      46.095  37.211  30.266  1.00  0.00    -0.200 F 
ENDBRANCH  55  69
BRANCH  56  80
ATOM     80  C   UNL A   1      41.042  24.336  27.435  1.00  0.00     0.064 A 
ATOM     81  C   UNL A   1      39.961  24.143  26.563  1.00  0.00     0.173 A 
ATOM     82  C   UNL A   1      41.592  23.203  28.053  1.00  0.00     0.173 A 
ATOM     83  F   UNL A   1      39.384  25.199  25.969  1.00  0.00    -0.203 F 
ATOM     84  C   UNL A   1      39.449  22.870  26.323  1.00  0.00     0.198 A 
ATOM     85  C   UNL A   1      41.096  21.928  27.792  1.00  0.00     0.198 A 
ATOM     86  F   UNL A   1      42.624  23.334  28.899  1.00  0.00    -0.203 F 
ATOM     87  F   UNL A   1      38.394  22.717  25.512  1.00  0.00    -0.200 F 
ATOM     88  C   UNL A   1      40.023  21.763  26.930  1.00  0.00     0.200 A 
ATOM     89  F   UNL A   1      41.660  20.861  28.373  1.00  0.00    -0.200 F 
ATOM     90  F   UNL A   1      39.537  20.538  26.691  1.00  0.00    -0.200 F 
ENDBRANCH  56  80
BRANCH  68  91
ATOM     91  C   UNL A   1      47.134  27.423  25.980  1.00  0.00     0.064 A 
ATOM     92  C   UNL A   1      47.359  27.689  24.622  1.00  0.00     0.173 A 
ATOM     93  C   UNL A   1      48.146  26.770  26.700  1.00  0.00     0.173 A 
ATOM     94  F   UNL A   1      46.417  28.299  23.888  1.00  0.00    -0.203 F 
ATOM     95  C   UNL A   1      48.548  27.305  24.007  1.00  0.00     0.198 A 
ATOM     96  C   UNL A   1      49.345  26.414  26.089  1.00  0.00     0.198 A 
ATOM     97  F   UNL A   1      47.983  26.501  28.005  1.00  0.00    -0.203 F 
ATOM     98  F   UNL A   1      48.730  27.541  22.700  1.00  0.00    -0.200 F 
ATOM     99  C   UNL A   1      49.544  26.679  24.743  1.00  0.00     0.200 A 
ATOM    100  F   UNL A   1      50.312  25.824  26.805  1.00  0.00    -0.200 F 
ATOM    101  F   UNL A   1      50.695  26.328  24.153  1.00  0.00    -0.200 F 
ENDBRANCH  68  91
ENDBRANCH  42  43
ENDBRANCH  35  37
ENDBRANCH  34  35
ENDBRANCH  33  34
ENDBRANCH  32  33
ENDBRANCH   1  32
TORSDOF 16
ENDMDL
MODEL 3
REMARK VINA RESULT:     -12.0      5.462     10.833
REMARK SMILES Cc1cc(C)n(C)c(=O)c1C(=O)[NH+]1CCC2(CC1)C[NH2+][C@@H](C(=O)OCCOCCOC(=O)c1ccc(-c3c4nc(c(-c5c(F)c(F)c(F)c(F)c5F)c5ccc([nH]5)c(-c5c(F)c(F)c(F)c(F)c5F)c5nc(c(-c6c(F)c(F)c(F)c(F)c6F)c6ccc3[nH]6)C=C5)C=C4)cc1)C2
REMARK SMILES IDX 27 1 26 2 25 3 24 4 22 5 23 6 21 7 13 8 14 9 18 10 15 12
REMARK SMILES IDX 17 13 16 14 19 15 96 16 20 17 11 20 12 21 10 22 1 23 2 24
REMARK SMILES IDX 3 25 4 26 8 27 5 28 6 29 9 30 7 31 28 32 29 33 30 34 31 35
REMARK SMILES IDX 32 36 33 37 34 38 95 39 35 40 94 41 36 42 37 43 38 44 88 45
REMARK SMILES IDX 39 46 93 47 87 48 89 49 40 50 92 51 86 52 85 53 41 55 73 56
REMARK SMILES IDX 53 57 72 58 54 59 57 60 71 61 90 62 55 63 56 64 70 66 91 67
REMARK SMILES IDX 58 68 42 69 43 70 51 71 44 72 45 73 49 74 52 75 46 76 47 77
REMARK SMILES IDX 50 78 48 79 74 80 75 81 83 82 76 83 77 84 81 85 84 86 78 87
REMARK SMILES IDX 79 88 82 89 80 90 59 91 60 92 68 93 61 94 62 95 66 96 69 97
REMARK SMILES IDX 63 98 64 99 67 100 65 101
REMARK H PARENT 13 11 20 18 20 19 89 54 57 65
REMARK Flexibility Score: inf
ROOT
ATOM      1  O   UNL A   1      42.589  21.388  25.390  1.00  0.00    -0.374 OA
ENDROOT
BRANCH   1   2
ATOM      2  C   UNL A   1      42.394  20.158  26.087  1.00  0.00     0.202 C 
BRANCH   2   3
ATOM      3  C   UNL A   1      41.162  20.073  26.989  1.00  0.00     0.261 C 
BRANCH   3   4
ATOM      4  O   UNL A   1      40.172  21.027  26.575  1.00  0.00    -0.459 OA
BRANCH   4   5
ATOM      5  C   UNL A   1      39.201  20.552  25.752  1.00  0.00     0.364 C 
ATOM      6  O   UNL A   1      39.099  19.387  25.381  1.00  0.00    -0.245 OA
BRANCH   5   7
ATOM      7  C   UNL A   1      38.234  21.639  25.292  1.00  0.00     0.294 C 
ATOM      8  N   UNL A   1      33.304  23.176  24.320  1.00  0.00    -0.267 N 
ATOM      9  C   UNL A   1      34.250  22.716  23.321  1.00  0.00     0.271 C 
ATOM     10  C   UNL A   1      33.381  22.443  25.570  1.00  0.00     0.271 C 
ATOM     11  H   UNL A   1      34.221  23.401  24.039  1.00  0.00     0.357 HD
ATOM     12  C   UNL A   1      35.633  23.131  23.779  1.00  0.00     0.075 C 
ATOM     13  C   UNL A   1      34.794  22.461  26.178  1.00  0.00     0.075 C 
ATOM     14  C   UNL A   1      36.002  22.608  25.194  1.00  0.00     0.036 C 
ATOM     15  C   UNL A   1      37.076  23.566  25.786  1.00  0.00     0.268 C 
ATOM     16  C   UNL A   1      36.769  21.262  25.076  1.00  0.00     0.090 C 
ATOM     17  N   UNL A   1      38.130  22.704  26.304  1.00  0.00    -0.334 N 
ATOM     18  H   UNL A   1      37.872  22.319  27.212  1.00  0.00     0.347 HD
ATOM     19  H   UNL A   1      39.010  23.198  26.450  1.00  0.00     0.347 HD
BRANCH   8  20
ATOM     20  C   UNL A   1      32.176  23.844  23.868  1.00  0.00     0.350 C 
ATOM     21  O   UNL A   1      31.399  23.242  23.124  1.00  0.00    -0.225 OA
BRANCH  20  22
ATOM     22  C   UNL A   1      32.018  25.342  24.099  1.00  0.00     0.147 A 
ATOM     23  C   UNL A   1      30.433  25.309  26.127  1.00  0.00     0.045 C 
ATOM     24  C   UNL A   1      31.294  25.943  25.078  1.00  0.00    -0.027 A 
ATOM     25  C   UNL A   1      31.351  27.380  25.275  1.00  0.00     0.026 A 
ATOM     26  C   UNL A   1      32.234  28.157  24.642  1.00  0.00     0.018 A 
ATOM     27  C   UNL A   1      32.901  26.259  23.254  1.00  0.00     0.267 A 
ATOM     28  C   UNL A   1      32.304  29.616  25.007  1.00  0.00     0.064 C 
ATOM     29  N   UNL A   1      33.040  27.599  23.662  1.00  0.00    -0.315 N 
ATOM     30  O   UNL A   1      33.473  25.842  22.247  1.00  0.00    -0.268 OA
ATOM     31  C   UNL A   1      34.028  28.417  22.969  1.00  0.00     0.153 C 
ENDBRANCH  20  22
ENDBRANCH   8  20
ENDBRANCH   5   7
ENDBRANCH   4   5
ENDBRANCH   3   4
ENDBRANCH   2   3
ENDBRANCH   1   2
BRANCH   1  32
ATOM     32  C   UNL A   1      43.905  21.939  25.379  1.00  0.00     0.202 C 
BRANCH  32  33
ATOM     33  C   UNL A   1      44.251  22.889  24.226  1.00  0.00     0.261 C 
BRANCH  33  34
ATOM     34  O   UNL A   1      44.206  24.273  24.618  1.00  0.00    -0.460 OA
BRANCH  34  35
ATOM     35  C   UNL A   1      44.880  24.559  25.756  1.00  0.00     0.338 C 
ATOM     36  O   UNL A   1      46.064  24.346  25.993  1.00  0.00    -0.246 OA
BRANCH  35  37
ATOM     37  C   UNL A   1      44.038  25.352  26.665  1.00  0.00     0.060 A 
ATOM     38  C   UNL A   1      44.315  26.721  26.773  1.00  0.00     0.016 A 
ATOM     39  C   UNL A   1      43.060  24.759  27.467  1.00  0.00     0.016 A 
ATOM     40  C   UNL A   1      43.649  27.496  27.717  1.00  0.00     0.010 A 
ATOM     41  C   UNL A   1      42.400  25.538  28.426  1.00  0.00     0.010 A 
ATOM     42  C   UNL A   1      42.717  26.900  28.577  1.00  0.00    -0.014 A 
BRANCH  42  43
ATOM     43  C   UNL A   1      42.200  27.674  29.731  1.00  0.00     0.031 A 
ATOM     44  C   UNL A   1      40.933  28.466  29.566  1.00  0.00     0.074 A 
ATOM     45  C   UNL A   1      42.817  27.627  30.924  1.00  0.00     0.049 A 
ATOM     46  N   UNL A   1      40.304  29.218  30.434  1.00  0.00    -0.248 NA
ATOM     47  C   UNL A   1      40.281  28.395  28.249  1.00  0.00     0.031 C 
ATOM     48  C   UNL A   1      44.017  26.848  31.220  1.00  0.00     0.029 A 
ATOM     49  N   UNL A   1      42.512  28.245  32.111  1.00  0.00    -0.354 N 
ATOM     50  C   UNL A   1      39.184  29.703  29.771  1.00  0.00     0.074 A 
ATOM     51  C   UNL A   1      39.235  29.190  28.419  1.00  0.00     0.031 C 
ATOM     52  C   UNL A   1      44.347  27.032  32.511  1.00  0.00     0.029 A 
ATOM     53  C   UNL A   1      43.401  27.967  33.119  1.00  0.00     0.049 A 
ATOM     54  H   UNL A   1      41.730  28.832  32.228  1.00  0.00     0.167 HD
ATOM     55  C   UNL A   1      38.196  30.492  30.253  1.00  0.00     0.037 A 
ATOM     56  C   UNL A   1      43.451  28.427  34.385  1.00  0.00     0.037 A 
ATOM     57  C   UNL A   1      38.149  31.004  31.596  1.00  0.00     0.049 A 
ATOM     58  C   UNL A   1      42.391  29.383  34.868  1.00  0.00     0.074 A 
ATOM     59  C   UNL A   1      37.191  31.819  32.175  1.00  0.00     0.029 A 
ATOM     60  N   UNL A   1      39.102  30.751  32.571  1.00  0.00    -0.354 N 
ATOM     61  N   UNL A   1      41.337  29.838  34.235  1.00  0.00    -0.248 NA
ATOM     62  C   UNL A   1      42.529  29.889  36.242  1.00  0.00     0.031 C 
ATOM     63  C   UNL A   1      37.590  32.097  33.485  1.00  0.00     0.029 A 
ATOM     64  C   UNL A   1      38.768  31.413  33.740  1.00  0.00     0.049 A 
ATOM     65  H   UNL A   1      39.899  30.185  32.449  1.00  0.00     0.167 HD
ATOM     66  C   UNL A   1      40.674  30.661  35.137  1.00  0.00     0.074 A 
ATOM     67  C   UNL A   1      41.438  30.634  36.366  1.00  0.00     0.031 C 
ATOM     68  C   UNL A   1      39.533  31.372  34.960  1.00  0.00     0.037 A 
BRANCH  55  69
ATOM     69  C   UNL A   1      37.085  30.867  29.316  1.00  0.00     0.064 A 
ATOM     70  C   UNL A   1      36.079  29.952  28.970  1.00  0.00     0.173 A 
ATOM     71  C   UNL A   1      36.990  32.171  28.809  1.00  0.00     0.173 A 
ATOM     72  F   UNL A   1      36.134  28.688  29.418  1.00  0.00    -0.203 F 
ATOM     73  C   UNL A   1      35.026  30.326  28.140  1.00  0.00     0.198 A 
ATOM     74  C   UNL A   1      35.921  32.550  28.001  1.00  0.00     0.198 A 
ATOM     75  F   UNL A   1      37.924  33.084  29.114  1.00  0.00    -0.203 F 
ATOM     76  F   UNL A   1      34.094  29.427  27.796  1.00  0.00    -0.200 F 
ATOM     77  C   UNL A   1      34.943  31.627  27.664  1.00  0.00     0.200 A 
ATOM     78  F   UNL A   1      35.836  33.810  27.554  1.00  0.00    -0.200 F 
ATOM     79  F   UNL A   1      33.921  31.990  26.878  1.00  0.00    -0.200 F 
ENDBRANCH  55  69
BRANCH  56  80
ATOM     80  C   UNL A   1      44.545  27.983  35.287  1.00  0.00     0.064 A 
ATOM     81  C   UNL A   1      44.428  26.805  36.038  1.00  0.00     0.173 A 
ATOM     82  C   UNL A   1      45.732  28.722  35.412  1.00  0.00     0.173 A 
ATOM     83  F   UNL A   1      43.302  26.079  35.972  1.00  0.00    -0.203 F 
ATOM     84  C   UNL A   1      45.453  26.385  36.882  1.00  0.00     0.198 A 
ATOM     85  C   UNL A   1      46.767  28.287  36.237  1.00  0.00     0.198 A 
ATOM     86  F   UNL A   1      45.891  29.858  34.719  1.00  0.00    -0.203 F 
ATOM     87  F   UNL A   1      45.303  25.273  37.614  1.00  0.00    -0.200 F 
ATOM     88  C   UNL A   1      46.626  27.121  36.974  1.00  0.00     0.200 A 
ATOM     89  F   UNL A   1      47.901  28.996  36.314  1.00  0.00    -0.200 F 
ATOM     90  F   UNL A   1      47.616  26.712  37.778  1.00  0.00    -0.200 F 
ENDBRANCH  56  80
BRANCH  68  91
ATOM     91  C   UNL A   1      39.017  32.165  36.126  1.00  0.00     0.064 A 
ATOM     92  C   UNL A   1      38.180  31.589  37.091  1.00  0.00     0.173 A 
ATOM     93  C   UNL A   1      39.431  33.492  36.319  1.00  0.00     0.173 A 
ATOM     94  F   UNL A   1      37.747  30.328  36.945  1.00  0.00    -0.203 F 
ATOM     95  C   UNL A   1      37.763  32.319  38.202  1.00  0.00     0.198 A 
ATOM     96  C   UNL A   1      39.036  34.209  37.445  1.00  0.00     0.198 A 
ATOM     97  F   UNL A   1      40.240  34.086  35.429  1.00  0.00    -0.203 F 
ATOM     98  F   UNL A   1      36.936  31.760  39.097  1.00  0.00    -0.200 F 
ATOM     99  C   UNL A   1      38.200  33.623  38.384  1.00  0.00     0.200 A 
ATOM    100  F   UNL A   1      39.472  35.463  37.627  1.00  0.00    -0.200 F 
ATOM    101  F   UNL A   1      37.813  34.317  39.463  1.00  0.00    -0.200 F 
ENDBRANCH  68  91
ENDBRANCH  42  43
ENDBRANCH  35  37
ENDBRANCH  34  35
ENDBRANCH  33  34
ENDBRANCH  32  33
ENDBRANCH   1  32
TORSDOF 16
ENDMDL
