MODEL 1
REMARK VINA RESULT:     -10.6      0.000      0.000
REMARK SMILES CCCc1cc(C(N)=O)c(NC(=O)[C@H]2CC(C)=C(C)C[C@@H]2C(=O)OCCOCCOC(=O)c2ccc(-c3c4nc(c(-c5c(F)c(F)c(F)c(F)c5F)c5ccc([nH]5)c(-c5c(F)c(F)c(F)c(F)c5F)c5nc(c(-c6c(F)c(F)c(F)c(F)c6F)c6ccc3[nH]6)C=C5)C=C4)cc2)s1
REMARK SMILES IDX 26 1 25 2 24 3 22 4 23 5 21 6 14 7 15 8 16 9 20 10 17 11
REMARK SMILES IDX 18 12 19 13 12 14 11 15 13 17 10 18 4 19 5 20 96 21 6 22
REMARK SMILES IDX 3 23 2 24 1 25 7 26 8 27 9 28 27 31 28 32 29 33 30 34 31 35
REMARK SMILES IDX 32 36 33 37 34 38 95 39 35 40 94 41 36 42 37 43 38 44 88 45
REMARK SMILES IDX 39 46 93 47 87 48 89 49 40 50 92 51 86 52 85 53 41 55 73 56
REMARK SMILES IDX 53 57 72 58 54 59 57 60 71 61 90 62 55 63 56 64 70 66 91 67
REMARK SMILES IDX 58 68 42 69 43 70 51 71 44 72 45 73 49 74 52 75 46 76 47 77
REMARK SMILES IDX 50 78 48 79 74 80 75 81 83 82 76 83 77 84 81 85 84 86 78 87
REMARK SMILES IDX 79 88 82 89 80 90 59 91 60 92 68 93 61 94 62 95 66 96 69 97
REMARK SMILES IDX 63 98 64 99 67 100 65 101
REMARK H PARENT 11 16 8 29 8 30 89 54 57 65
REMARK Flexibility Score: inf
ROOT
ATOM      1  C   UNL A   1      42.986  41.578  25.464  1.00  0.00     0.202 C 
ENDROOT
BRANCH   1   2
ATOM      2  C   UNL A   1      42.158  41.725  24.185  1.00  0.00     0.261 C 
BRANCH   2   3
ATOM      3  O   UNL A   1      42.100  43.094  23.737  1.00  0.00    -0.463 OA
BRANCH   3   4
ATOM      4  C   UNL A   1      43.226  43.574  23.138  1.00  0.00     0.310 C 
ATOM      5  O   UNL A   1      43.793  44.599  23.491  1.00  0.00    -0.252 OA
BRANCH   4   6
ATOM      6  C   UNL A   1      43.643  42.714  21.931  1.00  0.00     0.116 C 
ATOM      7  C   UNL A   1      44.950  43.220  21.282  1.00  0.00     0.097 C 
ATOM      8  C   UNL A   1      44.898  43.866  19.892  1.00  0.00     0.045 C 
ATOM      9  C   UNL A   1      43.535  44.075  19.279  1.00  0.00    -0.074 C 
ATOM     10  C   UNL A   1      42.431  42.608  20.986  1.00  0.00     0.046 C 
ATOM     11  C   UNL A   1      43.570  44.879  18.000  1.00  0.00     0.039 C 
ATOM     12  C   UNL A   1      42.413  43.526  19.788  1.00  0.00    -0.073 C 
ATOM     13  C   UNL A   1      41.047  43.718  19.174  1.00  0.00     0.039 C 
BRANCH   7  14
ATOM     14  C   UNL A   1      46.144  42.295  21.520  1.00  0.00     0.229 C 
ATOM     15  N   UNL A   1      46.919  42.160  22.621  1.00  0.00    -0.317 N 
ATOM     16  H   UNL A   1      47.643  41.508  22.476  1.00  0.00     0.170 HD
ATOM     17  O   UNL A   1      46.486  41.550  20.584  1.00  0.00    -0.274 OA
BRANCH  15  18
ATOM     18  C   UNL A   1      46.961  42.691  23.890  1.00  0.00     0.108 A 
ATOM     19  C   UNL A   1      46.599  44.211  25.788  1.00  0.00     0.008 A 
ATOM     20  C   UNL A   1      46.636  42.893  26.183  1.00  0.00     0.031 A 
ATOM     21  S   UNL A   1      47.094  44.343  24.170  1.00  0.00    -0.122 S 
ATOM     22  C   UNL A   1      46.896  41.988  25.090  1.00  0.00     0.074 A 
BRANCH  19  23
ATOM     23  C   UNL A   1      46.217  45.430  26.574  1.00  0.00     0.046 C 
BRANCH  23  24
ATOM     24  C   UNL A   1      46.372  45.244  28.090  1.00  0.00     0.002 C 
ATOM     25  C   UNL A   1      45.070  44.902  28.804  1.00  0.00     0.004 C 
ENDBRANCH  23  24
ENDBRANCH  19  23
BRANCH  22  26
ATOM     26  C   UNL A   1      46.954  40.541  25.247  1.00  0.00     0.251 C 
ATOM     27  N   UNL A   1      47.550  40.069  26.378  1.00  0.00    -0.366 N 
ATOM     28  O   UNL A   1      46.452  39.759  24.436  1.00  0.00    -0.269 OA
ATOM     29  H   UNL A   1      47.949  40.698  27.022  1.00  0.00     0.159 HD
ATOM     30  H   UNL A   1      47.582  39.101  26.550  1.00  0.00     0.159 HD
ENDBRANCH  22  26
ENDBRANCH  15  18
ENDBRANCH   7  14
ENDBRANCH   4   6
ENDBRANCH   3   4
ENDBRANCH   2   3
ENDBRANCH   1   2
BRANCH   1  31
ATOM     31  O   UNL A   1      42.466  40.720  26.478  1.00  0.00    -0.374 OA
BRANCH  31  32
ATOM     32  C   UNL A   1      43.218  39.554  26.799  1.00  0.00     0.202 C 
BRANCH  32  33
ATOM     33  C   UNL A   1      43.940  39.554  28.157  1.00  0.00     0.261 C 
BRANCH  33  34
ATOM     34  O   UNL A   1      43.890  38.279  28.819  1.00  0.00    -0.460 OA
BRANCH  34  35
ATOM     35  C   UNL A   1      45.100  37.766  29.146  1.00  0.00     0.338 C 
ATOM     36  O   UNL A   1      46.037  38.352  29.672  1.00  0.00    -0.246 OA
BRANCH  35  37
ATOM     37  C   UNL A   1      45.118  36.304  28.949  1.00  0.00     0.060 A 
ATOM     38  C   UNL A   1      44.633  35.819  27.727  1.00  0.00     0.016 A 
ATOM     39  C   UNL A   1      45.514  35.419  29.954  1.00  0.00     0.016 A 
ATOM     40  C   UNL A   1      44.485  34.449  27.528  1.00  0.00     0.010 A 
ATOM     41  C   UNL A   1      45.352  34.041  29.757  1.00  0.00     0.010 A 
ATOM     42  C   UNL A   1      44.800  33.554  28.559  1.00  0.00    -0.014 A 
BRANCH  42  43
ATOM     43  C   UNL A   1      44.385  32.135  28.426  1.00  0.00     0.031 A 
ATOM     44  C   UNL A   1      43.068  31.706  29.013  1.00  0.00     0.074 A 
ATOM     45  C   UNL A   1      45.128  31.257  27.731  1.00  0.00     0.049 A 
ATOM     46  N   UNL A   1      42.478  30.538  28.971  1.00  0.00    -0.248 NA
ATOM     47  C   UNL A   1      42.313  32.737  29.740  1.00  0.00     0.031 C 
ATOM     48  C   UNL A   1      46.394  31.560  27.070  1.00  0.00     0.029 A 
ATOM     49  N   UNL A   1      44.911  29.929  27.458  1.00  0.00    -0.354 N 
ATOM     50  C   UNL A   1      41.281  30.696  29.657  1.00  0.00     0.074 A 
ATOM     51  C   UNL A   1      41.247  32.060  30.139  1.00  0.00     0.031 C 
ATOM     52  C   UNL A   1      46.840  30.450  26.457  1.00  0.00     0.029 A 
ATOM     53  C   UNL A   1      45.903  29.355  26.703  1.00  0.00     0.049 A 
ATOM     54  H   UNL A   1      44.120  29.435  27.773  1.00  0.00     0.167 HD
ATOM     55  C   UNL A   1      40.292  29.791  29.858  1.00  0.00     0.037 A 
ATOM     56  C   UNL A   1      46.038  28.087  26.266  1.00  0.00     0.037 A 
ATOM     57  C   UNL A   1      40.328  28.431  29.390  1.00  0.00     0.049 A 
ATOM     58  C   UNL A   1      44.974  27.072  26.587  1.00  0.00     0.074 A 
ATOM     59  C   UNL A   1      39.371  27.441  29.533  1.00  0.00     0.029 A 
ATOM     60  N   UNL A   1      41.388  27.865  28.697  1.00  0.00    -0.354 N 
ATOM     61  N   UNL A   1      43.834  27.235  27.214  1.00  0.00    -0.248 NA
ATOM     62  C   UNL A   1      45.217  25.693  26.137  1.00  0.00     0.031 C 
ATOM     63  C   UNL A   1      39.873  26.263  28.969  1.00  0.00     0.029 A 
ATOM     64  C   UNL A   1      41.123  26.530  28.432  1.00  0.00     0.049 A 
ATOM     65  H   UNL A   1      42.208  28.341  28.431  1.00  0.00     0.167 HD
ATOM     66  C   UNL A   1      43.214  25.992  27.211  1.00  0.00     0.074 A 
ATOM     67  C   UNL A   1      44.100  25.085  26.512  1.00  0.00     0.031 C 
ATOM     68  C   UNL A   1      42.014  25.637  27.736  1.00  0.00     0.037 A 
BRANCH  55  69
ATOM     69  C   UNL A   1      39.102  30.247  30.648  1.00  0.00     0.064 A 
ATOM     70  C   UNL A   1      37.994  30.848  30.030  1.00  0.00     0.173 A 
ATOM     71  C   UNL A   1      39.068  30.087  32.041  1.00  0.00     0.173 A 
ATOM     72  F   UNL A   1      37.982  31.038  28.702  1.00  0.00    -0.203 F 
ATOM     73  C   UNL A   1      36.914  31.305  30.782  1.00  0.00     0.198 A 
ATOM     74  C   UNL A   1      37.976  30.519  32.787  1.00  0.00     0.198 A 
ATOM     75  F   UNL A   1      40.101  29.515  32.680  1.00  0.00    -0.203 F 
ATOM     76  F   UNL A   1      35.893  31.927  30.177  1.00  0.00    -0.200 F 
ATOM     77  C   UNL A   1      36.904  31.137  32.158  1.00  0.00     0.200 A 
ATOM     78  F   UNL A   1      37.964  30.348  34.116  1.00  0.00    -0.200 F 
ATOM     79  F   UNL A   1      35.867  31.580  32.882  1.00  0.00    -0.200 F 
ENDBRANCH  55  69
BRANCH  56  80
ATOM     80  C   UNL A   1      47.229  27.709  25.463  1.00  0.00     0.064 A 
ATOM     81  C   UNL A   1      47.212  27.803  24.065  1.00  0.00     0.173 A 
ATOM     82  C   UNL A   1      48.404  27.250  26.074  1.00  0.00     0.173 A 
ATOM     83  F   UNL A   1      46.101  28.210  23.434  1.00  0.00    -0.203 F 
ATOM     84  C   UNL A   1      48.326  27.445  23.307  1.00  0.00     0.198 A 
ATOM     85  C   UNL A   1      49.525  26.914  25.317  1.00  0.00     0.198 A 
ATOM     86  F   UNL A   1      48.467  27.136  27.408  1.00  0.00    -0.203 F 
ATOM     87  F   UNL A   1      48.274  27.514  21.970  1.00  0.00    -0.200 F 
ATOM     88  C   UNL A   1      49.484  27.008  23.934  1.00  0.00     0.200 A 
ATOM     89  F   UNL A   1      50.643  26.500  25.928  1.00  0.00    -0.200 F 
ATOM     90  F   UNL A   1      50.556  26.673  23.206  1.00  0.00    -0.200 F 
ENDBRANCH  56  80
BRANCH  68  91
ATOM     91  C   UNL A   1      41.576  24.214  27.553  1.00  0.00     0.064 A 
ATOM     92  C   UNL A   1      42.208  23.156  28.222  1.00  0.00     0.173 A 
ATOM     93  C   UNL A   1      40.482  23.907  26.727  1.00  0.00     0.173 A 
ATOM     94  F   UNL A   1      43.268  23.396  29.010  1.00  0.00    -0.203 F 
ATOM     95  C   UNL A   1      41.776  21.843  28.057  1.00  0.00     0.198 A 
ATOM     96  C   UNL A   1      40.036  22.596  26.585  1.00  0.00     0.198 A 
ATOM     97  F   UNL A   1      39.839  24.883  26.068  1.00  0.00    -0.203 F 
ATOM     98  F   UNL A   1      42.423  20.844  28.674  1.00  0.00    -0.200 F 
ATOM     99  C   UNL A   1      40.687  21.564  27.244  1.00  0.00     0.200 A 
ATOM    100  F   UNL A   1      38.976  22.331  25.808  1.00  0.00    -0.200 F 
ATOM    101  F   UNL A   1      40.269  20.300  27.091  1.00  0.00    -0.200 F 
ENDBRANCH  68  91
ENDBRANCH  42  43
ENDBRANCH  35  37
ENDBRANCH  34  35
ENDBRANCH  33  34
ENDBRANCH  32  33
ENDBRANCH  31  32
ENDBRANCH   1  31
TORSDOF 19
ENDMDL
MODEL 2
REMARK VINA RESULT:     -10.4      0.917      2.044
REMARK SMILES CCCc1cc(C(N)=O)c(NC(=O)[C@H]2CC(C)=C(C)C[C@@H]2C(=O)OCCOCCOC(=O)c2ccc(-c3c4nc(c(-c5c(F)c(F)c(F)c(F)c5F)c5ccc([nH]5)c(-c5c(F)c(F)c(F)c(F)c5F)c5nc(c(-c6c(F)c(F)c(F)c(F)c6F)c6ccc3[nH]6)C=C5)C=C4)cc2)s1
REMARK SMILES IDX 26 1 25 2 24 3 22 4 23 5 21 6 14 7 15 8 16 9 20 10 17 11
REMARK SMILES IDX 18 12 19 13 12 14 11 15 13 17 10 18 4 19 5 20 96 21 6 22
REMARK SMILES IDX 3 23 2 24 1 25 7 26 8 27 9 28 27 31 28 32 29 33 30 34 31 35
REMARK SMILES IDX 32 36 33 37 34 38 95 39 35 40 94 41 36 42 37 43 38 44 88 45
REMARK SMILES IDX 39 46 93 47 87 48 89 49 40 50 92 51 86 52 85 53 41 55 73 56
REMARK SMILES IDX 53 57 72 58 54 59 57 60 71 61 90 62 55 63 56 64 70 66 91 67
REMARK SMILES IDX 58 68 42 69 43 70 51 71 44 72 45 73 49 74 52 75 46 76 47 77
REMARK SMILES IDX 50 78 48 79 74 80 75 81 83 82 76 83 77 84 81 85 84 86 78 87
REMARK SMILES IDX 79 88 82 89 80 90 59 91 60 92 68 93 61 94 62 95 66 96 69 97
REMARK SMILES IDX 63 98 64 99 67 100 65 101
REMARK H PARENT 11 16 8 29 8 30 89 54 57 65
REMARK Flexibility Score: inf
ROOT
ATOM      1  C   UNL A   1      43.546  40.971  25.750  1.00  0.00     0.202 C 
ENDROOT
BRANCH   1   2
ATOM      2  C   UNL A   1      42.445  41.690  24.966  1.00  0.00     0.261 C 
BRANCH   2   3
ATOM      3  O   UNL A   1      42.983  42.700  24.089  1.00  0.00    -0.463 OA
BRANCH   3   4
ATOM      4  C   UNL A   1      42.316  42.885  22.915  1.00  0.00     0.310 C 
ATOM      5  O   UNL A   1      41.162  43.290  22.852  1.00  0.00    -0.252 OA
BRANCH   4   6
ATOM      6  C   UNL A   1      43.161  42.456  21.703  1.00  0.00     0.116 C 
ATOM      7  C   UNL A   1      44.485  43.245  21.609  1.00  0.00     0.097 C 
ATOM      8  C   UNL A   1      44.677  44.261  20.476  1.00  0.00     0.045 C 
ATOM      9  C   UNL A   1      43.497  44.515  19.570  1.00  0.00    -0.074 C 
ATOM     10  C   UNL A   1      42.261  42.520  20.454  1.00  0.00     0.046 C 
ATOM     11  C   UNL A   1      43.718  45.656  18.605  1.00  0.00     0.039 C 
ATOM     12  C   UNL A   1      42.392  43.743  19.577  1.00  0.00    -0.073 C 
ATOM     13  C   UNL A   1      41.212  43.981  18.665  1.00  0.00     0.039 C 
BRANCH   7  14
ATOM     14  C   UNL A   1      45.718  42.402  21.937  1.00  0.00     0.229 C 
ATOM     15  N   UNL A   1      46.720  42.651  22.813  1.00  0.00    -0.317 N 
ATOM     16  H   UNL A   1      47.405  41.944  22.789  1.00  0.00     0.170 HD
ATOM     17  O   UNL A   1      45.858  41.329  21.322  1.00  0.00    -0.274 OA
BRANCH  15  18
ATOM     18  C   UNL A   1      47.032  43.629  23.729  1.00  0.00     0.108 A 
ATOM     19  C   UNL A   1      47.490  44.753  25.867  1.00  0.00     0.008 A 
ATOM     20  C   UNL A   1      48.248  45.270  24.840  1.00  0.00     0.031 A 
ATOM     21  S   UNL A   1      46.304  43.711  25.242  1.00  0.00    -0.122 S 
ATOM     22  C   UNL A   1      47.958  44.656  23.567  1.00  0.00     0.074 A 
BRANCH  19  23
ATOM     23  C   UNL A   1      47.586  45.005  27.342  1.00  0.00     0.046 C 
BRANCH  23  24
ATOM     24  C   UNL A   1      46.412  45.830  27.891  1.00  0.00     0.002 C 
ATOM     25  C   UNL A   1      45.378  45.004  28.645  1.00  0.00     0.004 C 
ENDBRANCH  23  24
ENDBRANCH  19  23
BRANCH  22  26
ATOM     26  C   UNL A   1      48.649  45.010  22.334  1.00  0.00     0.251 C 
ATOM     27  N   UNL A   1      49.849  44.405  22.108  1.00  0.00    -0.366 N 
ATOM     28  O   UNL A   1      48.171  45.777  21.495  1.00  0.00    -0.269 OA
ATOM     29  H   UNL A   1      50.226  43.794  22.781  1.00  0.00     0.159 HD
ATOM     30  H   UNL A   1      50.339  44.581  21.273  1.00  0.00     0.159 HD
ENDBRANCH  22  26
ENDBRANCH  15  18
ENDBRANCH   7  14
ENDBRANCH   4   6
ENDBRANCH   3   4
ENDBRANCH   2   3
ENDBRANCH   1   2
BRANCH   1  31
ATOM     31  O   UNL A   1      43.326  40.778  27.147  1.00  0.00    -0.374 OA
BRANCH  31  32
ATOM     32  C   UNL A   1      43.573  39.479  27.676  1.00  0.00     0.202 C 
BRANCH  32  33
ATOM     33  C   UNL A   1      43.778  39.383  29.197  1.00  0.00     0.261 C 
BRANCH  33  34
ATOM     34  O   UNL A   1      43.901  38.029  29.662  1.00  0.00    -0.460 OA
BRANCH  34  35
ATOM     35  C   UNL A   1      45.160  37.531  29.626  1.00  0.00     0.338 C 
ATOM     36  O   UNL A   1      46.195  38.109  29.931  1.00  0.00    -0.246 OA
BRANCH  35  37
ATOM     37  C   UNL A   1      45.143  36.087  29.326  1.00  0.00     0.060 A 
ATOM     38  C   UNL A   1      44.487  35.687  28.153  1.00  0.00     0.016 A 
ATOM     39  C   UNL A   1      45.672  35.135  30.199  1.00  0.00     0.016 A 
ATOM     40  C   UNL A   1      44.306  34.334  27.880  1.00  0.00     0.010 A 
ATOM     41  C   UNL A   1      45.478  33.774  29.930  1.00  0.00     0.010 A 
ATOM     42  C   UNL A   1      44.759  33.370  28.790  1.00  0.00    -0.014 A 
BRANCH  42  43
ATOM     43  C   UNL A   1      44.323  31.962  28.617  1.00  0.00     0.031 A 
ATOM     44  C   UNL A   1      42.991  31.541  29.176  1.00  0.00     0.074 A 
ATOM     45  C   UNL A   1      45.060  31.088  27.911  1.00  0.00     0.049 A 
ATOM     46  N   UNL A   1      42.382  30.384  29.098  1.00  0.00    -0.248 NA
ATOM     47  C   UNL A   1      42.243  32.567  29.919  1.00  0.00     0.031 C 
ATOM     48  C   UNL A   1      46.340  31.386  27.275  1.00  0.00     0.029 A 
ATOM     49  N   UNL A   1      44.825  29.771  27.602  1.00  0.00    -0.354 N 
ATOM     50  C   UNL A   1      41.179  30.546  29.772  1.00  0.00     0.074 A 
ATOM     51  C   UNL A   1      41.161  31.899  30.287  1.00  0.00     0.031 C 
ATOM     52  C   UNL A   1      46.776  30.284  26.640  1.00  0.00     0.029 A 
ATOM     53  C   UNL A   1      45.818  29.199  26.847  1.00  0.00     0.049 A 
ATOM     54  H   UNL A   1      44.022  29.284  27.895  1.00  0.00     0.167 HD
ATOM     55  C   UNL A   1      40.173  29.653  29.937  1.00  0.00     0.037 A 
ATOM     56  C   UNL A   1      45.938  27.941  26.381  1.00  0.00     0.037 A 
ATOM     57  C   UNL A   1      40.193  28.305  29.437  1.00  0.00     0.049 A 
ATOM     58  C   UNL A   1      44.852  26.935  26.663  1.00  0.00     0.074 A 
ATOM     59  C   UNL A   1      39.218  27.328  29.543  1.00  0.00     0.029 A 
ATOM     60  N   UNL A   1      41.252  27.738  28.744  1.00  0.00    -0.354 N 
ATOM     61  N   UNL A   1      43.708  27.103  27.279  1.00  0.00    -0.248 NA
ATOM     62  C   UNL A   1      45.079  25.564  26.182  1.00  0.00     0.031 C 
ATOM     63  C   UNL A   1      39.708  26.155  28.957  1.00  0.00     0.029 A 
ATOM     64  C   UNL A   1      40.969  26.414  28.444  1.00  0.00     0.049 A 
ATOM     65  H   UNL A   1      42.084  28.206  28.501  1.00  0.00     0.167 HD
ATOM     66  C   UNL A   1      43.067  25.871  27.237  1.00  0.00     0.074 A 
ATOM     67  C   UNL A   1      43.947  24.966  26.528  1.00  0.00     0.031 C 
ATOM     68  C   UNL A   1      41.855  25.524  27.738  1.00  0.00     0.037 A 
BRANCH  55  69
ATOM     69  C   UNL A   1      38.979  30.110  30.723  1.00  0.00     0.064 A 
ATOM     70  C   UNL A   1      37.881  30.727  30.102  1.00  0.00     0.173 A 
ATOM     71  C   UNL A   1      38.933  29.934  32.113  1.00  0.00     0.173 A 
ATOM     72  F   UNL A   1      37.883  30.932  28.777  1.00  0.00    -0.203 F 
ATOM     73  C   UNL A   1      36.799  31.184  30.851  1.00  0.00     0.198 A 
ATOM     74  C   UNL A   1      37.838  30.367  32.855  1.00  0.00     0.198 A 
ATOM     75  F   UNL A   1      39.955  29.347  32.755  1.00  0.00    -0.203 F 
ATOM     76  F   UNL A   1      35.789  31.821  30.244  1.00  0.00    -0.200 F 
ATOM     77  C   UNL A   1      36.777  31.000  32.225  1.00  0.00     0.200 A 
ATOM     78  F   UNL A   1      37.813  30.180  34.182  1.00  0.00    -0.200 F 
ATOM     79  F   UNL A   1      35.737  31.444  32.945  1.00  0.00    -0.200 F 
ENDBRANCH  55  69
BRANCH  56  80
ATOM     80  C   UNL A   1      47.133  27.561  25.584  1.00  0.00     0.064 A 
ATOM     81  C   UNL A   1      48.269  27.025  26.205  1.00  0.00     0.173 A 
ATOM     82  C   UNL A   1      47.162  27.723  24.192  1.00  0.00     0.173 A 
ATOM     83  F   UNL A   1      48.298  26.877  27.537  1.00  0.00    -0.203 F 
ATOM     84  C   UNL A   1      49.394  26.670  25.462  1.00  0.00     0.198 A 
ATOM     85  C   UNL A   1      48.279  27.348  23.448  1.00  0.00     0.198 A 
ATOM     86  F   UNL A   1      46.102  28.238  23.553  1.00  0.00    -0.203 F 
ATOM     87  F   UNL A   1      50.480  26.189  26.082  1.00  0.00    -0.200 F 
ATOM     88  C   UNL A   1      49.395  26.825  24.083  1.00  0.00     0.200 A 
ATOM     89  F   UNL A   1      48.271  27.492  22.116  1.00  0.00    -0.200 F 
ATOM     90  F   UNL A   1      50.473  26.477  23.369  1.00  0.00    -0.200 F 
ENDBRANCH  56  80
BRANCH  68  91
ATOM     91  C   UNL A   1      41.395  24.113  27.513  1.00  0.00     0.064 A 
ATOM     92  C   UNL A   1      40.333  23.813  26.648  1.00  0.00     0.173 A 
ATOM     93  C   UNL A   1      42.051  23.043  28.141  1.00  0.00     0.173 A 
ATOM     94  F   UNL A   1      39.663  24.802  26.035  1.00  0.00    -0.203 F 
ATOM     95  C   UNL A   1      39.931  22.497  26.435  1.00  0.00     0.198 A 
ATOM     96  C   UNL A   1      41.664  21.726  27.906  1.00  0.00     0.198 A 
ATOM     97  F   UNL A   1      43.077  23.274  28.975  1.00  0.00    -0.203 F 
ATOM     98  F   UNL A   1      38.886  22.238  25.636  1.00  0.00    -0.200 F 
ATOM     99  C   UNL A   1      40.601  21.455  27.058  1.00  0.00     0.200 A 
ATOM    100  F   UNL A   1      42.321  20.720  28.501  1.00  0.00    -0.200 F 
ATOM    101  F   UNL A   1      40.217  20.188  26.848  1.00  0.00    -0.200 F 
ENDBRANCH  68  91
ENDBRANCH  42  43
ENDBRANCH  35  37
ENDBRANCH  34  35
ENDBRANCH  33  34
ENDBRANCH  32  33
ENDBRANCH  31  32
ENDBRANCH   1  31
TORSDOF 19
ENDMDL
MODEL 3
REMARK VINA RESULT:     -10.3      6.420     11.897
REMARK SMILES CCCc1cc(C(N)=O)c(NC(=O)[C@H]2CC(C)=C(C)C[C@@H]2C(=O)OCCOCCOC(=O)c2ccc(-c3c4nc(c(-c5c(F)c(F)c(F)c(F)c5F)c5ccc([nH]5)c(-c5c(F)c(F)c(F)c(F)c5F)c5nc(c(-c6c(F)c(F)c(F)c(F)c6F)c6ccc3[nH]6)C=C5)C=C4)cc2)s1
REMARK SMILES IDX 26 1 25 2 24 3 22 4 23 5 21 6 14 7 15 8 16 9 20 10 17 11
REMARK SMILES IDX 18 12 19 13 12 14 11 15 13 17 10 18 4 19 5 20 96 21 6 22
REMARK SMILES IDX 3 23 2 24 1 25 7 26 8 27 9 28 27 31 28 32 29 33 30 34 31 35
REMARK SMILES IDX 32 36 33 37 34 38 95 39 35 40 94 41 36 42 37 43 38 44 88 45
REMARK SMILES IDX 39 46 93 47 87 48 89 49 40 50 92 51 86 52 85 53 41 55 73 56
REMARK SMILES IDX 53 57 72 58 54 59 57 60 71 61 90 62 55 63 56 64 70 66 91 67
REMARK SMILES IDX 58 68 42 69 43 70 51 71 44 72 45 73 49 74 52 75 46 76 47 77
REMARK SMILES IDX 50 78 48 79 74 80 75 81 83 82 76 83 77 84 81 85 84 86 78 87
REMARK SMILES IDX 79 88 82 89 80 90 59 91 60 92 68 93 61 94 62 95 66 96 69 97
REMARK SMILES IDX 63 98 64 99 67 100 65 101
REMARK H PARENT 11 16 8 29 8 30 89 54 57 65
REMARK Flexibility Score: inf
ROOT
ATOM      1  C   UNL A   1      38.527  32.630  38.223  1.00  0.00     0.202 C 
ENDROOT
BRANCH   1   2
ATOM      2  C   UNL A   1      38.038  32.791  36.781  1.00  0.00     0.261 C 
BRANCH   2   3
ATOM      3  O   UNL A   1      37.404  31.593  36.292  1.00  0.00    -0.463 OA
BRANCH   3   4
ATOM      4  C   UNL A   1      38.160  30.813  35.469  1.00  0.00     0.310 C 
ATOM      5  O   UNL A   1      39.191  30.257  35.826  1.00  0.00    -0.252 OA
BRANCH   4   6
ATOM      6  C   UNL A   1      37.601  30.784  34.035  1.00  0.00     0.116 C 
ATOM      7  C   UNL A   1      38.661  30.330  33.008  1.00  0.00     0.097 C 
ATOM      8  C   UNL A   1      39.217  31.346  32.003  1.00  0.00     0.045 C 
ATOM      9  C   UNL A   1      38.772  32.780  32.152  1.00  0.00    -0.074 C 
ATOM     10  C   UNL A   1      36.948  32.151  33.755  1.00  0.00     0.046 C 
ATOM     11  C   UNL A   1      39.507  33.735  31.242  1.00  0.00     0.039 C 
ATOM     12  C   UNL A   1      37.761  33.149  32.965  1.00  0.00    -0.073 C 
ATOM     13  C   UNL A   1      37.299  34.579  33.112  1.00  0.00     0.039 C 
BRANCH   7  14
ATOM     14  C   UNL A   1      38.396  28.936  32.438  1.00  0.00     0.229 C 
ATOM     15  N   UNL A   1      37.935  28.582  31.216  1.00  0.00    -0.317 N 
ATOM     16  H   UNL A   1      37.827  27.606  31.138  1.00  0.00     0.170 HD
ATOM     17  O   UNL A   1      38.617  27.962  33.181  1.00  0.00    -0.274 OA
BRANCH  15  18
ATOM     18  C   UNL A   1      37.578  29.225  30.053  1.00  0.00     0.108 A 
ATOM     19  C   UNL A   1      36.659  30.907  28.513  1.00  0.00     0.008 A 
ATOM     20  C   UNL A   1      37.785  30.302  28.003  1.00  0.00     0.031 A 
ATOM     21  S   UNL A   1      36.139  30.082  29.903  1.00  0.00    -0.122 S 
ATOM     22  C   UNL A   1      38.312  29.276  28.871  1.00  0.00     0.074 A 
BRANCH  19  23
ATOM     23  C   UNL A   1      35.904  32.099  28.004  1.00  0.00     0.046 C 
BRANCH  23  24
ATOM     24  C   UNL A   1      36.360  33.420  28.641  1.00  0.00     0.002 C 
ATOM     25  C   UNL A   1      35.641  33.756  29.941  1.00  0.00     0.004 C 
ENDBRANCH  23  24
ENDBRANCH  19  23
BRANCH  22  26
ATOM     26  C   UNL A   1      39.514  28.513  28.567  1.00  0.00     0.251 C 
ATOM     27  N   UNL A   1      40.700  29.047  28.977  1.00  0.00    -0.366 N 
ATOM     28  O   UNL A   1      39.487  27.412  28.013  1.00  0.00    -0.269 OA
ATOM     29  H   UNL A   1      40.717  29.927  29.418  1.00  0.00     0.159 HD
ATOM     30  H   UNL A   1      41.539  28.553  28.829  1.00  0.00     0.159 HD
ENDBRANCH  22  26
ENDBRANCH  15  18
ENDBRANCH   7  14
ENDBRANCH   4   6
ENDBRANCH   3   4
ENDBRANCH   2   3
ENDBRANCH   1   2
BRANCH   1  31
ATOM     31  O   UNL A   1      37.917  33.459  39.211  1.00  0.00    -0.374 OA
BRANCH  31  32
ATOM     32  C   UNL A   1      38.764  34.345  39.937  1.00  0.00     0.202 C 
BRANCH  32  33
ATOM     33  C   UNL A   1      40.275  34.210  39.688  1.00  0.00     0.261 C 
BRANCH  33  34
ATOM     34  O   UNL A   1      40.932  35.478  39.524  1.00  0.00    -0.460 OA
BRANCH  34  35
ATOM     35  C   UNL A   1      40.522  36.192  38.449  1.00  0.00     0.338 C 
ATOM     36  O   UNL A   1      39.882  37.235  38.453  1.00  0.00    -0.246 OA
BRANCH  35  37
ATOM     37  C   UNL A   1      41.101  35.645  37.207  1.00  0.00     0.060 A 
ATOM     38  C   UNL A   1      40.212  35.356  36.163  1.00  0.00     0.016 A 
ATOM     39  C   UNL A   1      42.458  35.341  37.086  1.00  0.00     0.016 A 
ATOM     40  C   UNL A   1      40.666  34.706  35.018  1.00  0.00     0.010 A 
ATOM     41  C   UNL A   1      42.911  34.675  35.940  1.00  0.00     0.010 A 
ATOM     42  C   UNL A   1      42.009  34.320  34.920  1.00  0.00    -0.014 A 
BRANCH  42  43
ATOM     43  C   UNL A   1      42.410  33.400  33.826  1.00  0.00     0.031 A 
ATOM     44  C   UNL A   1      42.728  33.976  32.473  1.00  0.00     0.074 A 
ATOM     45  C   UNL A   1      42.563  32.084  34.047  1.00  0.00     0.049 A 
ATOM     46  N   UNL A   1      43.151  33.375  31.389  1.00  0.00    -0.248 NA
ATOM     47  C   UNL A   1      42.550  35.429  32.326  1.00  0.00     0.031 C 
ATOM     48  C   UNL A   1      42.339  31.412  35.324  1.00  0.00     0.029 A 
ATOM     49  N   UNL A   1      42.957  31.079  33.198  1.00  0.00    -0.354 N 
ATOM     50  C   UNL A   1      43.297  34.374  30.437  1.00  0.00     0.074 A 
ATOM     51  C   UNL A   1      42.881  35.614  31.057  1.00  0.00     0.031 C 
ATOM     52  C   UNL A   1      42.609  30.103  35.179  1.00  0.00     0.029 A 
ATOM     53  C   UNL A   1      43.001  29.843  33.794  1.00  0.00     0.049 A 
ATOM     54  H   UNL A   1      43.187  31.230  32.253  1.00  0.00     0.167 HD
ATOM     55  C   UNL A   1      43.749  34.273  29.164  1.00  0.00     0.037 A 
ATOM     56  C   UNL A   1      43.318  28.640  33.276  1.00  0.00     0.037 A 
ATOM     57  C   UNL A   1      44.152  33.041  28.540  1.00  0.00     0.049 A 
ATOM     58  C   UNL A   1      43.722  28.537  31.828  1.00  0.00     0.074 A 
ATOM     59  C   UNL A   1      44.636  32.837  27.259  1.00  0.00     0.029 A 
ATOM     60  N   UNL A   1      44.107  31.797  29.152  1.00  0.00    -0.354 N 
ATOM     61  N   UNL A   1      43.882  29.489  30.942  1.00  0.00    -0.248 NA
ATOM     62  C   UNL A   1      43.989  27.186  31.311  1.00  0.00     0.031 C 
ATOM     63  C   UNL A   1      44.836  31.463  27.081  1.00  0.00     0.029 A 
ATOM     64  C   UNL A   1      44.522  30.815  28.266  1.00  0.00     0.049 A 
ATOM     65  H   UNL A   1      43.821  31.634  30.081  1.00  0.00     0.167 HD
ATOM     66  C   UNL A   1      44.293  28.860  29.774  1.00  0.00     0.074 A 
ATOM     67  C   UNL A   1      44.366  27.443  30.066  1.00  0.00     0.031 C 
ATOM     68  C   UNL A   1      44.590  29.409  28.569  1.00  0.00     0.037 A 
BRANCH  55  69
ATOM     69  C   UNL A   1      43.798  35.536  28.355  1.00  0.00     0.064 A 
ATOM     70  C   UNL A   1      45.001  36.227  28.141  1.00  0.00     0.173 A 
ATOM     71  C   UNL A   1      42.628  36.065  27.791  1.00  0.00     0.173 A 
ATOM     72  F   UNL A   1      46.145  35.770  28.671  1.00  0.00    -0.203 F 
ATOM     73  C   UNL A   1      45.023  37.421  27.424  1.00  0.00     0.198 A 
ATOM     74  C   UNL A   1      42.658  37.244  27.052  1.00  0.00     0.198 A 
ATOM     75  F   UNL A   1      41.453  35.441  27.964  1.00  0.00    -0.203 F 
ATOM     76  F   UNL A   1      46.173  38.094  27.281  1.00  0.00    -0.200 F 
ATOM     77  C   UNL A   1      43.853  37.926  26.878  1.00  0.00     0.200 A 
ATOM     78  F   UNL A   1      41.528  37.726  26.516  1.00  0.00    -0.200 F 
ATOM     79  F   UNL A   1      43.874  39.078  26.192  1.00  0.00    -0.200 F 
ENDBRANCH  55  69
BRANCH  56  80
ATOM     80  C   UNL A   1      43.277  27.433  34.139  1.00  0.00     0.064 A 
ATOM     81  C   UNL A   1      42.064  26.790  34.417  1.00  0.00     0.173 A 
ATOM     82  C   UNL A   1      44.445  26.897  34.698  1.00  0.00     0.173 A 
ATOM     83  F   UNL A   1      40.917  27.282  33.927  1.00  0.00    -0.203 F 
ATOM     84  C   UNL A   1      42.020  25.658  35.229  1.00  0.00     0.198 A 
ATOM     85  C   UNL A   1      44.404  25.752  35.492  1.00  0.00     0.198 A 
ATOM     86  F   UNL A   1      45.630  27.480  34.466  1.00  0.00    -0.203 F 
ATOM     87  F   UNL A   1      40.843  25.080  35.507  1.00  0.00    -0.200 F 
ATOM     88  C   UNL A   1      43.191  25.135  35.760  1.00  0.00     0.200 A 
ATOM     89  F   UNL A   1      45.538  25.247  35.994  1.00  0.00    -0.200 F 
ATOM     90  F   UNL A   1      43.149  24.043  36.533  1.00  0.00    -0.200 F 
ENDBRANCH  56  80
BRANCH  68  91
ATOM     91  C   UNL A   1      45.046  28.480  27.482  1.00  0.00     0.064 A 
ATOM     92  C   UNL A   1      44.133  27.806  26.659  1.00  0.00     0.173 A 
ATOM     93  C   UNL A   1      46.415  28.293  27.234  1.00  0.00     0.173 A 
ATOM     94  F   UNL A   1      42.813  27.939  26.865  1.00  0.00    -0.203 F 
ATOM     95  C   UNL A   1      44.572  26.963  25.641  1.00  0.00     0.198 A 
ATOM     96  C   UNL A   1      46.851  27.471  26.199  1.00  0.00     0.198 A 
ATOM     97  F   UNL A   1      47.330  28.920  27.989  1.00  0.00    -0.203 F 
ATOM     98  F   UNL A   1      43.681  26.296  24.894  1.00  0.00    -0.200 F 
ATOM     99  C   UNL A   1      45.930  26.801  25.407  1.00  0.00     0.200 A 
ATOM    100  F   UNL A   1      48.163  27.326  25.968  1.00  0.00    -0.200 F 
ATOM    101  F   UNL A   1      46.351  25.994  24.424  1.00  0.00    -0.200 F 
ENDBRANCH  68  91
ENDBRANCH  42  43
ENDBRANCH  35  37
ENDBRANCH  34  35
ENDBRANCH  33  34
ENDBRANCH  32  33
ENDBRANCH  31  32
ENDBRANCH   1  31
TORSDOF 19
ENDMDL
