MODEL 1
REMARK VINA RESULT:     -11.2      0.000      0.000
REMARK SMILES O=C(OCCOCCOC(=O)[C@@H]1CC[C@]2(CC[NH2+]C2)C1)c1ccc(-c2c3nc(c(-c4c(F)c(F)c(F)c(F)c4F)c4ccc([nH]4)c(-c4c(F)c(F)c(F)c(F)c4F)c4nc(c(-c5c(F)c(F)c(F)c(F)c5F)c5ccc2[nH]5)C=C4)C=C3)cc1
REMARK SMILES IDX 5 1 4 2 3 3 2 4 1 5 21 6 22 7 83 8 23 9 82 10 24 11 25 12
REMARK SMILES IDX 26 13 76 14 27 15 81 16 75 17 77 18 28 19 80 20 74 21 73 22
REMARK SMILES IDX 29 24 61 25 41 26 60 27 42 28 45 29 59 30 78 31 43 32 44 33
REMARK SMILES IDX 58 35 79 36 46 37 30 38 31 39 39 40 32 41 33 42 37 43 40 44
REMARK SMILES IDX 34 45 35 46 38 47 36 48 62 49 63 50 71 51 64 52 65 53 69 54
REMARK SMILES IDX 72 55 66 56 67 57 70 58 68 59 47 60 48 61 56 62 49 63 50 64
REMARK SMILES IDX 54 65 57 66 51 67 52 68 55 69 53 70 6 71 7 72 8 73 9 74
REMARK SMILES IDX 10 75 11 76 12 77 13 78 20 79 14 80 15 81 16 82 19 83 17 84
REMARK SMILES IDX 18 85
REMARK H PARENT 77 23 45 34 18 86 18 87
REMARK Flexibility Score: inf
ROOT
ATOM      1  C   UNL A   1      32.111  28.387  26.637  1.00  0.00     0.202 C 
ENDROOT
BRANCH   1   2
ATOM      2  C   UNL A   1      31.778  29.878  26.798  1.00  0.00     0.261 C 
BRANCH   2   3
ATOM      3  O   UNL A   1      32.928  30.686  26.459  1.00  0.00    -0.460 OA
BRANCH   3   4
ATOM      4  C   UNL A   1      33.648  31.501  27.276  1.00  0.00     0.338 C 
ATOM      5  O   UNL A   1      33.192  32.569  27.649  1.00  0.00    -0.246 OA
BRANCH   4   6
ATOM      6  C   UNL A   1      34.968  31.059  27.788  1.00  0.00     0.060 A 
ATOM      7  C   UNL A   1      35.223  29.731  28.084  1.00  0.00     0.016 A 
ATOM      8  C   UNL A   1      35.985  31.992  28.000  1.00  0.00     0.016 A 
ATOM      9  C   UNL A   1      36.309  29.353  28.820  1.00  0.00     0.010 A 
ATOM     10  C   UNL A   1      37.182  31.588  28.606  1.00  0.00     0.010 A 
ATOM     11  C   UNL A   1      37.313  30.272  29.071  1.00  0.00    -0.014 A 
BRANCH  11  12
ATOM     12  C   UNL A   1      38.388  29.796  29.954  1.00  0.00     0.031 A 
ATOM     13  C   UNL A   1      39.485  28.982  29.347  1.00  0.00     0.074 A 
ATOM     14  C   UNL A   1      38.485  30.321  31.191  1.00  0.00     0.049 A 
ATOM     15  N   UNL A   1      40.520  28.436  29.920  1.00  0.00    -0.248 NA
ATOM     16  C   UNL A   1      39.419  28.762  27.891  1.00  0.00     0.031 C 
ATOM     17  C   UNL A   1      37.545  31.291  31.774  1.00  0.00     0.029 A 
ATOM     18  N   UNL A   1      39.452  30.193  32.146  1.00  0.00    -0.354 N 
ATOM     19  C   UNL A   1      41.181  27.747  28.913  1.00  0.00     0.074 A 
ATOM     20  C   UNL A   1      40.452  27.963  27.686  1.00  0.00     0.031 C 
ATOM     21  C   UNL A   1      38.029  31.728  32.944  1.00  0.00     0.029 A 
ATOM     22  C   UNL A   1      39.231  30.972  33.257  1.00  0.00     0.049 A 
ATOM     23  H   UNL A   1      40.232  29.600  32.048  1.00  0.00     0.167 HD
ATOM     24  C   UNL A   1      42.289  26.981  29.034  1.00  0.00     0.037 A 
ATOM     25  C   UNL A   1      39.906  31.017  34.418  1.00  0.00     0.037 A 
ATOM     26  C   UNL A   1      42.995  26.836  30.277  1.00  0.00     0.049 A 
ATOM     27  C   UNL A   1      41.083  30.094  34.553  1.00  0.00     0.074 A 
ATOM     28  C   UNL A   1      44.073  26.028  30.578  1.00  0.00     0.029 A 
ATOM     29  N   UNL A   1      42.685  27.546  31.433  1.00  0.00    -0.354 N 
ATOM     30  N   UNL A   1      41.625  29.312  33.647  1.00  0.00    -0.248 NA
ATOM     31  C   UNL A   1      41.719  30.026  35.870  1.00  0.00     0.031 C 
ATOM     32  C   UNL A   1      44.386  26.218  31.930  1.00  0.00     0.029 A 
ATOM     33  C   UNL A   1      43.543  27.188  32.456  1.00  0.00     0.049 A 
ATOM     34  H   UNL A   1      41.959  28.208  31.511  1.00  0.00     0.167 HD
ATOM     35  C   UNL A   1      42.677  28.670  34.277  1.00  0.00     0.074 A 
ATOM     36  C   UNL A   1      42.708  29.174  35.638  1.00  0.00     0.031 C 
ATOM     37  C   UNL A   1      43.536  27.741  33.787  1.00  0.00     0.037 A 
BRANCH  24  38
ATOM     38  C   UNL A   1      42.698  26.180  27.834  1.00  0.00     0.064 A 
ATOM     39  C   UNL A   1      43.648  26.634  26.908  1.00  0.00     0.173 A 
ATOM     40  C   UNL A   1      42.065  24.954  27.574  1.00  0.00     0.173 A 
ATOM     41  F   UNL A   1      44.254  27.817  27.087  1.00  0.00    -0.203 F 
ATOM     42  C   UNL A   1      43.924  25.907  25.750  1.00  0.00     0.198 A 
ATOM     43  C   UNL A   1      42.363  24.216  26.431  1.00  0.00     0.198 A 
ATOM     44  F   UNL A   1      41.136  24.481  28.418  1.00  0.00    -0.203 F 
ATOM     45  F   UNL A   1      44.783  26.394  24.843  1.00  0.00    -0.200 F 
ATOM     46  C   UNL A   1      43.284  24.699  25.514  1.00  0.00     0.200 A 
ATOM     47  F   UNL A   1      41.743  23.050  26.207  1.00  0.00    -0.200 F 
ATOM     48  F   UNL A   1      43.540  24.009  24.394  1.00  0.00    -0.200 F 
ENDBRANCH  24  38
BRANCH  25  49
ATOM     49  C   UNL A   1      39.439  31.882  35.535  1.00  0.00     0.064 A 
ATOM     50  C   UNL A   1      39.912  33.192  35.693  1.00  0.00     0.173 A 
ATOM     51  C   UNL A   1      38.509  31.414  36.480  1.00  0.00     0.173 A 
ATOM     52  F   UNL A   1      40.814  33.686  34.834  1.00  0.00    -0.203 F 
ATOM     53  C   UNL A   1      39.488  33.991  36.756  1.00  0.00     0.198 A 
ATOM     54  C   UNL A   1      38.058  32.225  37.519  1.00  0.00     0.198 A 
ATOM     55  F   UNL A   1      38.023  30.168  36.386  1.00  0.00    -0.203 F 
ATOM     56  F   UNL A   1      39.994  35.222  36.910  1.00  0.00    -0.200 F 
ATOM     57  C   UNL A   1      38.555  33.509  37.663  1.00  0.00     0.200 A 
ATOM     58  F   UNL A   1      37.143  31.758  38.381  1.00  0.00    -0.200 F 
ATOM     59  F   UNL A   1      38.145  34.279  38.681  1.00  0.00    -0.200 F 
ENDBRANCH  25  49
BRANCH  37  60
ATOM     60  C   UNL A   1      44.607  27.272  34.721  1.00  0.00     0.064 A 
ATOM     61  C   UNL A   1      44.418  26.170  35.567  1.00  0.00     0.173 A 
ATOM     62  C   UNL A   1      45.850  27.921  34.741  1.00  0.00     0.173 A 
ATOM     63  F   UNL A   1      43.238  25.533  35.592  1.00  0.00    -0.203 F 
ATOM     64  C   UNL A   1      45.429  25.753  36.426  1.00  0.00     0.198 A 
ATOM     65  C   UNL A   1      46.870  27.480  35.576  1.00  0.00     0.198 A 
ATOM     66  F   UNL A   1      46.075  28.976  33.943  1.00  0.00    -0.203 F 
ATOM     67  F   UNL A   1      45.211  24.734  37.267  1.00  0.00    -0.200 F 
ATOM     68  C   UNL A   1      46.655  26.403  36.423  1.00  0.00     0.200 A 
ATOM     69  F   UNL A   1      48.058  28.099  35.562  1.00  0.00    -0.200 F 
ATOM     70  F   UNL A   1      47.630  25.995  37.247  1.00  0.00    -0.200 F 
ENDBRANCH  37  60
ENDBRANCH  11  12
ENDBRANCH   4   6
ENDBRANCH   3   4
ENDBRANCH   2   3
ENDBRANCH   1   2
BRANCH   1  71
ATOM     71  O   UNL A   1      32.915  28.030  25.516  1.00  0.00    -0.374 OA
BRANCH  71  72
ATOM     72  C   UNL A   1      32.766  26.680  25.069  1.00  0.00     0.202 C 
BRANCH  72  73
ATOM     73  C   UNL A   1      31.290  26.340  24.903  1.00  0.00     0.261 C 
BRANCH  73  74
ATOM     74  O   UNL A   1      30.977  26.176  23.507  1.00  0.00    -0.463 OA
BRANCH  74  75
ATOM     75  C   UNL A   1      30.558  27.284  22.839  1.00  0.00     0.309 C 
ATOM     76  O   UNL A   1      30.800  27.533  21.664  1.00  0.00    -0.252 OA
BRANCH  75  77
ATOM     77  C   UNL A   1      29.670  28.177  23.698  1.00  0.00     0.100 C 
ATOM     78  C   UNL A   1      28.174  27.983  23.502  1.00  0.00     0.016 C 
ATOM     79  C   UNL A   1      29.895  29.680  23.465  1.00  0.00     0.028 C 
ATOM     80  C   UNL A   1      27.797  28.979  22.414  1.00  0.00     0.014 C 
ATOM     81  C   UNL A   1      28.665  30.221  22.677  1.00  0.00     0.026 C 
ATOM     82  C   UNL A   1      29.022  30.962  21.370  1.00  0.00     0.074 C 
ATOM     83  C   UNL A   1      27.928  31.308  23.482  1.00  0.00     0.267 C 
ATOM     84  C   UNL A   1      28.383  32.332  21.471  1.00  0.00     0.261 C 
ATOM     85  N   UNL A   1      28.391  32.582  22.912  1.00  0.00    -0.346 N 
ATOM     86  H   UNL A   1      27.756  33.342  23.154  1.00  0.00     0.346 HD
ATOM     87  H   UNL A   1      29.307  32.865  23.262  1.00  0.00     0.346 HD
ENDBRANCH  75  77
ENDBRANCH  74  75
ENDBRANCH  73  74
ENDBRANCH  72  73
ENDBRANCH  71  72
ENDBRANCH   1  71
TORSDOF 14
ENDMDL
MODEL 2
REMARK VINA RESULT:     -11.1      0.222      2.031
REMARK SMILES O=C(OCCOCCOC(=O)[C@@H]1CC[C@]2(CC[NH2+]C2)C1)c1ccc(-c2c3nc(c(-c4c(F)c(F)c(F)c(F)c4F)c4ccc([nH]4)c(-c4c(F)c(F)c(F)c(F)c4F)c4nc(c(-c5c(F)c(F)c(F)c(F)c5F)c5ccc2[nH]5)C=C4)C=C3)cc1
REMARK SMILES IDX 5 1 4 2 3 3 2 4 1 5 21 6 22 7 83 8 23 9 82 10 24 11 25 12
REMARK SMILES IDX 26 13 76 14 27 15 81 16 75 17 77 18 28 19 80 20 74 21 73 22
REMARK SMILES IDX 29 24 61 25 41 26 60 27 42 28 45 29 59 30 78 31 43 32 44 33
REMARK SMILES IDX 58 35 79 36 46 37 30 38 31 39 39 40 32 41 33 42 37 43 40 44
REMARK SMILES IDX 34 45 35 46 38 47 36 48 62 49 63 50 71 51 64 52 65 53 69 54
REMARK SMILES IDX 72 55 66 56 67 57 70 58 68 59 47 60 48 61 56 62 49 63 50 64
REMARK SMILES IDX 54 65 57 66 51 67 52 68 55 69 53 70 6 71 7 72 8 73 9 74
REMARK SMILES IDX 10 75 11 76 12 77 13 78 20 79 14 80 15 81 16 82 19 83 17 84
REMARK SMILES IDX 18 85
REMARK H PARENT 77 23 45 34 18 86 18 87
REMARK Flexibility Score: inf
ROOT
ATOM      1  C   UNL A   1      32.150  28.427  26.354  1.00  0.00     0.202 C 
ENDROOT
BRANCH   1   2
ATOM      2  C   UNL A   1      31.750  29.883  26.634  1.00  0.00     0.261 C 
BRANCH   2   3
ATOM      3  O   UNL A   1      32.862  30.766  26.365  1.00  0.00    -0.460 OA
BRANCH   3   4
ATOM      4  C   UNL A   1      33.542  31.547  27.247  1.00  0.00     0.338 C 
ATOM      5  O   UNL A   1      33.042  32.569  27.688  1.00  0.00    -0.246 OA
BRANCH   4   6
ATOM      6  C   UNL A   1      34.872  31.119  27.745  1.00  0.00     0.060 A 
ATOM      7  C   UNL A   1      35.161  29.787  27.985  1.00  0.00     0.016 A 
ATOM      8  C   UNL A   1      35.864  32.069  27.999  1.00  0.00     0.016 A 
ATOM      9  C   UNL A   1      36.255  29.407  28.708  1.00  0.00     0.010 A 
ATOM     10  C   UNL A   1      37.070  31.671  28.591  1.00  0.00     0.010 A 
ATOM     11  C   UNL A   1      37.234  30.340  29.000  1.00  0.00    -0.014 A 
BRANCH  11  12
ATOM     12  C   UNL A   1      38.319  29.856  29.867  1.00  0.00     0.031 A 
ATOM     13  C   UNL A   1      39.413  29.054  29.238  1.00  0.00     0.074 A 
ATOM     14  C   UNL A   1      38.426  30.363  31.110  1.00  0.00     0.049 A 
ATOM     15  N   UNL A   1      40.456  28.504  29.793  1.00  0.00    -0.248 NA
ATOM     16  C   UNL A   1      39.334  28.855  27.779  1.00  0.00     0.031 C 
ATOM     17  C   UNL A   1      37.489  31.321  31.716  1.00  0.00     0.029 A 
ATOM     18  N   UNL A   1      39.403  30.224  32.054  1.00  0.00    -0.354 N 
ATOM     19  C   UNL A   1      41.110  27.832  28.770  1.00  0.00     0.074 A 
ATOM     20  C   UNL A   1      40.368  28.063  27.553  1.00  0.00     0.031 C 
ATOM     21  C   UNL A   1      37.982  31.743  32.888  1.00  0.00     0.029 A 
ATOM     22  C   UNL A   1      39.190  30.987  33.178  1.00  0.00     0.049 A 
ATOM     23  H   UNL A   1      40.184  29.636  31.940  1.00  0.00     0.167 HD
ATOM     24  C   UNL A   1      42.221  27.069  28.869  1.00  0.00     0.037 A 
ATOM     25  C   UNL A   1      39.875  31.018  34.333  1.00  0.00     0.037 A 
ATOM     26  C   UNL A   1      42.940  26.908  30.103  1.00  0.00     0.049 A 
ATOM     27  C   UNL A   1      41.057  30.097  34.443  1.00  0.00     0.074 A 
ATOM     28  C   UNL A   1      44.023  26.100  30.382  1.00  0.00     0.029 A 
ATOM     29  N   UNL A   1      42.638  27.601  31.272  1.00  0.00    -0.354 N 
ATOM     30  N   UNL A   1      41.593  29.330  33.522  1.00  0.00    -0.248 NA
ATOM     31  C   UNL A   1      41.706  30.013  35.753  1.00  0.00     0.031 C 
ATOM     32  C   UNL A   1      44.348  26.271  31.734  1.00  0.00     0.029 A 
ATOM     33  C   UNL A   1      43.507  27.231  32.282  1.00  0.00     0.049 A 
ATOM     34  H   UNL A   1      41.911  28.259  31.367  1.00  0.00     0.167 HD
ATOM     35  C   UNL A   1      42.654  28.684  34.132  1.00  0.00     0.074 A 
ATOM     36  C   UNL A   1      42.696  29.168  35.500  1.00  0.00     0.031 C 
ATOM     37  C   UNL A   1      43.511  27.765  33.621  1.00  0.00     0.037 A 
BRANCH  24  38
ATOM     38  C   UNL A   1      42.621  26.286  27.654  1.00  0.00     0.064 A 
ATOM     39  C   UNL A   1      42.087  25.024  27.356  1.00  0.00     0.173 A 
ATOM     40  C   UNL A   1      43.619  26.790  26.805  1.00  0.00     0.173 A 
ATOM     41  F   UNL A   1      41.159  24.477  28.156  1.00  0.00    -0.203 F 
ATOM     42  C   UNL A   1      42.561  24.283  26.274  1.00  0.00     0.198 A 
ATOM     43  C   UNL A   1      44.071  26.060  25.709  1.00  0.00     0.198 A 
ATOM     44  F   UNL A   1      44.176  27.986  27.053  1.00  0.00    -0.203 F 
ATOM     45  F   UNL A   1      42.087  23.049  26.050  1.00  0.00    -0.200 F 
ATOM     46  C   UNL A   1      43.550  24.802  25.450  1.00  0.00     0.200 A 
ATOM     47  F   UNL A   1      45.025  26.565  24.916  1.00  0.00    -0.200 F 
ATOM     48  F   UNL A   1      44.014  24.082  24.420  1.00  0.00    -0.200 F 
ENDBRANCH  24  38
BRANCH  25  49
ATOM     49  C   UNL A   1      39.416  31.865  35.467  1.00  0.00     0.064 A 
ATOM     50  C   UNL A   1      38.454  31.408  36.378  1.00  0.00     0.173 A 
ATOM     51  C   UNL A   1      39.925  33.161  35.662  1.00  0.00     0.173 A 
ATOM     52  F   UNL A   1      37.918  30.188  36.231  1.00  0.00    -0.203 F 
ATOM     53  C   UNL A   1      38.009  32.216  37.426  1.00  0.00     0.198 A 
ATOM     54  C   UNL A   1      39.508  33.952  36.731  1.00  0.00     0.198 A 
ATOM     55  F   UNL A   1      40.844  33.657  34.821  1.00  0.00    -0.203 F 
ATOM     56  F   UNL A   1      37.053  31.772  38.253  1.00  0.00    -0.200 F 
ATOM     57  C   UNL A   1      38.543  33.484  37.605  1.00  0.00     0.200 A 
ATOM     58  F   UNL A   1      40.042  35.169  36.907  1.00  0.00    -0.200 F 
ATOM     59  F   UNL A   1      38.118  34.257  38.615  1.00  0.00    -0.200 F 
ENDBRANCH  25  49
BRANCH  37  60
ATOM     60  C   UNL A   1      44.593  27.286  34.538  1.00  0.00     0.064 A 
ATOM     61  C   UNL A   1      45.820  27.956  34.644  1.00  0.00     0.173 A 
ATOM     62  C   UNL A   1      44.378  26.157  35.341  1.00  0.00     0.173 A 
ATOM     63  F   UNL A   1      46.073  29.029  33.880  1.00  0.00    -0.203 F 
ATOM     64  C   UNL A   1      46.809  27.491  35.503  1.00  0.00     0.198 A 
ATOM     65  C   UNL A   1      45.357  25.716  36.224  1.00  0.00     0.198 A 
ATOM     66  F   UNL A   1      43.216  25.491  35.275  1.00  0.00    -0.203 F 
ATOM     67  F   UNL A   1      47.996  28.110  35.551  1.00  0.00    -0.200 F 
ATOM     68  C   UNL A   1      46.574  26.378  36.298  1.00  0.00     0.200 A 
ATOM     69  F   UNL A   1      45.123  24.650  37.001  1.00  0.00    -0.200 F 
ATOM     70  F   UNL A   1      47.526  25.935  37.130  1.00  0.00    -0.200 F 
ENDBRANCH  37  60
ENDBRANCH  11  12
ENDBRANCH   4   6
ENDBRANCH   3   4
ENDBRANCH   2   3
ENDBRANCH   1   2
BRANCH   1  71
ATOM     71  O   UNL A   1      32.737  28.158  25.085  1.00  0.00    -0.374 OA
BRANCH  71  72
ATOM     72  C   UNL A   1      32.620  26.805  24.636  1.00  0.00     0.202 C 
BRANCH  72  73
ATOM     73  C   UNL A   1      31.196  26.303  24.843  1.00  0.00     0.261 C 
BRANCH  73  74
ATOM     74  O   UNL A   1      30.507  26.243  23.580  1.00  0.00    -0.463 OA
BRANCH  74  75
ATOM     75  C   UNL A   1      30.294  27.425  22.941  1.00  0.00     0.309 C 
ATOM     76  O   UNL A   1      30.719  27.712  21.828  1.00  0.00    -0.252 OA
BRANCH  75  77
ATOM     77  C   UNL A   1      29.388  28.358  23.735  1.00  0.00     0.100 C 
ATOM     78  C   UNL A   1      27.896  28.146  23.525  1.00  0.00     0.016 C 
ATOM     79  C   UNL A   1      29.611  29.847  23.426  1.00  0.00     0.028 C 
ATOM     80  C   UNL A   1      27.534  29.080  22.379  1.00  0.00     0.014 C 
ATOM     81  C   UNL A   1      28.392  30.339  22.589  1.00  0.00     0.026 C 
ATOM     82  C   UNL A   1      28.769  31.011  21.251  1.00  0.00     0.074 C 
ATOM     83  C   UNL A   1      27.637  31.464  23.323  1.00  0.00     0.267 C 
ATOM     84  C   UNL A   1      28.122  32.382  21.268  1.00  0.00     0.261 C 
ATOM     85  N   UNL A   1      28.104  32.708  22.694  1.00  0.00    -0.346 N 
ATOM     86  H   UNL A   1      27.462  33.477  22.884  1.00  0.00     0.346 HD
ATOM     87  H   UNL A   1      29.013  33.014  23.044  1.00  0.00     0.346 HD
ENDBRANCH  75  77
ENDBRANCH  74  75
ENDBRANCH  73  74
ENDBRANCH  72  73
ENDBRANCH  71  72
ENDBRANCH   1  71
TORSDOF 14
ENDMDL
MODEL 3
REMARK VINA RESULT:     -11.0      4.751      9.947
REMARK SMILES O=C(OCCOCCOC(=O)[C@@H]1CC[C@]2(CC[NH2+]C2)C1)c1ccc(-c2c3nc(c(-c4c(F)c(F)c(F)c(F)c4F)c4ccc([nH]4)c(-c4c(F)c(F)c(F)c(F)c4F)c4nc(c(-c5c(F)c(F)c(F)c(F)c5F)c5ccc2[nH]5)C=C4)C=C3)cc1
REMARK SMILES IDX 5 1 4 2 3 3 2 4 1 5 21 6 22 7 83 8 23 9 82 10 24 11 25 12
REMARK SMILES IDX 26 13 76 14 27 15 81 16 75 17 77 18 28 19 80 20 74 21 73 22
REMARK SMILES IDX 29 24 61 25 41 26 60 27 42 28 45 29 59 30 78 31 43 32 44 33
REMARK SMILES IDX 58 35 79 36 46 37 30 38 31 39 39 40 32 41 33 42 37 43 40 44
REMARK SMILES IDX 34 45 35 46 38 47 36 48 62 49 63 50 71 51 64 52 65 53 69 54
REMARK SMILES IDX 72 55 66 56 67 57 70 58 68 59 47 60 48 61 56 62 49 63 50 64
REMARK SMILES IDX 54 65 57 66 51 67 52 68 55 69 53 70 6 71 7 72 8 73 9 74
REMARK SMILES IDX 10 75 11 76 12 77 13 78 20 79 14 80 15 81 16 82 19 83 17 84
REMARK SMILES IDX 18 85
REMARK H PARENT 77 23 45 34 18 86 18 87
REMARK Flexibility Score: inf
ROOT
ATOM      1  C   UNL A   1      35.705  21.061  25.385  1.00  0.00     0.202 C 
ENDROOT
BRANCH   1   2
ATOM      2  C   UNL A   1      37.045  20.416  25.002  1.00  0.00     0.261 C 
BRANCH   2   3
ATOM      3  O   UNL A   1      38.115  21.379  25.128  1.00  0.00    -0.460 OA
BRANCH   3   4
ATOM      4  C   UNL A   1      39.135  21.384  26.029  1.00  0.00     0.338 C 
ATOM      5  O   UNL A   1      39.712  20.350  26.321  1.00  0.00    -0.246 OA
BRANCH   4   6
ATOM      6  C   UNL A   1      39.609  22.666  26.606  1.00  0.00     0.060 A 
ATOM      7  C   UNL A   1      39.076  23.879  26.210  1.00  0.00     0.016 A 
ATOM      8  C   UNL A   1      40.628  22.669  27.562  1.00  0.00     0.016 A 
ATOM      9  C   UNL A   1      39.687  25.064  26.503  1.00  0.00     0.010 A 
ATOM     10  C   UNL A   1      41.159  23.888  28.004  1.00  0.00     0.010 A 
ATOM     11  C   UNL A   1      40.722  25.086  27.422  1.00  0.00    -0.014 A 
BRANCH  11  12
ATOM     12  C   UNL A   1      41.378  26.391  27.592  1.00  0.00     0.031 A 
ATOM     13  C   UNL A   1      40.728  27.389  28.495  1.00  0.00     0.074 A 
ATOM     14  C   UNL A   1      42.644  26.538  27.154  1.00  0.00     0.049 A 
ATOM     15  N   UNL A   1      41.100  28.605  28.784  1.00  0.00    -0.248 NA
ATOM     16  C   UNL A   1      39.495  26.959  29.180  1.00  0.00     0.031 C 
ATOM     17  C   UNL A   1      43.414  25.511  26.437  1.00  0.00     0.029 A 
ATOM     18  N   UNL A   1      43.537  27.557  27.318  1.00  0.00    -0.354 N 
ATOM     19  C   UNL A   1      40.111  29.107  29.617  1.00  0.00     0.074 A 
ATOM     20  C   UNL A   1      39.134  28.062  29.815  1.00  0.00     0.031 C 
ATOM     21  C   UNL A   1      44.682  25.923  26.302  1.00  0.00     0.029 A 
ATOM     22  C   UNL A   1      44.778  27.288  26.793  1.00  0.00     0.049 A 
ATOM     23  H   UNL A   1      43.313  28.403  27.770  1.00  0.00     0.167 HD
ATOM     24  C   UNL A   1      40.032  30.351  30.140  1.00  0.00     0.037 A 
ATOM     25  C   UNL A   1      45.851  28.089  26.678  1.00  0.00     0.037 A 
ATOM     26  C   UNL A   1      41.057  31.338  29.940  1.00  0.00     0.049 A 
ATOM     27  C   UNL A   1      45.704  29.493  27.193  1.00  0.00     0.074 A 
ATOM     28  C   UNL A   1      41.078  32.663  30.325  1.00  0.00     0.029 A 
ATOM     29  N   UNL A   1      42.265  31.083  29.298  1.00  0.00    -0.354 N 
ATOM     30  N   UNL A   1      44.701  30.030  27.849  1.00  0.00    -0.248 NA
ATOM     31  C   UNL A   1      46.813  30.411  26.924  1.00  0.00     0.031 C 
ATOM     32  C   UNL A   1      42.283  33.221  29.876  1.00  0.00     0.029 A 
ATOM     33  C   UNL A   1      43.038  32.229  29.265  1.00  0.00     0.049 A 
ATOM     34  H   UNL A   1      42.531  30.212  28.922  1.00  0.00     0.167 HD
ATOM     35  C   UNL A   1      45.061  31.345  28.088  1.00  0.00     0.074 A 
ATOM     36  C   UNL A   1      46.388  31.515  27.523  1.00  0.00     0.031 C 
ATOM     37  C   UNL A   1      44.363  32.330  28.705  1.00  0.00     0.037 A 
BRANCH  24  38
ATOM     38  C   UNL A   1      38.762  30.713  30.851  1.00  0.00     0.064 A 
ATOM     39  C   UNL A   1      37.620  31.170  30.177  1.00  0.00     0.173 A 
ATOM     40  C   UNL A   1      38.718  30.664  32.253  1.00  0.00     0.173 A 
ATOM     41  F   UNL A   1      37.622  31.274  28.840  1.00  0.00    -0.203 F 
ATOM     42  C   UNL A   1      36.495  31.596  30.882  1.00  0.00     0.198 A 
ATOM     43  C   UNL A   1      37.582  31.063  32.954  1.00  0.00     0.198 A 
ATOM     44  F   UNL A   1      39.787  30.250  32.949  1.00  0.00    -0.203 F 
ATOM     45  F   UNL A   1      35.441  32.097  30.220  1.00  0.00    -0.200 F 
ATOM     46  C   UNL A   1      36.476  31.540  32.268  1.00  0.00     0.200 A 
ATOM     47  F   UNL A   1      37.567  31.007  34.292  1.00  0.00    -0.200 F 
ATOM     48  F   UNL A   1      35.399  31.963  32.944  1.00  0.00    -0.200 F 
ENDBRANCH  24  38
BRANCH  25  49
ATOM     49  C   UNL A   1      47.082  27.616  25.989  1.00  0.00     0.064 A 
ATOM     50  C   UNL A   1      48.160  27.081  26.707  1.00  0.00     0.173 A 
ATOM     51  C   UNL A   1      47.213  27.696  24.592  1.00  0.00     0.173 A 
ATOM     52  F   UNL A   1      48.101  26.998  28.043  1.00  0.00    -0.203 F 
ATOM     53  C   UNL A   1      49.323  26.660  26.057  1.00  0.00     0.198 A 
ATOM     54  C   UNL A   1      48.358  27.241  23.941  1.00  0.00     0.198 A 
ATOM     55  F   UNL A   1      46.217  28.203  23.850  1.00  0.00    -0.203 F 
ATOM     56  F   UNL A   1      50.357  26.198  26.773  1.00  0.00    -0.200 F 
ATOM     57  C   UNL A   1      49.416  26.733  24.675  1.00  0.00     0.200 A 
ATOM     58  F   UNL A   1      48.433  27.298  22.604  1.00  0.00    -0.200 F 
ATOM     59  F   UNL A   1      50.531  26.325  24.053  1.00  0.00    -0.200 F 
ENDBRANCH  25  49
BRANCH  37  60
ATOM     60  C   UNL A   1      45.059  33.647  28.847  1.00  0.00     0.064 A 
ATOM     61  C   UNL A   1      45.887  33.930  29.943  1.00  0.00     0.173 A 
ATOM     62  C   UNL A   1      44.915  34.624  27.852  1.00  0.00     0.173 A 
ATOM     63  F   UNL A   1      46.037  33.030  30.926  1.00  0.00    -0.203 F 
ATOM     64  C   UNL A   1      46.523  35.161  30.052  1.00  0.00     0.198 A 
ATOM     65  C   UNL A   1      45.580  35.841  27.947  1.00  0.00     0.198 A 
ATOM     66  F   UNL A   1      44.136  34.392  26.784  1.00  0.00    -0.203 F 
ATOM     67  F   UNL A   1      47.266  35.436  31.132  1.00  0.00    -0.200 F 
ATOM     68  C   UNL A   1      46.375  36.112  29.050  1.00  0.00     0.200 A 
ATOM     69  F   UNL A   1      45.448  36.751  26.973  1.00  0.00    -0.200 F 
ATOM     70  F   UNL A   1      46.994  37.295  29.154  1.00  0.00    -0.200 F 
ENDBRANCH  37  60
ENDBRANCH  11  12
ENDBRANCH   4   6
ENDBRANCH   3   4
ENDBRANCH   2   3
ENDBRANCH   1   2
BRANCH   1  71
ATOM     71  O   UNL A   1      34.555  20.618  24.670  1.00  0.00    -0.374 OA
BRANCH  71  72
ATOM     72  C   UNL A   1      33.647  21.652  24.282  1.00  0.00     0.202 C 
BRANCH  72  73
ATOM     73  C   UNL A   1      32.548  21.807  25.326  1.00  0.00     0.261 C 
BRANCH  73  74
ATOM     74  O   UNL A   1      32.903  22.842  26.263  1.00  0.00    -0.463 OA
BRANCH  74  75
ATOM     75  C   UNL A   1      32.048  23.895  26.366  1.00  0.00     0.309 C 
ATOM     76  O   UNL A   1      31.216  24.044  27.253  1.00  0.00    -0.252 OA
BRANCH  75  77
ATOM     77  C   UNL A   1      32.281  24.939  25.280  1.00  0.00     0.100 C 
ATOM     78  C   UNL A   1      33.704  25.467  25.183  1.00  0.00     0.016 C 
ATOM     79  C   UNL A   1      31.415  26.199  25.439  1.00  0.00     0.028 C 
ATOM     80  C   UNL A   1      33.724  26.687  26.094  1.00  0.00     0.014 C 
ATOM     81  C   UNL A   1      32.348  27.351  25.919  1.00  0.00     0.026 C 
ATOM     82  C   UNL A   1      31.878  28.054  27.210  1.00  0.00     0.074 C 
ATOM     83  C   UNL A   1      32.366  28.507  24.901  1.00  0.00     0.267 C 
ATOM     84  C   UNL A   1      31.779  29.530  26.878  1.00  0.00     0.261 C 
ATOM     85  N   UNL A   1      31.448  29.514  25.454  1.00  0.00    -0.346 N 
ATOM     86  H   UNL A   1      31.611  30.428  25.031  1.00  0.00     0.346 HD
ATOM     87  H   UNL A   1      30.466  29.299  25.275  1.00  0.00     0.346 HD
ENDBRANCH  75  77
ENDBRANCH  74  75
ENDBRANCH  73  74
ENDBRANCH  72  73
ENDBRANCH  71  72
ENDBRANCH   1  71
TORSDOF 14
ENDMDL
