MODEL 1
REMARK VINA RESULT:     -12.4      0.000      0.000
REMARK SMILES Cc1cc2c(c(C)c1Cl)C=C(C(=O)OCCOCCOC(=O)c1ccc(-c3c4nc(c(-c5c(F)c(F)c(F)c(F)c5F)c5ccc([nH]5)c(-c5c(F)c(F)c(F)c(F)c5F)c5nc(c(-c6c(F)c(F)c(F)c(F)c6F)c6ccc3[nH]6)C=C5)C=C4)cc1)[C@H](C(F)(F)F)O2
REMARK SMILES IDX 18 1 17 2 16 3 15 4 14 5 12 6 13 7 11 8 1 9 2 10 3 11 8 12
REMARK SMILES IDX 4 13 6 14 9 15 5 16 91 17 7 18 10 19 86 20 87 21 88 22 89 23
REMARK SMILES IDX 90 24 19 25 20 26 21 27 22 28 23 29 24 30 85 31 25 32 84 33
REMARK SMILES IDX 26 34 27 35 28 36 78 37 29 38 83 39 77 40 79 41 30 42 82 43
REMARK SMILES IDX 76 44 75 45 31 47 63 48 43 49 62 50 44 51 47 52 61 53 80 54
REMARK SMILES IDX 45 55 46 56 60 58 81 59 48 60 32 61 33 62 41 63 34 64 35 65
REMARK SMILES IDX 39 66 42 67 36 68 37 69 40 70 38 71 64 72 65 73 73 74 66 75
REMARK SMILES IDX 67 76 71 77 74 78 68 79 69 80 72 81 70 82 49 83 50 84 58 85
REMARK SMILES IDX 51 86 52 87 56 88 59 89 53 90 54 91 57 92 55 93
REMARK H PARENT 79 46 47 57
REMARK Flexibility Score: inf
ROOT
ATOM      1  C   UNL A   1      43.198  21.160  25.599  1.00  0.00     0.202 C 
ENDROOT
BRANCH   1   2
ATOM      2  O   UNL A   1      41.797  21.390  25.432  1.00  0.00    -0.374 OA
BRANCH   2   3
ATOM      3  C   UNL A   1      40.962  21.139  26.562  1.00  0.00     0.202 C 
BRANCH   3   4
ATOM      4  C   UNL A   1      40.005  22.269  26.950  1.00  0.00     0.261 C 
BRANCH   4   5
ATOM      5  O   UNL A   1      38.806  22.194  26.158  1.00  0.00    -0.460 OA
BRANCH   5   6
ATOM      6  C   UNL A   1      38.060  23.317  26.174  1.00  0.00     0.338 C 
ATOM      7  O   UNL A   1      38.489  24.460  26.198  1.00  0.00    -0.246 OA
BRANCH   6   8
ATOM      8  C   UNL A   1      36.626  22.991  26.042  1.00  0.00     0.087 C 
ATOM      9  C   UNL A   1      30.210  23.198  26.875  1.00  0.00     0.046 C 
ATOM     10  C   UNL A   1      31.642  23.465  26.497  1.00  0.00    -0.028 A 
ATOM     11  C   UNL A   1      32.555  22.402  26.591  1.00  0.00     0.052 A 
ATOM     12  C   UNL A   1      32.117  24.749  26.155  1.00  0.00     0.047 A 
ATOM     13  C   UNL A   1      33.912  22.605  26.364  1.00  0.00     0.128 A 
ATOM     14  C   UNL A   1      33.487  24.966  25.883  1.00  0.00    -0.021 A 
ATOM     15  Cl  UNL A   1      31.000  26.080  26.128  1.00  0.00    -0.084 Cl
ATOM     16  C   UNL A   1      34.384  23.877  26.018  1.00  0.00     0.022 A 
ATOM     17  O   UNL A   1      34.725  21.521  26.592  1.00  0.00    -0.475 OA
ATOM     18  C   UNL A   1      34.021  26.328  25.499  1.00  0.00     0.047 C 
ATOM     19  C   UNL A   1      35.827  24.061  25.950  1.00  0.00     0.027 C 
ATOM     20  C   UNL A   1      36.102  21.586  26.114  1.00  0.00     0.316 C 
BRANCH  20  21
ATOM     21  C   UNL A   1      36.202  20.769  24.809  1.00  0.00     0.430 C 
ATOM     22  F   UNL A   1      37.190  19.845  24.854  1.00  0.00    -0.167 F 
ATOM     23  F   UNL A   1      35.062  20.112  24.503  1.00  0.00    -0.167 F 
ATOM     24  F   UNL A   1      36.460  21.583  23.754  1.00  0.00    -0.167 F 
ENDBRANCH  20  21
ENDBRANCH   6   8
ENDBRANCH   5   6
ENDBRANCH   4   5
ENDBRANCH   3   4
ENDBRANCH   2   3
ENDBRANCH   1   2
BRANCH   1  25
ATOM     25  C   UNL A   1      44.146  22.218  25.017  1.00  0.00     0.261 C 
BRANCH  25  26
ATOM     26  O   UNL A   1      43.463  23.459  24.763  1.00  0.00    -0.460 OA
BRANCH  26  27
ATOM     27  C   UNL A   1      44.150  24.573  25.109  1.00  0.00     0.338 C 
ATOM     28  O   UNL A   1      45.193  24.980  24.617  1.00  0.00    -0.246 OA
BRANCH  27  29
ATOM     29  C   UNL A   1      43.346  25.384  26.044  1.00  0.00     0.060 A 
ATOM     30  C   UNL A   1      43.687  26.737  26.177  1.00  0.00     0.016 A 
ATOM     31  C   UNL A   1      42.305  24.840  26.800  1.00  0.00     0.016 A 
ATOM     32  C   UNL A   1      43.029  27.537  27.106  1.00  0.00     0.010 A 
ATOM     33  C   UNL A   1      41.651  25.643  27.742  1.00  0.00     0.010 A 
ATOM     34  C   UNL A   1      42.036  26.984  27.926  1.00  0.00    -0.014 A 
BRANCH  34  35
ATOM     35  C   UNL A   1      41.535  27.765  29.084  1.00  0.00     0.031 A 
ATOM     36  C   UNL A   1      42.292  27.698  30.383  1.00  0.00     0.074 A 
ATOM     37  C   UNL A   1      40.466  28.573  28.967  1.00  0.00     0.049 A 
ATOM     38  N   UNL A   1      42.038  28.287  31.524  1.00  0.00    -0.248 NA
ATOM     39  C   UNL A   1      43.503  26.860  30.397  1.00  0.00     0.031 C 
ATOM     40  C   UNL A   1      39.686  28.771  27.749  1.00  0.00     0.029 A 
ATOM     41  N   UNL A   1      39.856  29.386  29.893  1.00  0.00    -0.354 N 
ATOM     42  C   UNL A   1      43.056  27.896  32.385  1.00  0.00     0.074 A 
ATOM     43  C   UNL A   1      43.910  26.988  31.651  1.00  0.00     0.031 C 
ATOM     44  C   UNL A   1      38.702  29.653  27.999  1.00  0.00     0.029 A 
ATOM     45  C   UNL A   1      38.761  30.054  29.403  1.00  0.00     0.049 A 
ATOM     46  H   UNL A   1      40.175  29.480  30.820  1.00  0.00     0.167 HD
ATOM     47  C   UNL A   1      43.271  28.277  33.665  1.00  0.00     0.037 A 
ATOM     48  C   UNL A   1      37.899  30.884  30.024  1.00  0.00     0.037 A 
ATOM     49  C   UNL A   1      42.426  29.185  34.393  1.00  0.00     0.049 A 
ATOM     50  C   UNL A   1      38.103  31.207  31.484  1.00  0.00     0.074 A 
ATOM     51  C   UNL A   1      42.562  29.626  35.698  1.00  0.00     0.029 A 
ATOM     52  N   UNL A   1      41.288  29.791  33.882  1.00  0.00    -0.354 N 
ATOM     53  N   UNL A   1      39.072  30.841  32.287  1.00  0.00    -0.248 NA
ATOM     54  C   UNL A   1      37.090  32.060  32.125  1.00  0.00     0.031 C 
ATOM     55  C   UNL A   1      41.480  30.458  35.993  1.00  0.00     0.029 A 
ATOM     56  C   UNL A   1      40.701  30.583  34.855  1.00  0.00     0.049 A 
ATOM     57  H   UNL A   1      40.950  29.675  32.965  1.00  0.00     0.167 HD
ATOM     58  C   UNL A   1      38.805  31.442  33.511  1.00  0.00     0.074 A 
ATOM     59  C   UNL A   1      37.590  32.210  33.344  1.00  0.00     0.031 C 
ATOM     60  C   UNL A   1      39.502  31.359  34.671  1.00  0.00     0.037 A 
BRANCH  47  61
ATOM     61  C   UNL A   1      44.470  27.721  34.375  1.00  0.00     0.064 A 
ATOM     62  C   UNL A   1      45.691  28.411  34.397  1.00  0.00     0.173 A 
ATOM     63  C   UNL A   1      44.369  26.537  35.122  1.00  0.00     0.173 A 
ATOM     64  F   UNL A   1      45.840  29.540  33.687  1.00  0.00    -0.203 F 
ATOM     65  C   UNL A   1      46.768  27.935  35.139  1.00  0.00     0.198 A 
ATOM     66  C   UNL A   1      45.439  26.080  35.886  1.00  0.00     0.198 A 
ATOM     67  F   UNL A   1      43.222  25.842  35.137  1.00  0.00    -0.203 F 
ATOM     68  F   UNL A   1      47.931  28.599  35.129  1.00  0.00    -0.200 F 
ATOM     69  C   UNL A   1      46.637  26.779  35.894  1.00  0.00     0.200 A 
ATOM     70  F   UNL A   1      45.305  24.972  36.628  1.00  0.00    -0.200 F 
ATOM     71  F   UNL A   1      47.665  26.338  36.631  1.00  0.00    -0.200 F 
ENDBRANCH  47  61
BRANCH  48  72
ATOM     72  C   UNL A   1      36.755  31.471  29.276  1.00  0.00     0.064 A 
ATOM     73  C   UNL A   1      36.732  32.834  28.945  1.00  0.00     0.173 A 
ATOM     74  C   UNL A   1      35.650  30.692  28.899  1.00  0.00     0.173 A 
ATOM     75  F   UNL A   1      37.751  33.627  29.307  1.00  0.00    -0.203 F 
ATOM     76  C   UNL A   1      35.642  33.398  28.284  1.00  0.00     0.198 A 
ATOM     77  C   UNL A   1      34.576  31.251  28.210  1.00  0.00     0.198 A 
ATOM     78  F   UNL A   1      35.616  29.385  29.195  1.00  0.00    -0.203 F 
ATOM     79  F   UNL A   1      35.626  34.713  28.027  1.00  0.00    -0.200 F 
ATOM     80  C   UNL A   1      34.568  32.605  27.911  1.00  0.00     0.200 A 
ATOM     81  F   UNL A   1      33.545  30.478  27.839  1.00  0.00    -0.200 F 
ATOM     82  F   UNL A   1      33.523  33.147  27.271  1.00  0.00    -0.200 F 
ENDBRANCH  48  72
BRANCH  60  83
ATOM     83  C   UNL A   1      38.998  32.139  35.852  1.00  0.00     0.064 A 
ATOM     84  C   UNL A   1      38.213  31.540  36.848  1.00  0.00     0.173 A 
ATOM     85  C   UNL A   1      39.379  33.479  36.034  1.00  0.00     0.173 A 
ATOM     86  F   UNL A   1      37.814  30.266  36.717  1.00  0.00    -0.203 F 
ATOM     87  C   UNL A   1      37.816  32.257  37.974  1.00  0.00     0.198 A 
ATOM     88  C   UNL A   1      39.008  34.181  37.177  1.00  0.00     0.198 A 
ATOM     89  F   UNL A   1      40.140  34.096  35.118  1.00  0.00    -0.203 F 
ATOM     90  F   UNL A   1      37.036  31.674  38.894  1.00  0.00    -0.200 F 
ATOM     91  C   UNL A   1      38.223  33.572  38.143  1.00  0.00     0.200 A 
ATOM     92  F   UNL A   1      39.420  35.446  37.348  1.00  0.00    -0.200 F 
ATOM     93  F   UNL A   1      37.857  34.252  39.238  1.00  0.00    -0.200 F 
ENDBRANCH  60  83
ENDBRANCH  34  35
ENDBRANCH  27  29
ENDBRANCH  26  27
ENDBRANCH  25  26
ENDBRANCH   1  25
TORSDOF 15
ENDMDL
MODEL 2
REMARK VINA RESULT:     -12.1      3.386      8.287
REMARK SMILES Cc1cc2c(c(C)c1Cl)C=C(C(=O)OCCOCCOC(=O)c1ccc(-c3c4nc(c(-c5c(F)c(F)c(F)c(F)c5F)c5ccc([nH]5)c(-c5c(F)c(F)c(F)c(F)c5F)c5nc(c(-c6c(F)c(F)c(F)c(F)c6F)c6ccc3[nH]6)C=C5)C=C4)cc1)[C@H](C(F)(F)F)O2
REMARK SMILES IDX 18 1 17 2 16 3 15 4 14 5 12 6 13 7 11 8 1 9 2 10 3 11 8 12
REMARK SMILES IDX 4 13 6 14 9 15 5 16 91 17 7 18 10 19 86 20 87 21 88 22 89 23
REMARK SMILES IDX 90 24 19 25 20 26 21 27 22 28 23 29 24 30 85 31 25 32 84 33
REMARK SMILES IDX 26 34 27 35 28 36 78 37 29 38 83 39 77 40 79 41 30 42 82 43
REMARK SMILES IDX 76 44 75 45 31 47 63 48 43 49 62 50 44 51 47 52 61 53 80 54
REMARK SMILES IDX 45 55 46 56 60 58 81 59 48 60 32 61 33 62 41 63 34 64 35 65
REMARK SMILES IDX 39 66 42 67 36 68 37 69 40 70 38 71 64 72 65 73 73 74 66 75
REMARK SMILES IDX 67 76 71 77 74 78 68 79 69 80 72 81 70 82 49 83 50 84 58 85
REMARK SMILES IDX 51 86 52 87 56 88 59 89 53 90 54 91 57 92 55 93
REMARK H PARENT 79 46 47 57
REMARK Flexibility Score: inf
ROOT
ATOM      1  C   UNL A   1      31.509  29.136  25.124  1.00  0.00     0.202 C 
ENDROOT
BRANCH   1   2
ATOM      2  O   UNL A   1      30.800  29.075  23.885  1.00  0.00    -0.374 OA
BRANCH   2   3
ATOM      3  C   UNL A   1      31.491  28.508  22.771  1.00  0.00     0.202 C 
BRANCH   3   4
ATOM      4  C   UNL A   1      33.019  28.558  22.838  1.00  0.00     0.261 C 
BRANCH   4   5
ATOM      5  O   UNL A   1      33.533  27.308  23.331  1.00  0.00    -0.460 OA
BRANCH   5   6
ATOM      6  C   UNL A   1      33.450  26.289  22.453  1.00  0.00     0.338 C 
ATOM      7  O   UNL A   1      33.653  26.362  21.251  1.00  0.00    -0.246 OA
BRANCH   6   8
ATOM      8  C   UNL A   1      33.185  25.017  23.155  1.00  0.00     0.087 C 
ATOM      9  C   UNL A   1      33.556  18.782  24.854  1.00  0.00     0.046 C 
ATOM     10  C   UNL A   1      33.800  20.249  24.626  1.00  0.00    -0.028 A 
ATOM     11  C   UNL A   1      32.701  21.050  24.273  1.00  0.00     0.052 A 
ATOM     12  C   UNL A   1      35.087  20.825  24.652  1.00  0.00     0.047 A 
ATOM     13  C   UNL A   1      32.872  22.389  23.941  1.00  0.00     0.128 A 
ATOM     14  C   UNL A   1      35.276  22.194  24.354  1.00  0.00    -0.021 A 
ATOM     15  Cl  UNL A   1      36.455  19.811  25.001  1.00  0.00    -0.084 Cl
ATOM     16  C   UNL A   1      34.149  22.963  23.972  1.00  0.00     0.022 A 
ATOM     17  O   UNL A   1      31.747  23.045  23.505  1.00  0.00    -0.475 OA
ATOM     18  C   UNL A   1      36.642  22.841  24.390  1.00  0.00     0.047 C 
ATOM     19  C   UNL A   1      34.287  24.321  23.461  1.00  0.00     0.027 C 
ATOM     20  C   UNL A   1      31.798  24.500  23.405  1.00  0.00     0.316 C 
BRANCH  20  21
ATOM     21  C   UNL A   1      31.076  25.096  24.633  1.00  0.00     0.430 C 
ATOM     22  F   UNL A   1      30.488  24.144  25.396  1.00  0.00    -0.167 F 
ATOM     23  F   UNL A   1      31.895  25.801  25.443  1.00  0.00    -0.167 F 
ATOM     24  F   UNL A   1      30.101  25.957  24.243  1.00  0.00    -0.167 F 
ENDBRANCH  20  21
ENDBRANCH   6   8
ENDBRANCH   5   6
ENDBRANCH   4   5
ENDBRANCH   3   4
ENDBRANCH   2   3
ENDBRANCH   1   2
BRANCH   1  25
ATOM     25  C   UNL A   1      31.671  30.523  25.760  1.00  0.00     0.261 C 
BRANCH  25  26
ATOM     26  O   UNL A   1      32.458  30.466  26.964  1.00  0.00    -0.460 OA
BRANCH  26  27
ATOM     27  C   UNL A   1      33.148  31.594  27.251  1.00  0.00     0.338 C 
ATOM     28  O   UNL A   1      32.725  32.741  27.248  1.00  0.00    -0.246 OA
BRANCH  27  29
ATOM     29  C   UNL A   1      34.473  31.241  27.799  1.00  0.00     0.060 A 
ATOM     30  C   UNL A   1      34.718  29.887  28.064  1.00  0.00     0.016 A 
ATOM     31  C   UNL A   1      35.445  32.204  28.081  1.00  0.00     0.016 A 
ATOM     32  C   UNL A   1      35.911  29.496  28.665  1.00  0.00     0.010 A 
ATOM     33  C   UNL A   1      36.641  31.810  28.695  1.00  0.00     0.010 A 
ATOM     34  C   UNL A   1      36.862  30.460  29.024  1.00  0.00    -0.014 A 
BRANCH  34  35
ATOM     35  C   UNL A   1      37.998  30.068  29.896  1.00  0.00     0.031 A 
ATOM     36  C   UNL A   1      39.045  29.138  29.344  1.00  0.00     0.074 A 
ATOM     37  C   UNL A   1      38.134  30.580  31.132  1.00  0.00     0.049 A 
ATOM     38  N   UNL A   1      40.115  28.657  29.923  1.00  0.00    -0.248 NA
ATOM     39  C   UNL A   1      38.865  28.697  27.951  1.00  0.00     0.031 C 
ATOM     40  C   UNL A   1      37.221  31.534  31.756  1.00  0.00     0.029 A 
ATOM     41  N   UNL A   1      39.103  30.370  32.083  1.00  0.00    -0.354 N 
ATOM     42  C   UNL A   1      40.736  27.864  28.965  1.00  0.00     0.074 A 
ATOM     43  C   UNL A   1      39.905  27.894  27.782  1.00  0.00     0.031 C 
ATOM     44  C   UNL A   1      37.676  31.833  32.986  1.00  0.00     0.029 A 
ATOM     45  C   UNL A   1      38.892  31.064  33.249  1.00  0.00     0.049 A 
ATOM     46  H   UNL A   1      39.877  29.778  31.942  1.00  0.00     0.167 HD
ATOM     47  C   UNL A   1      41.905  27.190  29.057  1.00  0.00     0.037 A 
ATOM     48  C   UNL A   1      39.592  31.064  34.401  1.00  0.00     0.037 A 
ATOM     49  C   UNL A   1      42.736  27.165  30.232  1.00  0.00     0.049 A 
ATOM     50  C   UNL A   1      40.837  30.218  34.511  1.00  0.00     0.074 A 
ATOM     51  C   UNL A   1      43.938  26.504  30.420  1.00  0.00     0.029 A 
ATOM     52  N   UNL A   1      42.453  27.828  31.416  1.00  0.00    -0.354 N 
ATOM     53  N   UNL A   1      41.421  29.479  33.599  1.00  0.00    -0.248 NA
ATOM     54  C   UNL A   1      41.519  30.204  35.814  1.00  0.00     0.031 C 
ATOM     55  C   UNL A   1      44.356  26.726  31.734  1.00  0.00     0.029 A 
ATOM     56  C   UNL A   1      43.447  27.572  32.347  1.00  0.00     0.049 A 
ATOM     57  H   UNL A   1      41.665  28.397  31.571  1.00  0.00     0.167 HD
ATOM     58  C   UNL A   1      42.551  28.943  34.205  1.00  0.00     0.074 A 
ATOM     59  C   UNL A   1      42.581  29.451  35.560  1.00  0.00     0.031 C 
ATOM     60  C   UNL A   1      43.477  28.100  33.686  1.00  0.00     0.037 A 
BRANCH  47  61
ATOM     61  C   UNL A   1      42.371  26.418  27.859  1.00  0.00     0.064 A 
ATOM     62  C   UNL A   1      43.270  26.975  26.936  1.00  0.00     0.173 A 
ATOM     63  C   UNL A   1      41.995  25.078  27.685  1.00  0.00     0.173 A 
ATOM     64  F   UNL A   1      43.649  28.256  27.053  1.00  0.00    -0.203 F 
ATOM     65  C   UNL A   1      43.772  26.218  25.882  1.00  0.00     0.198 A 
ATOM     66  C   UNL A   1      42.522  24.315  26.646  1.00  0.00     0.198 A 
ATOM     67  F   UNL A   1      41.141  24.498  28.542  1.00  0.00    -0.203 F 
ATOM     68  F   UNL A   1      44.613  26.775  25.000  1.00  0.00    -0.200 F 
ATOM     69  C   UNL A   1      43.409  24.886  25.745  1.00  0.00     0.200 A 
ATOM     70  F   UNL A   1      42.183  23.025  26.525  1.00  0.00    -0.200 F 
ATOM     71  F   UNL A   1      43.917  24.151  24.747  1.00  0.00    -0.200 F 
ENDBRANCH  47  61
BRANCH  48  72
ATOM     72  C   UNL A   1      39.140  31.891  35.552  1.00  0.00     0.064 A 
ATOM     73  C   UNL A   1      38.304  31.354  36.543  1.00  0.00     0.173 A 
ATOM     74  C   UNL A   1      39.509  33.239  35.675  1.00  0.00     0.173 A 
ATOM     75  F   UNL A   1      37.900  30.078  36.456  1.00  0.00    -0.203 F 
ATOM     76  C   UNL A   1      37.841  32.137  37.598  1.00  0.00     0.198 A 
ATOM     77  C   UNL A   1      39.071  34.012  36.748  1.00  0.00     0.198 A 
ATOM     78  F   UNL A   1      40.301  33.806  34.753  1.00  0.00    -0.203 F 
ATOM     79  F   UNL A   1      37.002  31.610  38.501  1.00  0.00    -0.200 F 
ATOM     80  C   UNL A   1      38.230  33.463  37.704  1.00  0.00     0.200 A 
ATOM     81  F   UNL A   1      39.460  35.290  36.854  1.00  0.00    -0.200 F 
ATOM     82  F   UNL A   1      37.788  34.214  38.722  1.00  0.00    -0.200 F 
ENDBRANCH  48  72
BRANCH  60  83
ATOM     83  C   UNL A   1      44.625  27.690  34.563  1.00  0.00     0.064 A 
ATOM     84  C   UNL A   1      45.790  28.465  34.659  1.00  0.00     0.173 A 
ATOM     85  C   UNL A   1      44.523  26.556  35.385  1.00  0.00     0.173 A 
ATOM     86  F   UNL A   1      45.942  29.553  33.888  1.00  0.00    -0.203 F 
ATOM     87  C   UNL A   1      46.815  28.113  35.533  1.00  0.00     0.198 A 
ATOM     88  C   UNL A   1      45.536  26.225  36.281  1.00  0.00     0.198 A 
ATOM     89  F   UNL A   1      43.425  25.786  35.342  1.00  0.00    -0.203 F 
ATOM     90  F   UNL A   1      47.934  28.848  35.580  1.00  0.00    -0.200 F 
ATOM     91  C   UNL A   1      46.682  27.001  36.351  1.00  0.00     0.200 A 
ATOM     92  F   UNL A   1      45.396  25.162  37.086  1.00  0.00    -0.200 F 
ATOM     93  F   UNL A   1      47.662  26.676  37.207  1.00  0.00    -0.200 F 
ENDBRANCH  60  83
ENDBRANCH  34  35
ENDBRANCH  27  29
ENDBRANCH  26  27
ENDBRANCH  25  26
ENDBRANCH   1  25
TORSDOF 15
ENDMDL
MODEL 3
REMARK VINA RESULT:     -12.1      4.520      7.232
REMARK SMILES Cc1cc2c(c(C)c1Cl)C=C(C(=O)OCCOCCOC(=O)c1ccc(-c3c4nc(c(-c5c(F)c(F)c(F)c(F)c5F)c5ccc([nH]5)c(-c5c(F)c(F)c(F)c(F)c5F)c5nc(c(-c6c(F)c(F)c(F)c(F)c6F)c6ccc3[nH]6)C=C5)C=C4)cc1)[C@H](C(F)(F)F)O2
REMARK SMILES IDX 18 1 17 2 16 3 15 4 14 5 12 6 13 7 11 8 1 9 2 10 3 11 8 12
REMARK SMILES IDX 4 13 6 14 9 15 5 16 91 17 7 18 10 19 86 20 87 21 88 22 89 23
REMARK SMILES IDX 90 24 19 25 20 26 21 27 22 28 23 29 24 30 85 31 25 32 84 33
REMARK SMILES IDX 26 34 27 35 28 36 78 37 29 38 83 39 77 40 79 41 30 42 82 43
REMARK SMILES IDX 76 44 75 45 31 47 63 48 43 49 62 50 44 51 47 52 61 53 80 54
REMARK SMILES IDX 45 55 46 56 60 58 81 59 48 60 32 61 33 62 41 63 34 64 35 65
REMARK SMILES IDX 39 66 42 67 36 68 37 69 40 70 38 71 64 72 65 73 73 74 66 75
REMARK SMILES IDX 67 76 71 77 74 78 68 79 69 80 72 81 70 82 49 83 50 84 58 85
REMARK SMILES IDX 51 86 52 87 56 88 59 89 53 90 54 91 57 92 55 93
REMARK H PARENT 79 46 47 57
REMARK Flexibility Score: inf
ROOT
ATOM      1  C   UNL A   1      35.881  20.636  25.045  1.00  0.00     0.202 C 
ENDROOT
BRANCH   1   2
ATOM      2  O   UNL A   1      35.442  21.423  26.155  1.00  0.00    -0.374 OA
BRANCH   2   3
ATOM      3  C   UNL A   1      34.032  21.538  26.347  1.00  0.00     0.202 C 
BRANCH   3   4
ATOM      4  C   UNL A   1      33.314  22.538  25.439  1.00  0.00     0.261 C 
BRANCH   4   5
ATOM      5  O   UNL A   1      33.461  23.872  25.958  1.00  0.00    -0.460 OA
BRANCH   5   6
ATOM      6  C   UNL A   1      34.252  24.672  25.217  1.00  0.00     0.338 C 
ATOM      7  O   UNL A   1      35.301  24.345  24.684  1.00  0.00    -0.246 OA
BRANCH   6   8
ATOM      8  C   UNL A   1      33.625  25.995  25.029  1.00  0.00     0.087 C 
ATOM      9  C   UNL A   1      31.029  31.773  26.363  1.00  0.00     0.046 C 
ATOM     10  C   UNL A   1      31.946  30.598  26.154  1.00  0.00    -0.028 A 
ATOM     11  C   UNL A   1      31.475  29.528  25.377  1.00  0.00     0.052 A 
ATOM     12  C   UNL A   1      33.204  30.487  26.784  1.00  0.00     0.047 A 
ATOM     13  C   UNL A   1      32.224  28.365  25.235  1.00  0.00     0.128 A 
ATOM     14  C   UNL A   1      33.997  29.329  26.619  1.00  0.00    -0.021 A 
ATOM     15  Cl  UNL A   1      33.744  31.776  27.817  1.00  0.00    -0.084 Cl
ATOM     16  C   UNL A   1      33.475  28.255  25.854  1.00  0.00     0.022 A 
ATOM     17  O   UNL A   1      31.618  27.343  24.547  1.00  0.00    -0.475 OA
ATOM     18  C   UNL A   1      35.355  29.189  27.269  1.00  0.00     0.047 C 
ATOM     19  C   UNL A   1      34.139  26.960  25.801  1.00  0.00     0.027 C 
ATOM     20  C   UNL A   1      32.442  26.214  24.130  1.00  0.00     0.316 C 
BRANCH  20  21
ATOM     21  C   UNL A   1      32.767  26.377  22.629  1.00  0.00     0.430 C 
ATOM     22  F   UNL A   1      31.934  27.251  22.016  1.00  0.00    -0.167 F 
ATOM     23  F   UNL A   1      34.027  26.807  22.400  1.00  0.00    -0.167 F 
ATOM     24  F   UNL A   1      32.651  25.189  21.983  1.00  0.00    -0.167 F 
ENDBRANCH  20  21
ENDBRANCH   6   8
ENDBRANCH   5   6
ENDBRANCH   4   5
ENDBRANCH   3   4
ENDBRANCH   2   3
ENDBRANCH   1   2
BRANCH   1  25
ATOM     25  C   UNL A   1      37.373  20.281  24.996  1.00  0.00     0.261 C 
BRANCH  25  26
ATOM     26  O   UNL A   1      38.199  21.421  25.299  1.00  0.00    -0.460 OA
BRANCH  26  27
ATOM     27  C   UNL A   1      39.279  21.157  26.071  1.00  0.00     0.338 C 
ATOM     28  O   UNL A   1      39.906  20.109  26.133  1.00  0.00    -0.246 OA
BRANCH  27  29
ATOM     29  C   UNL A   1      39.759  22.405  26.698  1.00  0.00     0.060 A 
ATOM     30  C   UNL A   1      39.086  23.589  26.368  1.00  0.00     0.016 A 
ATOM     31  C   UNL A   1      40.858  22.432  27.561  1.00  0.00     0.016 A 
ATOM     32  C   UNL A   1      39.542  24.812  26.853  1.00  0.00     0.010 A 
ATOM     33  C   UNL A   1      41.322  23.664  28.038  1.00  0.00     0.010 A 
ATOM     34  C   UNL A   1      40.690  24.862  27.655  1.00  0.00    -0.014 A 
BRANCH  34  35
ATOM     35  C   UNL A   1      41.317  26.176  27.941  1.00  0.00     0.031 A 
ATOM     36  C   UNL A   1      42.719  26.429  27.454  1.00  0.00     0.074 A 
ATOM     37  C   UNL A   1      40.632  27.153  28.562  1.00  0.00     0.049 A 
ATOM     38  N   UNL A   1      43.467  27.494  27.593  1.00  0.00    -0.248 NA
ATOM     39  C   UNL A   1      43.362  25.337  26.703  1.00  0.00     0.031 C 
ATOM     40  C   UNL A   1      39.252  27.052  29.027  1.00  0.00     0.029 A 
ATOM     41  N   UNL A   1      41.010  28.430  28.903  1.00  0.00    -0.354 N 
ATOM     42  C   UNL A   1      44.661  27.202  26.945  1.00  0.00     0.074 A 
ATOM     43  C   UNL A   1      44.557  25.848  26.447  1.00  0.00     0.031 C 
ATOM     44  C   UNL A   1      38.895  28.220  29.589  1.00  0.00     0.029 A 
ATOM     45  C   UNL A   1      40.032  29.139  29.556  1.00  0.00     0.049 A 
ATOM     46  H   UNL A   1      41.899  28.801  28.698  1.00  0.00     0.167 HD
ATOM     47  C   UNL A   1      45.738  27.999  26.762  1.00  0.00     0.037 A 
ATOM     48  C   UNL A   1      40.060  30.381  30.078  1.00  0.00     0.037 A 
ATOM     49  C   UNL A   1      45.840  29.348  27.251  1.00  0.00     0.049 A 
ATOM     50  C   UNL A   1      41.314  31.210  29.952  1.00  0.00     0.074 A 
ATOM     51  C   UNL A   1      46.896  30.233  27.118  1.00  0.00     0.029 A 
ATOM     52  N   UNL A   1      44.852  30.009  27.965  1.00  0.00    -0.354 N 
ATOM     53  N   UNL A   1      42.434  30.930  29.331  1.00  0.00    -0.248 NA
ATOM     54  C   UNL A   1      41.308  32.529  30.603  1.00  0.00     0.031 C 
ATOM     55  C   UNL A   1      46.568  31.410  27.796  1.00  0.00     0.029 A 
ATOM     56  C   UNL A   1      45.285  31.282  28.300  1.00  0.00     0.049 A 
ATOM     57  H   UNL A   1      43.973  29.630  28.198  1.00  0.00     0.167 HD
ATOM     58  C   UNL A   1      43.249  32.045  29.487  1.00  0.00     0.074 A 
ATOM     59  C   UNL A   1      42.491  33.014  30.249  1.00  0.00     0.031 C 
ATOM     60  C   UNL A   1      44.514  32.245  29.042  1.00  0.00     0.037 A 
BRANCH  47  61
ATOM     61  C   UNL A   1      46.904  27.446  25.998  1.00  0.00     0.064 A 
ATOM     62  C   UNL A   1      47.019  27.623  24.612  1.00  0.00     0.173 A 
ATOM     63  C   UNL A   1      47.964  26.821  26.673  1.00  0.00     0.173 A 
ATOM     64  F   UNL A   1      46.026  28.203  23.921  1.00  0.00    -0.203 F 
ATOM     65  C   UNL A   1      48.152  27.192  23.927  1.00  0.00     0.198 A 
ATOM     66  C   UNL A   1      49.108  26.417  25.990  1.00  0.00     0.198 A 
ATOM     67  F   UNL A   1      47.905  26.632  27.999  1.00  0.00    -0.203 F 
ATOM     68  F   UNL A   1      48.232  27.352  22.600  1.00  0.00    -0.200 F 
ATOM     69  C   UNL A   1      49.201  26.602  24.618  1.00  0.00     0.200 A 
ATOM     70  F   UNL A   1      50.127  25.863  26.661  1.00  0.00    -0.200 F 
ATOM     71  F   UNL A   1      50.303  26.214  23.962  1.00  0.00    -0.200 F 
ENDBRANCH  47  61
BRANCH  48  72
ATOM     72  C   UNL A   1      38.863  30.927  30.774  1.00  0.00     0.064 A 
ATOM     73  C   UNL A   1      38.693  30.759  32.157  1.00  0.00     0.173 A 
ATOM     74  C   UNL A   1      37.854  31.603  30.073  1.00  0.00     0.173 A 
ATOM     75  F   UNL A   1      39.616  30.095  32.868  1.00  0.00    -0.203 F 
ATOM     76  C   UNL A   1      37.553  31.229  32.805  1.00  0.00     0.198 A 
ATOM     77  C   UNL A   1      36.730  32.101  30.728  1.00  0.00     0.198 A 
ATOM     78  F   UNL A   1      37.962  31.787  28.749  1.00  0.00    -0.203 F 
ATOM     79  F   UNL A   1      37.393  31.008  34.118  1.00  0.00    -0.200 F 
ATOM     80  C   UNL A   1      36.575  31.905  32.093  1.00  0.00     0.200 A 
ATOM     81  F   UNL A   1      35.793  32.766  30.038  1.00  0.00    -0.200 F 
ATOM     82  F   UNL A   1      35.481  32.361  32.718  1.00  0.00    -0.200 F 
ENDBRANCH  48  72
BRANCH  60  83
ATOM     83  C   UNL A   1      45.161  33.568  29.334  1.00  0.00     0.064 A 
ATOM     84  C   UNL A   1      45.002  34.669  28.479  1.00  0.00     0.173 A 
ATOM     85  C   UNL A   1      45.875  33.764  30.528  1.00  0.00     0.173 A 
ATOM     86  F   UNL A   1      44.337  34.533  27.321  1.00  0.00    -0.203 F 
ATOM     87  C   UNL A   1      45.545  35.910  28.800  1.00  0.00     0.198 A 
ATOM     88  C   UNL A   1      46.388  35.014  30.860  1.00  0.00     0.198 A 
ATOM     89  F   UNL A   1      46.047  32.748  31.387  1.00  0.00    -0.203 F 
ATOM     90  F   UNL A   1      45.411  36.937  27.950  1.00  0.00    -0.200 F 
ATOM     91  C   UNL A   1      46.228  36.084  29.995  1.00  0.00     0.200 A 
ATOM     92  F   UNL A   1      47.029  35.185  32.026  1.00  0.00    -0.200 F 
ATOM     93  F   UNL A   1      46.731  37.286  30.311  1.00  0.00    -0.200 F 
ENDBRANCH  60  83
ENDBRANCH  34  35
ENDBRANCH  27  29
ENDBRANCH  26  27
ENDBRANCH  25  26
ENDBRANCH   1  25
TORSDOF 15
ENDMDL
