MODEL 1
REMARK VINA RESULT:     -13.0      0.000      0.000
REMARK SMILES COc1ccccc1[C@@H]1C[N@@H+](Cc2cn3cc(C)ccc3n2)C[C@H]1C(=O)OCCOCCOC(=O)c1ccc(-c2c3nc(c(-c4c(F)c(F)c(F)c(F)c4F)c4ccc([nH]4)c(-c4c(F)c(F)c(F)c(F)c4F)c4nc(c(-c5c(F)c(F)c(F)c(F)c5F)c5ccc2[nH]5)C=C4)C=C3)cc1
REMARK SMILES IDX 30 1 29 2 28 3 27 4 25 5 26 6 24 7 9 8 10 9 11 10 23 11 8 13
REMARK SMILES IDX 3 14 4 15 5 16 7 17 6 18 2 19 1 20 12 21 13 22 14 23 22 24
REMARK SMILES IDX 15 25 21 26 16 27 20 28 17 29 19 30 18 31 31 32 32 33 33 34
REMARK SMILES IDX 34 35 35 36 36 37 37 38 98 39 38 40 97 41 39 42 40 43 41 44
REMARK SMILES IDX 91 45 42 46 96 47 90 48 92 49 43 50 95 51 89 52 88 53 44 55
REMARK SMILES IDX 76 56 56 57 75 58 57 59 60 60 74 61 93 62 58 63 59 64 73 66
REMARK SMILES IDX 94 67 61 68 45 69 46 70 54 71 47 72 48 73 52 74 55 75 49 76
REMARK SMILES IDX 50 77 53 78 51 79 77 80 78 81 86 82 79 83 80 84 84 85 87 86
REMARK SMILES IDX 81 87 82 88 85 89 83 90 62 91 63 92 71 93 64 94 65 95 69 96
REMARK SMILES IDX 72 97 66 98 67 99 70 100 68 101
REMARK H PARENT 11 12 92 54 60 65
REMARK Flexibility Score: inf
ROOT
ATOM      1  O   UNL A   1      39.889  20.326  26.194  1.00  0.00    -0.374 OA
ENDROOT
BRANCH   1   2
ATOM      2  C   UNL A   1      39.479  21.687  26.033  1.00  0.00     0.202 C 
BRANCH   2   3
ATOM      3  C   UNL A   1      38.076  21.893  25.466  1.00  0.00     0.261 C 
BRANCH   3   4
ATOM      4  O   UNL A   1      37.564  23.221  25.724  1.00  0.00    -0.463 OA
BRANCH   4   5
ATOM      5  C   UNL A   1      36.523  23.571  24.935  1.00  0.00     0.315 C 
ATOM      6  O   UNL A   1      36.517  23.453  23.710  1.00  0.00    -0.252 OA
BRANCH   5   7
ATOM      7  C   UNL A   1      35.331  24.188  25.620  1.00  0.00     0.167 C 
ATOM      8  C   UNL A   1      34.006  24.575  24.959  1.00  0.00     0.098 C 
ATOM      9  C   UNL A   1      32.985  24.356  26.095  1.00  0.00     0.272 C 
ATOM     10  N   UNL A   1      33.521  23.313  26.978  1.00  0.00    -0.329 N 
ATOM     11  C   UNL A   1      34.965  23.241  26.758  1.00  0.00     0.278 C 
ATOM     12  H   UNL A   1      33.301  23.601  27.931  1.00  0.00     0.348 HD
BRANCH   8  13
ATOM     13  C   UNL A   1      33.871  25.981  24.360  1.00  0.00     0.004 A 
ATOM     14  C   UNL A   1      33.699  26.282  22.992  1.00  0.00     0.122 A 
ATOM     15  C   UNL A   1      33.546  27.610  22.557  1.00  0.00     0.047 A 
ATOM     16  C   UNL A   1      33.651  28.668  23.456  1.00  0.00     0.004 A 
ATOM     17  C   UNL A   1      34.038  27.079  25.233  1.00  0.00     0.008 A 
ATOM     18  C   UNL A   1      33.946  28.404  24.787  1.00  0.00     0.001 A 
BRANCH  14  19
ATOM     19  O   UNL A   1      34.023  25.382  22.009  1.00  0.00    -0.496 OA
ATOM     20  C   UNL A   1      32.933  24.802  21.308  1.00  0.00     0.278 C 
ENDBRANCH  14  19
ENDBRANCH   8  13
BRANCH  10  21
ATOM     21  C   UNL A   1      32.872  21.993  26.928  1.00  0.00     0.321 C 
BRANCH  21  22
ATOM     22  C   UNL A   1      33.162  21.246  25.672  1.00  0.00     0.114 A 
ATOM     23  C   UNL A   1      34.293  20.493  25.452  1.00  0.00     0.122 A 
ATOM     24  N   UNL A   1      32.232  21.043  24.665  1.00  0.00    -0.228 NA
ATOM     25  N   UNL A   1      33.910  19.596  24.508  1.00  0.00    -0.306 N 
ATOM     26  C   UNL A   1      32.697  20.014  23.985  1.00  0.00     0.137 A 
ATOM     27  C   UNL A   1      34.442  18.340  24.341  1.00  0.00     0.096 A 
ATOM     28  C   UNL A   1      32.120  19.173  22.994  1.00  0.00     0.048 A 
ATOM     29  C   UNL A   1      33.743  17.428  23.656  1.00  0.00    -0.034 A 
ATOM     30  C   UNL A   1      32.622  17.926  22.831  1.00  0.00     0.009 A 
ATOM     31  C   UNL A   1      34.054  16.006  24.023  1.00  0.00     0.046 C 
ENDBRANCH  21  22
ENDBRANCH  10  21
ENDBRANCH   5   7
ENDBRANCH   4   5
ENDBRANCH   3   4
ENDBRANCH   2   3
ENDBRANCH   1   2
BRANCH   1  32
ATOM     32  C   UNL A   1      41.055  20.085  26.972  1.00  0.00     0.202 C 
BRANCH  32  33
ATOM     33  C   UNL A   1      42.171  19.333  26.264  1.00  0.00     0.261 C 
BRANCH  33  34
ATOM     34  O   UNL A   1      42.640  20.020  25.111  1.00  0.00    -0.460 OA
BRANCH  34  35
ATOM     35  C   UNL A   1      43.981  20.228  24.994  1.00  0.00     0.338 C 
ATOM     36  O   UNL A   1      44.820  19.452  24.617  1.00  0.00    -0.246 OA
BRANCH  35  37
ATOM     37  C   UNL A   1      44.220  21.567  25.589  1.00  0.00     0.060 A 
ATOM     38  C   UNL A   1      45.336  21.950  26.352  1.00  0.00     0.016 A 
ATOM     39  C   UNL A   1      43.228  22.491  25.358  1.00  0.00     0.016 A 
ATOM     40  C   UNL A   1      45.363  23.222  26.988  1.00  0.00     0.010 A 
ATOM     41  C   UNL A   1      43.382  23.737  25.860  1.00  0.00     0.010 A 
ATOM     42  C   UNL A   1      44.297  24.094  26.804  1.00  0.00    -0.014 A 
BRANCH  42  43
ATOM     43  C   UNL A   1      43.989  25.451  27.284  1.00  0.00     0.031 A 
ATOM     44  C   UNL A   1      44.892  26.496  26.726  1.00  0.00     0.074 A 
ATOM     45  C   UNL A   1      42.766  25.797  27.803  1.00  0.00     0.049 A 
ATOM     46  N   UNL A   1      45.953  26.941  27.307  1.00  0.00    -0.248 NA
ATOM     47  C   UNL A   1      44.752  27.020  25.352  1.00  0.00     0.031 C 
ATOM     48  C   UNL A   1      41.565  24.945  27.964  1.00  0.00     0.029 A 
ATOM     49  N   UNL A   1      42.303  27.008  28.269  1.00  0.00    -0.354 N 
ATOM     50  C   UNL A   1      46.357  28.039  26.557  1.00  0.00     0.074 A 
ATOM     51  C   UNL A   1      45.776  27.876  25.262  1.00  0.00     0.031 C 
ATOM     52  C   UNL A   1      40.502  25.681  28.384  1.00  0.00     0.029 A 
ATOM     53  C   UNL A   1      40.959  27.023  28.693  1.00  0.00     0.049 A 
ATOM     54  H   UNL A   1      42.874  27.810  28.304  1.00  0.00     0.167 HD
ATOM     55  C   UNL A   1      46.803  29.151  27.203  1.00  0.00     0.037 A 
ATOM     56  C   UNL A   1      40.303  28.016  29.363  1.00  0.00     0.037 A 
ATOM     57  C   UNL A   1      46.896  28.865  28.617  1.00  0.00     0.049 A 
ATOM     58  C   UNL A   1      41.349  28.778  30.075  1.00  0.00     0.074 A 
ATOM     59  C   UNL A   1      47.704  28.075  29.406  1.00  0.00     0.029 A 
ATOM     60  N   UNL A   1      45.716  29.052  29.291  1.00  0.00    -0.354 N 
ATOM     61  N   UNL A   1      42.043  28.280  31.057  1.00  0.00    -0.248 NA
ATOM     62  C   UNL A   1      41.869  30.004  29.485  1.00  0.00     0.031 C 
ATOM     63  C   UNL A   1      46.900  27.664  30.509  1.00  0.00     0.029 A 
ATOM     64  C   UNL A   1      45.657  28.285  30.424  1.00  0.00     0.049 A 
ATOM     65  H   UNL A   1      45.001  29.662  28.997  1.00  0.00     0.167 HD
ATOM     66  C   UNL A   1      43.291  28.829  30.875  1.00  0.00     0.074 A 
ATOM     67  C   UNL A   1      43.082  30.008  30.044  1.00  0.00     0.031 C 
ATOM     68  C   UNL A   1      44.405  28.083  31.111  1.00  0.00     0.037 A 
BRANCH  55  69
ATOM     69  C   UNL A   1      46.704  30.586  26.742  1.00  0.00     0.064 A 
ATOM     70  C   UNL A   1      47.872  31.375  26.807  1.00  0.00     0.173 A 
ATOM     71  C   UNL A   1      45.502  31.293  26.538  1.00  0.00     0.173 A 
ATOM     72  F   UNL A   1      49.069  30.803  27.006  1.00  0.00    -0.203 F 
ATOM     73  C   UNL A   1      47.831  32.770  26.754  1.00  0.00     0.198 A 
ATOM     74  C   UNL A   1      45.471  32.688  26.436  1.00  0.00     0.198 A 
ATOM     75  F   UNL A   1      44.309  30.688  26.538  1.00  0.00    -0.203 F 
ATOM     76  F   UNL A   1      48.954  33.476  26.944  1.00  0.00    -0.200 F 
ATOM     77  C   UNL A   1      46.629  33.426  26.576  1.00  0.00     0.200 A 
ATOM     78  F   UNL A   1      44.294  33.312  26.285  1.00  0.00    -0.200 F 
ATOM     79  F   UNL A   1      46.578  34.764  26.582  1.00  0.00    -0.200 F 
ENDBRANCH  55  69
BRANCH  56  80
ATOM     80  C   UNL A   1      38.887  28.457  29.509  1.00  0.00     0.064 A 
ATOM     81  C   UNL A   1      38.253  28.520  30.771  1.00  0.00     0.173 A 
ATOM     82  C   UNL A   1      38.280  29.193  28.479  1.00  0.00     0.173 A 
ATOM     83  F   UNL A   1      38.775  27.872  31.822  1.00  0.00    -0.203 F 
ATOM     84  C   UNL A   1      37.128  29.323  31.002  1.00  0.00     0.198 A 
ATOM     85  C   UNL A   1      37.157  30.000  28.712  1.00  0.00     0.198 A 
ATOM     86  F   UNL A   1      38.844  29.235  27.263  1.00  0.00    -0.203 F 
ATOM     87  F   UNL A   1      36.613  29.422  32.237  1.00  0.00    -0.200 F 
ATOM     88  C   UNL A   1      36.594  30.081  29.976  1.00  0.00     0.200 A 
ATOM     89  F   UNL A   1      36.672  30.766  27.724  1.00  0.00    -0.200 F 
ATOM     90  F   UNL A   1      35.578  30.923  30.214  1.00  0.00    -0.200 F 
ENDBRANCH  56  80
BRANCH  68  91
ATOM     91  C   UNL A   1      44.276  26.929  32.060  1.00  0.00     0.064 A 
ATOM     92  C   UNL A   1      44.030  27.028  33.439  1.00  0.00     0.173 A 
ATOM     93  C   UNL A   1      44.356  25.642  31.514  1.00  0.00     0.173 A 
ATOM     94  F   UNL A   1      43.885  28.215  34.034  1.00  0.00    -0.203 F 
ATOM     95  C   UNL A   1      43.898  25.890  34.234  1.00  0.00     0.198 A 
ATOM     96  C   UNL A   1      44.193  24.508  32.302  1.00  0.00     0.198 A 
ATOM     97  F   UNL A   1      44.566  25.485  30.198  1.00  0.00    -0.203 F 
ATOM     98  F   UNL A   1      43.677  26.013  35.552  1.00  0.00    -0.200 F 
ATOM     99  C   UNL A   1      43.973  24.632  33.663  1.00  0.00     0.200 A 
ATOM    100  F   UNL A   1      44.232  23.295  31.734  1.00  0.00    -0.200 F 
ATOM    101  F   UNL A   1      43.819  23.537  34.420  1.00  0.00    -0.200 F 
ENDBRANCH  68  91
ENDBRANCH  42  43
ENDBRANCH  35  37
ENDBRANCH  34  35
ENDBRANCH  33  34
ENDBRANCH  32  33
ENDBRANCH   1  32
TORSDOF 18
ENDMDL
MODEL 2
REMARK VINA RESULT:     -12.8      2.394      3.622
REMARK SMILES COc1ccccc1[C@@H]1C[N@@H+](Cc2cn3cc(C)ccc3n2)C[C@H]1C(=O)OCCOCCOC(=O)c1ccc(-c2c3nc(c(-c4c(F)c(F)c(F)c(F)c4F)c4ccc([nH]4)c(-c4c(F)c(F)c(F)c(F)c4F)c4nc(c(-c5c(F)c(F)c(F)c(F)c5F)c5ccc2[nH]5)C=C4)C=C3)cc1
REMARK SMILES IDX 30 1 29 2 28 3 27 4 25 5 26 6 24 7 9 8 10 9 11 10 23 11 8 13
REMARK SMILES IDX 3 14 4 15 5 16 7 17 6 18 2 19 1 20 12 21 13 22 14 23 22 24
REMARK SMILES IDX 15 25 21 26 16 27 20 28 17 29 19 30 18 31 31 32 32 33 33 34
REMARK SMILES IDX 34 35 35 36 36 37 37 38 98 39 38 40 97 41 39 42 40 43 41 44
REMARK SMILES IDX 91 45 42 46 96 47 90 48 92 49 43 50 95 51 89 52 88 53 44 55
REMARK SMILES IDX 76 56 56 57 75 58 57 59 60 60 74 61 93 62 58 63 59 64 73 66
REMARK SMILES IDX 94 67 61 68 45 69 46 70 54 71 47 72 48 73 52 74 55 75 49 76
REMARK SMILES IDX 50 77 53 78 51 79 77 80 78 81 86 82 79 83 80 84 84 85 87 86
REMARK SMILES IDX 81 87 82 88 85 89 83 90 62 91 63 92 71 93 64 94 65 95 69 96
REMARK SMILES IDX 72 97 66 98 67 99 70 100 68 101
REMARK H PARENT 11 12 92 54 60 65
REMARK Flexibility Score: inf
ROOT
ATOM      1  O   UNL A   1      39.558  21.143  26.430  1.00  0.00    -0.374 OA
ENDROOT
BRANCH   1   2
ATOM      2  C   UNL A   1      38.777  22.332  26.277  1.00  0.00     0.202 C 
BRANCH   2   3
ATOM      3  C   UNL A   1      37.804  22.338  25.100  1.00  0.00     0.261 C 
BRANCH   3   4
ATOM      4  O   UNL A   1      37.367  23.671  24.750  1.00  0.00    -0.463 OA
BRANCH   4   5
ATOM      5  C   UNL A   1      36.111  23.723  24.249  1.00  0.00     0.315 C 
ATOM      6  O   UNL A   1      35.800  23.318  23.129  1.00  0.00    -0.252 OA
BRANCH   5   7
ATOM      7  C   UNL A   1      35.062  24.369  25.115  1.00  0.00     0.167 C 
ATOM      8  C   UNL A   1      33.689  24.866  24.657  1.00  0.00     0.098 C 
ATOM      9  C   UNL A   1      32.814  24.645  25.909  1.00  0.00     0.272 C 
ATOM     10  N   UNL A   1      33.394  23.527  26.663  1.00  0.00    -0.329 N 
ATOM     11  C   UNL A   1      34.789  23.384  26.247  1.00  0.00     0.278 C 
ATOM     12  H   UNL A   1      33.319  23.774  27.649  1.00  0.00     0.348 HD
BRANCH   8  13
ATOM     13  C   UNL A   1      33.567  26.309  24.147  1.00  0.00     0.004 A 
ATOM     14  C   UNL A   1      33.401  26.696  22.800  1.00  0.00     0.122 A 
ATOM     15  C   UNL A   1      33.259  28.050  22.449  1.00  0.00     0.047 A 
ATOM     16  C   UNL A   1      33.370  29.049  23.413  1.00  0.00     0.004 A 
ATOM     17  C   UNL A   1      33.740  27.348  25.088  1.00  0.00     0.008 A 
ATOM     18  C   UNL A   1      33.658  28.699  24.726  1.00  0.00     0.001 A 
BRANCH  14  19
ATOM     19  O   UNL A   1      33.721  25.857  21.763  1.00  0.00    -0.496 OA
ATOM     20  C   UNL A   1      32.721  25.679  20.771  1.00  0.00     0.278 C 
ENDBRANCH  14  19
ENDBRANCH   8  13
BRANCH  10  21
ATOM     21  C   UNL A   1      32.661  22.250  26.640  1.00  0.00     0.321 C 
BRANCH  21  22
ATOM     22  C   UNL A   1      33.018  21.392  25.475  1.00  0.00     0.114 A 
ATOM     23  C   UNL A   1      34.083  20.520  25.443  1.00  0.00     0.122 A 
ATOM     24  N   UNL A   1      32.199  21.209  24.373  1.00  0.00    -0.228 NA
ATOM     25  N   UNL A   1      33.723  19.600  24.512  1.00  0.00    -0.306 N 
ATOM     26  C   UNL A   1      32.631  20.095  23.818  1.00  0.00     0.137 A 
ATOM     27  C   UNL A   1      34.137  18.290  24.486  1.00  0.00     0.096 A 
ATOM     28  C   UNL A   1      32.091  19.245  22.813  1.00  0.00     0.048 A 
ATOM     29  C   UNL A   1      33.433  17.403  23.774  1.00  0.00    -0.034 A 
ATOM     30  C   UNL A   1      32.476  17.947  22.787  1.00  0.00     0.009 A 
ATOM     31  C   UNL A   1      33.548  15.987  24.259  1.00  0.00     0.046 C 
ENDBRANCH  21  22
ENDBRANCH  10  21
ENDBRANCH   5   7
ENDBRANCH   4   5
ENDBRANCH   3   4
ENDBRANCH   2   3
ENDBRANCH   1   2
BRANCH   1  32
ATOM     32  C   UNL A   1      40.953  21.242  26.168  1.00  0.00     0.202 C 
BRANCH  32  33
ATOM     33  C   UNL A   1      41.865  20.843  27.316  1.00  0.00     0.261 C 
BRANCH  33  34
ATOM     34  O   UNL A   1      41.992  21.871  28.290  1.00  0.00    -0.460 OA
BRANCH  34  35
ATOM     35  C   UNL A   1      42.954  22.816  28.098  1.00  0.00     0.338 C 
ATOM     36  O   UNL A   1      44.130  22.645  27.902  1.00  0.00    -0.246 OA
BRANCH  35  37
ATOM     37  C   UNL A   1      42.281  24.115  28.344  1.00  0.00     0.060 A 
ATOM     38  C   UNL A   1      40.941  24.426  28.053  1.00  0.00     0.016 A 
ATOM     39  C   UNL A   1      43.079  25.086  28.903  1.00  0.00     0.016 A 
ATOM     40  C   UNL A   1      40.470  25.759  28.204  1.00  0.00     0.010 A 
ATOM     41  C   UNL A   1      42.531  26.294  29.168  1.00  0.00     0.010 A 
ATOM     42  C   UNL A   1      41.335  26.734  28.685  1.00  0.00    -0.014 A 
BRANCH  42  43
ATOM     43  C   UNL A   1      41.202  28.172  28.967  1.00  0.00     0.031 A 
ATOM     44  C   UNL A   1      42.183  29.015  28.226  1.00  0.00     0.074 A 
ATOM     45  C   UNL A   1      40.053  28.728  29.472  1.00  0.00     0.049 A 
ATOM     46  N   UNL A   1      43.315  29.413  28.696  1.00  0.00    -0.248 NA
ATOM     47  C   UNL A   1      42.029  29.346  26.796  1.00  0.00     0.031 C 
ATOM     48  C   UNL A   1      38.776  28.053  29.802  1.00  0.00     0.029 A 
ATOM     49  N   UNL A   1      39.750  30.040  29.768  1.00  0.00    -0.354 N 
ATOM     50  C   UNL A   1      43.797  30.337  27.776  1.00  0.00     0.074 A 
ATOM     51  C   UNL A   1      43.133  30.057  26.541  1.00  0.00     0.031 C 
ATOM     52  C   UNL A   1      37.823  28.960  30.144  1.00  0.00     0.029 A 
ATOM     53  C   UNL A   1      38.440  30.271  30.232  1.00  0.00     0.049 A 
ATOM     54  H   UNL A   1      40.405  30.767  29.662  1.00  0.00     0.167 HD
ATOM     55  C   UNL A   1      44.394  31.472  28.232  1.00  0.00     0.037 A 
ATOM     56  C   UNL A   1      37.932  31.420  30.770  1.00  0.00     0.037 A 
ATOM     57  C   UNL A   1      44.529  31.385  29.668  1.00  0.00     0.049 A 
ATOM     58  C   UNL A   1      39.090  32.151  31.321  1.00  0.00     0.074 A 
ATOM     59  C   UNL A   1      45.287  30.630  30.537  1.00  0.00     0.029 A 
ATOM     60  N   UNL A   1      43.414  31.803  30.349  1.00  0.00    -0.354 N 
ATOM     61  N   UNL A   1      39.776  31.723  32.342  1.00  0.00    -0.248 NA
ATOM     62  C   UNL A   1      39.709  33.210  30.536  1.00  0.00     0.031 C 
ATOM     63  C   UNL A   1      44.502  30.478  31.718  1.00  0.00     0.029 A 
ATOM     64  C   UNL A   1      43.331  31.220  31.585  1.00  0.00     0.049 A 
ATOM     65  H   UNL A   1      42.755  32.442  29.992  1.00  0.00     0.167 HD
ATOM     66  C   UNL A   1      41.066  32.092  32.035  1.00  0.00     0.074 A 
ATOM     67  C   UNL A   1      40.942  33.155  31.044  1.00  0.00     0.031 C 
ATOM     68  C   UNL A   1      42.103  31.265  32.339  1.00  0.00     0.037 A 
BRANCH  55  69
ATOM     69  C   UNL A   1      44.427  32.827  27.565  1.00  0.00     0.064 A 
ATOM     70  C   UNL A   1      45.500  33.097  26.689  1.00  0.00     0.173 A 
ATOM     71  C   UNL A   1      43.665  33.946  27.957  1.00  0.00     0.173 A 
ATOM     72  F   UNL A   1      46.295  32.105  26.259  1.00  0.00    -0.203 F 
ATOM     73  C   UNL A   1      45.835  34.397  26.301  1.00  0.00     0.198 A 
ATOM     74  C   UNL A   1      43.974  35.240  27.527  1.00  0.00     0.198 A 
ATOM     75  F   UNL A   1      42.672  33.855  28.847  1.00  0.00    -0.203 F 
ATOM     76  F   UNL A   1      46.936  34.609  25.568  1.00  0.00    -0.200 F 
ATOM     77  C   UNL A   1      45.075  35.468  26.727  1.00  0.00     0.200 A 
ATOM     78  F   UNL A   1      43.240  36.273  27.966  1.00  0.00    -0.200 F 
ATOM     79  F   UNL A   1      45.425  36.720  26.404  1.00  0.00    -0.200 F 
ENDBRANCH  55  69
BRANCH  56  80
ATOM     80  C   UNL A   1      36.582  32.038  30.898  1.00  0.00     0.064 A 
ATOM     81  C   UNL A   1      35.907  32.099  32.139  1.00  0.00     0.173 A 
ATOM     82  C   UNL A   1      36.124  32.918  29.905  1.00  0.00     0.173 A 
ATOM     83  F   UNL A   1      36.291  31.316  33.157  1.00  0.00    -0.203 F 
ATOM     84  C   UNL A   1      34.889  33.030  32.389  1.00  0.00     0.198 A 
ATOM     85  C   UNL A   1      35.109  33.851  30.158  1.00  0.00     0.198 A 
ATOM     86  F   UNL A   1      36.741  32.967  28.716  1.00  0.00    -0.203 F 
ATOM     87  F   UNL A   1      34.337  33.112  33.609  1.00  0.00    -0.200 F 
ATOM     88  C   UNL A   1      34.506  33.921  31.404  1.00  0.00     0.200 A 
ATOM     89  F   UNL A   1      34.775  34.743  29.213  1.00  0.00    -0.200 F 
ATOM     90  F   UNL A   1      33.601  34.875  31.668  1.00  0.00    -0.200 F 
ENDBRANCH  56  80
BRANCH  68  91
ATOM     91  C   UNL A   1      41.899  30.283  33.454  1.00  0.00     0.064 A 
ATOM     92  C   UNL A   1      41.570  28.927  33.299  1.00  0.00     0.173 A 
ATOM     93  C   UNL A   1      42.105  30.748  34.759  1.00  0.00     0.173 A 
ATOM     94  F   UNL A   1      41.408  28.386  32.089  1.00  0.00    -0.203 F 
ATOM     95  C   UNL A   1      41.429  28.085  34.403  1.00  0.00     0.198 A 
ATOM     96  C   UNL A   1      41.996  29.901  35.856  1.00  0.00     0.198 A 
ATOM     97  F   UNL A   1      42.445  32.029  34.968  1.00  0.00    -0.203 F 
ATOM     98  F   UNL A   1      41.100  26.796  34.227  1.00  0.00    -0.200 F 
ATOM     99  C   UNL A   1      41.648  28.573  35.679  1.00  0.00     0.200 A 
ATOM    100  F   UNL A   1      42.245  30.374  37.085  1.00  0.00    -0.200 F 
ATOM    101  F   UNL A   1      41.541  27.760  36.739  1.00  0.00    -0.200 F 
ENDBRANCH  68  91
ENDBRANCH  42  43
ENDBRANCH  35  37
ENDBRANCH  34  35
ENDBRANCH  33  34
ENDBRANCH  32  33
ENDBRANCH   1  32
TORSDOF 18
ENDMDL
MODEL 3
REMARK VINA RESULT:     -12.8      2.785      5.600
REMARK SMILES COc1ccccc1[C@@H]1C[N@@H+](Cc2cn3cc(C)ccc3n2)C[C@H]1C(=O)OCCOCCOC(=O)c1ccc(-c2c3nc(c(-c4c(F)c(F)c(F)c(F)c4F)c4ccc([nH]4)c(-c4c(F)c(F)c(F)c(F)c4F)c4nc(c(-c5c(F)c(F)c(F)c(F)c5F)c5ccc2[nH]5)C=C4)C=C3)cc1
REMARK SMILES IDX 30 1 29 2 28 3 27 4 25 5 26 6 24 7 9 8 10 9 11 10 23 11 8 13
REMARK SMILES IDX 3 14 4 15 5 16 7 17 6 18 2 19 1 20 12 21 13 22 14 23 22 24
REMARK SMILES IDX 15 25 21 26 16 27 20 28 17 29 19 30 18 31 31 32 32 33 33 34
REMARK SMILES IDX 34 35 35 36 36 37 37 38 98 39 38 40 97 41 39 42 40 43 41 44
REMARK SMILES IDX 91 45 42 46 96 47 90 48 92 49 43 50 95 51 89 52 88 53 44 55
REMARK SMILES IDX 76 56 56 57 75 58 57 59 60 60 74 61 93 62 58 63 59 64 73 66
REMARK SMILES IDX 94 67 61 68 45 69 46 70 54 71 47 72 48 73 52 74 55 75 49 76
REMARK SMILES IDX 50 77 53 78 51 79 77 80 78 81 86 82 79 83 80 84 84 85 87 86
REMARK SMILES IDX 81 87 82 88 85 89 83 90 62 91 63 92 71 93 64 94 65 95 69 96
REMARK SMILES IDX 72 97 66 98 67 99 70 100 68 101
REMARK H PARENT 11 12 92 54 60 65
REMARK Flexibility Score: inf
ROOT
ATOM      1  O   UNL A   1      36.325  22.911  26.031  1.00  0.00    -0.374 OA
ENDROOT
BRANCH   1   2
ATOM      2  C   UNL A   1      35.402  23.797  25.390  1.00  0.00     0.202 C 
BRANCH   2   3
ATOM      3  C   UNL A   1      35.230  23.598  23.885  1.00  0.00     0.261 C 
BRANCH   3   4
ATOM      4  O   UNL A   1      34.220  24.468  23.325  1.00  0.00    -0.463 OA
BRANCH   4   5
ATOM      5  C   UNL A   1      33.350  23.840  22.500  1.00  0.00     0.315 C 
ATOM      6  O   UNL A   1      33.422  23.871  21.272  1.00  0.00    -0.252 OA
BRANCH   5   7
ATOM      7  C   UNL A   1      32.205  23.109  23.152  1.00  0.00     0.167 C 
ATOM      8  C   UNL A   1      32.290  22.210  24.387  1.00  0.00     0.098 C 
ATOM      9  C   UNL A   1      30.912  22.415  25.050  1.00  0.00     0.272 C 
ATOM     10  N   UNL A   1      30.440  23.757  24.684  1.00  0.00    -0.329 N 
ATOM     11  C   UNL A   1      31.165  24.173  23.484  1.00  0.00     0.278 C 
ATOM     12  H   UNL A   1      29.439  23.672  24.508  1.00  0.00     0.348 HD
BRANCH   8  13
ATOM     13  C   UNL A   1      32.588  20.717  24.186  1.00  0.00     0.004 A 
ATOM     14  C   UNL A   1      33.361  19.908  25.046  1.00  0.00     0.122 A 
ATOM     15  C   UNL A   1      33.536  18.538  24.785  1.00  0.00     0.047 A 
ATOM     16  C   UNL A   1      33.027  17.965  23.622  1.00  0.00     0.004 A 
ATOM     17  C   UNL A   1      32.141  20.121  22.986  1.00  0.00     0.008 A 
ATOM     18  C   UNL A   1      32.370  18.769  22.699  1.00  0.00     0.001 A 
BRANCH  14  19
ATOM     19  O   UNL A   1      34.249  20.448  25.941  1.00  0.00    -0.496 OA
ATOM     20  C   UNL A   1      33.687  21.016  27.115  1.00  0.00     0.278 C 
ENDBRANCH  14  19
ENDBRANCH   8  13
BRANCH  10  21
ATOM     21  C   UNL A   1      30.451  24.783  25.739  1.00  0.00     0.321 C 
BRANCH  21  22
ATOM     22  C   UNL A   1      31.343  25.934  25.426  1.00  0.00     0.114 A 
ATOM     23  C   UNL A   1      30.937  27.091  24.800  1.00  0.00     0.122 A 
ATOM     24  N   UNL A   1      32.631  26.067  25.920  1.00  0.00    -0.228 NA
ATOM     25  N   UNL A   1      31.841  28.018  25.209  1.00  0.00    -0.306 N 
ATOM     26  C   UNL A   1      32.901  27.352  25.802  1.00  0.00     0.137 A 
ATOM     27  C   UNL A   1      31.601  29.366  25.324  1.00  0.00     0.096 A 
ATOM     28  C   UNL A   1      33.940  28.171  26.324  1.00  0.00     0.048 A 
ATOM     29  C   UNL A   1      32.417  30.104  26.085  1.00  0.00    -0.034 A 
ATOM     30  C   UNL A   1      33.712  29.498  26.461  1.00  0.00     0.009 A 
ATOM     31  C   UNL A   1      31.786  31.346  26.645  1.00  0.00     0.046 C 
ENDBRANCH  21  22
ENDBRANCH  10  21
ENDBRANCH   5   7
ENDBRANCH   4   5
ENDBRANCH   3   4
ENDBRANCH   2   3
ENDBRANCH   1   2
BRANCH   1  32
ATOM     32  C   UNL A   1      37.196  22.162  25.192  1.00  0.00     0.202 C 
BRANCH  32  33
ATOM     33  C   UNL A   1      38.561  21.843  25.783  1.00  0.00     0.261 C 
BRANCH  33  34
ATOM     34  O   UNL A   1      39.146  22.964  26.432  1.00  0.00    -0.460 OA
BRANCH  34  35
ATOM     35  C   UNL A   1      40.192  22.739  27.274  1.00  0.00     0.338 C 
ATOM     36  O   UNL A   1      40.590  21.682  27.693  1.00  0.00    -0.246 OA
BRANCH  35  37
ATOM     37  C   UNL A   1      40.646  24.085  27.702  1.00  0.00     0.060 A 
ATOM     38  C   UNL A   1      41.818  24.379  28.420  1.00  0.00     0.016 A 
ATOM     39  C   UNL A   1      39.807  25.118  27.354  1.00  0.00     0.016 A 
ATOM     40  C   UNL A   1      42.052  25.699  28.896  1.00  0.00     0.010 A 
ATOM     41  C   UNL A   1      40.160  26.377  27.701  1.00  0.00     0.010 A 
ATOM     42  C   UNL A   1      41.132  26.698  28.601  1.00  0.00    -0.014 A 
BRANCH  42  43
ATOM     43  C   UNL A   1      41.046  28.134  28.910  1.00  0.00     0.031 A 
ATOM     44  C   UNL A   1      42.032  28.962  28.160  1.00  0.00     0.074 A 
ATOM     45  C   UNL A   1      39.925  28.712  29.452  1.00  0.00     0.049 A 
ATOM     46  N   UNL A   1      43.185  29.321  28.608  1.00  0.00    -0.248 NA
ATOM     47  C   UNL A   1      41.852  29.323  26.739  1.00  0.00     0.031 C 
ATOM     48  C   UNL A   1      38.638  28.066  29.803  1.00  0.00     0.029 A 
ATOM     49  N   UNL A   1      39.666  30.026  29.777  1.00  0.00    -0.354 N 
ATOM     50  C   UNL A   1      43.669  30.248  27.692  1.00  0.00     0.074 A 
ATOM     51  C   UNL A   1      42.969  30.007  26.469  1.00  0.00     0.031 C 
ATOM     52  C   UNL A   1      37.719  28.992  30.183  1.00  0.00     0.029 A 
ATOM     53  C   UNL A   1      38.374  30.285  30.278  1.00  0.00     0.049 A 
ATOM     54  H   UNL A   1      40.338  30.737  29.667  1.00  0.00     0.167 HD
ATOM     55  C   UNL A   1      44.309  31.358  28.151  1.00  0.00     0.037 A 
ATOM     56  C   UNL A   1      37.911  31.438  30.847  1.00  0.00     0.037 A 
ATOM     57  C   UNL A   1      44.476  31.242  29.582  1.00  0.00     0.049 A 
ATOM     58  C   UNL A   1      39.102  32.127  31.382  1.00  0.00     0.074 A 
ATOM     59  C   UNL A   1      45.234  30.452  30.420  1.00  0.00     0.029 A 
ATOM     60  N   UNL A   1      43.389  31.678  30.297  1.00  0.00    -0.354 N 
ATOM     61  N   UNL A   1      39.801  31.663  32.378  1.00  0.00    -0.248 NA
ATOM     62  C   UNL A   1      39.731  33.182  30.600  1.00  0.00     0.031 C 
ATOM     63  C   UNL A   1      44.473  30.301  31.616  1.00  0.00     0.029 A 
ATOM     64  C   UNL A   1      43.321  31.076  31.525  1.00  0.00     0.049 A 
ATOM     65  H   UNL A   1      42.740  32.341  29.968  1.00  0.00     0.167 HD
ATOM     66  C   UNL A   1      41.092  32.002  32.045  1.00  0.00     0.074 A 
ATOM     67  C   UNL A   1      40.974  33.085  31.076  1.00  0.00     0.031 C 
ATOM     68  C   UNL A   1      42.113  31.142  32.310  1.00  0.00     0.037 A 
BRANCH  55  69
ATOM     69  C   UNL A   1      44.363  32.723  27.507  1.00  0.00     0.064 A 
ATOM     70  C   UNL A   1      45.435  32.987  26.627  1.00  0.00     0.173 A 
ATOM     71  C   UNL A   1      43.626  33.849  27.923  1.00  0.00     0.173 A 
ATOM     72  F   UNL A   1      46.207  31.987  26.175  1.00  0.00    -0.203 F 
ATOM     73  C   UNL A   1      45.792  34.286  26.258  1.00  0.00     0.198 A 
ATOM     74  C   UNL A   1      43.956  35.145  27.512  1.00  0.00     0.198 A 
ATOM     75  F   UNL A   1      42.637  33.763  28.819  1.00  0.00    -0.203 F 
ATOM     76  F   UNL A   1      46.891  34.490  25.520  1.00  0.00    -0.200 F 
ATOM     77  C   UNL A   1      45.055  35.365  26.707  1.00  0.00     0.200 A 
ATOM     78  F   UNL A   1      43.246  36.184  27.973  1.00  0.00    -0.200 F 
ATOM     79  F   UNL A   1      45.427  36.615  26.403  1.00  0.00    -0.200 F 
ENDBRANCH  55  69
BRANCH  56  80
ATOM     80  C   UNL A   1      36.582  32.089  31.019  1.00  0.00     0.064 A 
ATOM     81  C   UNL A   1      35.945  32.159  32.279  1.00  0.00     0.173 A 
ATOM     82  C   UNL A   1      36.119  32.988  30.045  1.00  0.00     0.173 A 
ATOM     83  F   UNL A   1      36.338  31.360  33.281  1.00  0.00    -0.203 F 
ATOM     84  C   UNL A   1      34.960  33.115  32.566  1.00  0.00     0.198 A 
ATOM     85  C   UNL A   1      35.136  33.946  30.334  1.00  0.00     0.198 A 
ATOM     86  F   UNL A   1      36.702  33.029  28.839  1.00  0.00    -0.203 F 
ATOM     87  F   UNL A   1      34.447  33.203  33.802  1.00  0.00    -0.200 F 
ATOM     88  C   UNL A   1      34.573  34.023  31.597  1.00  0.00     0.200 A 
ATOM     89  F   UNL A   1      34.798  34.853  29.405  1.00  0.00    -0.200 F 
ATOM     90  F   UNL A   1      33.701  34.998  31.894  1.00  0.00    -0.200 F 
ENDBRANCH  56  80
BRANCH  68  91
ATOM     91  C   UNL A   1      41.909  30.147  33.413  1.00  0.00     0.064 A 
ATOM     92  C   UNL A   1      41.534  28.805  33.244  1.00  0.00     0.173 A 
ATOM     93  C   UNL A   1      42.165  30.581  34.720  1.00  0.00     0.173 A 
ATOM     94  F   UNL A   1      41.323  28.291  32.029  1.00  0.00    -0.203 F 
ATOM     95  C   UNL A   1      41.397  27.948  34.337  1.00  0.00     0.198 A 
ATOM     96  C   UNL A   1      42.059  29.719  35.805  1.00  0.00     0.198 A 
ATOM     97  F   UNL A   1      42.550  31.848  34.941  1.00  0.00    -0.203 F 
ATOM     98  F   UNL A   1      41.024  26.673  34.148  1.00  0.00    -0.200 F 
ATOM     99  C   UNL A   1      41.666  28.405  35.615  1.00  0.00     0.200 A 
ATOM    100  F   UNL A   1      42.356  30.161  37.034  1.00  0.00    -0.200 F 
ATOM    101  F   UNL A   1      41.563  27.577  36.663  1.00  0.00    -0.200 F 
ENDBRANCH  68  91
ENDBRANCH  42  43
ENDBRANCH  35  37
ENDBRANCH  34  35
ENDBRANCH  33  34
ENDBRANCH  32  33
ENDBRANCH   1  32
TORSDOF 18
ENDMDL
