MODEL 1
REMARK VINA RESULT:     -12.3      0.000      0.000
REMARK SMILES CC1CCN(C(=O)N[C@@H]2C=C[C@H](C(=O)OCCOCCOC(=O)c3ccc(-c4c5nc(c(-c6c(F)c(F)c(F)c(F)c6F)c6ccc([nH]6)c(-c6c(F)c(F)c(F)c(F)c6F)c6nc(c(-c7c(F)c(F)c(F)c(F)c7F)c7ccc4[nH]7)C=C6)C=C5)cc3)C2)CC1
REMARK SMILES IDX 19 1 18 2 17 3 16 4 15 5 13 6 14 7 12 8 9 9 10 10 87 11
REMARK SMILES IDX 11 12 8 13 1 14 2 15 3 16 89 17 4 18 88 19 5 20 6 21 7 22
REMARK SMILES IDX 20 24 21 25 22 26 23 27 24 28 25 29 86 30 26 31 85 32 27 33
REMARK SMILES IDX 28 34 29 35 79 36 30 37 84 38 78 39 80 40 31 41 83 42 77 43
REMARK SMILES IDX 76 44 32 46 64 47 44 48 63 49 45 50 48 51 62 52 81 53 46 54
REMARK SMILES IDX 47 55 61 57 82 58 49 59 33 60 34 61 42 62 35 63 36 64 40 65
REMARK SMILES IDX 43 66 37 67 38 68 41 69 39 70 65 71 66 72 74 73 67 74 68 75
REMARK SMILES IDX 72 76 75 77 69 78 70 79 73 80 71 81 50 82 51 83 59 84 52 85
REMARK SMILES IDX 53 86 57 87 60 88 54 89 55 90 58 91 56 92
REMARK H PARENT 8 23 80 45 48 56
REMARK Flexibility Score: inf
ROOT
ATOM      1  C   UNL A   1      31.884  30.473  25.999  1.00  0.00     0.202 C 
ENDROOT
BRANCH   1   2
ATOM      2  O   UNL A   1      33.059  30.010  25.338  1.00  0.00    -0.374 OA
BRANCH   2   3
ATOM      3  C   UNL A   1      33.219  28.834  24.549  1.00  0.00     0.202 C 
BRANCH   3   4
ATOM      4  C   UNL A   1      33.674  27.598  25.461  1.00  0.00     0.261 C 
BRANCH   4   5
ATOM      5  O   UNL A   1      32.762  26.430  25.494  1.00  0.00    -0.463 OA
BRANCH   5   6
ATOM      6  C   UNL A   1      31.617  26.519  26.280  1.00  0.00     0.312 C 
ATOM      7  O   UNL A   1      31.563  27.198  27.300  1.00  0.00    -0.252 OA
BRANCH   6   8
ATOM      8  C   UNL A   1      30.425  25.640  25.754  1.00  0.00     0.124 C 
ATOM      9  C   UNL A   1      30.625  24.727  23.419  1.00  0.00     0.107 C 
ATOM     10  C   UNL A   1      29.596  25.813  23.524  1.00  0.00    -0.006 C 
ATOM     11  C   UNL A   1      30.767  24.407  24.904  1.00  0.00     0.048 C 
ATOM     12  C   UNL A   1      29.504  26.321  24.765  1.00  0.00    -0.014 C 
BRANCH   9  13
ATOM     13  N   UNL A   1      31.763  25.292  22.724  1.00  0.00    -0.332 N 
ATOM     14  C   UNL A   1      32.961  21.754  26.234  1.00  0.00     0.008 C 
ATOM     15  C   UNL A   1      33.727  22.041  24.922  1.00  0.00    -0.011 C 
ATOM     16  C   UNL A   1      34.312  23.446  24.676  1.00  0.00     0.025 C 
ATOM     17  C   UNL A   1      32.905  21.485  23.742  1.00  0.00     0.025 C 
ATOM     18  C   UNL A   1      34.730  23.613  23.239  1.00  0.00     0.121 C 
ATOM     19  C   UNL A   1      32.808  22.355  22.474  1.00  0.00     0.121 C 
ATOM     20  N   UNL A   1      33.464  23.647  22.558  1.00  0.00    -0.325 N 
ATOM     21  C   UNL A   1      32.984  24.898  22.326  1.00  0.00     0.317 C 
ATOM     22  O   UNL A   1      33.716  25.790  21.884  1.00  0.00    -0.249 OA
ATOM     23  H   UNL A   1      31.594  26.229  22.471  1.00  0.00     0.165 HD
ENDBRANCH   9  13
ENDBRANCH   6   8
ENDBRANCH   5   6
ENDBRANCH   4   5
ENDBRANCH   3   4
ENDBRANCH   2   3
ENDBRANCH   1   2
BRANCH   1  24
ATOM     24  C   UNL A   1      31.926  31.748  26.870  1.00  0.00     0.261 C 
BRANCH  24  25
ATOM     25  O   UNL A   1      32.920  31.668  27.876  1.00  0.00    -0.460 OA
BRANCH  25  26
ATOM     26  C   UNL A   1      33.735  32.734  27.849  1.00  0.00     0.338 C 
ATOM     27  O   UNL A   1      33.430  33.915  27.892  1.00  0.00    -0.246 OA
BRANCH  26  28
ATOM     28  C   UNL A   1      35.086  32.235  28.055  1.00  0.00     0.060 A 
ATOM     29  C   UNL A   1      35.220  30.846  28.071  1.00  0.00     0.016 A 
ATOM     30  C   UNL A   1      36.171  33.094  28.247  1.00  0.00     0.016 A 
ATOM     31  C   UNL A   1      36.441  30.295  28.397  1.00  0.00     0.010 A 
ATOM     32  C   UNL A   1      37.399  32.540  28.583  1.00  0.00     0.010 A 
ATOM     33  C   UNL A   1      37.507  31.145  28.724  1.00  0.00    -0.014 A 
BRANCH  33  34
ATOM     34  C   UNL A   1      38.621  30.558  29.482  1.00  0.00     0.031 A 
ATOM     35  C   UNL A   1      38.769  30.954  30.921  1.00  0.00     0.074 A 
ATOM     36  C   UNL A   1      39.399  29.621  28.925  1.00  0.00     0.049 A 
ATOM     37  N   UNL A   1      39.619  30.525  31.815  1.00  0.00    -0.248 NA
ATOM     38  C   UNL A   1      37.822  31.966  31.423  1.00  0.00     0.031 C 
ATOM     39  C   UNL A   1      39.283  29.138  27.551  1.00  0.00     0.029 A 
ATOM     40  N   UNL A   1      40.433  28.905  29.458  1.00  0.00    -0.354 N 
ATOM     41  C   UNL A   1      39.309  31.213  32.980  1.00  0.00     0.074 A 
ATOM     42  C   UNL A   1      38.220  32.113  32.676  1.00  0.00     0.031 C 
ATOM     43  C   UNL A   1      40.226  28.203  27.344  1.00  0.00     0.029 A 
ATOM     44  C   UNL A   1      41.016  28.048  28.564  1.00  0.00     0.049 A 
ATOM     45  H   UNL A   1      40.730  28.997  30.393  1.00  0.00     0.167 HD
ATOM     46  C   UNL A   1      39.879  31.091  34.201  1.00  0.00     0.037 A 
ATOM     47  C   UNL A   1      42.084  27.245  28.723  1.00  0.00     0.037 A 
ATOM     48  C   UNL A   1      40.968  30.197  34.483  1.00  0.00     0.049 A 
ATOM     49  C   UNL A   1      42.755  27.184  30.068  1.00  0.00     0.074 A 
ATOM     50  C   UNL A   1      41.620  29.982  35.682  1.00  0.00     0.029 A 
ATOM     51  N   UNL A   1      41.573  29.378  33.539  1.00  0.00    -0.354 N 
ATOM     52  N   UNL A   1      42.446  27.813  31.178  1.00  0.00    -0.248 NA
ATOM     53  C   UNL A   1      43.918  26.296  30.186  1.00  0.00     0.031 C 
ATOM     54  C   UNL A   1      42.662  29.076  35.449  1.00  0.00     0.029 A 
ATOM     55  C   UNL A   1      42.618  28.680  34.121  1.00  0.00     0.049 A 
ATOM     56  H   UNL A   1      41.300  29.303  32.596  1.00  0.00     0.167 HD
ATOM     57  C   UNL A   1      43.358  27.382  32.132  1.00  0.00     0.074 A 
ATOM     58  C   UNL A   1      44.227  26.429  31.469  1.00  0.00     0.031 C 
ATOM     59  C   UNL A   1      43.467  27.737  33.436  1.00  0.00     0.037 A 
BRANCH  46  60
ATOM     60  C   UNL A   1      39.363  31.985  35.288  1.00  0.00     0.064 A 
ATOM     61  C   UNL A   1      39.762  33.327  35.400  1.00  0.00     0.173 A 
ATOM     62  C   UNL A   1      38.474  31.483  36.250  1.00  0.00     0.173 A 
ATOM     63  F   UNL A   1      40.631  33.849  34.521  1.00  0.00    -0.203 F 
ATOM     64  C   UNL A   1      39.318  34.119  36.456  1.00  0.00     0.198 A 
ATOM     65  C   UNL A   1      38.007  32.288  37.285  1.00  0.00     0.198 A 
ATOM     66  F   UNL A   1      38.065  30.206  36.191  1.00  0.00    -0.203 F 
ATOM     67  F   UNL A   1      39.765  35.377  36.580  1.00  0.00    -0.200 F 
ATOM     68  C   UNL A   1      38.439  33.601  37.394  1.00  0.00     0.200 A 
ATOM     69  F   UNL A   1      37.152  31.787  38.187  1.00  0.00    -0.200 F 
ATOM     70  F   UNL A   1      38.017  34.364  38.413  1.00  0.00    -0.200 F 
ENDBRANCH  46  60
BRANCH  47  71
ATOM     71  C   UNL A   1      42.575  26.455  27.568  1.00  0.00     0.064 A 
ATOM     72  C   UNL A   1      43.584  26.943  26.728  1.00  0.00     0.173 A 
ATOM     73  C   UNL A   1      42.058  25.179  27.297  1.00  0.00     0.173 A 
ATOM     74  F   UNL A   1      44.097  28.163  26.937  1.00  0.00    -0.203 F 
ATOM     75  C   UNL A   1      44.051  26.187  25.655  1.00  0.00     0.198 A 
ATOM     76  C   UNL A   1      42.543  24.415  26.241  1.00  0.00     0.198 A 
ATOM     77  F   UNL A   1      41.094  24.666  28.077  1.00  0.00    -0.203 F 
ATOM     78  F   UNL A   1      44.994  26.688  24.847  1.00  0.00    -0.200 F 
ATOM     79  C   UNL A   1      43.536  24.921  25.417  1.00  0.00     0.200 A 
ATOM     80  F   UNL A   1      42.053  23.186  26.025  1.00  0.00    -0.200 F 
ATOM     81  F   UNL A   1      43.993  24.191  24.390  1.00  0.00    -0.200 F 
ENDBRANCH  47  71
BRANCH  59  82
ATOM     82  C   UNL A   1      44.545  27.073  34.243  1.00  0.00     0.064 A 
ATOM     83  C   UNL A   1      45.805  27.665  34.415  1.00  0.00     0.173 A 
ATOM     84  C   UNL A   1      44.290  25.862  34.904  1.00  0.00     0.173 A 
ATOM     85  F   UNL A   1      46.101  28.816  33.794  1.00  0.00    -0.203 F 
ATOM     86  C   UNL A   1      46.776  27.057  35.206  1.00  0.00     0.198 A 
ATOM     87  C   UNL A   1      45.251  25.274  35.720  1.00  0.00     0.198 A 
ATOM     88  F   UNL A   1      43.097  25.262  34.778  1.00  0.00    -0.203 F 
ATOM     89  F   UNL A   1      47.987  27.618  35.326  1.00  0.00    -0.200 F 
ATOM     90  C   UNL A   1      46.496  25.869  35.866  1.00  0.00     0.200 A 
ATOM     91  F   UNL A   1      44.973  24.135  36.369  1.00  0.00    -0.200 F 
ATOM     92  F   UNL A   1      47.427  25.294  36.638  1.00  0.00    -0.200 F 
ENDBRANCH  59  82
ENDBRANCH  33  34
ENDBRANCH  26  28
ENDBRANCH  25  26
ENDBRANCH  24  25
ENDBRANCH   1  24
TORSDOF 15
ENDMDL
MODEL 2
REMARK VINA RESULT:     -12.3      3.336      8.542
REMARK SMILES CC1CCN(C(=O)N[C@@H]2C=C[C@H](C(=O)OCCOCCOC(=O)c3ccc(-c4c5nc(c(-c6c(F)c(F)c(F)c(F)c6F)c6ccc([nH]6)c(-c6c(F)c(F)c(F)c(F)c6F)c6nc(c(-c7c(F)c(F)c(F)c(F)c7F)c7ccc4[nH]7)C=C6)C=C5)cc3)C2)CC1
REMARK SMILES IDX 19 1 18 2 17 3 16 4 15 5 13 6 14 7 12 8 9 9 10 10 87 11
REMARK SMILES IDX 11 12 8 13 1 14 2 15 3 16 89 17 4 18 88 19 5 20 6 21 7 22
REMARK SMILES IDX 20 24 21 25 22 26 23 27 24 28 25 29 86 30 26 31 85 32 27 33
REMARK SMILES IDX 28 34 29 35 79 36 30 37 84 38 78 39 80 40 31 41 83 42 77 43
REMARK SMILES IDX 76 44 32 46 64 47 44 48 63 49 45 50 48 51 62 52 81 53 46 54
REMARK SMILES IDX 47 55 61 57 82 58 49 59 33 60 34 61 42 62 35 63 36 64 40 65
REMARK SMILES IDX 43 66 37 67 38 68 41 69 39 70 65 71 66 72 74 73 67 74 68 75
REMARK SMILES IDX 72 76 75 77 69 78 70 79 73 80 71 81 50 82 51 83 59 84 52 85
REMARK SMILES IDX 53 86 57 87 60 88 54 89 55 90 58 91 56 92
REMARK H PARENT 8 23 80 45 48 56
REMARK Flexibility Score: inf
ROOT
ATOM      1  C   UNL A   1      42.738  21.137  26.007  1.00  0.00     0.202 C 
ENDROOT
BRANCH   1   2
ATOM      2  O   UNL A   1      42.158  21.489  27.261  1.00  0.00    -0.374 OA
BRANCH   2   3
ATOM      3  C   UNL A   1      40.778  21.522  27.614  1.00  0.00     0.202 C 
BRANCH   3   4
ATOM      4  C   UNL A   1      39.857  21.474  26.306  1.00  0.00     0.261 C 
BRANCH   4   5
ATOM      5  O   UNL A   1      38.879  22.578  26.144  1.00  0.00    -0.463 OA
BRANCH   5   6
ATOM      6  C   UNL A   1      37.640  22.273  25.588  1.00  0.00     0.312 C 
ATOM      7  O   UNL A   1      37.098  21.183  25.731  1.00  0.00    -0.252 OA
BRANCH   6   8
ATOM      8  C   UNL A   1      37.032  23.445  24.734  1.00  0.00     0.124 C 
ATOM      9  C   UNL A   1      34.540  23.434  24.397  1.00  0.00     0.107 C 
ATOM     10  C   UNL A   1      35.289  23.095  23.144  1.00  0.00    -0.006 C 
ATOM     11  C   UNL A   1      35.693  24.041  25.191  1.00  0.00     0.048 C 
ATOM     12  C   UNL A   1      36.621  23.074  23.326  1.00  0.00    -0.014 C 
BRANCH   9  13
ATOM     13  N   UNL A   1      33.944  22.204  24.878  1.00  0.00    -0.332 N 
ATOM     14  C   UNL A   1      31.331  26.445  26.088  1.00  0.00     0.008 C 
ATOM     15  C   UNL A   1      30.734  25.047  25.815  1.00  0.00    -0.011 C 
ATOM     16  C   UNL A   1      31.166  23.852  26.689  1.00  0.00     0.025 C 
ATOM     17  C   UNL A   1      30.796  24.772  24.299  1.00  0.00     0.025 C 
ATOM     18  C   UNL A   1      30.730  22.547  26.076  1.00  0.00     0.121 C 
ATOM     19  C   UNL A   1      31.226  23.362  23.851  1.00  0.00     0.121 C 
ATOM     20  N   UNL A   1      31.585  22.454  24.925  1.00  0.00    -0.325 N 
ATOM     21  C   UNL A   1      32.715  21.722  25.121  1.00  0.00     0.317 C 
ATOM     22  O   UNL A   1      32.673  20.629  25.697  1.00  0.00    -0.249 OA
ATOM     23  H   UNL A   1      34.635  21.533  25.082  1.00  0.00     0.165 HD
ENDBRANCH   9  13
ENDBRANCH   6   8
ENDBRANCH   5   6
ENDBRANCH   4   5
ENDBRANCH   3   4
ENDBRANCH   2   3
ENDBRANCH   1   2
BRANCH   1  24
ATOM     24  C   UNL A   1      43.683  22.115  25.278  1.00  0.00     0.261 C 
BRANCH  24  25
ATOM     25  O   UNL A   1      43.011  23.292  24.865  1.00  0.00    -0.460 OA
BRANCH  25  26
ATOM     26  C   UNL A   1      43.750  24.388  25.095  1.00  0.00     0.338 C 
ATOM     27  O   UNL A   1      44.812  24.701  24.583  1.00  0.00    -0.246 OA
BRANCH  26  28
ATOM     28  C   UNL A   1      42.917  25.303  25.862  1.00  0.00     0.060 A 
ATOM     29  C   UNL A   1      43.463  26.565  26.095  1.00  0.00     0.016 A 
ATOM     30  C   UNL A   1      41.662  24.927  26.350  1.00  0.00     0.016 A 
ATOM     31  C   UNL A   1      42.797  27.439  26.927  1.00  0.00     0.010 A 
ATOM     32  C   UNL A   1      40.995  25.805  27.195  1.00  0.00     0.010 A 
ATOM     33  C   UNL A   1      41.602  27.027  27.533  1.00  0.00    -0.014 A 
BRANCH  33  34
ATOM     34  C   UNL A   1      41.166  27.769  28.725  1.00  0.00     0.031 A 
ATOM     35  C   UNL A   1      41.995  27.637  29.968  1.00  0.00     0.074 A 
ATOM     36  C   UNL A   1      40.130  28.614  28.654  1.00  0.00     0.049 A 
ATOM     37  N   UNL A   1      41.863  28.240  31.120  1.00  0.00    -0.248 NA
ATOM     38  C   UNL A   1      43.133  26.703  29.902  1.00  0.00     0.031 C 
ATOM     39  C   UNL A   1      39.311  28.845  27.468  1.00  0.00     0.029 A 
ATOM     40  N   UNL A   1      39.603  29.441  29.606  1.00  0.00    -0.354 N 
ATOM     41  C   UNL A   1      42.898  27.760  31.910  1.00  0.00     0.074 A 
ATOM     42  C   UNL A   1      43.628  26.790  31.125  1.00  0.00     0.031 C 
ATOM     43  C   UNL A   1      38.368  29.755  27.767  1.00  0.00     0.029 A 
ATOM     44  C   UNL A   1      38.512  30.143  29.168  1.00  0.00     0.049 A 
ATOM     45  H   UNL A   1      39.971  29.524  30.515  1.00  0.00     0.167 HD
ATOM     46  C   UNL A   1      43.216  28.110  33.177  1.00  0.00     0.037 A 
ATOM     47  C   UNL A   1      37.715  30.991  29.844  1.00  0.00     0.037 A 
ATOM     48  C   UNL A   1      42.472  29.070  33.945  1.00  0.00     0.049 A 
ATOM     49  C   UNL A   1      38.039  31.307  31.278  1.00  0.00     0.074 A 
ATOM     50  C   UNL A   1      42.704  29.511  35.234  1.00  0.00     0.029 A 
ATOM     51  N   UNL A   1      41.337  29.727  33.490  1.00  0.00    -0.354 N 
ATOM     52  N   UNL A   1      39.033  30.875  32.019  1.00  0.00    -0.248 NA
ATOM     53  C   UNL A   1      37.136  32.234  31.971  1.00  0.00     0.031 C 
ATOM     54  C   UNL A   1      41.672  30.390  35.581  1.00  0.00     0.029 A 
ATOM     55  C   UNL A   1      40.833  30.545  34.488  1.00  0.00     0.049 A 
ATOM     56  H   UNL A   1      40.947  29.627  32.592  1.00  0.00     0.167 HD
ATOM     57  C   UNL A   1      38.891  31.492  33.254  1.00  0.00     0.074 A 
ATOM     58  C   UNL A   1      37.717  32.338  33.158  1.00  0.00     0.031 C 
ATOM     59  C   UNL A   1      39.661  31.376  34.365  1.00  0.00     0.037 A 
BRANCH  46  60
ATOM     60  C   UNL A   1      44.379  27.407  33.809  1.00  0.00     0.064 A 
ATOM     61  C   UNL A   1      45.686  27.915  33.733  1.00  0.00     0.173 A 
ATOM     62  C   UNL A   1      44.186  26.191  34.480  1.00  0.00     0.173 A 
ATOM     63  F   UNL A   1      45.928  29.062  33.081  1.00  0.00    -0.203 F 
ATOM     64  C   UNL A   1      46.760  27.211  34.273  1.00  0.00     0.198 A 
ATOM     65  C   UNL A   1      45.258  25.507  35.047  1.00  0.00     0.198 A 
ATOM     66  F   UNL A   1      42.958  25.659  34.577  1.00  0.00    -0.203 F 
ATOM     67  F   UNL A   1      48.007  27.683  34.130  1.00  0.00    -0.200 F 
ATOM     68  C   UNL A   1      46.545  26.011  34.933  1.00  0.00     0.200 A 
ATOM     69  F   UNL A   1      45.047  24.350  35.690  1.00  0.00    -0.200 F 
ATOM     70  F   UNL A   1      47.580  25.332  35.448  1.00  0.00    -0.200 F 
ENDBRANCH  46  60
BRANCH  47  71
ATOM     71  C   UNL A   1      36.538  31.579  29.161  1.00  0.00     0.064 A 
ATOM     72  C   UNL A   1      36.496  32.937  28.821  1.00  0.00     0.173 A 
ATOM     73  C   UNL A   1      35.436  30.783  28.812  1.00  0.00     0.173 A 
ATOM     74  F   UNL A   1      37.518  33.741  29.148  1.00  0.00    -0.203 F 
ATOM     75  C   UNL A   1      35.393  33.478  28.165  1.00  0.00     0.198 A 
ATOM     76  C   UNL A   1      34.346  31.319  28.134  1.00  0.00     0.198 A 
ATOM     77  F   UNL A   1      35.432  29.475  29.112  1.00  0.00    -0.203 F 
ATOM     78  F   UNL A   1      35.363  34.786  27.879  1.00  0.00    -0.200 F 
ATOM     79  C   UNL A   1      34.322  32.668  27.816  1.00  0.00     0.200 A 
ATOM     80  F   UNL A   1      33.322  30.528  27.784  1.00  0.00    -0.200 F 
ATOM     81  F   UNL A   1      33.265  33.188  27.175  1.00  0.00    -0.200 F 
ENDBRANCH  47  71
BRANCH  59  82
ATOM     82  C   UNL A   1      39.278  32.201  35.558  1.00  0.00     0.064 A 
ATOM     83  C   UNL A   1      38.479  31.679  36.587  1.00  0.00     0.173 A 
ATOM     84  C   UNL A   1      39.770  33.506  35.704  1.00  0.00     0.173 A 
ATOM     85  F   UNL A   1      37.973  30.441  36.488  1.00  0.00    -0.203 F 
ATOM     86  C   UNL A   1      38.172  32.444  37.709  1.00  0.00     0.198 A 
ATOM     87  C   UNL A   1      39.489  34.256  36.842  1.00  0.00     0.198 A 
ATOM     88  F   UNL A   1      40.546  34.046  34.752  1.00  0.00    -0.203 F 
ATOM     89  F   UNL A   1      37.374  31.943  38.662  1.00  0.00    -0.200 F 
ATOM     90  C   UNL A   1      38.685  33.727  37.841  1.00  0.00     0.200 A 
ATOM     91  F   UNL A   1      39.999  35.488  36.975  1.00  0.00    -0.200 F 
ATOM     92  F   UNL A   1      38.401  34.455  38.929  1.00  0.00    -0.200 F 
ENDBRANCH  59  82
ENDBRANCH  33  34
ENDBRANCH  26  28
ENDBRANCH  25  26
ENDBRANCH  24  25
ENDBRANCH   1  24
TORSDOF 15
ENDMDL
MODEL 3
REMARK VINA RESULT:     -12.2      3.240      8.531
REMARK SMILES CC1CCN(C(=O)N[C@@H]2C=C[C@H](C(=O)OCCOCCOC(=O)c3ccc(-c4c5nc(c(-c6c(F)c(F)c(F)c(F)c6F)c6ccc([nH]6)c(-c6c(F)c(F)c(F)c(F)c6F)c6nc(c(-c7c(F)c(F)c(F)c(F)c7F)c7ccc4[nH]7)C=C6)C=C5)cc3)C2)CC1
REMARK SMILES IDX 19 1 18 2 17 3 16 4 15 5 13 6 14 7 12 8 9 9 10 10 87 11
REMARK SMILES IDX 11 12 8 13 1 14 2 15 3 16 89 17 4 18 88 19 5 20 6 21 7 22
REMARK SMILES IDX 20 24 21 25 22 26 23 27 24 28 25 29 86 30 26 31 85 32 27 33
REMARK SMILES IDX 28 34 29 35 79 36 30 37 84 38 78 39 80 40 31 41 83 42 77 43
REMARK SMILES IDX 76 44 32 46 64 47 44 48 63 49 45 50 48 51 62 52 81 53 46 54
REMARK SMILES IDX 47 55 61 57 82 58 49 59 33 60 34 61 42 62 35 63 36 64 40 65
REMARK SMILES IDX 43 66 37 67 38 68 41 69 39 70 65 71 66 72 74 73 67 74 68 75
REMARK SMILES IDX 72 76 75 77 69 78 70 79 73 80 71 81 50 82 51 83 59 84 52 85
REMARK SMILES IDX 53 86 57 87 60 88 54 89 55 90 58 91 56 92
REMARK H PARENT 8 23 80 45 48 56
REMARK Flexibility Score: inf
ROOT
ATOM      1  C   UNL A   1      42.790  21.512  25.972  1.00  0.00     0.202 C 
ENDROOT
BRANCH   1   2
ATOM      2  O   UNL A   1      41.370  21.554  25.848  1.00  0.00    -0.374 OA
BRANCH   2   3
ATOM      3  C   UNL A   1      40.396  21.587  26.887  1.00  0.00     0.202 C 
BRANCH   3   4
ATOM      4  C   UNL A   1      39.106  22.416  26.429  1.00  0.00     0.261 C 
BRANCH   4   5
ATOM      5  O   UNL A   1      38.156  21.720  25.528  1.00  0.00    -0.463 OA
BRANCH   5   6
ATOM      6  C   UNL A   1      36.813  22.078  25.596  1.00  0.00     0.312 C 
ATOM      7  O   UNL A   1      36.368  22.824  26.461  1.00  0.00    -0.252 OA
BRANCH   6   8
ATOM      8  C   UNL A   1      35.928  21.404  24.485  1.00  0.00     0.124 C 
ATOM      9  C   UNL A   1      33.443  21.382  24.866  1.00  0.00     0.107 C 
ATOM     10  C   UNL A   1      34.056  20.021  25.007  1.00  0.00    -0.006 C 
ATOM     11  C   UNL A   1      34.591  22.072  24.135  1.00  0.00     0.048 C 
ATOM     12  C   UNL A   1      35.388  20.033  24.829  1.00  0.00    -0.014 C 
BRANCH   9  13
ATOM     13  N   UNL A   1      33.106  21.833  26.201  1.00  0.00    -0.332 N 
ATOM     14  C   UNL A   1      33.653  25.597  22.764  1.00  0.00     0.008 C 
ATOM     15  C   UNL A   1      32.700  25.597  23.981  1.00  0.00    -0.011 C 
ATOM     16  C   UNL A   1      33.281  25.445  25.401  1.00  0.00     0.025 C 
ATOM     17  C   UNL A   1      31.517  24.654  23.680  1.00  0.00     0.025 C 
ATOM     18  C   UNL A   1      32.195  25.151  26.402  1.00  0.00     0.121 C 
ATOM     19  C   UNL A   1      31.040  23.730  24.817  1.00  0.00     0.121 C 
ATOM     20  N   UNL A   1      31.809  23.813  26.045  1.00  0.00    -0.325 N 
ATOM     21  C   UNL A   1      32.423  22.839  26.770  1.00  0.00     0.317 C 
ATOM     22  O   UNL A   1      32.527  22.929  27.998  1.00  0.00    -0.249 OA
ATOM     23  H   UNL A   1      33.482  21.231  26.883  1.00  0.00     0.165 HD
ENDBRANCH   9  13
ENDBRANCH   6   8
ENDBRANCH   5   6
ENDBRANCH   4   5
ENDBRANCH   3   4
ENDBRANCH   2   3
ENDBRANCH   1   2
BRANCH   1  24
ATOM     24  C   UNL A   1      43.681  22.408  25.086  1.00  0.00     0.261 C 
BRANCH  24  25
ATOM     25  O   UNL A   1      43.032  23.618  24.735  1.00  0.00    -0.460 OA
BRANCH  25  26
ATOM     26  C   UNL A   1      43.769  24.688  25.071  1.00  0.00     0.338 C 
ATOM     27  O   UNL A   1      44.856  25.022  24.628  1.00  0.00    -0.246 OA
BRANCH  26  28
ATOM     28  C   UNL A   1      42.910  25.558  25.859  1.00  0.00     0.060 A 
ATOM     29  C   UNL A   1      43.414  26.833  26.115  1.00  0.00     0.016 A 
ATOM     30  C   UNL A   1      41.672  25.130  26.346  1.00  0.00     0.016 A 
ATOM     31  C   UNL A   1      42.723  27.668  26.968  1.00  0.00     0.010 A 
ATOM     32  C   UNL A   1      40.979  25.968  27.212  1.00  0.00     0.010 A 
ATOM     33  C   UNL A   1      41.547  27.203  27.571  1.00  0.00    -0.014 A 
BRANCH  33  34
ATOM     34  C   UNL A   1      41.093  27.906  28.779  1.00  0.00     0.031 A 
ATOM     35  C   UNL A   1      41.891  27.719  30.035  1.00  0.00     0.074 A 
ATOM     36  C   UNL A   1      40.068  28.766  28.717  1.00  0.00     0.049 A 
ATOM     37  N   UNL A   1      41.741  28.281  31.204  1.00  0.00    -0.248 NA
ATOM     38  C   UNL A   1      43.021  26.776  29.959  1.00  0.00     0.031 C 
ATOM     39  C   UNL A   1      39.277  29.049  27.522  1.00  0.00     0.029 A 
ATOM     40  N   UNL A   1      39.529  29.564  29.686  1.00  0.00    -0.354 N 
ATOM     41  C   UNL A   1      42.753  27.761  31.999  1.00  0.00     0.074 A 
ATOM     42  C   UNL A   1      43.489  26.812  31.195  1.00  0.00     0.031 C 
ATOM     43  C   UNL A   1      38.338  29.959  27.833  1.00  0.00     0.029 A 
ATOM     44  C   UNL A   1      38.456  30.294  29.251  1.00  0.00     0.049 A 
ATOM     45  H   UNL A   1      39.877  29.609  30.606  1.00  0.00     0.167 HD
ATOM     46  C   UNL A   1      43.046  28.061  33.285  1.00  0.00     0.037 A 
ATOM     47  C   UNL A   1      37.653  31.126  29.940  1.00  0.00     0.037 A 
ATOM     48  C   UNL A   1      42.296  29.001  34.071  1.00  0.00     0.049 A 
ATOM     49  C   UNL A   1      37.948  31.386  31.392  1.00  0.00     0.074 A 
ATOM     50  C   UNL A   1      42.503  29.392  35.380  1.00  0.00     0.029 A 
ATOM     51  N   UNL A   1      41.178  29.687  33.616  1.00  0.00    -0.354 N 
ATOM     52  N   UNL A   1      38.921  30.916  32.137  1.00  0.00    -0.248 NA
ATOM     53  C   UNL A   1      37.040  32.297  32.098  1.00  0.00     0.031 C 
ATOM     54  C   UNL A   1      41.474  30.270  35.736  1.00  0.00     0.029 A 
ATOM     55  C   UNL A   1      40.661  30.474  34.631  1.00  0.00     0.049 A 
ATOM     56  H   UNL A   1      40.807  29.625  32.706  1.00  0.00     0.167 HD
ATOM     57  C   UNL A   1      38.758  31.489  33.391  1.00  0.00     0.074 A 
ATOM     58  C   UNL A   1      37.595  32.351  33.301  1.00  0.00     0.031 C 
ATOM     59  C   UNL A   1      39.501  31.323  34.513  1.00  0.00     0.037 A 
BRANCH  46  60
ATOM     60  C   UNL A   1      44.187  27.322  33.916  1.00  0.00     0.064 A 
ATOM     61  C   UNL A   1      45.505  27.805  33.866  1.00  0.00     0.173 A 
ATOM     62  C   UNL A   1      43.961  26.097  34.560  1.00  0.00     0.173 A 
ATOM     63  F   UNL A   1      45.778  28.959  33.239  1.00  0.00    -0.203 F 
ATOM     64  C   UNL A   1      46.557  27.069  34.404  1.00  0.00     0.198 A 
ATOM     65  C   UNL A   1      45.012  25.380  35.126  1.00  0.00     0.198 A 
ATOM     66  F   UNL A   1      42.722  25.588  34.632  1.00  0.00    -0.203 F 
ATOM     67  F   UNL A   1      47.815  27.517  34.285  1.00  0.00    -0.200 F 
ATOM     68  C   UNL A   1      46.310  25.860  35.036  1.00  0.00     0.200 A 
ATOM     69  F   UNL A   1      44.770  24.215  35.742  1.00  0.00    -0.200 F 
ATOM     70  F   UNL A   1      47.325  25.150  35.549  1.00  0.00    -0.200 F 
ENDBRANCH  46  60
BRANCH  47  71
ATOM     71  C   UNL A   1      36.497  31.753  29.253  1.00  0.00     0.064 A 
ATOM     72  C   UNL A   1      35.388  30.996  28.858  1.00  0.00     0.173 A 
ATOM     73  C   UNL A   1      36.472  33.133  29.002  1.00  0.00     0.173 A 
ATOM     74  F   UNL A   1      35.374  29.671  29.062  1.00  0.00    -0.203 F 
ATOM     75  C   UNL A   1      34.299  31.595  28.228  1.00  0.00     0.198 A 
ATOM     76  C   UNL A   1      35.372  33.734  28.396  1.00  0.00     0.198 A 
ATOM     77  F   UNL A   1      37.509  33.901  29.367  1.00  0.00    -0.203 F 
ATOM     78  F   UNL A   1      33.263  30.844  27.830  1.00  0.00    -0.200 F 
ATOM     79  C   UNL A   1      34.289  32.964  28.004  1.00  0.00     0.200 A 
ATOM     80  F   UNL A   1      35.361  35.059  28.197  1.00  0.00    -0.200 F 
ATOM     81  F   UNL A   1      33.236  33.540  27.407  1.00  0.00    -0.200 F 
ENDBRANCH  47  71
BRANCH  59  82
ATOM     82  C   UNL A   1      39.100  32.108  35.727  1.00  0.00     0.064 A 
ATOM     83  C   UNL A   1      39.526  33.431  35.922  1.00  0.00     0.173 A 
ATOM     84  C   UNL A   1      38.227  31.551  36.674  1.00  0.00     0.173 A 
ATOM     85  F   UNL A   1      40.371  34.004  35.053  1.00  0.00    -0.203 F 
ATOM     86  C   UNL A   1      39.105  34.159  37.032  1.00  0.00     0.198 A 
ATOM     87  C   UNL A   1      37.783  32.293  37.764  1.00  0.00     0.198 A 
ATOM     88  F   UNL A   1      37.784  30.294  36.527  1.00  0.00    -0.203 F 
ATOM     89  F   UNL A   1      39.556  35.407  37.221  1.00  0.00    -0.200 F 
ATOM     90  C   UNL A   1      38.227  33.595  37.945  1.00  0.00     0.200 A 
ATOM     91  F   UNL A   1      36.921  31.752  38.636  1.00  0.00    -0.200 F 
ATOM     92  F   UNL A   1      37.812  34.303  39.004  1.00  0.00    -0.200 F 
ENDBRANCH  59  82
ENDBRANCH  33  34
ENDBRANCH  26  28
ENDBRANCH  25  26
ENDBRANCH  24  25
ENDBRANCH   1  24
TORSDOF 15
ENDMDL
