MODEL 1
REMARK VINA RESULT:     -10.0      0.000      0.000
REMARK SMILES CC1=C(C#N)c2nc(N)c(C#N)c(C)c2/C1=C\c1ccc(OCC(=O)OCCOCCOC(=O)c2ccc(-c3c4nc(c(-c5c(F)c(F)c(F)c(F)c5F)c5ccc([nH]5)c(-c5c(F)c(F)c(F)c(F)c5F)c5nc(c(-c6c(F)c(F)c(F)c(F)c6F)c6ccc3[nH]6)C=C5)C=C4)cc2)c(Cl)c1
REMARK SMILES IDX 28 1 27 2 26 3 24 4 25 5 23 6 22 7 21 8 18 9 19 10 100 11
REMARK SMILES IDX 20 12 98 13 99 14 17 15 1 16 2 17 3 18 16 19 6 20 15 21 7 22
REMARK SMILES IDX 13 23 8 24 10 25 14 26 4 27 5 28 9 29 11 32 12 33 29 34
REMARK SMILES IDX 30 35 31 36 32 37 33 38 34 39 35 40 36 41 97 42 37 43 96 44
REMARK SMILES IDX 38 45 39 46 40 47 90 48 41 49 95 50 89 51 91 52 42 53 94 54
REMARK SMILES IDX 88 55 87 56 43 58 75 59 55 60 74 61 56 62 59 63 73 64 92 65
REMARK SMILES IDX 57 66 58 67 72 69 93 70 60 71 44 72 45 73 53 74 46 75 47 76
REMARK SMILES IDX 51 77 54 78 48 79 49 80 52 81 50 82 76 83 77 84 85 85 78 86
REMARK SMILES IDX 79 87 83 88 86 89 80 90 81 91 84 92 82 93 61 94 62 95 70 96
REMARK SMILES IDX 63 97 64 98 68 99 71 100 65 101 66 102 69 103 67 104
REMARK H PARENT 9 30 9 31 91 57 59 68
REMARK Flexibility Score: inf
ROOT
ATOM      1  C   UNL A   1      33.474  35.142  31.185  1.00  0.00     0.202 C 
ENDROOT
BRANCH   1   2
ATOM      2  C   UNL A   1      34.579  34.075  31.368  1.00  0.00     0.261 C 
BRANCH   2   3
ATOM      3  O   UNL A   1      34.777  33.563  32.726  1.00  0.00    -0.461 OA
BRANCH   3   4
ATOM      4  C   UNL A   1      35.414  34.362  33.639  1.00  0.00     0.344 C 
ATOM      5  O   UNL A   1      34.809  35.027  34.474  1.00  0.00    -0.248 OA
BRANCH   4   6
ATOM      6  C   UNL A   1      37.012  34.328  33.581  1.00  0.00     0.352 C 
BRANCH   6   7
ATOM      7  O   UNL A   1      37.951  35.149  32.883  1.00  0.00    -0.480 OA
BRANCH   7   8
ATOM      8  C   UNL A   1      39.127  34.819  32.247  1.00  0.00     0.138 A 
ATOM      9  C   UNL A   1      41.107  33.369  30.688  1.00  0.00    -0.023 A 
ATOM     10  C   UNL A   1      39.880  33.747  30.133  1.00  0.00     0.012 A 
ATOM     11  C   UNL A   1      41.402  33.912  31.950  1.00  0.00     0.032 A 
ATOM     12  C   UNL A   1      38.920  34.466  30.893  1.00  0.00     0.048 A 
ATOM     13  C   UNL A   1      40.429  34.626  32.726  1.00  0.00     0.083 A 
ATOM     14  Cl  UNL A   1      40.952  35.165  34.277  1.00  0.00    -0.080 Cl
BRANCH   9  15
ATOM     15  C   UNL A   1      42.045  32.474  29.936  1.00  0.00     0.017 C 
ATOM     16  C   UNL A   1      43.737  30.062  28.827  1.00  0.00     0.046 C 
ATOM     17  C   UNL A   1      43.824  31.507  28.466  1.00  0.00    -0.023 C 
ATOM     18  C   UNL A   1      44.690  32.005  27.562  1.00  0.00     0.082 C 
ATOM     19  C   UNL A   1      43.003  32.645  28.978  1.00  0.00    -0.011 C 
ATOM     20  C   UNL A   1      44.589  33.412  27.427  1.00  0.00     0.092 A 
ATOM     21  C   UNL A   1      43.550  33.825  28.209  1.00  0.00     0.014 A 
ATOM     22  N   UNL A   1      45.368  34.107  26.558  1.00  0.00    -0.228 NA
ATOM     23  C   UNL A   1      43.262  35.137  27.980  1.00  0.00    -0.019 A 
ATOM     24  C   UNL A   1      45.120  35.411  26.456  1.00  0.00     0.142 A 
ATOM     25  C   UNL A   1      44.068  35.974  27.158  1.00  0.00     0.098 A 
ATOM     26  C   UNL A   1      42.024  35.611  28.553  1.00  0.00     0.046 C 
BRANCH  18  27
ATOM     27  C   UNL A   1      45.639  31.276  26.627  1.00  0.00     0.102 C 
ATOM     28  N   UNL A   1      46.427  30.670  25.850  1.00  0.00    -0.192 NA
ENDBRANCH  18  27
BRANCH  24  29
ATOM     29  N   UNL A   1      45.887  36.104  25.547  1.00  0.00    -0.383 N 
ATOM     30  H   UNL A   1      45.489  36.416  24.703  1.00  0.00     0.158 HD
ATOM     31  H   UNL A   1      46.836  36.285  25.742  1.00  0.00     0.158 HD
ENDBRANCH  24  29
BRANCH  25  32
ATOM     32  C   UNL A   1      43.843  37.386  27.067  1.00  0.00     0.103 C 
ATOM     33  N   UNL A   1      43.708  38.534  26.935  1.00  0.00    -0.192 NA
ENDBRANCH  25  32
ENDBRANCH   9  15
ENDBRANCH   7   8
ENDBRANCH   6   7
ENDBRANCH   4   6
ENDBRANCH   3   4
ENDBRANCH   2   3
ENDBRANCH   1   2
BRANCH   1  34
ATOM     34  O   UNL A   1      32.712  35.062  29.998  1.00  0.00    -0.374 OA
BRANCH  34  35
ATOM     35  C   UNL A   1      33.429  34.830  28.804  1.00  0.00     0.202 C 
BRANCH  35  36
ATOM     36  C   UNL A   1      33.160  33.517  28.018  1.00  0.00     0.261 C 
BRANCH  36  37
ATOM     37  O   UNL A   1      34.310  32.873  27.488  1.00  0.00    -0.460 OA
BRANCH  37  38
ATOM     38  C   UNL A   1      34.244  31.533  27.433  1.00  0.00     0.338 C 
ATOM     39  O   UNL A   1      33.316  30.827  27.079  1.00  0.00    -0.246 OA
BRANCH  38  40
ATOM     40  C   UNL A   1      35.441  30.995  28.061  1.00  0.00     0.060 A 
ATOM     41  C   UNL A   1      35.502  29.689  28.555  1.00  0.00     0.016 A 
ATOM     42  C   UNL A   1      36.522  31.875  28.143  1.00  0.00     0.016 A 
ATOM     43  C   UNL A   1      36.650  29.280  29.213  1.00  0.00     0.010 A 
ATOM     44  C   UNL A   1      37.678  31.454  28.759  1.00  0.00     0.010 A 
ATOM     45  C   UNL A   1      37.725  30.170  29.318  1.00  0.00    -0.014 A 
BRANCH  45  46
ATOM     46  C   UNL A   1      38.962  29.793  30.003  1.00  0.00     0.031 A 
ATOM     47  C   UNL A   1      39.873  28.812  29.347  1.00  0.00     0.074 A 
ATOM     48  C   UNL A   1      39.133  30.251  31.250  1.00  0.00     0.049 A 
ATOM     49  N   UNL A   1      40.896  28.181  29.850  1.00  0.00    -0.248 NA
ATOM     50  C   UNL A   1      39.577  28.471  27.945  1.00  0.00     0.031 C 
ATOM     51  C   UNL A   1      38.245  31.204  31.923  1.00  0.00     0.029 A 
ATOM     52  N   UNL A   1      40.081  29.954  32.182  1.00  0.00    -0.354 N 
ATOM     53  C   UNL A   1      41.369  27.369  28.829  1.00  0.00     0.074 A 
ATOM     54  C   UNL A   1      40.495  27.549  27.692  1.00  0.00     0.031 C 
ATOM     55  C   UNL A   1      38.694  31.414  33.167  1.00  0.00     0.029 A 
ATOM     56  C   UNL A   1      39.862  30.569  33.387  1.00  0.00     0.049 A 
ATOM     57  H   UNL A   1      40.846  29.359  32.008  1.00  0.00     0.167 HD
ATOM     58  C   UNL A   1      42.452  26.561  28.861  1.00  0.00     0.037 A 
ATOM     59  C   UNL A   1      40.527  30.431  34.544  1.00  0.00     0.037 A 
ATOM     60  C   UNL A   1      43.269  26.403  30.035  1.00  0.00     0.049 A 
ATOM     61  C   UNL A   1      41.691  29.485  34.565  1.00  0.00     0.074 A 
ATOM     62  C   UNL A   1      44.391  25.618  30.212  1.00  0.00     0.029 A 
ATOM     63  N   UNL A   1      43.036  27.051  31.245  1.00  0.00    -0.354 N 
ATOM     64  N   UNL A   1      42.155  28.728  33.597  1.00  0.00    -0.248 NA
ATOM     65  C   UNL A   1      42.425  29.375  35.827  1.00  0.00     0.031 C 
ATOM     66  C   UNL A   1      44.808  25.755  31.540  1.00  0.00     0.029 A 
ATOM     67  C   UNL A   1      43.987  26.674  32.176  1.00  0.00     0.049 A 
ATOM     68  H   UNL A   1      42.302  27.686  31.412  1.00  0.00     0.167 HD
ATOM     69  C   UNL A   1      43.256  28.071  34.120  1.00  0.00     0.074 A 
ATOM     70  C   UNL A   1      43.395  28.537  35.489  1.00  0.00     0.031 C 
ATOM     71  C   UNL A   1      44.080  27.167  33.532  1.00  0.00     0.037 A 
BRANCH  58  72
ATOM     72  C   UNL A   1      42.801  25.804  27.612  1.00  0.00     0.064 A 
ATOM     73  C   UNL A   1      43.787  26.266  26.724  1.00  0.00     0.173 A 
ATOM     74  C   UNL A   1      42.178  24.583  27.313  1.00  0.00     0.173 A 
ATOM     75  F   UNL A   1      44.400  27.438  26.948  1.00  0.00    -0.203 F 
ATOM     76  C   UNL A   1      44.124  25.544  25.582  1.00  0.00     0.198 A 
ATOM     77  C   UNL A   1      42.540  23.847  26.186  1.00  0.00     0.198 A 
ATOM     78  F   UNL A   1      41.223  24.095  28.119  1.00  0.00    -0.203 F 
ATOM     79  F   UNL A   1      45.039  26.028  24.731  1.00  0.00    -0.200 F 
ATOM     80  C   UNL A   1      43.509  24.330  25.320  1.00  0.00     0.200 A 
ATOM     81  F   UNL A   1      41.949  22.669  25.939  1.00  0.00    -0.200 F 
ATOM     82  F   UNL A   1      43.845  23.627  24.230  1.00  0.00    -0.200 F 
ENDBRANCH  58  72
BRANCH  59  83
ATOM     83  C   UNL A   1      40.130  31.247  35.717  1.00  0.00     0.064 A 
ATOM     84  C   UNL A   1      40.939  32.306  36.146  1.00  0.00     0.173 A 
ATOM     85  C   UNL A   1      38.907  31.051  36.376  1.00  0.00     0.173 A 
ATOM     86  F   UNL A   1      42.117  32.532  35.546  1.00  0.00    -0.203 F 
ATOM     87  C   UNL A   1      40.546  33.134  37.195  1.00  0.00     0.198 A 
ATOM     88  C   UNL A   1      38.500  31.897  37.405  1.00  0.00     0.198 A 
ATOM     89  F   UNL A   1      38.083  30.066  35.987  1.00  0.00    -0.203 F 
ATOM     90  F   UNL A   1      41.350  34.127  37.597  1.00  0.00    -0.200 F 
ATOM     91  C   UNL A   1      39.322  32.935  37.817  1.00  0.00     0.200 A 
ATOM     92  F   UNL A   1      37.305  31.720  37.984  1.00  0.00    -0.200 F 
ATOM     93  F   UNL A   1      38.934  33.746  38.810  1.00  0.00    -0.200 F 
ENDBRANCH  59  83
BRANCH  71  94
ATOM     94  C   UNL A   1      45.215  26.656  34.367  1.00  0.00     0.064 A 
ATOM     95  C   UNL A   1      45.090  25.500  35.149  1.00  0.00     0.173 A 
ATOM     96  C   UNL A   1      46.454  27.314  34.351  1.00  0.00     0.173 A 
ATOM     97  F   UNL A   1      43.920  24.846  35.207  1.00  0.00    -0.203 F 
ATOM     98  C   UNL A   1      46.156  25.040  35.916  1.00  0.00     0.198 A 
ATOM     99  C   UNL A   1      47.529  26.829  35.087  1.00  0.00     0.198 A 
ATOM    100  F   UNL A   1      46.625  28.419  33.609  1.00  0.00    -0.203 F 
ATOM    101  F   UNL A   1      45.996  23.970  36.706  1.00  0.00    -0.200 F 
ATOM    102  C   UNL A   1      47.376  25.699  35.876  1.00  0.00     0.200 A 
ATOM    103  F   UNL A   1      48.712  27.454  35.031  1.00  0.00    -0.200 F 
ATOM    104  F   UNL A   1      48.404  25.249  36.607  1.00  0.00    -0.200 F 
ENDBRANCH  71  94
ENDBRANCH  45  46
ENDBRANCH  38  40
ENDBRANCH  37  38
ENDBRANCH  36  37
ENDBRANCH  35  36
ENDBRANCH  34  35
ENDBRANCH   1  34
TORSDOF 20
ENDMDL
MODEL 2
REMARK VINA RESULT:      -9.2      0.974      7.003
REMARK SMILES CC1=C(C#N)c2nc(N)c(C#N)c(C)c2/C1=C\c1ccc(OCC(=O)OCCOCCOC(=O)c2ccc(-c3c4nc(c(-c5c(F)c(F)c(F)c(F)c5F)c5ccc([nH]5)c(-c5c(F)c(F)c(F)c(F)c5F)c5nc(c(-c6c(F)c(F)c(F)c(F)c6F)c6ccc3[nH]6)C=C5)C=C4)cc2)c(Cl)c1
REMARK SMILES IDX 28 1 27 2 26 3 24 4 25 5 23 6 22 7 21 8 18 9 19 10 100 11
REMARK SMILES IDX 20 12 98 13 99 14 17 15 1 16 2 17 3 18 16 19 6 20 15 21 7 22
REMARK SMILES IDX 13 23 8 24 10 25 14 26 4 27 5 28 9 29 11 32 12 33 29 34
REMARK SMILES IDX 30 35 31 36 32 37 33 38 34 39 35 40 36 41 97 42 37 43 96 44
REMARK SMILES IDX 38 45 39 46 40 47 90 48 41 49 95 50 89 51 91 52 42 53 94 54
REMARK SMILES IDX 88 55 87 56 43 58 75 59 55 60 74 61 56 62 59 63 73 64 92 65
REMARK SMILES IDX 57 66 58 67 72 69 93 70 60 71 44 72 45 73 53 74 46 75 47 76
REMARK SMILES IDX 51 77 54 78 48 79 49 80 52 81 50 82 76 83 77 84 85 85 78 86
REMARK SMILES IDX 79 87 83 88 86 89 80 90 81 91 84 92 82 93 61 94 62 95 70 96
REMARK SMILES IDX 63 97 64 98 68 99 71 100 65 101 66 102 69 103 67 104
REMARK H PARENT 9 30 9 31 91 57 59 68
REMARK Flexibility Score: inf
ROOT
ATOM      1  C   UNL A   1      33.715  34.844  31.662  1.00  0.00     0.202 C 
ENDROOT
BRANCH   1   2
ATOM      2  C   UNL A   1      34.407  33.500  31.986  1.00  0.00     0.261 C 
BRANCH   2   3
ATOM      3  O   UNL A   1      34.730  33.250  33.392  1.00  0.00    -0.461 OA
BRANCH   3   4
ATOM      4  C   UNL A   1      35.546  34.139  34.042  1.00  0.00     0.344 C 
ATOM      5  O   UNL A   1      35.141  34.888  34.926  1.00  0.00    -0.248 OA
BRANCH   4   6
ATOM      6  C   UNL A   1      37.085  34.097  33.610  1.00  0.00     0.352 C 
BRANCH   6   7
ATOM      7  O   UNL A   1      37.824  34.871  32.661  1.00  0.00    -0.480 OA
BRANCH   7   8
ATOM      8  C   UNL A   1      38.982  34.578  31.978  1.00  0.00     0.138 A 
ATOM      9  C   UNL A   1      40.982  33.153  30.422  1.00  0.00    -0.023 A 
ATOM     10  C   UNL A   1      39.695  33.375  29.922  1.00  0.00     0.012 A 
ATOM     11  C   UNL A   1      41.306  33.836  31.607  1.00  0.00     0.032 A 
ATOM     12  C   UNL A   1      38.725  34.082  30.679  1.00  0.00     0.048 A 
ATOM     13  C   UNL A   1      40.323  34.539  32.381  1.00  0.00     0.083 A 
ATOM     14  Cl  UNL A   1      40.891  35.264  33.837  1.00  0.00    -0.080 Cl
BRANCH   9  15
ATOM     15  C   UNL A   1      41.947  32.269  29.691  1.00  0.00     0.017 C 
ATOM     16  C   UNL A   1      43.676  29.874  28.601  1.00  0.00     0.046 C 
ATOM     17  C   UNL A   1      43.783  31.326  28.275  1.00  0.00    -0.023 C 
ATOM     18  C   UNL A   1      44.687  31.840  27.419  1.00  0.00     0.082 C 
ATOM     19  C   UNL A   1      42.945  32.457  28.776  1.00  0.00    -0.011 C 
ATOM     20  C   UNL A   1      44.598  33.249  27.309  1.00  0.00     0.092 A 
ATOM     21  C   UNL A   1      43.528  33.651  28.057  1.00  0.00     0.014 A 
ATOM     22  N   UNL A   1      45.414  33.959  26.489  1.00  0.00    -0.228 NA
ATOM     23  C   UNL A   1      43.255  34.969  27.845  1.00  0.00    -0.019 A 
ATOM     24  C   UNL A   1      45.175  35.266  26.405  1.00  0.00     0.142 A 
ATOM     25  C   UNL A   1      44.097  35.819  27.074  1.00  0.00     0.098 A 
ATOM     26  C   UNL A   1      41.996  35.436  28.375  1.00  0.00     0.046 C 
BRANCH  18  27
ATOM     27  C   UNL A   1      45.671  31.126  26.508  1.00  0.00     0.102 C 
ATOM     28  N   UNL A   1      46.489  30.534  25.752  1.00  0.00    -0.192 NA
ENDBRANCH  18  27
BRANCH  24  29
ATOM     29  N   UNL A   1      45.983  35.974  25.544  1.00  0.00    -0.383 N 
ATOM     30  H   UNL A   1      45.768  36.910  25.325  1.00  0.00     0.158 HD
ATOM     31  H   UNL A   1      46.774  35.544  25.145  1.00  0.00     0.158 HD
ENDBRANCH  24  29
BRANCH  25  32
ATOM     32  C   UNL A   1      43.882  37.233  27.005  1.00  0.00     0.103 C 
ATOM     33  N   UNL A   1      43.737  38.382  26.879  1.00  0.00    -0.192 NA
ENDBRANCH  25  32
ENDBRANCH   9  15
ENDBRANCH   7   8
ENDBRANCH   6   7
ENDBRANCH   4   6
ENDBRANCH   3   4
ENDBRANCH   2   3
ENDBRANCH   1   2
BRANCH   1  34
ATOM     34  O   UNL A   1      33.375  35.068  30.308  1.00  0.00    -0.374 OA
BRANCH  34  35
ATOM     35  C   UNL A   1      34.346  34.708  29.349  1.00  0.00     0.202 C 
BRANCH  35  36
ATOM     36  C   UNL A   1      33.934  33.748  28.197  1.00  0.00     0.261 C 
BRANCH  36  37
ATOM     37  O   UNL A   1      34.973  32.929  27.681  1.00  0.00    -0.460 OA
BRANCH  37  38
ATOM     38  C   UNL A   1      34.698  31.616  27.629  1.00  0.00     0.338 C 
ATOM     39  O   UNL A   1      33.683  31.062  27.245  1.00  0.00    -0.246 OA
BRANCH  38  40
ATOM     40  C   UNL A   1      35.772  30.902  28.302  1.00  0.00     0.060 A 
ATOM     41  C   UNL A   1      35.526  29.888  29.232  1.00  0.00     0.016 A 
ATOM     42  C   UNL A   1      37.065  31.303  27.961  1.00  0.00     0.016 A 
ATOM     43  C   UNL A   1      36.600  29.314  29.890  1.00  0.00     0.010 A 
ATOM     44  C   UNL A   1      38.135  30.703  28.583  1.00  0.00     0.010 A 
ATOM     45  C   UNL A   1      37.897  29.734  29.567  1.00  0.00    -0.014 A 
BRANCH  45  46
ATOM     46  C   UNL A   1      39.069  29.164  30.231  1.00  0.00     0.031 A 
ATOM     47  C   UNL A   1      39.546  29.786  31.499  1.00  0.00     0.074 A 
ATOM     48  C   UNL A   1      39.730  28.197  29.580  1.00  0.00     0.049 A 
ATOM     49  N   UNL A   1      40.666  29.590  32.137  1.00  0.00    -0.248 NA
ATOM     50  C   UNL A   1      38.659  30.785  32.119  1.00  0.00     0.031 C 
ATOM     51  C   UNL A   1      39.291  27.579  28.326  1.00  0.00     0.029 A 
ATOM     52  N   UNL A   1      40.919  27.592  29.858  1.00  0.00    -0.354 N 
ATOM     53  C   UNL A   1      40.619  30.439  33.234  1.00  0.00     0.074 A 
ATOM     54  C   UNL A   1      39.385  31.187  33.152  1.00  0.00     0.031 C 
ATOM     55  C   UNL A   1      40.204  26.678  27.941  1.00  0.00     0.029 A 
ATOM     56  C   UNL A   1      41.308  26.702  28.893  1.00  0.00     0.049 A 
ATOM     57  H   UNL A   1      41.445  27.777  30.670  1.00  0.00     0.167 HD
ATOM     58  C   UNL A   1      41.537  30.553  34.220  1.00  0.00     0.037 A 
ATOM     59  C   UNL A   1      42.453  26.009  28.789  1.00  0.00     0.037 A 
ATOM     60  C   UNL A   1      42.763  29.799  34.231  1.00  0.00     0.049 A 
ATOM     61  C   UNL A   1      43.477  26.199  29.867  1.00  0.00     0.074 A 
ATOM     62  C   UNL A   1      43.784  29.816  35.161  1.00  0.00     0.029 A 
ATOM     63  N   UNL A   1      43.130  28.886  33.245  1.00  0.00    -0.354 N 
ATOM     64  N   UNL A   1      43.432  26.986  30.918  1.00  0.00    -0.248 NA
ATOM     65  C   UNL A   1      44.704  25.408  29.754  1.00  0.00     0.031 C 
ATOM     66  C   UNL A   1      44.788  28.951  34.714  1.00  0.00     0.029 A 
ATOM     67  C   UNL A   1      44.368  28.343  33.539  1.00  0.00     0.049 A 
ATOM     68  H   UNL A   1      42.588  28.660  32.456  1.00  0.00     0.167 HD
ATOM     69  C   UNL A   1      44.610  26.766  31.612  1.00  0.00     0.074 A 
ATOM     70  C   UNL A   1      45.339  25.755  30.864  1.00  0.00     0.031 C 
ATOM     71  C   UNL A   1      45.054  27.339  32.758  1.00  0.00     0.037 A 
BRANCH  58  72
ATOM     72  C   UNL A   1      41.251  31.514  35.338  1.00  0.00     0.064 A 
ATOM     73  C   UNL A   1      42.019  32.675  35.523  1.00  0.00     0.173 A 
ATOM     74  C   UNL A   1      40.175  31.300  36.212  1.00  0.00     0.173 A 
ATOM     75  F   UNL A   1      43.073  32.920  34.730  1.00  0.00    -0.203 F 
ATOM     76  C   UNL A   1      41.730  33.575  36.545  1.00  0.00     0.198 A 
ATOM     77  C   UNL A   1      39.869  32.218  37.215  1.00  0.00     0.198 A 
ATOM     78  F   UNL A   1      39.411  30.204  36.090  1.00  0.00    -0.203 F 
ATOM     79  F   UNL A   1      42.504  34.655  36.724  1.00  0.00    -0.200 F 
ATOM     80  C   UNL A   1      40.648  33.352  37.383  1.00  0.00     0.200 A 
ATOM     81  F   UNL A   1      38.817  32.005  38.019  1.00  0.00    -0.200 F 
ATOM     82  F   UNL A   1      40.360  34.227  38.357  1.00  0.00    -0.200 F 
ENDBRANCH  58  72
BRANCH  59  83
ATOM     83  C   UNL A   1      42.631  25.058  27.665  1.00  0.00     0.064 A 
ATOM     84  C   UNL A   1      43.389  25.424  26.545  1.00  0.00     0.173 A 
ATOM     85  C   UNL A   1      42.133  23.748  27.717  1.00  0.00     0.173 A 
ATOM     86  F   UNL A   1      43.886  26.666  26.452  1.00  0.00    -0.203 F 
ATOM     87  C   UNL A   1      43.635  24.519  25.516  1.00  0.00     0.198 A 
ATOM     88  C   UNL A   1      42.404  22.834  26.701  1.00  0.00     0.198 A 
ATOM     89  F   UNL A   1      41.422  23.339  28.779  1.00  0.00    -0.203 F 
ATOM     90  F   UNL A   1      44.346  24.902  24.447  1.00  0.00    -0.200 F 
ATOM     91  C   UNL A   1      43.151  23.221  25.599  1.00  0.00     0.200 A 
ATOM     92  F   UNL A   1      41.959  21.574  26.799  1.00  0.00    -0.200 F 
ATOM     93  F   UNL A   1      43.408  22.344  24.619  1.00  0.00    -0.200 F 
ENDBRANCH  59  83
BRANCH  71  94
ATOM     94  C   UNL A   1      46.375  26.857  33.278  1.00  0.00     0.064 A 
ATOM     95  C   UNL A   1      47.578  27.484  32.923  1.00  0.00     0.173 A 
ATOM     96  C   UNL A   1      46.430  25.776  34.171  1.00  0.00     0.173 A 
ATOM     97  F   UNL A   1      47.577  28.511  32.061  1.00  0.00    -0.203 F 
ATOM     98  C   UNL A   1      48.794  27.022  33.417  1.00  0.00     0.198 A 
ATOM     99  C   UNL A   1      47.643  25.344  34.694  1.00  0.00     0.198 A 
ATOM    100  F   UNL A   1      45.304  25.151  34.548  1.00  0.00    -0.203 F 
ATOM    101  F   UNL A   1      49.937  27.595  33.017  1.00  0.00    -0.200 F 
ATOM    102  C   UNL A   1      48.824  25.960  34.309  1.00  0.00     0.200 A 
ATOM    103  F   UNL A   1      47.668  24.332  35.571  1.00  0.00    -0.200 F 
ATOM    104  F   UNL A   1      49.995  25.524  34.791  1.00  0.00    -0.200 F 
ENDBRANCH  71  94
ENDBRANCH  45  46
ENDBRANCH  38  40
ENDBRANCH  37  38
ENDBRANCH  36  37
ENDBRANCH  35  36
ENDBRANCH  34  35
ENDBRANCH   1  34
TORSDOF 20
ENDMDL
MODEL 3
REMARK VINA RESULT:      -8.7      3.145      8.739
REMARK SMILES CC1=C(C#N)c2nc(N)c(C#N)c(C)c2/C1=C\c1ccc(OCC(=O)OCCOCCOC(=O)c2ccc(-c3c4nc(c(-c5c(F)c(F)c(F)c(F)c5F)c5ccc([nH]5)c(-c5c(F)c(F)c(F)c(F)c5F)c5nc(c(-c6c(F)c(F)c(F)c(F)c6F)c6ccc3[nH]6)C=C5)C=C4)cc2)c(Cl)c1
REMARK SMILES IDX 28 1 27 2 26 3 24 4 25 5 23 6 22 7 21 8 18 9 19 10 100 11
REMARK SMILES IDX 20 12 98 13 99 14 17 15 1 16 2 17 3 18 16 19 6 20 15 21 7 22
REMARK SMILES IDX 13 23 8 24 10 25 14 26 4 27 5 28 9 29 11 32 12 33 29 34
REMARK SMILES IDX 30 35 31 36 32 37 33 38 34 39 35 40 36 41 97 42 37 43 96 44
REMARK SMILES IDX 38 45 39 46 40 47 90 48 41 49 95 50 89 51 91 52 42 53 94 54
REMARK SMILES IDX 88 55 87 56 43 58 75 59 55 60 74 61 56 62 59 63 73 64 92 65
REMARK SMILES IDX 57 66 58 67 72 69 93 70 60 71 44 72 45 73 53 74 46 75 47 76
REMARK SMILES IDX 51 77 54 78 48 79 49 80 52 81 50 82 76 83 77 84 85 85 78 86
REMARK SMILES IDX 79 87 83 88 86 89 80 90 81 91 84 92 82 93 61 94 62 95 70 96
REMARK SMILES IDX 63 97 64 98 68 99 71 100 65 101 66 102 69 103 67 104
REMARK H PARENT 9 30 9 31 91 57 59 68
REMARK Flexibility Score: inf
ROOT
ATOM      1  C   UNL A   1      35.505  34.159  31.763  1.00  0.00     0.202 C 
ENDROOT
BRANCH   1   2
ATOM      2  C   UNL A   1      35.145  33.218  32.935  1.00  0.00     0.261 C 
BRANCH   2   3
ATOM      3  O   UNL A   1      36.260  32.734  33.753  1.00  0.00    -0.461 OA
BRANCH   3   4
ATOM      4  C   UNL A   1      37.012  31.691  33.280  1.00  0.00     0.344 C 
ATOM      5  O   UNL A   1      36.530  30.763  32.638  1.00  0.00    -0.248 OA
BRANCH   4   6
ATOM      6  C   UNL A   1      38.581  31.791  33.571  1.00  0.00     0.352 C 
BRANCH   6   7
ATOM      7  O   UNL A   1      39.373  31.316  34.663  1.00  0.00    -0.480 OA
BRANCH   7   8
ATOM      8  C   UNL A   1      40.378  30.375  34.695  1.00  0.00     0.138 A 
ATOM      9  C   UNL A   1      41.766  27.821  34.676  1.00  0.00    -0.023 A 
ATOM     10  C   UNL A   1      40.968  28.222  33.600  1.00  0.00     0.012 A 
ATOM     11  C   UNL A   1      42.022  28.802  35.649  1.00  0.00     0.032 A 
ATOM     12  C   UNL A   1      40.302  29.476  33.607  1.00  0.00     0.048 A 
ATOM     13  C   UNL A   1      41.338  30.064  35.666  1.00  0.00     0.083 A 
ATOM     14  Cl  UNL A   1      41.736  31.116  36.971  1.00  0.00    -0.080 Cl
BRANCH   9  15
ATOM     15  C   UNL A   1      42.333  26.435  34.734  1.00  0.00     0.017 C 
ATOM     16  C   UNL A   1      42.791  23.323  34.883  1.00  0.00     0.046 C 
ATOM     17  C   UNL A   1      43.803  24.419  34.927  1.00  0.00    -0.023 C 
ATOM     18  C   UNL A   1      45.129  24.213  35.041  1.00  0.00     0.082 C 
ATOM     19  C   UNL A   1      43.584  25.894  34.832  1.00  0.00    -0.011 C 
ATOM     20  C   UNL A   1      45.868  25.420  35.090  1.00  0.00     0.092 A 
ATOM     21  C   UNL A   1      44.988  26.447  34.904  1.00  0.00     0.014 A 
ATOM     22  N   UNL A   1      47.222  25.430  35.193  1.00  0.00    -0.228 NA
ATOM     23  C   UNL A   1      45.647  27.628  34.740  1.00  0.00    -0.019 A 
ATOM     24  C   UNL A   1      47.810  26.624  35.141  1.00  0.00     0.142 A 
ATOM     25  C   UNL A   1      47.053  27.760  34.915  1.00  0.00     0.098 A 
ATOM     26  C   UNL A   1      44.838  28.732  34.278  1.00  0.00     0.046 C 
BRANCH  18  27
ATOM     27  C   UNL A   1      45.913  22.911  35.012  1.00  0.00     0.102 C 
ATOM     28  N   UNL A   1      46.563  21.831  34.987  1.00  0.00    -0.192 NA
ENDBRANCH  18  27
BRANCH  24  29
ATOM     29  N   UNL A   1      49.185  26.624  35.209  1.00  0.00    -0.383 N 
ATOM     30  H   UNL A   1      49.637  26.358  36.042  1.00  0.00     0.158 HD
ATOM     31  H   UNL A   1      49.716  26.893  34.424  1.00  0.00     0.158 HD
ENDBRANCH  24  29
BRANCH  25  32
ATOM     32  C   UNL A   1      47.699  29.039  34.902  1.00  0.00     0.103 C 
ATOM     33  N   UNL A   1      48.289  30.042  34.882  1.00  0.00    -0.192 NA
ENDBRANCH  25  32
ENDBRANCH   9  15
ENDBRANCH   7   8
ENDBRANCH   6   7
ENDBRANCH   4   6
ENDBRANCH   3   4
ENDBRANCH   2   3
ENDBRANCH   1   2
BRANCH   1  34
ATOM     34  O   UNL A   1      35.783  33.542  30.522  1.00  0.00    -0.374 OA
BRANCH  34  35
ATOM     35  C   UNL A   1      34.705  33.440  29.615  1.00  0.00     0.202 C 
BRANCH  35  36
ATOM     36  C   UNL A   1      34.804  32.411  28.454  1.00  0.00     0.261 C 
BRANCH  36  37
ATOM     37  O   UNL A   1      34.439  31.079  28.782  1.00  0.00    -0.460 OA
BRANCH  37  38
ATOM     38  C   UNL A   1      34.857  30.139  27.918  1.00  0.00     0.338 C 
ATOM     39  O   UNL A   1      34.203  29.485  27.125  1.00  0.00    -0.246 OA
BRANCH  38  40
ATOM     40  C   UNL A   1      36.257  29.858  28.197  1.00  0.00     0.060 A 
ATOM     41  C   UNL A   1      37.264  30.071  27.251  1.00  0.00     0.016 A 
ATOM     42  C   UNL A   1      36.525  29.355  29.471  1.00  0.00     0.016 A 
ATOM     43  C   UNL A   1      38.560  29.701  27.565  1.00  0.00     0.010 A 
ATOM     44  C   UNL A   1      37.820  29.027  29.798  1.00  0.00     0.010 A 
ATOM     45  C   UNL A   1      38.826  29.172  28.834  1.00  0.00    -0.014 A 
BRANCH  45  46
ATOM     46  C   UNL A   1      40.176  28.762  29.221  1.00  0.00     0.031 A 
ATOM     47  C   UNL A   1      41.045  29.742  29.934  1.00  0.00     0.074 A 
ATOM     48  C   UNL A   1      40.601  27.569  28.784  1.00  0.00     0.049 A 
ATOM     49  N   UNL A   1      42.323  29.676  30.180  1.00  0.00    -0.248 NA
ATOM     50  C   UNL A   1      40.396  30.976  30.409  1.00  0.00     0.031 C 
ATOM     51  C   UNL A   1      39.772  26.594  28.068  1.00  0.00     0.029 A 
ATOM     52  N   UNL A   1      41.833  26.989  28.843  1.00  0.00    -0.354 N 
ATOM     53  C   UNL A   1      42.633  30.857  30.840  1.00  0.00     0.074 A 
ATOM     54  C   UNL A   1      41.424  31.644  30.914  1.00  0.00     0.031 C 
ATOM     55  C   UNL A   1      40.525  25.532  27.753  1.00  0.00     0.029 A 
ATOM     56  C   UNL A   1      41.890  25.783  28.196  1.00  0.00     0.049 A 
ATOM     57  H   UNL A   1      42.603  27.396  29.303  1.00  0.00     0.167 HD
ATOM     58  C   UNL A   1      43.834  31.222  31.342  1.00  0.00     0.037 A 
ATOM     59  C   UNL A   1      42.949  24.990  27.971  1.00  0.00     0.037 A 
ATOM     60  C   UNL A   1      45.012  30.405  31.212  1.00  0.00     0.049 A 
ATOM     61  C   UNL A   1      44.279  25.448  28.491  1.00  0.00     0.074 A 
ATOM     62  C   UNL A   1      46.293  30.650  31.667  1.00  0.00     0.029 A 
ATOM     63  N   UNL A   1      45.043  29.173  30.564  1.00  0.00    -0.354 N 
ATOM     64  N   UNL A   1      44.577  26.555  29.133  1.00  0.00    -0.248 NA
ATOM     65  C   UNL A   1      45.416  24.553  28.266  1.00  0.00     0.031 C 
ATOM     66  C   UNL A   1      47.107  29.590  31.254  1.00  0.00     0.029 A 
ATOM     67  C   UNL A   1      46.324  28.651  30.597  1.00  0.00     0.049 A 
ATOM     68  H   UNL A   1      44.267  28.737  30.144  1.00  0.00     0.167 HD
ATOM     69  C   UNL A   1      45.931  26.481  29.416  1.00  0.00     0.074 A 
ATOM     70  C   UNL A   1      46.387  25.206  28.888  1.00  0.00     0.031 C 
ATOM     71  C   UNL A   1      46.728  27.375  30.052  1.00  0.00     0.037 A 
BRANCH  58  72
ATOM     72  C   UNL A   1      43.924  32.538  32.061  1.00  0.00     0.064 A 
ATOM     73  C   UNL A   1      44.122  33.742  31.365  1.00  0.00     0.173 A 
ATOM     74  C   UNL A   1      43.771  32.609  33.453  1.00  0.00     0.173 A 
ATOM     75  F   UNL A   1      44.295  33.732  30.035  1.00  0.00    -0.203 F 
ATOM     76  C   UNL A   1      44.176  34.961  32.036  1.00  0.00     0.198 A 
ATOM     77  C   UNL A   1      43.795  33.833  34.119  1.00  0.00     0.198 A 
ATOM     78  F   UNL A   1      43.589  31.491  34.172  1.00  0.00    -0.203 F 
ATOM     79  F   UNL A   1      44.405  36.090  31.353  1.00  0.00    -0.200 F 
ATOM     80  C   UNL A   1      44.001  35.007  33.411  1.00  0.00     0.200 A 
ATOM     81  F   UNL A   1      43.617  33.876  35.447  1.00  0.00    -0.200 F 
ATOM     82  F   UNL A   1      44.037  36.182  34.054  1.00  0.00    -0.200 F 
ENDBRANCH  58  72
BRANCH  59  83
ATOM     83  C   UNL A   1      42.756  23.692  27.281  1.00  0.00     0.064 A 
ATOM     84  C   UNL A   1      43.141  23.541  25.943  1.00  0.00     0.173 A 
ATOM     85  C   UNL A   1      42.274  22.560  27.954  1.00  0.00     0.173 A 
ATOM     86  F   UNL A   1      43.609  24.595  25.259  1.00  0.00    -0.203 F 
ATOM     87  C   UNL A   1      43.042  22.309  25.300  1.00  0.00     0.198 A 
ATOM     88  C   UNL A   1      42.203  21.321  27.320  1.00  0.00     0.198 A 
ATOM     89  F   UNL A   1      41.916  22.645  29.245  1.00  0.00    -0.203 F 
ATOM     90  F   UNL A   1      43.398  22.199  24.013  1.00  0.00    -0.200 F 
ATOM     91  C   UNL A   1      42.582  21.198  25.992  1.00  0.00     0.200 A 
ATOM     92  F   UNL A   1      41.786  20.245  28.000  1.00  0.00    -0.200 F 
ATOM     93  F   UNL A   1      42.510  20.008  25.380  1.00  0.00    -0.200 F 
ENDBRANCH  59  83
BRANCH  71  94
ATOM     94  C   UNL A   1      48.163  26.981  30.232  1.00  0.00     0.064 A 
ATOM     95  C   UNL A   1      48.565  26.113  31.256  1.00  0.00     0.173 A 
ATOM     96  C   UNL A   1      49.140  27.451  29.341  1.00  0.00     0.173 A 
ATOM     97  F   UNL A   1      47.668  25.650  32.140  1.00  0.00    -0.203 F 
ATOM     98  C   UNL A   1      49.901  25.757  31.405  1.00  0.00     0.198 A 
ATOM     99  C   UNL A   1      50.469  27.062  29.469  1.00  0.00     0.198 A 
ATOM    100  F   UNL A   1      48.802  28.277  28.338  1.00  0.00    -0.203 F 
ATOM    101  F   UNL A   1      50.274  24.977  32.429  1.00  0.00    -0.200 F 
ATOM    102  C   UNL A   1      50.850  26.223  30.506  1.00  0.00     0.200 A 
ATOM    103  F   UNL A   1      51.379  27.496  28.588  1.00  0.00    -0.200 F 
ATOM    104  F   UNL A   1      52.134  25.872  30.645  1.00  0.00    -0.200 F 
ENDBRANCH  71  94
ENDBRANCH  45  46
ENDBRANCH  38  40
ENDBRANCH  37  38
ENDBRANCH  36  37
ENDBRANCH  35  36
ENDBRANCH  34  35
ENDBRANCH   1  34
TORSDOF 20
ENDMDL
