MODEL 1
REMARK VINA RESULT:     -12.8      0.000      0.000
REMARK SMILES COc1cc([C@@H]2CC(=O)Nc3c(C(=O)OCCOCCOC(=O)c4ccc(-c5c6nc(c(-c7c(F)c(F)c(F)c(F)c7F)c7ccc([nH]7)c(-c7c(F)c(F)c(F)c(F)c7F)c7nc(c(-c8c(F)c(F)c(F)c(F)c8F)c8ccc5[nH]8)C=C7)C=C6)cc4)cn(-c4ccc(F)cc4)c32)c(OC)c2c1OCO2
REMARK SMILES IDX 18 1 17 2 16 3 15 4 13 5 14 6 12 7 6 8 7 9 96 10 8 11 11 12
REMARK SMILES IDX 88 13 9 14 10 15 87 16 5 18 3 19 4 20 101 21 100 22 102 23
REMARK SMILES IDX 97 24 104 25 103 26 2 27 1 28 98 29 99 30 89 31 90 32 95 33
REMARK SMILES IDX 91 34 94 35 92 36 93 37 19 38 20 39 21 40 22 41 23 42 24 43
REMARK SMILES IDX 25 44 86 45 26 46 85 47 27 48 28 49 29 50 79 51 30 52 84 53
REMARK SMILES IDX 78 54 80 55 31 56 83 57 77 58 76 59 32 61 64 62 44 63 63 64
REMARK SMILES IDX 45 65 48 66 62 67 81 68 46 69 47 70 61 72 82 73 49 74 33 75
REMARK SMILES IDX 34 76 42 77 35 78 36 79 40 80 43 81 37 82 38 83 41 84 39 85
REMARK SMILES IDX 65 86 66 87 74 88 67 89 68 90 72 91 75 92 69 93 70 94 73 95
REMARK SMILES IDX 71 96 50 97 51 98 59 99 52 100 53 101 57 102 60 103 54 104
REMARK SMILES IDX 55 105 58 106 56 107
REMARK H PARENT 10 17 80 60 48 71
REMARK Flexibility Score: inf
ROOT
ATOM      1  O   UNL A   1      32.109  29.761  26.597  1.00  0.00    -0.374 OA
ENDROOT
BRANCH   1   2
ATOM      2  C   UNL A   1      31.519  29.986  25.317  1.00  0.00     0.202 C 
BRANCH   2   3
ATOM      3  C   UNL A   1      31.339  28.766  24.409  1.00  0.00     0.261 C 
BRANCH   3   4
ATOM      4  O   UNL A   1      31.873  27.566  24.998  1.00  0.00    -0.460 OA
BRANCH   4   5
ATOM      5  C   UNL A   1      33.021  27.111  24.423  1.00  0.00     0.341 C 
ATOM      6  O   UNL A   1      33.685  27.733  23.599  1.00  0.00    -0.246 OA
BRANCH   5   7
ATOM      7  C   UNL A   1      33.470  25.844  24.977  1.00  0.00     0.102 A 
ATOM      8  C   UNL A   1      33.155  22.427  26.371  1.00  0.00     0.082 C 
ATOM      9  C   UNL A   1      31.947  22.640  27.303  1.00  0.00     0.115 C 
ATOM     10  C   UNL A   1      33.597  23.749  25.815  1.00  0.00     0.055 A 
ATOM     11  C   UNL A   1      30.995  23.766  26.912  1.00  0.00     0.225 C 
ATOM     12  C   UNL A   1      32.784  24.857  25.718  1.00  0.00     0.078 A 
ATOM     13  N   UNL A   1      34.848  24.100  25.354  1.00  0.00    -0.317 N 
ATOM     14  O   UNL A   1      29.828  23.783  27.307  1.00  0.00    -0.275 OA
ATOM     15  N   UNL A   1      31.504  24.837  26.216  1.00  0.00    -0.324 N 
ATOM     16  C   UNL A   1      34.775  25.381  24.863  1.00  0.00     0.109 A 
ATOM     17  H   UNL A   1      30.928  25.621  26.069  1.00  0.00     0.170 HD
BRANCH   8  18
ATOM     18  C   UNL A   1      32.895  21.364  25.295  1.00  0.00     0.012 A 
ATOM     19  C   UNL A   1      33.190  19.009  24.646  1.00  0.00     0.165 A 
ATOM     20  C   UNL A   1      33.229  20.019  25.609  1.00  0.00     0.059 A 
ATOM     21  C   UNL A   1      32.702  19.332  23.396  1.00  0.00     0.211 A 
ATOM     22  C   UNL A   1      32.309  20.619  23.084  1.00  0.00     0.211 A 
ATOM     23  O   UNL A   1      32.535  18.473  22.351  1.00  0.00    -0.449 OA
ATOM     24  C   UNL A   1      32.404  21.661  24.000  1.00  0.00     0.168 A 
ATOM     25  O   UNL A   1      31.859  20.700  21.798  1.00  0.00    -0.449 OA
ATOM     26  C   UNL A   1      31.927  19.330  21.375  1.00  0.00     0.468 C 
BRANCH  19  27
ATOM     27  O   UNL A   1      33.633  17.778  25.034  1.00  0.00    -0.493 OA
ATOM     28  C   UNL A   1      32.662  17.033  25.770  1.00  0.00     0.278 C 
ENDBRANCH  19  27
BRANCH  24  29
ATOM     29  O   UNL A   1      32.072  22.959  23.767  1.00  0.00    -0.492 OA
ATOM     30  C   UNL A   1      30.790  23.272  23.245  1.00  0.00     0.278 C 
ENDBRANCH  24  29
ENDBRANCH   8  18
BRANCH  13  31
ATOM     31  C   UNL A   1      36.023  23.324  25.365  1.00  0.00     0.046 A 
ATOM     32  C   UNL A   1      36.072  22.145  24.620  1.00  0.00     0.029 A 
ATOM     33  C   UNL A   1      37.124  23.747  26.117  1.00  0.00     0.029 A 
ATOM     34  C   UNL A   1      37.198  21.328  24.700  1.00  0.00     0.041 A 
ATOM     35  C   UNL A   1      38.250  22.925  26.189  1.00  0.00     0.041 A 
ATOM     36  C   UNL A   1      38.270  21.718  25.494  1.00  0.00     0.123 A 
ATOM     37  F   UNL A   1      39.340  20.919  25.587  1.00  0.00    -0.207 F 
ENDBRANCH  13  31
ENDBRANCH   5   7
ENDBRANCH   4   5
ENDBRANCH   3   4
ENDBRANCH   2   3
ENDBRANCH   1   2
BRANCH   1  38
ATOM     38  C   UNL A   1      33.477  30.091  26.803  1.00  0.00     0.202 C 
BRANCH  38  39
ATOM     39  C   UNL A   1      33.787  31.334  27.622  1.00  0.00     0.261 C 
BRANCH  39  40
ATOM     40  O   UNL A   1      35.186  31.537  27.790  1.00  0.00    -0.460 OA
BRANCH  40  41
ATOM     41  C   UNL A   1      35.527  32.064  28.986  1.00  0.00     0.338 C 
ATOM     42  O   UNL A   1      35.153  33.124  29.459  1.00  0.00    -0.246 OA
BRANCH  41  43
ATOM     43  C   UNL A   1      36.578  31.231  29.583  1.00  0.00     0.060 A 
ATOM     44  C   UNL A   1      37.854  31.794  29.633  1.00  0.00     0.016 A 
ATOM     45  C   UNL A   1      36.362  29.870  29.857  1.00  0.00     0.016 A 
ATOM     46  C   UNL A   1      38.935  30.957  29.787  1.00  0.00     0.010 A 
ATOM     47  C   UNL A   1      37.448  29.032  30.010  1.00  0.00     0.010 A 
ATOM     48  C   UNL A   1      38.722  29.577  29.902  1.00  0.00    -0.014 A 
BRANCH  48  49
ATOM     49  C   UNL A   1      39.903  28.742  29.956  1.00  0.00     0.031 A 
ATOM     50  C   UNL A   1      40.486  28.602  31.306  1.00  0.00     0.074 A 
ATOM     51  C   UNL A   1      40.431  28.134  28.880  1.00  0.00     0.049 A 
ATOM     52  N   UNL A   1      41.620  29.055  31.723  1.00  0.00    -0.248 NA
ATOM     53  C   UNL A   1      39.652  27.987  32.347  1.00  0.00     0.031 C 
ATOM     54  C   UNL A   1      39.848  27.953  27.550  1.00  0.00     0.029 A 
ATOM     55  N   UNL A   1      41.615  27.470  28.797  1.00  0.00    -0.354 N 
ATOM     56  C   UNL A   1      41.720  28.659  33.050  1.00  0.00     0.074 A 
ATOM     57  C   UNL A   1      40.438  28.111  33.417  1.00  0.00     0.031 C 
ATOM     58  C   UNL A   1      40.590  27.052  26.864  1.00  0.00     0.029 A 
ATOM     59  C   UNL A   1      41.761  26.707  27.653  1.00  0.00     0.049 A 
ATOM     60  H   UNL A   1      42.309  27.527  29.494  1.00  0.00     0.167 HD
ATOM     61  C   UNL A   1      42.917  28.630  33.691  1.00  0.00     0.037 A 
ATOM     62  C   UNL A   1      42.745  25.807  27.420  1.00  0.00     0.037 A 
ATOM     63  C   UNL A   1      43.905  29.430  33.020  1.00  0.00     0.049 A 
ATOM     64  C   UNL A   1      43.885  26.140  28.313  1.00  0.00     0.074 A 
ATOM     65  C   UNL A   1      44.030  30.775  32.729  1.00  0.00     0.029 A 
ATOM     66  N   UNL A   1      44.823  28.792  32.225  1.00  0.00    -0.354 N 
ATOM     67  N   UNL A   1      44.635  27.198  28.175  1.00  0.00    -0.248 NA
ATOM     68  C   UNL A   1      43.945  25.500  29.618  1.00  0.00     0.031 C 
ATOM     69  C   UNL A   1      44.673  30.826  31.458  1.00  0.00     0.029 A 
ATOM     70  C   UNL A   1      44.931  29.512  31.063  1.00  0.00     0.049 A 
ATOM     71  H   UNL A   1      45.315  27.968  32.447  1.00  0.00     0.167 HD
ATOM     72  C   UNL A   1      44.915  27.600  29.473  1.00  0.00     0.074 A 
ATOM     73  C   UNL A   1      44.564  26.460  30.311  1.00  0.00     0.031 C 
ATOM     74  C   UNL A   1      45.141  28.914  29.765  1.00  0.00     0.037 A 
BRANCH  61  75
ATOM     75  C   UNL A   1      43.278  27.607  34.730  1.00  0.00     0.064 A 
ATOM     76  C   UNL A   1      43.575  28.022  36.041  1.00  0.00     0.173 A 
ATOM     77  C   UNL A   1      43.634  26.278  34.409  1.00  0.00     0.173 A 
ATOM     78  F   UNL A   1      43.306  29.276  36.437  1.00  0.00    -0.203 F 
ATOM     79  C   UNL A   1      44.238  27.187  36.942  1.00  0.00     0.198 A 
ATOM     80  C   UNL A   1      44.244  25.431  35.328  1.00  0.00     0.198 A 
ATOM     81  F   UNL A   1      43.511  25.792  33.167  1.00  0.00    -0.203 F 
ATOM     82  F   UNL A   1      44.611  27.663  38.138  1.00  0.00    -0.200 F 
ATOM     83  C   UNL A   1      44.574  25.893  36.584  1.00  0.00     0.200 A 
ATOM     84  F   UNL A   1      44.584  24.189  34.955  1.00  0.00    -0.200 F 
ATOM     85  F   UNL A   1      45.263  25.112  37.426  1.00  0.00    -0.200 F 
ENDBRANCH  61  75
BRANCH  62  86
ATOM     86  C   UNL A   1      42.645  24.511  26.713  1.00  0.00     0.064 A 
ATOM     87  C   UNL A   1      43.365  24.276  25.531  1.00  0.00     0.173 A 
ATOM     88  C   UNL A   1      42.068  23.384  27.331  1.00  0.00     0.173 A 
ATOM     89  F   UNL A   1      43.982  25.288  24.904  1.00  0.00    -0.203 F 
ATOM     90  C   UNL A   1      43.524  22.985  25.015  1.00  0.00     0.198 A 
ATOM     91  C   UNL A   1      42.219  22.099  26.810  1.00  0.00     0.198 A 
ATOM     92  F   UNL A   1      41.428  23.493  28.504  1.00  0.00    -0.203 F 
ATOM     93  F   UNL A   1      44.275  22.791  23.922  1.00  0.00    -0.200 F 
ATOM     94  C   UNL A   1      42.960  21.898  25.662  1.00  0.00     0.200 A 
ATOM     95  F   UNL A   1      41.698  21.052  27.466  1.00  0.00    -0.200 F 
ATOM     96  F   UNL A   1      43.166  20.656  25.204  1.00  0.00    -0.200 F 
ENDBRANCH  62  86
BRANCH  74  97
ATOM     97  C   UNL A   1      45.381  29.850  28.615  1.00  0.00     0.064 A 
ATOM     98  C   UNL A   1      44.356  30.481  27.889  1.00  0.00     0.173 A 
ATOM     99  C   UNL A   1      46.701  30.214  28.318  1.00  0.00     0.173 A 
ATOM    100  F   UNL A   1      43.067  30.265  28.185  1.00  0.00    -0.203 F 
ATOM    101  C   UNL A   1      44.646  31.394  26.877  1.00  0.00     0.198 A 
ATOM    102  C   UNL A   1      46.986  31.156  27.332  1.00  0.00     0.198 A 
ATOM    103  F   UNL A   1      47.718  29.687  29.018  1.00  0.00    -0.203 F 
ATOM    104  F   UNL A   1      43.650  31.968  26.184  1.00  0.00    -0.200 F 
ATOM    105  C   UNL A   1      45.960  31.734  26.604  1.00  0.00     0.200 A 
ATOM    106  F   UNL A   1      48.256  31.518  27.106  1.00  0.00    -0.200 F 
ATOM    107  F   UNL A   1      46.237  32.640  25.656  1.00  0.00    -0.200 F 
ENDBRANCH  74  97
ENDBRANCH  48  49
ENDBRANCH  41  43
ENDBRANCH  40  41
ENDBRANCH  39  40
ENDBRANCH  38  39
ENDBRANCH   1  38
TORSDOF 18
ENDMDL
MODEL 2
REMARK VINA RESULT:     -12.1      5.262     11.133
REMARK SMILES COc1cc([C@@H]2CC(=O)Nc3c(C(=O)OCCOCCOC(=O)c4ccc(-c5c6nc(c(-c7c(F)c(F)c(F)c(F)c7F)c7ccc([nH]7)c(-c7c(F)c(F)c(F)c(F)c7F)c7nc(c(-c8c(F)c(F)c(F)c(F)c8F)c8ccc5[nH]8)C=C7)C=C6)cc4)cn(-c4ccc(F)cc4)c32)c(OC)c2c1OCO2
REMARK SMILES IDX 18 1 17 2 16 3 15 4 13 5 14 6 12 7 6 8 7 9 96 10 8 11 11 12
REMARK SMILES IDX 88 13 9 14 10 15 87 16 5 18 3 19 4 20 101 21 100 22 102 23
REMARK SMILES IDX 97 24 104 25 103 26 2 27 1 28 98 29 99 30 89 31 90 32 95 33
REMARK SMILES IDX 91 34 94 35 92 36 93 37 19 38 20 39 21 40 22 41 23 42 24 43
REMARK SMILES IDX 25 44 86 45 26 46 85 47 27 48 28 49 29 50 79 51 30 52 84 53
REMARK SMILES IDX 78 54 80 55 31 56 83 57 77 58 76 59 32 61 64 62 44 63 63 64
REMARK SMILES IDX 45 65 48 66 62 67 81 68 46 69 47 70 61 72 82 73 49 74 33 75
REMARK SMILES IDX 34 76 42 77 35 78 36 79 40 80 43 81 37 82 38 83 41 84 39 85
REMARK SMILES IDX 65 86 66 87 74 88 67 89 68 90 72 91 75 92 69 93 70 94 73 95
REMARK SMILES IDX 71 96 50 97 51 98 59 99 52 100 53 101 57 102 60 103 54 104
REMARK SMILES IDX 55 105 58 106 56 107
REMARK H PARENT 10 17 80 60 48 71
REMARK Flexibility Score: inf
ROOT
ATOM      1  O   UNL A   1      35.731  32.946  28.251  1.00  0.00    -0.374 OA
ENDROOT
BRANCH   1   2
ATOM      2  C   UNL A   1      35.910  33.416  29.586  1.00  0.00     0.202 C 
BRANCH   2   3
ATOM      3  C   UNL A   1      34.652  33.583  30.442  1.00  0.00     0.261 C 
BRANCH   3   4
ATOM      4  O   UNL A   1      34.527  32.547  31.433  1.00  0.00    -0.460 OA
BRANCH   4   5
ATOM      5  C   UNL A   1      34.426  32.994  32.716  1.00  0.00     0.341 C 
ATOM      6  O   UNL A   1      33.394  33.415  33.231  1.00  0.00    -0.246 OA
BRANCH   5   7
ATOM      7  C   UNL A   1      35.649  32.807  33.480  1.00  0.00     0.102 A 
ATOM      8  C   UNL A   1      38.974  31.400  34.305  1.00  0.00     0.082 C 
ATOM      9  C   UNL A   1      38.719  29.920  33.964  1.00  0.00     0.115 C 
ATOM     10  C   UNL A   1      37.685  32.163  34.220  1.00  0.00     0.055 A 
ATOM     11  C   UNL A   1      37.633  29.654  32.926  1.00  0.00     0.225 C 
ATOM     12  C   UNL A   1      36.596  31.760  33.478  1.00  0.00     0.078 A 
ATOM     13  N   UNL A   1      37.346  33.333  34.867  1.00  0.00    -0.317 N 
ATOM     14  O   UNL A   1      37.607  28.603  32.282  1.00  0.00    -0.275 OA
ATOM     15  N   UNL A   1      36.602  30.556  32.816  1.00  0.00    -0.324 N 
ATOM     16  C   UNL A   1      36.100  33.713  34.430  1.00  0.00     0.109 A 
ATOM     17  H   UNL A   1      35.836  30.331  32.240  1.00  0.00     0.170 HD
BRANCH   8  18
ATOM     18  C   UNL A   1      40.107  32.016  33.471  1.00  0.00     0.012 A 
ATOM     19  C   UNL A   1      40.743  32.988  31.302  1.00  0.00     0.165 A 
ATOM     20  C   UNL A   1      39.766  32.559  32.204  1.00  0.00     0.059 A 
ATOM     21  C   UNL A   1      42.057  32.977  31.726  1.00  0.00     0.211 A 
ATOM     22  C   UNL A   1      42.408  32.514  32.978  1.00  0.00     0.211 A 
ATOM     23  O   UNL A   1      43.134  33.409  31.012  1.00  0.00    -0.449 OA
ATOM     24  C   UNL A   1      41.466  32.014  33.871  1.00  0.00     0.168 A 
ATOM     25  O   UNL A   1      43.756  32.602  33.177  1.00  0.00    -0.449 OA
ATOM     26  C   UNL A   1      44.190  33.242  31.969  1.00  0.00     0.468 C 
BRANCH  19  27
ATOM     27  O   UNL A   1      40.304  33.393  30.075  1.00  0.00    -0.493 OA
ATOM     28  C   UNL A   1      39.272  34.376  30.139  1.00  0.00     0.278 C 
ENDBRANCH  19  27
BRANCH  24  29
ATOM     29  O   UNL A   1      41.728  31.509  35.106  1.00  0.00    -0.492 OA
ATOM     30  C   UNL A   1      41.867  32.392  36.209  1.00  0.00     0.278 C 
ENDBRANCH  24  29
ENDBRANCH   8  18
BRANCH  13  31
ATOM     31  C   UNL A   1      38.103  34.047  35.814  1.00  0.00     0.046 A 
ATOM     32  C   UNL A   1      38.988  35.036  35.380  1.00  0.00     0.029 A 
ATOM     33  C   UNL A   1      37.957  33.761  37.176  1.00  0.00     0.029 A 
ATOM     34  C   UNL A   1      39.805  35.682  36.305  1.00  0.00     0.041 A 
ATOM     35  C   UNL A   1      38.777  34.415  38.097  1.00  0.00     0.041 A 
ATOM     36  C   UNL A   1      39.702  35.355  37.652  1.00  0.00     0.123 A 
ATOM     37  F   UNL A   1      40.507  35.961  38.536  1.00  0.00    -0.207 F 
ENDBRANCH  13  31
ENDBRANCH   5   7
ENDBRANCH   4   5
ENDBRANCH   3   4
ENDBRANCH   2   3
ENDBRANCH   1   2
BRANCH   1  38
ATOM     38  C   UNL A   1      34.540  32.245  27.912  1.00  0.00     0.202 C 
BRANCH  38  39
ATOM     39  C   UNL A   1      34.641  30.743  27.701  1.00  0.00     0.261 C 
BRANCH  39  40
ATOM     40  O   UNL A   1      35.986  30.311  27.525  1.00  0.00    -0.460 OA
BRANCH  40  41
ATOM     41  C   UNL A   1      36.525  29.728  28.618  1.00  0.00     0.338 C 
ATOM     42  O   UNL A   1      36.154  29.842  29.774  1.00  0.00    -0.246 OA
BRANCH  41  43
ATOM     43  C   UNL A   1      37.766  29.049  28.222  1.00  0.00     0.060 A 
ATOM     44  C   UNL A   1      38.253  28.092  29.113  1.00  0.00     0.016 A 
ATOM     45  C   UNL A   1      38.534  29.508  27.139  1.00  0.00     0.016 A 
ATOM     46  C   UNL A   1      39.577  27.725  29.022  1.00  0.00     0.010 A 
ATOM     47  C   UNL A   1      39.861  29.140  27.051  1.00  0.00     0.010 A 
ATOM     48  C   UNL A   1      40.383  28.309  28.035  1.00  0.00    -0.014 A 
BRANCH  48  49
ATOM     49  C   UNL A   1      41.787  27.961  28.057  1.00  0.00     0.031 A 
ATOM     50  C   UNL A   1      42.102  26.665  27.418  1.00  0.00     0.074 A 
ATOM     51  C   UNL A   1      42.736  28.740  28.602  1.00  0.00     0.049 A 
ATOM     52  N   UNL A   1      42.526  25.590  27.991  1.00  0.00    -0.248 NA
ATOM     53  C   UNL A   1      41.792  26.519  25.990  1.00  0.00     0.031 C 
ATOM     54  C   UNL A   1      42.642  30.137  29.030  1.00  0.00     0.029 A 
ATOM     55  N   UNL A   1      44.044  28.434  28.816  1.00  0.00    -0.354 N 
ATOM     56  C   UNL A   1      42.681  24.658  26.973  1.00  0.00     0.074 A 
ATOM     57  C   UNL A   1      42.106  25.239  25.786  1.00  0.00     0.031 C 
ATOM     58  C   UNL A   1      43.889  30.612  29.256  1.00  0.00     0.029 A 
ATOM     59  C   UNL A   1      44.841  29.522  29.122  1.00  0.00     0.049 A 
ATOM     60  H   UNL A   1      44.393  27.514  28.757  1.00  0.00     0.167 HD
ATOM     61  C   UNL A   1      43.453  23.552  27.139  1.00  0.00     0.037 A 
ATOM     62  C   UNL A   1      46.194  29.521  29.185  1.00  0.00     0.037 A 
ATOM     63  C   UNL A   1      43.689  23.266  28.528  1.00  0.00     0.049 A 
ATOM     64  C   UNL A   1      46.637  28.118  29.392  1.00  0.00     0.074 A 
ATOM     65  C   UNL A   1      42.884  22.933  29.600  1.00  0.00     0.029 A 
ATOM     66  N   UNL A   1      44.894  23.638  29.069  1.00  0.00    -0.354 N 
ATOM     67  N   UNL A   1      46.450  27.448  30.495  1.00  0.00    -0.248 NA
ATOM     68  C   UNL A   1      46.937  27.312  28.218  1.00  0.00     0.031 C 
ATOM     69  C   UNL A   1      43.484  23.563  30.729  1.00  0.00     0.029 A 
ATOM     70  C   UNL A   1      44.636  24.217  30.285  1.00  0.00     0.049 A 
ATOM     71  H   UNL A   1      45.781  23.513  28.660  1.00  0.00     0.167 HD
ATOM     72  C   UNL A   1      46.181  26.153  30.078  1.00  0.00     0.074 A 
ATOM     73  C   UNL A   1      46.607  26.105  28.684  1.00  0.00     0.031 C 
ATOM     74  C   UNL A   1      45.385  25.329  30.820  1.00  0.00     0.037 A 
BRANCH  61  75
ATOM     75  C   UNL A   1      44.269  22.937  26.039  1.00  0.00     0.064 A 
ATOM     76  C   UNL A   1      44.181  21.553  25.798  1.00  0.00     0.173 A 
ATOM     77  C   UNL A   1      45.350  23.602  25.420  1.00  0.00     0.173 A 
ATOM     78  F   UNL A   1      43.209  20.823  26.365  1.00  0.00    -0.203 F 
ATOM     79  C   UNL A   1      45.143  20.878  25.045  1.00  0.00     0.198 A 
ATOM     80  C   UNL A   1      46.275  22.934  24.624  1.00  0.00     0.198 A 
ATOM     81  F   UNL A   1      45.617  24.893  25.656  1.00  0.00    -0.203 F 
ATOM     82  F   UNL A   1      45.089  19.542  24.942  1.00  0.00    -0.200 F 
ATOM     83  C   UNL A   1      46.191  21.567  24.461  1.00  0.00     0.200 A 
ATOM     84  F   UNL A   1      47.297  23.616  24.086  1.00  0.00    -0.200 F 
ATOM     85  F   UNL A   1      47.146  20.913  23.789  1.00  0.00    -0.200 F 
ENDBRANCH  61  75
BRANCH  62  86
ATOM     86  C   UNL A   1      47.125  30.594  28.773  1.00  0.00     0.064 A 
ATOM     87  C   UNL A   1      46.988  31.231  27.530  1.00  0.00     0.173 A 
ATOM     88  C   UNL A   1      47.989  31.208  29.702  1.00  0.00     0.173 A 
ATOM     89  F   UNL A   1      46.152  30.735  26.606  1.00  0.00    -0.203 F 
ATOM     90  C   UNL A   1      47.652  32.429  27.244  1.00  0.00     0.198 A 
ATOM     91  C   UNL A   1      48.657  32.397  29.412  1.00  0.00     0.198 A 
ATOM     92  F   UNL A   1      48.127  30.720  30.943  1.00  0.00    -0.203 F 
ATOM     93  F   UNL A   1      47.443  33.045  26.072  1.00  0.00    -0.200 F 
ATOM     94  C   UNL A   1      48.476  33.016  28.190  1.00  0.00     0.200 A 
ATOM     95  F   UNL A   1      49.424  32.972  30.349  1.00  0.00    -0.200 F 
ATOM     96  F   UNL A   1      49.060  34.196  27.941  1.00  0.00    -0.200 F 
ENDBRANCH  62  86
BRANCH  74  97
ATOM     97  C   UNL A   1      45.069  25.751  32.226  1.00  0.00     0.064 A 
ATOM     98  C   UNL A   1      43.985  26.576  32.573  1.00  0.00     0.173 A 
ATOM     99  C   UNL A   1      45.820  25.197  33.271  1.00  0.00     0.173 A 
ATOM    100  F   UNL A   1      43.157  27.059  31.638  1.00  0.00    -0.203 F 
ATOM    101  C   UNL A   1      43.704  26.875  33.906  1.00  0.00     0.198 A 
ATOM    102  C   UNL A   1      45.513  25.466  34.603  1.00  0.00     0.198 A 
ATOM    103  F   UNL A   1      46.831  24.356  33.002  1.00  0.00    -0.203 F 
ATOM    104  F   UNL A   1      42.677  27.682  34.211  1.00  0.00    -0.200 F 
ATOM    105  C   UNL A   1      44.465  26.315  34.918  1.00  0.00     0.200 A 
ATOM    106  F   UNL A   1      46.220  24.883  35.580  1.00  0.00    -0.200 F 
ATOM    107  F   UNL A   1      44.171  26.572  36.201  1.00  0.00    -0.200 F 
ENDBRANCH  74  97
ENDBRANCH  48  49
ENDBRANCH  41  43
ENDBRANCH  40  41
ENDBRANCH  39  40
ENDBRANCH  38  39
ENDBRANCH   1  38
TORSDOF 18
ENDMDL
MODEL 3
REMARK VINA RESULT:     -11.7      9.093     14.918
REMARK SMILES COc1cc([C@@H]2CC(=O)Nc3c(C(=O)OCCOCCOC(=O)c4ccc(-c5c6nc(c(-c7c(F)c(F)c(F)c(F)c7F)c7ccc([nH]7)c(-c7c(F)c(F)c(F)c(F)c7F)c7nc(c(-c8c(F)c(F)c(F)c(F)c8F)c8ccc5[nH]8)C=C7)C=C6)cc4)cn(-c4ccc(F)cc4)c32)c(OC)c2c1OCO2
REMARK SMILES IDX 18 1 17 2 16 3 15 4 13 5 14 6 12 7 6 8 7 9 96 10 8 11 11 12
REMARK SMILES IDX 88 13 9 14 10 15 87 16 5 18 3 19 4 20 101 21 100 22 102 23
REMARK SMILES IDX 97 24 104 25 103 26 2 27 1 28 98 29 99 30 89 31 90 32 95 33
REMARK SMILES IDX 91 34 94 35 92 36 93 37 19 38 20 39 21 40 22 41 23 42 24 43
REMARK SMILES IDX 25 44 86 45 26 46 85 47 27 48 28 49 29 50 79 51 30 52 84 53
REMARK SMILES IDX 78 54 80 55 31 56 83 57 77 58 76 59 32 61 64 62 44 63 63 64
REMARK SMILES IDX 45 65 48 66 62 67 81 68 46 69 47 70 61 72 82 73 49 74 33 75
REMARK SMILES IDX 34 76 42 77 35 78 36 79 40 80 43 81 37 82 38 83 41 84 39 85
REMARK SMILES IDX 65 86 66 87 74 88 67 89 68 90 72 91 75 92 69 93 70 94 73 95
REMARK SMILES IDX 71 96 50 97 51 98 59 99 52 100 53 101 57 102 60 103 54 104
REMARK SMILES IDX 55 105 58 106 56 107
REMARK H PARENT 10 17 80 60 48 71
REMARK Flexibility Score: inf
ROOT
ATOM      1  O   UNL A   1      46.001  20.681  38.982  1.00  0.00    -0.374 OA
ENDROOT
BRANCH   1   2
ATOM      2  C   UNL A   1      46.867  19.554  39.112  1.00  0.00     0.202 C 
BRANCH   2   3
ATOM      3  C   UNL A   1      48.212  19.786  39.804  1.00  0.00     0.261 C 
BRANCH   3   4
ATOM      4  O   UNL A   1      48.621  18.652  40.592  1.00  0.00    -0.460 OA
BRANCH   4   5
ATOM      5  C   UNL A   1      48.666  18.877  41.934  1.00  0.00     0.341 C 
ATOM      6  O   UNL A   1      49.402  19.692  42.482  1.00  0.00    -0.246 OA
BRANCH   5   7
ATOM      7  C   UNL A   1      47.651  18.138  42.668  1.00  0.00     0.102 A 
ATOM      8  C   UNL A   1      44.237  17.114  43.674  1.00  0.00     0.082 C 
ATOM      9  C   UNL A   1      43.558  18.495  43.722  1.00  0.00     0.115 C 
ATOM     10  C   UNL A   1      45.711  17.289  43.458  1.00  0.00     0.055 A 
ATOM     11  C   UNL A   1      44.170  19.570  42.829  1.00  0.00     0.225 C 
ATOM     12  C   UNL A   1      46.282  18.404  42.886  1.00  0.00     0.078 A 
ATOM     13  N   UNL A   1      46.729  16.426  43.808  1.00  0.00    -0.317 N 
ATOM     14  O   UNL A   1      43.518  20.550  42.468  1.00  0.00    -0.275 OA
ATOM     15  N   UNL A   1      45.513  19.490  42.543  1.00  0.00    -0.324 N 
ATOM     16  C   UNL A   1      47.910  16.954  43.345  1.00  0.00     0.109 A 
ATOM     17  H   UNL A   1      45.941  20.242  42.074  1.00  0.00     0.170 HD
BRANCH   8  18
ATOM     18  C   UNL A   1      43.577  16.161  42.667  1.00  0.00     0.012 A 
ATOM     19  C   UNL A   1      42.957  15.797  40.314  1.00  0.00     0.165 A 
ATOM     20  C   UNL A   1      43.663  16.502  41.290  1.00  0.00     0.059 A 
ATOM     21  C   UNL A   1      42.258  14.674  40.712  1.00  0.00     0.211 A 
ATOM     22  C   UNL A   1      42.213  14.283  42.036  1.00  0.00     0.211 A 
ATOM     23  O   UNL A   1      41.562  13.831  39.899  1.00  0.00    -0.449 OA
ATOM     24  C   UNL A   1      42.847  15.007  43.040  1.00  0.00     0.168 A 
ATOM     25  O   UNL A   1      41.470  13.148  42.190  1.00  0.00    -0.449 OA
ATOM     26  C   UNL A   1      41.137  12.828  40.832  1.00  0.00     0.468 C 
BRANCH  19  27
ATOM     27  O   UNL A   1      43.031  16.279  39.040  1.00  0.00    -0.493 OA
ATOM     28  C   UNL A   1      44.352  16.255  38.501  1.00  0.00     0.278 C 
ENDBRANCH  19  27
BRANCH  24  29
ATOM     29  O   UNL A   1      42.826  14.713  44.368  1.00  0.00    -0.492 OA
ATOM     30  C   UNL A   1      43.012  13.371  44.792  1.00  0.00     0.278 C 
ENDBRANCH  24  29
ENDBRANCH   8  18
BRANCH  13  31
ATOM     31  C   UNL A   1      46.629  15.213  44.516  1.00  0.00     0.046 A 
ATOM     32  C   UNL A   1      46.656  14.006  43.816  1.00  0.00     0.029 A 
ATOM     33  C   UNL A   1      46.509  15.233  45.910  1.00  0.00     0.029 A 
ATOM     34  C   UNL A   1      46.467  12.809  44.501  1.00  0.00     0.041 A 
ATOM     35  C   UNL A   1      46.323  14.028  46.590  1.00  0.00     0.041 A 
ATOM     36  C   UNL A   1      46.288  12.832  45.879  1.00  0.00     0.123 A 
ATOM     37  F   UNL A   1      46.082  11.681  46.532  1.00  0.00    -0.207 F 
ENDBRANCH  13  31
ENDBRANCH   5   7
ENDBRANCH   4   5
ENDBRANCH   3   4
ENDBRANCH   2   3
ENDBRANCH   1   2
BRANCH   1  38
ATOM     38  C   UNL A   1      46.150  21.552  37.867  1.00  0.00     0.202 C 
BRANCH  38  39
ATOM     39  C   UNL A   1      45.822  23.023  38.072  1.00  0.00     0.261 C 
BRANCH  39  40
ATOM     40  O   UNL A   1      46.142  23.812  36.932  1.00  0.00    -0.460 OA
BRANCH  40  41
ATOM     41  C   UNL A   1      45.082  24.454  36.392  1.00  0.00     0.338 C 
ATOM     42  O   UNL A   1      43.963  24.557  36.864  1.00  0.00    -0.246 OA
BRANCH  41  43
ATOM     43  C   UNL A   1      45.437  24.879  35.031  1.00  0.00     0.060 A 
ATOM     44  C   UNL A   1      44.567  25.786  34.425  1.00  0.00     0.016 A 
ATOM     45  C   UNL A   1      46.448  24.227  34.305  1.00  0.00     0.016 A 
ATOM     46  C   UNL A   1      44.598  25.908  33.055  1.00  0.00     0.010 A 
ATOM     47  C   UNL A   1      46.475  24.350  32.931  1.00  0.00     0.010 A 
ATOM     48  C   UNL A   1      45.504  25.133  32.318  1.00  0.00    -0.014 A 
BRANCH  48  49
ATOM     49  C   UNL A   1      45.416  25.229  30.877  1.00  0.00     0.031 A 
ATOM     50  C   UNL A   1      46.351  26.203  30.275  1.00  0.00     0.074 A 
ATOM     51  C   UNL A   1      44.566  24.498  30.135  1.00  0.00     0.049 A 
ATOM     52  N   UNL A   1      46.057  27.312  29.684  1.00  0.00    -0.248 NA
ATOM     53  C   UNL A   1      47.789  25.967  30.459  1.00  0.00     0.031 C 
ATOM     54  C   UNL A   1      43.777  23.330  30.529  1.00  0.00     0.029 A 
ATOM     55  N   UNL A   1      44.295  24.629  28.809  1.00  0.00    -0.354 N 
ATOM     56  C   UNL A   1      47.270  27.858  29.285  1.00  0.00     0.074 A 
ATOM     57  C   UNL A   1      48.305  27.056  29.888  1.00  0.00     0.031 C 
ATOM     58  C   UNL A   1      43.282  22.740  29.416  1.00  0.00     0.029 A 
ATOM     59  C   UNL A   1      43.604  23.563  28.262  1.00  0.00     0.049 A 
ATOM     60  H   UNL A   1      44.568  25.416  28.283  1.00  0.00     0.167 HD
ATOM     61  C   UNL A   1      47.331  28.816  28.324  1.00  0.00     0.037 A 
ATOM     62  C   UNL A   1      43.385  23.354  26.942  1.00  0.00     0.037 A 
ATOM     63  C   UNL A   1      46.061  29.459  28.124  1.00  0.00     0.049 A 
ATOM     64  C   UNL A   1      43.529  24.658  26.246  1.00  0.00     0.074 A 
ATOM     65  C   UNL A   1      45.227  30.227  28.914  1.00  0.00     0.029 A 
ATOM     66  N   UNL A   1      45.299  29.066  27.052  1.00  0.00    -0.354 N 
ATOM     67  N   UNL A   1      42.689  25.647  26.367  1.00  0.00    -0.248 NA
ATOM     68  C   UNL A   1      44.839  25.015  25.720  1.00  0.00     0.031 C 
ATOM     69  C   UNL A   1      43.905  29.869  28.522  1.00  0.00     0.029 A 
ATOM     70  C   UNL A   1      44.009  28.928  27.495  1.00  0.00     0.049 A 
ATOM     71  H   UNL A   1      45.620  28.912  26.134  1.00  0.00     0.167 HD
ATOM     72  C   UNL A   1      43.481  26.785  26.350  1.00  0.00     0.074 A 
ATOM     73  C   UNL A   1      44.773  26.344  25.836  1.00  0.00     0.031 C 
ATOM     74  C   UNL A   1      43.100  27.915  27.013  1.00  0.00     0.037 A 
BRANCH  61  75
ATOM     75  C   UNL A   1      48.456  28.928  27.335  1.00  0.00     0.064 A 
ATOM     76  C   UNL A   1      48.702  27.872  26.439  1.00  0.00     0.173 A 
ATOM     77  C   UNL A   1      49.479  29.897  27.440  1.00  0.00     0.173 A 
ATOM     78  F   UNL A   1      47.808  26.883  26.289  1.00  0.00    -0.203 F 
ATOM     79  C   UNL A   1      49.911  27.762  25.749  1.00  0.00     0.198 A 
ATOM     80  C   UNL A   1      50.659  29.813  26.709  1.00  0.00     0.198 A 
ATOM     81  F   UNL A   1      49.423  30.891  28.337  1.00  0.00    -0.203 F 
ATOM     82  F   UNL A   1      50.153  26.677  25.000  1.00  0.00    -0.200 F 
ATOM     83  C   UNL A   1      50.889  28.731  25.886  1.00  0.00     0.200 A 
ATOM     84  F   UNL A   1      51.604  30.749  26.874  1.00  0.00    -0.200 F 
ATOM     85  F   UNL A   1      52.071  28.596  25.272  1.00  0.00    -0.200 F 
ENDBRANCH  61  75
BRANCH  62  86
ATOM     86  C   UNL A   1      43.367  22.065  26.215  1.00  0.00     0.064 A 
ATOM     87  C   UNL A   1      44.560  21.459  25.790  1.00  0.00     0.173 A 
ATOM     88  C   UNL A   1      42.207  21.266  26.173  1.00  0.00     0.173 A 
ATOM     89  F   UNL A   1      45.716  22.137  25.839  1.00  0.00    -0.203 F 
ATOM     90  C   UNL A   1      44.595  20.123  25.377  1.00  0.00     0.198 A 
ATOM     91  C   UNL A   1      42.242  19.937  25.752  1.00  0.00     0.198 A 
ATOM     92  F   UNL A   1      41.035  21.728  26.632  1.00  0.00    -0.203 F 
ATOM     93  F   UNL A   1      45.764  19.558  25.043  1.00  0.00    -0.200 F 
ATOM     94  C   UNL A   1      43.439  19.361  25.370  1.00  0.00     0.200 A 
ATOM     95  F   UNL A   1      41.122  19.202  25.784  1.00  0.00    -0.200 F 
ATOM     96  F   UNL A   1      43.483  18.064  25.036  1.00  0.00    -0.200 F 
ENDBRANCH  62  86
BRANCH  74  97
ATOM     97  C   UNL A   1      41.678  27.991  27.494  1.00  0.00     0.064 A 
ATOM     98  C   UNL A   1      41.233  27.455  28.715  1.00  0.00     0.173 A 
ATOM     99  C   UNL A   1      40.763  28.743  26.747  1.00  0.00     0.173 A 
ATOM    100  F   UNL A   1      42.075  26.813  29.535  1.00  0.00    -0.203 F 
ATOM    101  C   UNL A   1      39.915  27.619  29.136  1.00  0.00     0.198 A 
ATOM    102  C   UNL A   1      39.457  28.939  27.189  1.00  0.00     0.198 A 
ATOM    103  F   UNL A   1      41.148  29.328  25.601  1.00  0.00    -0.203 F 
ATOM    104  F   UNL A   1      39.508  27.080  30.296  1.00  0.00    -0.200 F 
ATOM    105  C   UNL A   1      39.030  28.366  28.376  1.00  0.00     0.200 A 
ATOM    106  F   UNL A   1      38.620  29.703  26.475  1.00  0.00    -0.200 F 
ATOM    107  F   UNL A   1      37.773  28.556  28.800  1.00  0.00    -0.200 F 
ENDBRANCH  74  97
ENDBRANCH  48  49
ENDBRANCH  41  43
ENDBRANCH  40  41
ENDBRANCH  39  40
ENDBRANCH  38  39
ENDBRANCH   1  38
TORSDOF 18
ENDMDL
