MODEL 1
REMARK VINA RESULT:     -12.1      0.000      0.000
REMARK SMILES Cc1ccc(C#N)cc1S(=O)(=O)Nc1cccc(C(=O)OCCOCCOC(=O)c2ccc(-c3c4nc(c(-c5c(F)c(F)c(F)c(F)c5F)c5ccc([nH]5)c(-c5c(F)c(F)c(F)c(F)c5F)c5nc(c(-c6c(F)c(F)c(F)c(F)c6F)c6ccc3[nH]6)C=C5)C=C4)cc2)c1
REMARK SMILES IDX 23 1 22 2 21 3 19 4 20 5 18 6 14 7 15 8 93 9 16 10 17 11
REMARK SMILES IDX 13 12 10 14 11 15 12 16 9 17 1 18 2 19 3 20 4 21 8 22 5 23
REMARK SMILES IDX 6 24 7 25 24 26 25 27 26 28 27 29 28 30 29 31 30 32 31 33
REMARK SMILES IDX 92 34 32 35 91 36 33 37 34 38 35 39 85 40 36 41 90 42 84 43
REMARK SMILES IDX 86 44 37 45 89 46 83 47 82 48 38 50 70 51 50 52 69 53 51 54
REMARK SMILES IDX 54 55 68 56 87 57 52 58 53 59 67 61 88 62 55 63 39 64 40 65
REMARK SMILES IDX 48 66 41 67 42 68 46 69 49 70 43 71 44 72 47 73 45 74 71 75
REMARK SMILES IDX 72 76 80 77 73 78 74 79 78 80 81 81 75 82 76 83 79 84 77 85
REMARK SMILES IDX 56 86 57 87 65 88 58 89 59 90 63 91 66 92 60 93 61 94 64 95
REMARK SMILES IDX 62 96
REMARK H PARENT 13 13 86 49 54 60
REMARK Flexibility Score: inf
ROOT
ATOM      1  C   UNL A   1      43.845  19.572  25.428  1.00  0.00     0.202 C 
ENDROOT
BRANCH   1   2
ATOM      2  C   UNL A   1      42.348  19.474  25.748  1.00  0.00     0.261 C 
BRANCH   2   3
ATOM      3  O   UNL A   1      41.658  20.739  25.767  1.00  0.00    -0.460 OA
BRANCH   3   4
ATOM      4  C   UNL A   1      40.728  20.836  26.754  1.00  0.00     0.338 C 
ATOM      5  O   UNL A   1      40.790  20.282  27.842  1.00  0.00    -0.246 OA
BRANCH   4   6
ATOM      6  C   UNL A   1      39.639  21.805  26.443  1.00  0.00     0.062 A 
ATOM      7  C   UNL A   1      37.542  22.539  25.461  1.00  0.00     0.050 A 
ATOM      8  C   UNL A   1      37.754  23.828  25.954  1.00  0.00     0.027 A 
ATOM      9  C   UNL A   1      38.465  21.507  25.726  1.00  0.00     0.042 A 
ATOM     10  C   UNL A   1      38.918  24.123  26.658  1.00  0.00     0.003 A 
ATOM     11  C   UNL A   1      39.861  23.122  26.885  1.00  0.00     0.016 A 
BRANCH   7  12
ATOM     12  N   UNL A   1      36.353  22.320  24.705  1.00  0.00    -0.280 N 
ATOM     13  H   UNL A   1      36.425  22.343  23.724  1.00  0.00     0.180 HD
BRANCH  12  14
ATOM     14  S   UNL A   1      34.820  22.025  25.379  1.00  0.00     0.262 S 
ATOM     15  O   UNL A   1      34.123  23.286  25.196  1.00  0.00    -0.201 OA
ATOM     16  O   UNL A   1      35.063  21.537  26.721  1.00  0.00    -0.201 OA
BRANCH  14  17
ATOM     17  C   UNL A   1      33.818  20.781  24.558  1.00  0.00     0.092 A 
ATOM     18  C   UNL A   1      32.622  22.350  22.904  1.00  0.00     0.046 C 
ATOM     19  C   UNL A   1      32.878  21.029  23.546  1.00  0.00    -0.030 A 
ATOM     20  C   UNL A   1      32.144  19.954  23.005  1.00  0.00     0.006 A 
ATOM     21  C   UNL A   1      32.472  18.636  23.295  1.00  0.00     0.020 A 
ATOM     22  C   UNL A   1      34.173  19.433  24.813  1.00  0.00     0.042 A 
ATOM     23  C   UNL A   1      33.537  18.372  24.150  1.00  0.00     0.053 A 
BRANCH  23  24
ATOM     24  C   UNL A   1      34.005  17.018  24.275  1.00  0.00     0.099 C 
ATOM     25  N   UNL A   1      34.341  15.913  24.331  1.00  0.00    -0.192 NA
ENDBRANCH  23  24
ENDBRANCH  14  17
ENDBRANCH  12  14
ENDBRANCH   7  12
ENDBRANCH   4   6
ENDBRANCH   3   4
ENDBRANCH   2   3
ENDBRANCH   1   2
BRANCH   1  26
ATOM     26  O   UNL A   1      44.246  20.207  24.220  1.00  0.00    -0.374 OA
BRANCH  26  27
ATOM     27  C   UNL A   1      44.948  21.445  24.309  1.00  0.00     0.202 C 
BRANCH  27  28
ATOM     28  C   UNL A   1      44.188  22.737  23.978  1.00  0.00     0.261 C 
BRANCH  28  29
ATOM     29  O   UNL A   1      43.811  23.485  25.145  1.00  0.00    -0.460 OA
BRANCH  29  30
ATOM     30  C   UNL A   1      44.480  24.655  25.306  1.00  0.00     0.338 C 
ATOM     31  O   UNL A   1      45.423  25.068  24.652  1.00  0.00    -0.246 OA
BRANCH  30  32
ATOM     32  C   UNL A   1      43.759  25.489  26.281  1.00  0.00     0.060 A 
ATOM     33  C   UNL A   1      42.876  24.924  27.198  1.00  0.00     0.016 A 
ATOM     34  C   UNL A   1      44.016  26.867  26.291  1.00  0.00     0.016 A 
ATOM     35  C   UNL A   1      42.268  25.744  28.151  1.00  0.00     0.010 A 
ATOM     36  C   UNL A   1      43.409  27.684  27.245  1.00  0.00     0.010 A 
ATOM     37  C   UNL A   1      42.546  27.124  28.197  1.00  0.00    -0.014 A 
BRANCH  37  38
ATOM     38  C   UNL A   1      42.028  27.948  29.317  1.00  0.00     0.031 A 
ATOM     39  C   UNL A   1      40.760  28.738  29.189  1.00  0.00     0.074 A 
ATOM     40  C   UNL A   1      42.728  27.979  30.467  1.00  0.00     0.049 A 
ATOM     41  N   UNL A   1      40.136  29.443  30.100  1.00  0.00    -0.248 NA
ATOM     42  C   UNL A   1      40.110  28.748  27.871  1.00  0.00     0.031 C 
ATOM     43  C   UNL A   1      43.997  27.286  30.691  1.00  0.00     0.029 A 
ATOM     44  N   UNL A   1      42.471  28.601  31.663  1.00  0.00    -0.354 N 
ATOM     45  C   UNL A   1      39.011  29.962  29.476  1.00  0.00     0.074 A 
ATOM     46  C   UNL A   1      39.067  29.540  28.091  1.00  0.00     0.031 C 
ATOM     47  C   UNL A   1      44.385  27.481  31.959  1.00  0.00     0.029 A 
ATOM     48  C   UNL A   1      43.416  28.347  32.627  1.00  0.00     0.049 A 
ATOM     49  H   UNL A   1      41.686  29.174  31.816  1.00  0.00     0.167 HD
ATOM     50  C   UNL A   1      38.013  30.698  30.019  1.00  0.00     0.037 A 
ATOM     51  C   UNL A   1      43.496  28.761  33.907  1.00  0.00     0.037 A 
ATOM     52  C   UNL A   1      37.972  31.124  31.397  1.00  0.00     0.049 A 
ATOM     53  C   UNL A   1      42.399  29.625  34.467  1.00  0.00     0.074 A 
ATOM     54  C   UNL A   1      36.983  31.842  32.045  1.00  0.00     0.029 A 
ATOM     55  N   UNL A   1      38.968  30.883  32.333  1.00  0.00    -0.354 N 
ATOM     56  N   UNL A   1      41.295  30.035  33.892  1.00  0.00    -0.248 NA
ATOM     57  C   UNL A   1      42.555  30.081  35.856  1.00  0.00     0.031 C 
ATOM     58  C   UNL A   1      37.409  32.096  33.351  1.00  0.00     0.029 A 
ATOM     59  C   UNL A   1      38.631  31.474  33.542  1.00  0.00     0.049 A 
ATOM     60  H   UNL A   1      39.791  30.370  32.165  1.00  0.00     0.167 HD
ATOM     61  C   UNL A   1      40.617  30.776  34.851  1.00  0.00     0.074 A 
ATOM     62  C   UNL A   1      41.422  30.740  36.054  1.00  0.00     0.031 C 
ATOM     63  C   UNL A   1      39.435  31.430  34.739  1.00  0.00     0.037 A 
BRANCH  50  64
ATOM     64  C   UNL A   1      36.862  31.090  29.135  1.00  0.00     0.064 A 
ATOM     65  C   UNL A   1      35.857  30.171  28.795  1.00  0.00     0.173 A 
ATOM     66  C   UNL A   1      36.706  32.417  28.708  1.00  0.00     0.173 A 
ATOM     67  F   UNL A   1      35.958  28.889  29.175  1.00  0.00    -0.203 F 
ATOM     68  C   UNL A   1      34.750  30.563  28.046  1.00  0.00     0.198 A 
ATOM     69  C   UNL A   1      35.582  32.813  27.988  1.00  0.00     0.198 A 
ATOM     70  F   UNL A   1      37.631  33.340  29.014  1.00  0.00    -0.203 F 
ATOM     71  F   UNL A   1      33.821  29.659  27.706  1.00  0.00    -0.200 F 
ATOM     72  C   UNL A   1      34.607  31.885  27.654  1.00  0.00     0.200 A 
ATOM     73  F   UNL A   1      35.435  34.096  27.627  1.00  0.00    -0.200 F 
ATOM     74  F   UNL A   1      33.530  32.264  26.954  1.00  0.00    -0.200 F 
ENDBRANCH  50  64
BRANCH  51  75
ATOM     75  C   UNL A   1      44.643  28.332  34.749  1.00  0.00     0.064 A 
ATOM     76  C   UNL A   1      44.564  27.181  35.544  1.00  0.00     0.173 A 
ATOM     77  C   UNL A   1      45.849  29.049  34.760  1.00  0.00     0.173 A 
ATOM     78  F   UNL A   1      43.427  26.470  35.584  1.00  0.00    -0.203 F 
ATOM     79  C   UNL A   1      45.642  26.770  36.326  1.00  0.00     0.198 A 
ATOM     80  C   UNL A   1      46.937  28.619  35.515  1.00  0.00     0.198 A 
ATOM     81  F   UNL A   1      45.979  30.157  34.014  1.00  0.00    -0.203 F 
ATOM     82  F   UNL A   1      45.525  25.689  37.108  1.00  0.00    -0.200 F 
ATOM     83  C   UNL A   1      46.831  27.484  36.303  1.00  0.00     0.200 A 
ATOM     84  F   UNL A   1      48.090  29.302  35.474  1.00  0.00    -0.200 F 
ATOM     85  F   UNL A   1      47.872  27.080  37.043  1.00  0.00    -0.200 F 
ENDBRANCH  51  75
BRANCH  63  86
ATOM     86  C   UNL A   1      38.917  32.159  35.948  1.00  0.00     0.064 A 
ATOM     87  C   UNL A   1      38.169  31.503  36.936  1.00  0.00     0.173 A 
ATOM     88  C   UNL A   1      39.253  33.505  36.167  1.00  0.00     0.173 A 
ATOM     89  F   UNL A   1      37.811  30.221  36.773  1.00  0.00    -0.203 F 
ATOM     90  C   UNL A   1      37.769  32.169  38.093  1.00  0.00     0.198 A 
ATOM     91  C   UNL A   1      38.882  34.157  37.340  1.00  0.00     0.198 A 
ATOM     92  F   UNL A   1      39.974  34.179  35.258  1.00  0.00    -0.203 F 
ATOM     93  F   UNL A   1      37.027  31.530  39.007  1.00  0.00    -0.200 F 
ATOM     94  C   UNL A   1      38.137  33.490  38.300  1.00  0.00     0.200 A 
ATOM     95  F   UNL A   1      39.258  35.426  37.547  1.00  0.00    -0.200 F 
ATOM     96  F   UNL A   1      37.775  34.119  39.426  1.00  0.00    -0.200 F 
ENDBRANCH  63  86
ENDBRANCH  37  38
ENDBRANCH  30  32
ENDBRANCH  29  30
ENDBRANCH  28  29
ENDBRANCH  27  28
ENDBRANCH  26  27
ENDBRANCH   1  26
TORSDOF 18
ENDMDL
MODEL 2
REMARK VINA RESULT:     -11.9      3.328      8.555
REMARK SMILES Cc1ccc(C#N)cc1S(=O)(=O)Nc1cccc(C(=O)OCCOCCOC(=O)c2ccc(-c3c4nc(c(-c5c(F)c(F)c(F)c(F)c5F)c5ccc([nH]5)c(-c5c(F)c(F)c(F)c(F)c5F)c5nc(c(-c6c(F)c(F)c(F)c(F)c6F)c6ccc3[nH]6)C=C5)C=C4)cc2)c1
REMARK SMILES IDX 23 1 22 2 21 3 19 4 20 5 18 6 14 7 15 8 93 9 16 10 17 11
REMARK SMILES IDX 13 12 10 14 11 15 12 16 9 17 1 18 2 19 3 20 4 21 8 22 5 23
REMARK SMILES IDX 6 24 7 25 24 26 25 27 26 28 27 29 28 30 29 31 30 32 31 33
REMARK SMILES IDX 92 34 32 35 91 36 33 37 34 38 35 39 85 40 36 41 90 42 84 43
REMARK SMILES IDX 86 44 37 45 89 46 83 47 82 48 38 50 70 51 50 52 69 53 51 54
REMARK SMILES IDX 54 55 68 56 87 57 52 58 53 59 67 61 88 62 55 63 39 64 40 65
REMARK SMILES IDX 48 66 41 67 42 68 46 69 49 70 43 71 44 72 47 73 45 74 71 75
REMARK SMILES IDX 72 76 80 77 73 78 74 79 78 80 81 81 75 82 76 83 79 84 77 85
REMARK SMILES IDX 56 86 57 87 65 88 58 89 59 90 63 91 66 92 60 93 61 94 64 95
REMARK SMILES IDX 62 96
REMARK H PARENT 13 13 86 49 54 60
REMARK Flexibility Score: inf
ROOT
ATOM      1  C   UNL A   1      30.174  28.381  23.455  1.00  0.00     0.202 C 
ENDROOT
BRANCH   1   2
ATOM      2  C   UNL A   1      30.889  27.584  22.356  1.00  0.00     0.261 C 
BRANCH   2   3
ATOM      3  O   UNL A   1      32.318  27.768  22.319  1.00  0.00    -0.460 OA
BRANCH   3   4
ATOM      4  C   UNL A   1      33.012  26.607  22.188  1.00  0.00     0.338 C 
ATOM      5  O   UNL A   1      33.553  26.218  21.163  1.00  0.00    -0.246 OA
BRANCH   4   6
ATOM      6  C   UNL A   1      33.174  25.870  23.473  1.00  0.00     0.062 A 
ATOM      7  C   UNL A   1      33.022  23.955  24.961  1.00  0.00     0.050 A 
ATOM      8  C   UNL A   1      33.532  24.722  26.011  1.00  0.00     0.027 A 
ATOM      9  C   UNL A   1      32.867  24.511  23.675  1.00  0.00     0.042 A 
ATOM     10  C   UNL A   1      33.830  26.067  25.812  1.00  0.00     0.003 A 
ATOM     11  C   UNL A   1      33.636  26.640  24.556  1.00  0.00     0.016 A 
BRANCH   7  12
ATOM     12  N   UNL A   1      32.691  22.599  25.250  1.00  0.00    -0.280 N 
ATOM     13  H   UNL A   1      31.743  22.383  25.404  1.00  0.00     0.180 HD
BRANCH  12  14
ATOM     14  S   UNL A   1      33.817  21.329  25.347  1.00  0.00     0.262 S 
ATOM     15  O   UNL A   1      33.868  21.032  26.768  1.00  0.00    -0.201 OA
ATOM     16  O   UNL A   1      35.010  21.804  24.678  1.00  0.00    -0.201 OA
BRANCH  14  17
ATOM     17  C   UNL A   1      33.354  19.794  24.537  1.00  0.00     0.092 A 
ATOM     18  C   UNL A   1      32.185  20.832  22.492  1.00  0.00     0.046 C 
ATOM     19  C   UNL A   1      32.620  19.690  23.346  1.00  0.00    -0.030 A 
ATOM     20  C   UNL A   1      32.309  18.413  22.834  1.00  0.00     0.006 A 
ATOM     21  C   UNL A   1      32.886  17.264  23.360  1.00  0.00     0.020 A 
ATOM     22  C   UNL A   1      33.972  18.620  25.037  1.00  0.00     0.042 A 
ATOM     23  C   UNL A   1      33.776  17.374  24.422  1.00  0.00     0.053 A 
BRANCH  23  24
ATOM     24  C   UNL A   1      34.530  16.213  24.817  1.00  0.00     0.099 C 
ATOM     25  N   UNL A   1      35.185  15.318  25.142  1.00  0.00    -0.192 NA
ENDBRANCH  23  24
ENDBRANCH  14  17
ENDBRANCH  12  14
ENDBRANCH   7  12
ENDBRANCH   4   6
ENDBRANCH   3   4
ENDBRANCH   2   3
ENDBRANCH   1   2
BRANCH   1  26
ATOM     26  O   UNL A   1      30.836  28.578  24.698  1.00  0.00    -0.374 OA
BRANCH  26  27
ATOM     27  C   UNL A   1      31.296  29.889  25.018  1.00  0.00     0.202 C 
BRANCH  27  28
ATOM     28  C   UNL A   1      31.965  30.113  26.382  1.00  0.00     0.261 C 
BRANCH  28  29
ATOM     29  O   UNL A   1      33.317  30.583  26.277  1.00  0.00    -0.460 OA
BRANCH  29  30
ATOM     30  C   UNL A   1      33.670  31.502  27.211  1.00  0.00     0.338 C 
ATOM     31  O   UNL A   1      32.985  32.405  27.661  1.00  0.00    -0.246 OA
BRANCH  30  32
ATOM     32  C   UNL A   1      34.972  31.126  27.787  1.00  0.00     0.060 A 
ATOM     33  C   UNL A   1      35.984  32.070  27.954  1.00  0.00     0.016 A 
ATOM     34  C   UNL A   1      35.155  29.800  28.201  1.00  0.00     0.016 A 
ATOM     35  C   UNL A   1      37.177  31.684  28.568  1.00  0.00     0.010 A 
ATOM     36  C   UNL A   1      36.346  29.417  28.817  1.00  0.00     0.010 A 
ATOM     37  C   UNL A   1      37.360  30.363  29.025  1.00  0.00    -0.014 A 
BRANCH  37  38
ATOM     38  C   UNL A   1      38.559  30.015  29.825  1.00  0.00     0.031 A 
ATOM     39  C   UNL A   1      38.767  30.558  31.207  1.00  0.00     0.074 A 
ATOM     40  C   UNL A   1      39.477  29.192  29.280  1.00  0.00     0.049 A 
ATOM     41  N   UNL A   1      39.722  30.287  32.061  1.00  0.00    -0.248 NA
ATOM     42  C   UNL A   1      37.785  31.537  31.694  1.00  0.00     0.031 C 
ATOM     43  C   UNL A   1      39.402  28.638  27.928  1.00  0.00     0.029 A 
ATOM     44  N   UNL A   1      40.637  28.669  29.793  1.00  0.00    -0.354 N 
ATOM     45  C   UNL A   1      39.446  31.041  33.193  1.00  0.00     0.074 A 
ATOM     46  C   UNL A   1      38.266  31.828  32.896  1.00  0.00     0.031 C 
ATOM     47  C   UNL A   1      40.443  27.817  27.733  1.00  0.00     0.029 A 
ATOM     48  C   UNL A   1      41.282  27.817  28.929  1.00  0.00     0.049 A 
ATOM     49  H   UNL A   1      40.974  28.883  30.692  1.00  0.00     0.167 HD
ATOM     50  C   UNL A   1      40.104  31.051  34.377  1.00  0.00     0.037 A 
ATOM     51  C   UNL A   1      42.420  27.112  29.081  1.00  0.00     0.037 A 
ATOM     52  C   UNL A   1      41.285  30.274  34.659  1.00  0.00     0.049 A 
ATOM     53  C   UNL A   1      43.160  27.187  30.389  1.00  0.00     0.074 A 
ATOM     54  C   UNL A   1      41.998  30.193  35.842  1.00  0.00     0.029 A 
ATOM     55  N   UNL A   1      41.934  29.454  33.746  1.00  0.00    -0.354 N 
ATOM     56  N   UNL A   1      42.841  27.835  31.482  1.00  0.00    -0.248 NA
ATOM     57  C   UNL A   1      44.416  26.429  30.487  1.00  0.00     0.031 C 
ATOM     58  C   UNL A   1      43.115  29.382  35.627  1.00  0.00     0.029 A 
ATOM     59  C   UNL A   1      43.062  28.897  34.331  1.00  0.00     0.049 A 
ATOM     60  H   UNL A   1      41.639  29.293  32.821  1.00  0.00     0.167 HD
ATOM     61  C   UNL A   1      43.840  27.548  32.403  1.00  0.00     0.074 A 
ATOM     62  C   UNL A   1      44.765  26.647  31.747  1.00  0.00     0.031 C 
ATOM     63  C   UNL A   1      43.977  27.996  33.675  1.00  0.00     0.037 A 
BRANCH  50  64
ATOM     64  C   UNL A   1      39.563  31.921  35.477  1.00  0.00     0.064 A 
ATOM     65  C   UNL A   1      38.597  31.444  36.377  1.00  0.00     0.173 A 
ATOM     66  C   UNL A   1      40.086  33.204  35.699  1.00  0.00     0.173 A 
ATOM     67  F   UNL A   1      38.062  30.225  36.208  1.00  0.00    -0.203 F 
ATOM     68  C   UNL A   1      38.164  32.225  37.445  1.00  0.00     0.198 A 
ATOM     69  C   UNL A   1      39.674  33.969  36.788  1.00  0.00     0.198 A 
ATOM     70  F   UNL A   1      41.020  33.706  34.877  1.00  0.00    -0.203 F 
ATOM     71  F   UNL A   1      37.216  31.759  38.270  1.00  0.00    -0.200 F 
ATOM     72  C   UNL A   1      38.711  33.481  37.657  1.00  0.00     0.200 A 
ATOM     73  F   UNL A   1      40.220  35.175  37.003  1.00  0.00    -0.200 F 
ATOM     74  F   UNL A   1      38.309  34.221  38.699  1.00  0.00    -0.200 F 
ENDBRANCH  50  64
BRANCH  51  75
ATOM     75  C   UNL A   1      42.905  26.251  27.971  1.00  0.00     0.064 A 
ATOM     76  C   UNL A   1      42.475  24.923  27.846  1.00  0.00     0.173 A 
ATOM     77  C   UNL A   1      43.791  26.742  27.000  1.00  0.00     0.173 A 
ATOM     78  F   UNL A   1      41.643  24.400  28.759  1.00  0.00    -0.203 F 
ATOM     79  C   UNL A   1      42.920  24.117  26.801  1.00  0.00     0.198 A 
ATOM     80  C   UNL A   1      44.209  25.946  25.936  1.00  0.00     0.198 A 
ATOM     81  F   UNL A   1      44.231  28.007  27.070  1.00  0.00    -0.203 F 
ATOM     82  F   UNL A   1      42.524  22.839  26.729  1.00  0.00    -0.200 F 
ATOM     83  C   UNL A   1      43.778  24.631  25.841  1.00  0.00     0.200 A 
ATOM     84  F   UNL A   1      45.022  26.455  25.000  1.00  0.00    -0.200 F 
ATOM     85  F   UNL A   1      44.193  23.860  24.827  1.00  0.00    -0.200 F 
ENDBRANCH  51  75
BRANCH  63  86
ATOM     86  C   UNL A   1      45.164  27.518  34.464  1.00  0.00     0.064 A 
ATOM     87  C   UNL A   1      46.352  28.260  34.526  1.00  0.00     0.173 A 
ATOM     88  C   UNL A   1      45.079  26.353  35.243  1.00  0.00     0.173 A 
ATOM     89  F   UNL A   1      46.492  29.375  33.794  1.00  0.00    -0.203 F 
ATOM     90  C   UNL A   1      47.413  27.849  35.330  1.00  0.00     0.198 A 
ATOM     91  C   UNL A   1      46.128  25.964  36.072  1.00  0.00     0.198 A 
ATOM     92  F   UNL A   1      43.962  25.608  35.228  1.00  0.00    -0.203 F 
ATOM     93  F   UNL A   1      48.551  28.557  35.347  1.00  0.00    -0.200 F 
ATOM     94  C   UNL A   1      47.295  26.710  36.112  1.00  0.00     0.200 A 
ATOM     95  F   UNL A   1      46.002  24.875  36.844  1.00  0.00    -0.200 F 
ATOM     96  F   UNL A   1      48.307  26.332  36.905  1.00  0.00    -0.200 F 
ENDBRANCH  63  86
ENDBRANCH  37  38
ENDBRANCH  30  32
ENDBRANCH  29  30
ENDBRANCH  28  29
ENDBRANCH  27  28
ENDBRANCH  26  27
ENDBRANCH   1  26
TORSDOF 18
ENDMDL
MODEL 3
REMARK VINA RESULT:     -11.8      1.361      7.345
REMARK SMILES Cc1ccc(C#N)cc1S(=O)(=O)Nc1cccc(C(=O)OCCOCCOC(=O)c2ccc(-c3c4nc(c(-c5c(F)c(F)c(F)c(F)c5F)c5ccc([nH]5)c(-c5c(F)c(F)c(F)c(F)c5F)c5nc(c(-c6c(F)c(F)c(F)c(F)c6F)c6ccc3[nH]6)C=C5)C=C4)cc2)c1
REMARK SMILES IDX 23 1 22 2 21 3 19 4 20 5 18 6 14 7 15 8 93 9 16 10 17 11
REMARK SMILES IDX 13 12 10 14 11 15 12 16 9 17 1 18 2 19 3 20 4 21 8 22 5 23
REMARK SMILES IDX 6 24 7 25 24 26 25 27 26 28 27 29 28 30 29 31 30 32 31 33
REMARK SMILES IDX 92 34 32 35 91 36 33 37 34 38 35 39 85 40 36 41 90 42 84 43
REMARK SMILES IDX 86 44 37 45 89 46 83 47 82 48 38 50 70 51 50 52 69 53 51 54
REMARK SMILES IDX 54 55 68 56 87 57 52 58 53 59 67 61 88 62 55 63 39 64 40 65
REMARK SMILES IDX 48 66 41 67 42 68 46 69 49 70 43 71 44 72 47 73 45 74 71 75
REMARK SMILES IDX 72 76 80 77 73 78 74 79 78 80 81 81 75 82 76 83 79 84 77 85
REMARK SMILES IDX 56 86 57 87 65 88 58 89 59 90 63 91 66 92 60 93 61 94 64 95
REMARK SMILES IDX 62 96
REMARK H PARENT 13 13 86 49 54 60
REMARK Flexibility Score: inf
ROOT
ATOM      1  C   UNL A   1      43.371  19.507  25.731  1.00  0.00     0.202 C 
ENDROOT
BRANCH   1   2
ATOM      2  C   UNL A   1      41.851  19.714  25.761  1.00  0.00     0.261 C 
BRANCH   2   3
ATOM      3  O   UNL A   1      41.438  21.093  25.817  1.00  0.00    -0.460 OA
BRANCH   3   4
ATOM      4  C   UNL A   1      40.572  21.362  26.830  1.00  0.00     0.338 C 
ATOM      5  O   UNL A   1      40.776  21.135  28.014  1.00  0.00    -0.246 OA
BRANCH   4   6
ATOM      6  C   UNL A   1      39.353  22.094  26.384  1.00  0.00     0.062 A 
ATOM      7  C   UNL A   1      37.244  22.374  25.210  1.00  0.00     0.050 A 
ATOM      8  C   UNL A   1      37.174  23.701  25.639  1.00  0.00     0.027 A 
ATOM      9  C   UNL A   1      38.317  21.547  25.603  1.00  0.00     0.042 A 
ATOM     10  C   UNL A   1      38.202  24.242  26.406  1.00  0.00     0.003 A 
ATOM     11  C   UNL A   1      39.291  23.447  26.760  1.00  0.00     0.016 A 
BRANCH   7  12
ATOM     12  N   UNL A   1      36.182  21.901  24.385  1.00  0.00    -0.280 N 
ATOM     13  H   UNL A   1      36.386  21.713  23.441  1.00  0.00     0.180 HD
BRANCH  12  14
ATOM     14  S   UNL A   1      34.588  21.641  24.917  1.00  0.00     0.262 S 
ATOM     15  O   UNL A   1      34.637  22.008  26.321  1.00  0.00    -0.201 OA
ATOM     16  O   UNL A   1      34.265  20.278  24.550  1.00  0.00    -0.201 OA
BRANCH  14  17
ATOM     17  C   UNL A   1      33.324  22.682  24.177  1.00  0.00     0.092 A 
ATOM     18  C   UNL A   1      31.358  21.927  25.658  1.00  0.00     0.046 C 
ATOM     19  C   UNL A   1      31.967  22.695  24.535  1.00  0.00    -0.030 A 
ATOM     20  C   UNL A   1      31.080  23.551  23.851  1.00  0.00     0.006 A 
ATOM     21  C   UNL A   1      31.546  24.529  22.981  1.00  0.00     0.020 A 
ATOM     22  C   UNL A   1      33.792  23.711  23.323  1.00  0.00     0.042 A 
ATOM     23  C   UNL A   1      32.914  24.655  22.768  1.00  0.00     0.053 A 
BRANCH  23  24
ATOM     24  C   UNL A   1      33.400  25.798  22.042  1.00  0.00     0.099 C 
ATOM     25  N   UNL A   1      33.731  26.732  21.447  1.00  0.00    -0.192 NA
ENDBRANCH  23  24
ENDBRANCH  14  17
ENDBRANCH  12  14
ENDBRANCH   7  12
ENDBRANCH   4   6
ENDBRANCH   3   4
ENDBRANCH   2   3
ENDBRANCH   1   2
BRANCH   1  26
ATOM     26  O   UNL A   1      44.090  19.893  24.567  1.00  0.00    -0.374 OA
BRANCH  26  27
ATOM     27  C   UNL A   1      44.951  21.026  24.650  1.00  0.00     0.202 C 
BRANCH  27  28
ATOM     28  C   UNL A   1      44.449  22.365  24.092  1.00  0.00     0.261 C 
BRANCH  28  29
ATOM     29  O   UNL A   1      43.872  23.214  25.097  1.00  0.00    -0.460 OA
BRANCH  29  30
ATOM     30  C   UNL A   1      44.506  24.403  25.263  1.00  0.00     0.338 C 
ATOM     31  O   UNL A   1      45.409  24.865  24.587  1.00  0.00    -0.246 OA
BRANCH  30  32
ATOM     32  C   UNL A   1      43.793  25.188  26.285  1.00  0.00     0.060 A 
ATOM     33  C   UNL A   1      42.831  24.599  27.103  1.00  0.00     0.016 A 
ATOM     34  C   UNL A   1      44.137  26.538  26.441  1.00  0.00     0.016 A 
ATOM     35  C   UNL A   1      42.231  25.364  28.105  1.00  0.00     0.010 A 
ATOM     36  C   UNL A   1      43.538  27.300  27.444  1.00  0.00     0.010 A 
ATOM     37  C   UNL A   1      42.595  26.712  28.299  1.00  0.00    -0.014 A 
BRANCH  37  38
ATOM     38  C   UNL A   1      42.076  27.458  29.472  1.00  0.00     0.031 A 
ATOM     39  C   UNL A   1      42.773  27.420  30.798  1.00  0.00     0.074 A 
ATOM     40  C   UNL A   1      40.947  28.179  29.324  1.00  0.00     0.049 A 
ATOM     41  N   UNL A   1      42.489  28.078  31.894  1.00  0.00    -0.248 NA
ATOM     42  C   UNL A   1      43.933  26.525  30.917  1.00  0.00     0.031 C 
ATOM     43  C   UNL A   1      40.160  28.254  28.093  1.00  0.00     0.029 A 
ATOM     44  N   UNL A   1      40.275  28.992  30.202  1.00  0.00    -0.354 N 
ATOM     45  C   UNL A   1      43.444  27.696  32.826  1.00  0.00     0.074 A 
ATOM     46  C   UNL A   1      44.282  26.704  32.186  1.00  0.00     0.031 C 
ATOM     47  C   UNL A   1      39.140  29.104  28.277  1.00  0.00     0.029 A 
ATOM     48  C   UNL A   1      39.174  29.601  29.650  1.00  0.00     0.049 A 
ATOM     49  H   UNL A   1      40.555  29.126  31.135  1.00  0.00     0.167 HD
ATOM     50  C   UNL A   1      43.617  28.156  34.088  1.00  0.00     0.037 A 
ATOM     51  C   UNL A   1      38.291  30.465  30.187  1.00  0.00     0.037 A 
ATOM     52  C   UNL A   1      42.770  29.136  34.721  1.00  0.00     0.049 A 
ATOM     53  C   UNL A   1      38.477  30.915  31.610  1.00  0.00     0.074 A 
ATOM     54  C   UNL A   1      42.890  29.688  35.985  1.00  0.00     0.029 A 
ATOM     55  N   UNL A   1      41.639  29.700  34.147  1.00  0.00    -0.354 N 
ATOM     56  N   UNL A   1      39.435  30.615  32.453  1.00  0.00    -0.248 NA
ATOM     57  C   UNL A   1      37.462  31.827  32.158  1.00  0.00     0.031 C 
ATOM     58  C   UNL A   1      41.798  30.531  36.202  1.00  0.00     0.029 A 
ATOM     59  C   UNL A   1      41.033  30.563  35.048  1.00  0.00     0.049 A 
ATOM     60  H   UNL A   1      41.315  29.514  33.236  1.00  0.00     0.167 HD
ATOM     61  C   UNL A   1      39.152  31.315  33.618  1.00  0.00     0.074 A 
ATOM     62  C   UNL A   1      37.946  32.075  33.367  1.00  0.00     0.031 C 
ATOM     63  C   UNL A   1      39.834  31.321  34.791  1.00  0.00     0.037 A 
BRANCH  50  64
ATOM     64  C   UNL A   1      44.776  27.621  34.882  1.00  0.00     0.064 A 
ATOM     65  C   UNL A   1      44.631  26.507  35.724  1.00  0.00     0.173 A 
ATOM     66  C   UNL A   1      46.063  28.158  34.724  1.00  0.00     0.173 A 
ATOM     67  F   UNL A   1      43.423  25.957  35.914  1.00  0.00    -0.203 F 
ATOM     68  C   UNL A   1      45.727  25.965  36.391  1.00  0.00     0.198 A 
ATOM     69  C   UNL A   1      47.161  27.593  35.366  1.00  0.00     0.198 A 
ATOM     70  F   UNL A   1      46.261  29.216  33.922  1.00  0.00    -0.203 F 
ATOM     71  F   UNL A   1      45.557  24.922  37.216  1.00  0.00    -0.200 F 
ATOM     72  C   UNL A   1      46.992  26.499  36.202  1.00  0.00     0.200 A 
ATOM     73  F   UNL A   1      48.387  28.098  35.165  1.00  0.00    -0.200 F 
ATOM     74  F   UNL A   1      48.049  25.960  36.826  1.00  0.00    -0.200 F 
ENDBRANCH  50  64
BRANCH  51  75
ATOM     75  C   UNL A   1      37.171  30.982  29.357  1.00  0.00     0.064 A 
ATOM     76  C   UNL A   1      36.053  30.185  29.075  1.00  0.00     0.173 A 
ATOM     77  C   UNL A   1      37.182  32.289  28.848  1.00  0.00     0.173 A 
ATOM     78  F   UNL A   1      36.002  28.921  29.523  1.00  0.00    -0.203 F 
ATOM     79  C   UNL A   1      34.997  30.670  28.307  1.00  0.00     0.198 A 
ATOM     80  C   UNL A   1      36.111  32.786  28.109  1.00  0.00     0.198 A 
ATOM     81  F   UNL A   1      38.226  33.096  29.091  1.00  0.00    -0.203 F 
ATOM     82  F   UNL A   1      33.960  29.872  28.019  1.00  0.00    -0.200 F 
ATOM     83  C   UNL A   1      35.021  31.973  27.833  1.00  0.00     0.200 A 
ATOM     84  F   UNL A   1      36.131  34.052  27.671  1.00  0.00    -0.200 F 
ATOM     85  F   UNL A   1      33.999  32.444  27.109  1.00  0.00    -0.200 F 
ENDBRANCH  51  75
BRANCH  63  86
ATOM     86  C   UNL A   1      39.307  32.184  35.904  1.00  0.00     0.064 A 
ATOM     87  C   UNL A   1      38.383  31.695  36.839  1.00  0.00     0.173 A 
ATOM     88  C   UNL A   1      39.804  33.484  36.094  1.00  0.00     0.173 A 
ATOM     89  F   UNL A   1      37.868  30.464  36.699  1.00  0.00    -0.203 F 
ATOM     90  C   UNL A   1      37.969  32.477  37.915  1.00  0.00     0.198 A 
ATOM     91  C   UNL A   1      39.415  34.249  37.190  1.00  0.00     0.198 A 
ATOM     92  F   UNL A   1      40.697  33.999  35.235  1.00  0.00    -0.203 F 
ATOM     93  F   UNL A   1      37.060  31.999  38.775  1.00  0.00    -0.200 F 
ATOM     94  C   UNL A   1      38.495  33.747  38.097  1.00  0.00     0.200 A 
ATOM     95  F   UNL A   1      39.942  35.467  37.376  1.00  0.00    -0.200 F 
ATOM     96  F   UNL A   1      38.116  34.486  39.149  1.00  0.00    -0.200 F 
ENDBRANCH  63  86
ENDBRANCH  37  38
ENDBRANCH  30  32
ENDBRANCH  29  30
ENDBRANCH  28  29
ENDBRANCH  27  28
ENDBRANCH  26  27
ENDBRANCH   1  26
TORSDOF 18
ENDMDL
