MODEL 1
REMARK VINA RESULT:     -12.1      0.000      0.000
REMARK SMILES CCC(=O)Nc1ccc(NC(=O)[C@@H]2CC=CC[C@@H]2C(=O)OCCOCCOC(=O)c2ccc(-c3c4nc(c(-c5c(F)c(F)c(F)c(F)c5F)c5ccc([nH]5)c(-c5c(F)c(F)c(F)c(F)c5F)c5nc(c(-c6c(F)c(F)c(F)c(F)c6F)c6ccc3[nH]6)C=C5)C=C4)cc2)cc1
REMARK SMILES IDX 23 1 22 2 21 3 19 4 20 5 18 6 13 7 14 8 15 9 17 10 16 11
REMARK SMILES IDX 11 12 10 13 12 15 9 16 6 17 7 18 94 19 8 20 93 21 5 22 3 23
REMARK SMILES IDX 4 24 2 26 1 27 24 28 25 29 26 30 27 31 28 32 29 33 30 34
REMARK SMILES IDX 31 35 92 36 32 37 91 38 33 39 34 40 35 41 85 42 36 43 90 44
REMARK SMILES IDX 84 45 86 46 37 47 89 48 83 49 82 50 38 52 70 53 50 54 69 55
REMARK SMILES IDX 51 56 54 57 68 58 87 59 52 60 53 61 67 63 88 64 55 65 39 66
REMARK SMILES IDX 40 67 48 68 41 69 42 70 46 71 49 72 43 73 44 74 47 75 45 76
REMARK SMILES IDX 71 77 72 78 80 79 73 80 74 81 78 82 81 83 75 84 76 85 79 86
REMARK SMILES IDX 77 87 56 88 57 89 65 90 58 91 59 92 63 93 66 94 60 95 61 96
REMARK SMILES IDX 64 97 62 98
REMARK H PARENT 10 14 5 25 86 51 54 62
REMARK Flexibility Score: inf
ROOT
ATOM      1  C   UNL A   1      32.147  29.787  26.346  1.00  0.00     0.202 C 
ENDROOT
BRANCH   1   2
ATOM      2  C   UNL A   1      33.555  29.205  26.478  1.00  0.00     0.261 C 
BRANCH   2   3
ATOM      3  O   UNL A   1      33.585  27.778  26.312  1.00  0.00    -0.463 OA
BRANCH   3   4
ATOM      4  C   UNL A   1      33.583  27.366  25.009  1.00  0.00     0.310 C 
ATOM      5  O   UNL A   1      34.015  28.035  24.083  1.00  0.00    -0.252 OA
BRANCH   4   6
ATOM      6  C   UNL A   1      32.946  25.983  24.895  1.00  0.00     0.116 C 
ATOM      7  C   UNL A   1      32.291  25.689  23.534  1.00  0.00     0.097 C 
ATOM      8  C   UNL A   1      31.268  26.755  23.136  1.00  0.00     0.041 C 
ATOM      9  C   UNL A   1      30.361  27.056  24.308  1.00  0.00    -0.030 C 
ATOM     10  C   UNL A   1      31.853  25.890  25.969  1.00  0.00     0.043 C 
ATOM     11  C   UNL A   1      30.604  26.636  25.565  1.00  0.00    -0.030 C 
BRANCH   7  12
ATOM     12  C   UNL A   1      33.288  25.375  22.434  1.00  0.00     0.228 C 
ATOM     13  N   UNL A   1      33.742  24.096  22.246  1.00  0.00    -0.326 N 
ATOM     14  H   UNL A   1      34.318  23.978  21.456  1.00  0.00     0.169 HD
ATOM     15  O   UNL A   1      33.655  26.232  21.630  1.00  0.00    -0.274 OA
BRANCH  13  16
ATOM     16  C   UNL A   1      33.525  22.926  22.990  1.00  0.00     0.041 A 
ATOM     17  C   UNL A   1      32.864  20.646  24.471  1.00  0.00     0.041 A 
ATOM     18  C   UNL A   1      33.885  21.481  24.907  1.00  0.00     0.028 A 
ATOM     19  C   UNL A   1      32.165  20.954  23.304  1.00  0.00     0.028 A 
ATOM     20  C   UNL A   1      34.245  22.589  24.138  1.00  0.00     0.028 A 
ATOM     21  C   UNL A   1      32.511  22.076  22.550  1.00  0.00     0.028 A 
BRANCH  17  22
ATOM     22  N   UNL A   1      32.528  19.537  25.245  1.00  0.00    -0.326 N 
ATOM     23  C   UNL A   1      32.972  18.250  25.100  1.00  0.00     0.224 C 
ATOM     24  O   UNL A   1      32.440  17.351  25.754  1.00  0.00    -0.275 OA
ATOM     25  H   UNL A   1      31.898  19.698  25.984  1.00  0.00     0.169 HD
BRANCH  23  26
ATOM     26  C   UNL A   1      34.205  17.981  24.253  1.00  0.00     0.097 C 
ATOM     27  C   UNL A   1      34.010  16.953  23.158  1.00  0.00     0.014 C 
ENDBRANCH  23  26
ENDBRANCH  17  22
ENDBRANCH  13  16
ENDBRANCH   7  12
ENDBRANCH   4   6
ENDBRANCH   3   4
ENDBRANCH   2   3
ENDBRANCH   1   2
BRANCH   1  28
ATOM     28  O   UNL A   1      31.866  31.081  26.870  1.00  0.00    -0.374 OA
BRANCH  28  29
ATOM     29  C   UNL A   1      32.921  31.801  27.500  1.00  0.00     0.202 C 
BRANCH  29  30
ATOM     30  C   UNL A   1      33.013  33.319  27.297  1.00  0.00     0.261 C 
BRANCH  30  31
ATOM     31  O   UNL A   1      32.340  34.072  28.313  1.00  0.00    -0.460 OA
BRANCH  31  32
ATOM     32  C   UNL A   1      33.065  35.105  28.797  1.00  0.00     0.338 C 
ATOM     33  O   UNL A   1      32.799  36.299  28.745  1.00  0.00    -0.246 OA
BRANCH  32  34
ATOM     34  C   UNL A   1      34.184  34.584  29.594  1.00  0.00     0.060 A 
ATOM     35  C   UNL A   1      35.469  34.679  29.043  1.00  0.00     0.016 A 
ATOM     36  C   UNL A   1      33.978  33.977  30.834  1.00  0.00     0.016 A 
ATOM     37  C   UNL A   1      36.555  34.133  29.714  1.00  0.00     0.010 A 
ATOM     38  C   UNL A   1      35.066  33.409  31.498  1.00  0.00     0.010 A 
ATOM     39  C   UNL A   1      36.349  33.456  30.922  1.00  0.00    -0.014 A 
BRANCH  39  40
ATOM     40  C   UNL A   1      37.450  32.644  31.486  1.00  0.00     0.031 A 
ATOM     41  C   UNL A   1      37.947  32.973  32.863  1.00  0.00     0.074 A 
ATOM     42  C   UNL A   1      37.964  31.612  30.797  1.00  0.00     0.049 A 
ATOM     43  N   UNL A   1      38.921  32.432  33.548  1.00  0.00    -0.248 NA
ATOM     44  C   UNL A   1      37.251  34.065  33.565  1.00  0.00     0.031 C 
ATOM     45  C   UNL A   1      37.520  31.175  29.475  1.00  0.00     0.029 A 
ATOM     46  N   UNL A   1      38.981  30.749  31.117  1.00  0.00    -0.354 N 
ATOM     47  C   UNL A   1      38.959  33.120  34.754  1.00  0.00     0.074 A 
ATOM     48  C   UNL A   1      37.932  34.138  34.698  1.00  0.00     0.031 C 
ATOM     49  C   UNL A   1      38.271  30.130  29.088  1.00  0.00     0.029 A 
ATOM     50  C   UNL A   1      39.269  29.851  30.120  1.00  0.00     0.049 A 
ATOM     51  H   UNL A   1      39.457  30.771  31.977  1.00  0.00     0.167 HD
ATOM     52  C   UNL A   1      39.775  32.912  35.813  1.00  0.00     0.037 A 
ATOM     53  C   UNL A   1      40.245  28.926  30.046  1.00  0.00     0.037 A 
ATOM     54  C   UNL A   1      40.792  31.896  35.857  1.00  0.00     0.049 A 
ATOM     55  C   UNL A   1      41.191  28.766  31.210  1.00  0.00     0.074 A 
ATOM     56  C   UNL A   1      41.663  31.589  36.887  1.00  0.00     0.029 A 
ATOM     57  N   UNL A   1      41.080  31.025  34.815  1.00  0.00    -0.354 N 
ATOM     58  N   UNL A   1      41.211  29.404  32.356  1.00  0.00    -0.248 NA
ATOM     59  C   UNL A   1      42.248  27.755  31.069  1.00  0.00     0.031 C 
ATOM     60  C   UNL A   1      42.516  30.572  36.446  1.00  0.00     0.029 A 
ATOM     61  C   UNL A   1      42.135  30.201  35.167  1.00  0.00     0.049 A 
ATOM     62  H   UNL A   1      40.603  30.998  33.954  1.00  0.00     0.167 HD
ATOM     63  C   UNL A   1      42.258  28.853  33.083  1.00  0.00     0.074 A 
ATOM     64  C   UNL A   1      42.841  27.820  32.254  1.00  0.00     0.031 C 
ATOM     65  C   UNL A   1      42.696  29.171  34.327  1.00  0.00     0.037 A 
BRANCH  52  66
ATOM     66  C   UNL A   1      39.622  33.824  36.996  1.00  0.00     0.064 A 
ATOM     67  C   UNL A   1      40.266  35.069  37.061  1.00  0.00     0.173 A 
ATOM     68  C   UNL A   1      38.797  33.457  38.069  1.00  0.00     0.173 A 
ATOM     69  F   UNL A   1      41.080  35.461  36.069  1.00  0.00    -0.203 F 
ATOM     70  C   UNL A   1      40.109  35.900  38.167  1.00  0.00     0.198 A 
ATOM     71  C   UNL A   1      38.616  34.304  39.159  1.00  0.00     0.198 A 
ATOM     72  F   UNL A   1      38.157  32.277  38.059  1.00  0.00    -0.203 F 
ATOM     73  F   UNL A   1      40.772  37.063  38.229  1.00  0.00    -0.200 F 
ATOM     74  C   UNL A   1      39.278  35.521  39.211  1.00  0.00     0.200 A 
ATOM     75  F   UNL A   1      37.804  33.940  40.162  1.00  0.00    -0.200 F 
ATOM     76  F   UNL A   1      39.121  36.325  40.271  1.00  0.00    -0.200 F 
ENDBRANCH  52  66
BRANCH  53  77
ATOM     77  C   UNL A   1      40.390  28.094  28.823  1.00  0.00     0.064 A 
ATOM     78  C   UNL A   1      41.175  28.521  27.743  1.00  0.00     0.173 A 
ATOM     79  C   UNL A   1      39.733  26.860  28.702  1.00  0.00     0.173 A 
ATOM     80  F   UNL A   1      41.805  29.705  27.800  1.00  0.00    -0.203 F 
ATOM     81  C   UNL A   1      41.281  27.757  26.582  1.00  0.00     0.198 A 
ATOM     82  C   UNL A   1      39.864  26.082  27.554  1.00  0.00     0.198 A 
ATOM     83  F   UNL A   1      38.968  26.405  29.706  1.00  0.00    -0.203 F 
ATOM     84  F   UNL A   1      41.999  28.211  25.547  1.00  0.00    -0.200 F 
ATOM     85  C   UNL A   1      40.631  26.535  26.492  1.00  0.00     0.200 A 
ATOM     86  F   UNL A   1      39.245  24.897  27.477  1.00  0.00    -0.200 F 
ATOM     87  F   UNL A   1      40.736  25.798  25.378  1.00  0.00    -0.200 F 
ENDBRANCH  53  77
BRANCH  65  88
ATOM     88  C   UNL A   1      43.837  28.368  34.883  1.00  0.00     0.064 A 
ATOM     89  C   UNL A   1      43.628  27.165  35.570  1.00  0.00     0.173 A 
ATOM     90  C   UNL A   1      45.161  28.788  34.680  1.00  0.00     0.173 A 
ATOM     91  F   UNL A   1      42.381  26.727  35.801  1.00  0.00    -0.203 F 
ATOM     92  C   UNL A   1      44.701  26.424  36.057  1.00  0.00     0.198 A 
ATOM     93  C   UNL A   1      46.233  28.027  35.139  1.00  0.00     0.198 A 
ATOM     94  F   UNL A   1      45.417  29.928  34.021  1.00  0.00    -0.203 F 
ATOM     95  F   UNL A   1      44.476  25.300  36.753  1.00  0.00    -0.200 F 
ATOM     96  C   UNL A   1      46.002  26.849  35.833  1.00  0.00     0.200 A 
ATOM     97  F   UNL A   1      47.489  28.433  34.907  1.00  0.00    -0.200 F 
ATOM     98  F   UNL A   1      47.033  26.129  36.293  1.00  0.00    -0.200 F 
ENDBRANCH  65  88
ENDBRANCH  39  40
ENDBRANCH  32  34
ENDBRANCH  31  32
ENDBRANCH  30  31
ENDBRANCH  29  30
ENDBRANCH  28  29
ENDBRANCH   1  28
TORSDOF 18
ENDMDL
MODEL 2
REMARK VINA RESULT:     -11.8      1.529      2.620
REMARK SMILES CCC(=O)Nc1ccc(NC(=O)[C@@H]2CC=CC[C@@H]2C(=O)OCCOCCOC(=O)c2ccc(-c3c4nc(c(-c5c(F)c(F)c(F)c(F)c5F)c5ccc([nH]5)c(-c5c(F)c(F)c(F)c(F)c5F)c5nc(c(-c6c(F)c(F)c(F)c(F)c6F)c6ccc3[nH]6)C=C5)C=C4)cc2)cc1
REMARK SMILES IDX 23 1 22 2 21 3 19 4 20 5 18 6 13 7 14 8 15 9 17 10 16 11
REMARK SMILES IDX 11 12 10 13 12 15 9 16 6 17 7 18 94 19 8 20 93 21 5 22 3 23
REMARK SMILES IDX 4 24 2 26 1 27 24 28 25 29 26 30 27 31 28 32 29 33 30 34
REMARK SMILES IDX 31 35 92 36 32 37 91 38 33 39 34 40 35 41 85 42 36 43 90 44
REMARK SMILES IDX 84 45 86 46 37 47 89 48 83 49 82 50 38 52 70 53 50 54 69 55
REMARK SMILES IDX 51 56 54 57 68 58 87 59 52 60 53 61 67 63 88 64 55 65 39 66
REMARK SMILES IDX 40 67 48 68 41 69 42 70 46 71 49 72 43 73 44 74 47 75 45 76
REMARK SMILES IDX 71 77 72 78 80 79 73 80 74 81 78 82 81 83 75 84 76 85 79 86
REMARK SMILES IDX 77 87 56 88 57 89 65 90 58 91 59 92 63 93 66 94 60 95 61 96
REMARK SMILES IDX 64 97 62 98
REMARK H PARENT 10 14 5 25 86 51 54 62
REMARK Flexibility Score: inf
ROOT
ATOM      1  C   UNL A   1      31.445  29.964  25.564  1.00  0.00     0.202 C 
ENDROOT
BRANCH   1   2
ATOM      2  C   UNL A   1      32.321  28.948  26.299  1.00  0.00     0.261 C 
BRANCH   2   3
ATOM      3  O   UNL A   1      31.964  27.588  26.007  1.00  0.00    -0.463 OA
BRANCH   3   4
ATOM      4  C   UNL A   1      32.743  26.999  25.052  1.00  0.00     0.310 C 
ATOM      5  O   UNL A   1      33.773  27.488  24.616  1.00  0.00    -0.252 OA
BRANCH   4   6
ATOM      6  C   UNL A   1      32.123  25.675  24.610  1.00  0.00     0.116 C 
ATOM      7  C   UNL A   1      31.972  25.515  23.087  1.00  0.00     0.097 C 
ATOM      8  C   UNL A   1      31.202  26.675  22.452  1.00  0.00     0.041 C 
ATOM      9  C   UNL A   1      29.959  26.967  23.260  1.00  0.00    -0.030 C 
ATOM     10  C   UNL A   1      30.721  25.595  25.230  1.00  0.00     0.043 C 
ATOM     11  C   UNL A   1      29.727  26.453  24.484  1.00  0.00    -0.030 C 
BRANCH   7  12
ATOM     12  C   UNL A   1      33.274  25.199  22.375  1.00  0.00     0.228 C 
ATOM     13  N   UNL A   1      33.815  23.941  22.433  1.00  0.00    -0.326 N 
ATOM     14  H   UNL A   1      34.613  23.812  21.871  1.00  0.00     0.169 HD
ATOM     15  O   UNL A   1      33.840  26.028  21.663  1.00  0.00    -0.274 OA
BRANCH  13  16
ATOM     16  C   UNL A   1      33.422  22.805  23.158  1.00  0.00     0.041 A 
ATOM     17  C   UNL A   1      32.863  20.482  24.613  1.00  0.00     0.041 A 
ATOM     18  C   UNL A   1      32.143  20.765  23.459  1.00  0.00     0.028 A 
ATOM     19  C   UNL A   1      33.869  21.350  25.034  1.00  0.00     0.028 A 
ATOM     20  C   UNL A   1      32.390  21.950  22.766  1.00  0.00     0.028 A 
ATOM     21  C   UNL A   1      34.132  22.523  24.325  1.00  0.00     0.028 A 
BRANCH  17  22
ATOM     22  N   UNL A   1      32.593  19.299  25.300  1.00  0.00    -0.326 N 
ATOM     23  C   UNL A   1      32.488  18.037  24.782  1.00  0.00     0.224 C 
ATOM     24  O   UNL A   1      32.067  17.124  25.495  1.00  0.00    -0.275 OA
ATOM     25  H   UNL A   1      32.464  19.382  26.272  1.00  0.00     0.169 HD
BRANCH  23  26
ATOM     26  C   UNL A   1      33.033  17.757  23.389  1.00  0.00     0.097 C 
ATOM     27  C   UNL A   1      34.048  16.636  23.320  1.00  0.00     0.014 C 
ENDBRANCH  23  26
ENDBRANCH  17  22
ENDBRANCH  13  16
ENDBRANCH   7  12
ENDBRANCH   4   6
ENDBRANCH   3   4
ENDBRANCH   2   3
ENDBRANCH   1   2
BRANCH   1  28
ATOM     28  O   UNL A   1      31.376  31.306  26.032  1.00  0.00    -0.374 OA
BRANCH  28  29
ATOM     29  C   UNL A   1      32.437  31.797  26.845  1.00  0.00     0.202 C 
BRANCH  29  30
ATOM     30  C   UNL A   1      32.305  33.184  27.488  1.00  0.00     0.261 C 
BRANCH  30  31
ATOM     31  O   UNL A   1      33.326  33.465  28.452  1.00  0.00    -0.460 OA
BRANCH  31  32
ATOM     32  C   UNL A   1      34.454  33.984  27.916  1.00  0.00     0.338 C 
ATOM     33  O   UNL A   1      34.581  35.040  27.310  1.00  0.00    -0.246 OA
BRANCH  32  34
ATOM     34  C   UNL A   1      35.608  33.170  28.326  1.00  0.00     0.060 A 
ATOM     35  C   UNL A   1      35.364  31.835  28.679  1.00  0.00     0.016 A 
ATOM     36  C   UNL A   1      36.891  33.710  28.405  1.00  0.00     0.016 A 
ATOM     37  C   UNL A   1      36.401  31.042  29.150  1.00  0.00     0.010 A 
ATOM     38  C   UNL A   1      37.929  32.918  28.899  1.00  0.00     0.010 A 
ATOM     39  C   UNL A   1      37.678  31.594  29.304  1.00  0.00    -0.014 A 
BRANCH  39  40
ATOM     40  C   UNL A   1      38.701  30.839  30.059  1.00  0.00     0.031 A 
ATOM     41  C   UNL A   1      38.879  31.139  31.519  1.00  0.00     0.074 A 
ATOM     42  C   UNL A   1      39.427  29.880  29.460  1.00  0.00     0.049 A 
ATOM     43  N   UNL A   1      39.732  30.638  32.374  1.00  0.00    -0.248 NA
ATOM     44  C   UNL A   1      37.968  32.144  32.093  1.00  0.00     0.031 C 
ATOM     45  C   UNL A   1      39.299  29.474  28.063  1.00  0.00     0.029 A 
ATOM     46  N   UNL A   1      40.422  29.079  29.957  1.00  0.00    -0.354 N 
ATOM     47  C   UNL A   1      39.468  31.271  33.581  1.00  0.00     0.074 A 
ATOM     48  C   UNL A   1      38.396  32.214  33.345  1.00  0.00     0.031 C 
ATOM     49  C   UNL A   1      40.194  28.504  27.808  1.00  0.00     0.029 A 
ATOM     50  C   UNL A   1      40.979  28.250  29.015  1.00  0.00     0.049 A 
ATOM     51  H   UNL A   1      40.709  29.095  30.898  1.00  0.00     0.167 HD
ATOM     52  C   UNL A   1      40.064  31.075  34.780  1.00  0.00     0.037 A 
ATOM     53  C   UNL A   1      42.021  27.404  29.118  1.00  0.00     0.037 A 
ATOM     54  C   UNL A   1      41.129  30.134  35.003  1.00  0.00     0.049 A 
ATOM     55  C   UNL A   1      42.719  27.259  30.446  1.00  0.00     0.074 A 
ATOM     56  C   UNL A   1      41.793  29.843  36.181  1.00  0.00     0.029 A 
ATOM     57  N   UNL A   1      41.692  29.335  34.017  1.00  0.00    -0.354 N 
ATOM     58  N   UNL A   1      42.453  27.842  31.591  1.00  0.00    -0.248 NA
ATOM     59  C   UNL A   1      43.860  26.334  30.498  1.00  0.00     0.031 C 
ATOM     60  C   UNL A   1      42.797  28.911  35.896  1.00  0.00     0.029 A 
ATOM     61  C   UNL A   1      42.717  28.573  34.555  1.00  0.00     0.049 A 
ATOM     62  H   UNL A   1      41.406  29.313  33.076  1.00  0.00     0.167 HD
ATOM     63  C   UNL A   1      43.370  27.336  32.502  1.00  0.00     0.074 A 
ATOM     64  C   UNL A   1      44.191  26.387  31.781  1.00  0.00     0.031 C 
ATOM     65  C   UNL A   1      43.518  27.627  33.819  1.00  0.00     0.037 A 
BRANCH  52  66
ATOM     66  C   UNL A   1      39.600  31.917  35.933  1.00  0.00     0.064 A 
ATOM     67  C   UNL A   1      38.498  31.553  36.720  1.00  0.00     0.173 A 
ATOM     68  C   UNL A   1      40.287  33.093  36.269  1.00  0.00     0.173 A 
ATOM     69  F   UNL A   1      37.796  30.447  36.432  1.00  0.00    -0.203 F 
ATOM     70  C   UNL A   1      38.086  32.350  37.787  1.00  0.00     0.198 A 
ATOM     71  C   UNL A   1      39.892  33.870  37.355  1.00  0.00     0.198 A 
ATOM     72  F   UNL A   1      41.349  33.487  35.549  1.00  0.00    -0.203 F 
ATOM     73  F   UNL A   1      37.001  32.008  38.496  1.00  0.00    -0.200 F 
ATOM     74  C   UNL A   1      38.788  33.502  38.108  1.00  0.00     0.200 A 
ATOM     75  F   UNL A   1      40.579  34.977  37.670  1.00  0.00    -0.200 F 
ATOM     76  F   UNL A   1      38.395  34.262  39.139  1.00  0.00    -0.200 F 
ENDBRANCH  52  66
BRANCH  53  77
ATOM     77  C   UNL A   1      42.479  26.642  27.926  1.00  0.00     0.064 A 
ATOM     78  C   UNL A   1      43.439  27.169  27.052  1.00  0.00     0.173 A 
ATOM     79  C   UNL A   1      41.953  25.375  27.628  1.00  0.00     0.173 A 
ATOM     80  F   UNL A   1      43.955  28.386  27.280  1.00  0.00    -0.203 F 
ATOM     81  C   UNL A   1      43.841  26.469  25.916  1.00  0.00     0.198 A 
ATOM     82  C   UNL A   1      42.378  24.662  26.510  1.00  0.00     0.198 A 
ATOM     83  F   UNL A   1      41.031  24.825  28.432  1.00  0.00    -0.203 F 
ATOM     84  F   UNL A   1      44.725  27.017  25.072  1.00  0.00    -0.200 F 
ATOM     85  C   UNL A   1      43.315  25.213  25.650  1.00  0.00     0.200 A 
ATOM     86  F   UNL A   1      41.878  23.445  26.264  1.00  0.00    -0.200 F 
ATOM     87  F   UNL A   1      43.705  24.539  24.560  1.00  0.00    -0.200 F 
ENDBRANCH  53  77
BRANCH  65  88
ATOM     88  C   UNL A   1      44.582  26.884  34.575  1.00  0.00     0.064 A 
ATOM     89  C   UNL A   1      45.872  27.406  34.739  1.00  0.00     0.173 A 
ATOM     90  C   UNL A   1      44.288  25.654  35.184  1.00  0.00     0.173 A 
ATOM     91  F   UNL A   1      46.207  28.572  34.166  1.00  0.00    -0.203 F 
ATOM     92  C   UNL A   1      46.837  26.712  35.464  1.00  0.00     0.198 A 
ATOM     93  C   UNL A   1      45.245  24.980  35.936  1.00  0.00     0.198 A 
ATOM     94  F   UNL A   1      43.065  25.115  35.065  1.00  0.00    -0.203 F 
ATOM     95  F   UNL A   1      48.079  27.206  35.568  1.00  0.00    -0.200 F 
ATOM     96  C   UNL A   1      46.521  25.505  36.070  1.00  0.00     0.200 A 
ATOM     97  F   UNL A   1      44.932  23.822  36.534  1.00  0.00    -0.200 F 
ATOM     98  F   UNL A   1      47.448  24.844  36.776  1.00  0.00    -0.200 F 
ENDBRANCH  65  88
ENDBRANCH  39  40
ENDBRANCH  32  34
ENDBRANCH  31  32
ENDBRANCH  30  31
ENDBRANCH  29  30
ENDBRANCH  28  29
ENDBRANCH   1  28
TORSDOF 18
ENDMDL
MODEL 3
REMARK VINA RESULT:     -11.7      0.766      7.266
REMARK SMILES CCC(=O)Nc1ccc(NC(=O)[C@@H]2CC=CC[C@@H]2C(=O)OCCOCCOC(=O)c2ccc(-c3c4nc(c(-c5c(F)c(F)c(F)c(F)c5F)c5ccc([nH]5)c(-c5c(F)c(F)c(F)c(F)c5F)c5nc(c(-c6c(F)c(F)c(F)c(F)c6F)c6ccc3[nH]6)C=C5)C=C4)cc2)cc1
REMARK SMILES IDX 23 1 22 2 21 3 19 4 20 5 18 6 13 7 14 8 15 9 17 10 16 11
REMARK SMILES IDX 11 12 10 13 12 15 9 16 6 17 7 18 94 19 8 20 93 21 5 22 3 23
REMARK SMILES IDX 4 24 2 26 1 27 24 28 25 29 26 30 27 31 28 32 29 33 30 34
REMARK SMILES IDX 31 35 92 36 32 37 91 38 33 39 34 40 35 41 85 42 36 43 90 44
REMARK SMILES IDX 84 45 86 46 37 47 89 48 83 49 82 50 38 52 70 53 50 54 69 55
REMARK SMILES IDX 51 56 54 57 68 58 87 59 52 60 53 61 67 63 88 64 55 65 39 66
REMARK SMILES IDX 40 67 48 68 41 69 42 70 46 71 49 72 43 73 44 74 47 75 45 76
REMARK SMILES IDX 71 77 72 78 80 79 73 80 74 81 78 82 81 83 75 84 76 85 79 86
REMARK SMILES IDX 77 87 56 88 57 89 65 90 58 91 59 92 63 93 66 94 60 95 61 96
REMARK SMILES IDX 64 97 62 98
REMARK H PARENT 10 14 5 25 86 51 54 62
REMARK Flexibility Score: inf
ROOT
ATOM      1  C   UNL A   1      31.980  30.354  26.300  1.00  0.00     0.202 C 
ENDROOT
BRANCH   1   2
ATOM      2  C   UNL A   1      31.881  29.668  24.936  1.00  0.00     0.261 C 
BRANCH   2   3
ATOM      3  O   UNL A   1      32.994  28.801  24.667  1.00  0.00    -0.463 OA
BRANCH   3   4
ATOM      4  C   UNL A   1      32.667  27.672  23.970  1.00  0.00     0.310 C 
ATOM      5  O   UNL A   1      32.174  27.680  22.853  1.00  0.00    -0.252 OA
BRANCH   4   6
ATOM      6  C   UNL A   1      32.986  26.430  24.800  1.00  0.00     0.116 C 
ATOM      7  C   UNL A   1      32.604  25.098  24.132  1.00  0.00     0.097 C 
ATOM      8  C   UNL A   1      31.136  25.059  23.702  1.00  0.00     0.041 C 
ATOM      9  C   UNL A   1      30.261  25.565  24.826  1.00  0.00    -0.030 C 
ATOM     10  C   UNL A   1      32.195  26.539  26.111  1.00  0.00     0.043 C 
ATOM     11  C   UNL A   1      30.738  26.190  25.919  1.00  0.00    -0.030 C 
BRANCH   7  12
ATOM     12  C   UNL A   1      33.561  24.670  23.035  1.00  0.00     0.228 C 
ATOM     13  N   UNL A   1      33.884  23.349  22.864  1.00  0.00    -0.326 N 
ATOM     14  H   UNL A   1      34.443  23.162  22.075  1.00  0.00     0.169 HD
ATOM     15  O   UNL A   1      34.010  25.475  22.218  1.00  0.00    -0.274 OA
BRANCH  13  16
ATOM     16  C   UNL A   1      33.551  22.217  23.625  1.00  0.00     0.041 A 
ATOM     17  C   UNL A   1      33.107  19.889  25.112  1.00  0.00     0.041 A 
ATOM     18  C   UNL A   1      32.221  20.245  24.103  1.00  0.00     0.028 A 
ATOM     19  C   UNL A   1      34.220  20.687  25.371  1.00  0.00     0.028 A 
ATOM     20  C   UNL A   1      32.418  21.433  23.399  1.00  0.00     0.028 A 
ATOM     21  C   UNL A   1      34.429  21.863  24.648  1.00  0.00     0.028 A 
BRANCH  17  22
ATOM     22  N   UNL A   1      32.886  18.705  25.813  1.00  0.00    -0.326 N 
ATOM     23  C   UNL A   1      33.329  17.450  25.495  1.00  0.00     0.224 C 
ATOM     24  O   UNL A   1      32.897  16.480  26.120  1.00  0.00    -0.275 OA
ATOM     25  H   UNL A   1      32.349  18.781  26.634  1.00  0.00     0.169 HD
BRANCH  23  26
ATOM     26  C   UNL A   1      34.454  17.293  24.483  1.00  0.00     0.097 C 
ATOM     27  C   UNL A   1      34.000  16.956  23.078  1.00  0.00     0.014 C 
ENDBRANCH  23  26
ENDBRANCH  17  22
ENDBRANCH  13  16
ENDBRANCH   7  12
ENDBRANCH   4   6
ENDBRANCH   3   4
ENDBRANCH   2   3
ENDBRANCH   1   2
BRANCH   1  28
ATOM     28  O   UNL A   1      33.215  30.344  27.007  1.00  0.00    -0.374 OA
BRANCH  28  29
ATOM     29  C   UNL A   1      33.656  31.552  27.618  1.00  0.00     0.202 C 
BRANCH  29  30
ATOM     30  C   UNL A   1      32.763  32.797  27.542  1.00  0.00     0.261 C 
BRANCH  30  31
ATOM     31  O   UNL A   1      33.499  34.026  27.514  1.00  0.00    -0.460 OA
BRANCH  31  32
ATOM     32  C   UNL A   1      33.424  34.734  28.664  1.00  0.00     0.338 C 
ATOM     33  O   UNL A   1      32.538  35.502  29.017  1.00  0.00    -0.246 OA
BRANCH  32  34
ATOM     34  C   UNL A   1      34.503  34.311  29.568  1.00  0.00     0.060 A 
ATOM     35  C   UNL A   1      35.821  34.564  29.162  1.00  0.00     0.016 A 
ATOM     36  C   UNL A   1      34.235  33.646  30.764  1.00  0.00     0.016 A 
ATOM     37  C   UNL A   1      36.882  34.117  29.937  1.00  0.00     0.010 A 
ATOM     38  C   UNL A   1      35.303  33.178  31.532  1.00  0.00     0.010 A 
ATOM     39  C   UNL A   1      36.626  33.383  31.101  1.00  0.00    -0.014 A 
BRANCH  39  40
ATOM     40  C   UNL A   1      37.744  32.677  31.766  1.00  0.00     0.031 A 
ATOM     41  C   UNL A   1      38.382  31.520  31.053  1.00  0.00     0.074 A 
ATOM     42  C   UNL A   1      38.201  33.087  32.961  1.00  0.00     0.049 A 
ATOM     43  N   UNL A   1      39.345  30.728  31.449  1.00  0.00    -0.248 NA
ATOM     44  C   UNL A   1      37.863  31.215  29.709  1.00  0.00     0.031 C 
ATOM     45  C   UNL A   1      37.687  34.228  33.714  1.00  0.00     0.029 A 
ATOM     46  N   UNL A   1      39.200  32.579  33.751  1.00  0.00    -0.354 N 
ATOM     47  C   UNL A   1      39.540  29.828  30.409  1.00  0.00     0.074 A 
ATOM     48  C   UNL A   1      38.578  30.150  29.378  1.00  0.00     0.031 C 
ATOM     49  C   UNL A   1      38.367  34.328  34.869  1.00  0.00     0.029 A 
ATOM     50  C   UNL A   1      39.337  33.237  34.948  1.00  0.00     0.049 A 
ATOM     51  H   UNL A   1      39.764  31.818  33.486  1.00  0.00     0.167 HD
ATOM     52  C   UNL A   1      40.447  28.827  30.325  1.00  0.00     0.037 A 
ATOM     53  C   UNL A   1      40.140  32.966  35.994  1.00  0.00     0.037 A 
ATOM     54  C   UNL A   1      41.399  28.517  31.357  1.00  0.00     0.049 A 
ATOM     55  C   UNL A   1      41.090  31.799  35.905  1.00  0.00     0.074 A 
ATOM     56  C   UNL A   1      42.373  27.535  31.367  1.00  0.00     0.029 A 
ATOM     57  N   UNL A   1      41.487  29.183  32.572  1.00  0.00    -0.354 N 
ATOM     58  N   UNL A   1      41.287  30.963  34.914  1.00  0.00    -0.248 NA
ATOM     59  C   UNL A   1      41.931  31.539  37.082  1.00  0.00     0.031 C 
ATOM     60  C   UNL A   1      43.012  27.569  32.612  1.00  0.00     0.029 A 
ATOM     61  C   UNL A   1      42.480  28.612  33.352  1.00  0.00     0.049 A 
ATOM     62  H   UNL A   1      40.927  29.947  32.840  1.00  0.00     0.167 HD
ATOM     63  C   UNL A   1      42.291  30.100  35.332  1.00  0.00     0.074 A 
ATOM     64  C   UNL A   1      42.672  30.522  36.663  1.00  0.00     0.031 C 
ATOM     65  C   UNL A   1      42.850  29.054  34.674  1.00  0.00     0.037 A 
BRANCH  52  66
ATOM     66  C   UNL A   1      40.429  27.977  29.088  1.00  0.00     0.064 A 
ATOM     67  C   UNL A   1      41.186  28.303  27.953  1.00  0.00     0.173 A 
ATOM     68  C   UNL A   1      39.662  26.803  29.049  1.00  0.00     0.173 A 
ATOM     69  F   UNL A   1      41.924  29.423  27.931  1.00  0.00    -0.203 F 
ATOM     70  C   UNL A   1      41.156  27.498  26.816  1.00  0.00     0.198 A 
ATOM     71  C   UNL A   1      39.659  25.984  27.923  1.00  0.00     0.198 A 
ATOM     72  F   UNL A   1      38.919  26.444  30.108  1.00  0.00    -0.203 F 
ATOM     73  F   UNL A   1      41.850  27.854  25.726  1.00  0.00    -0.200 F 
ATOM     74  C   UNL A   1      40.400  26.336  26.806  1.00  0.00     0.200 A 
ATOM     75  F   UNL A   1      38.935  24.855  27.920  1.00  0.00    -0.200 F 
ATOM     76  F   UNL A   1      40.378  25.558  25.715  1.00  0.00    -0.200 F 
ENDBRANCH  52  66
BRANCH  53  77
ATOM     77  C   UNL A   1      40.070  33.804  37.220  1.00  0.00     0.064 A 
ATOM     78  C   UNL A   1      39.140  33.533  38.233  1.00  0.00     0.173 A 
ATOM     79  C   UNL A   1      40.923  34.904  37.398  1.00  0.00     0.173 A 
ATOM     80  F   UNL A   1      38.286  32.507  38.100  1.00  0.00    -0.203 F 
ATOM     81  C   UNL A   1      39.052  34.340  39.365  1.00  0.00     0.198 A 
ATOM     82  C   UNL A   1      40.855  35.693  38.544  1.00  0.00     0.198 A 
ATOM     83  F   UNL A   1      41.832  35.208  36.459  1.00  0.00    -0.203 F 
ATOM     84  F   UNL A   1      38.121  34.087  40.295  1.00  0.00    -0.200 F 
ATOM     85  C   UNL A   1      39.914  35.415  39.523  1.00  0.00     0.200 A 
ATOM     86  F   UNL A   1      41.699  36.721  38.698  1.00  0.00    -0.200 F 
ATOM     87  F   UNL A   1      39.831  36.189  40.613  1.00  0.00    -0.200 F 
ENDBRANCH  53  77
BRANCH  65  88
ATOM     88  C   UNL A   1      43.960  28.317  35.366  1.00  0.00     0.064 A 
ATOM     89  C   UNL A   1      45.297  28.724  35.258  1.00  0.00     0.173 A 
ATOM     90  C   UNL A   1      43.673  27.216  36.188  1.00  0.00     0.173 A 
ATOM     91  F   UNL A   1      45.626  29.762  34.474  1.00  0.00    -0.203 F 
ATOM     92  C   UNL A   1      46.309  28.040  35.927  1.00  0.00     0.198 A 
ATOM     93  C   UNL A   1      44.683  26.556  36.882  1.00  0.00     0.198 A 
ATOM     94  F   UNL A   1      42.409  26.791  36.333  1.00  0.00    -0.203 F 
ATOM     95  F   UNL A   1      47.586  28.417  35.771  1.00  0.00    -0.200 F 
ATOM     96  C   UNL A   1      46.001  26.964  36.745  1.00  0.00     0.200 A 
ATOM     97  F   UNL A   1      44.380  25.526  37.684  1.00  0.00    -0.200 F 
ATOM     98  F   UNL A   1      46.974  26.314  37.396  1.00  0.00    -0.200 F 
ENDBRANCH  65  88
ENDBRANCH  39  40
ENDBRANCH  32  34
ENDBRANCH  31  32
ENDBRANCH  30  31
ENDBRANCH  29  30
ENDBRANCH  28  29
ENDBRANCH   1  28
TORSDOF 18
ENDMDL
