MODEL 1
REMARK VINA RESULT:     -11.8      0.000      0.000
REMARK SMILES O=C(Cn1cc(/C=C(/Cl)c2nnc(C(=O)Nc3ccc(Cl)cc3)s2)nn1)OCCOCCOC(=O)c1ccc(-c2c3nc(c(-c4c(F)c(F)c(F)c(F)c4F)c4ccc([nH]4)c(-c4c(F)c(F)c(F)c(F)c4F)c4nc(c(-c5c(F)c(F)c(F)c(F)c5F)c5ccc2[nH]5)C=C4)C=C3)cc1
REMARK SMILES IDX 28 1 27 2 2 3 1 4 3 5 4 6 5 7 26 8 6 9 25 10 7 11 8 12 9 13
REMARK SMILES IDX 10 14 11 15 24 16 12 17 13 18 14 19 15 20 16 21 17 23 18 24
REMARK SMILES IDX 23 25 19 26 22 27 20 28 21 29 29 30 30 31 31 32 32 33 33 34
REMARK SMILES IDX 34 35 35 36 36 37 37 38 98 39 38 40 97 41 39 42 40 43 41 44
REMARK SMILES IDX 91 45 42 46 96 47 90 48 92 49 43 50 95 51 89 52 88 53 44 55
REMARK SMILES IDX 76 56 56 57 75 58 57 59 60 60 74 61 93 62 58 63 59 64 73 66
REMARK SMILES IDX 94 67 61 68 45 69 46 70 54 71 47 72 48 73 52 74 55 75 49 76
REMARK SMILES IDX 50 77 53 78 51 79 77 80 78 81 86 82 79 83 80 84 84 85 87 86
REMARK SMILES IDX 81 87 82 88 85 89 83 90 62 91 63 92 71 93 64 94 65 95 69 96
REMARK SMILES IDX 72 97 66 98 67 99 70 100 68 101
REMARK H PARENT 16 22 92 54 60 65
REMARK Flexibility Score: inf
ROOT
ATOM      1  C   UNL A   1      40.222  21.719  26.389  1.00  0.00     0.261 C 
ENDROOT
BRANCH   1   2
ATOM      2  O   UNL A   1      38.801  21.822  26.549  1.00  0.00    -0.462 OA
BRANCH   2   3
ATOM      3  C   UNL A   1      37.963  22.380  25.643  1.00  0.00     0.327 C 
ATOM      4  O   UNL A   1      37.738  23.588  25.711  1.00  0.00    -0.250 OA
BRANCH   3   5
ATOM      5  C   UNL A   1      37.216  21.504  24.676  1.00  0.00     0.268 C 
BRANCH   5   6
ATOM      6  N   UNL A   1      36.112  22.155  24.025  1.00  0.00    -0.241 N 
ATOM      7  C   UNL A   1      34.805  22.195  24.423  1.00  0.00     0.139 A 
ATOM      8  N   UNL A   1      36.322  22.910  22.938  1.00  0.00    -0.066 NA
ATOM      9  C   UNL A   1      34.217  22.970  23.458  1.00  0.00     0.107 A 
ATOM     10  N   UNL A   1      35.157  23.430  22.586  1.00  0.00    -0.131 NA
BRANCH   9  11
ATOM     11  C   UNL A   1      32.851  23.294  23.303  1.00  0.00     0.055 C 
ATOM     12  C   UNL A   1      32.111  24.143  24.040  1.00  0.00     0.081 C 
ATOM     13  Cl  UNL A   1      30.411  24.258  23.632  1.00  0.00    -0.081 Cl
BRANCH  12  14
ATOM     14  C   UNL A   1      32.558  25.059  25.057  1.00  0.00     0.159 A 
ATOM     15  N   UNL A   1      31.839  25.484  26.090  1.00  0.00    -0.137 NA
ATOM     16  S   UNL A   1      34.070  25.918  24.974  1.00  0.00    -0.086 S 
ATOM     17  N   UNL A   1      32.340  26.627  26.691  1.00  0.00    -0.133 NA
ATOM     18  C   UNL A   1      33.428  27.042  26.087  1.00  0.00     0.206 A 
BRANCH  18  19
ATOM     19  C   UNL A   1      34.041  28.346  26.287  1.00  0.00     0.286 C 
ATOM     20  O   UNL A   1      34.945  28.558  27.098  1.00  0.00    -0.266 OA
ATOM     21  N   UNL A   1      33.658  29.406  25.463  1.00  0.00    -0.320 N 
ATOM     22  H   UNL A   1      34.262  30.184  25.463  1.00  0.00     0.170 HD
BRANCH  21  23
ATOM     23  C   UNL A   1      32.529  29.513  24.631  1.00  0.00     0.041 A 
ATOM     24  C   UNL A   1      31.341  30.128  25.045  1.00  0.00     0.027 A 
ATOM     25  C   UNL A   1      32.587  28.929  23.363  1.00  0.00     0.027 A 
ATOM     26  C   UNL A   1      30.180  30.018  24.275  1.00  0.00     0.022 A 
ATOM     27  C   UNL A   1      31.427  28.829  22.587  1.00  0.00     0.022 A 
ATOM     28  C   UNL A   1      30.221  29.336  23.065  1.00  0.00     0.041 A 
ATOM     29  Cl  UNL A   1      28.773  29.087  22.174  1.00  0.00    -0.084 Cl
ENDBRANCH  21  23
ENDBRANCH  18  19
ENDBRANCH  12  14
ENDBRANCH   9  11
ENDBRANCH   5   6
ENDBRANCH   3   5
ENDBRANCH   2   3
ENDBRANCH   1   2
BRANCH   1  30
ATOM     30  C   UNL A   1      40.716  20.294  26.167  1.00  0.00     0.202 C 
BRANCH  30  31
ATOM     31  O   UNL A   1      42.040  20.154  25.657  1.00  0.00    -0.374 OA
BRANCH  31  32
ATOM     32  C   UNL A   1      43.057  21.013  26.187  1.00  0.00     0.202 C 
BRANCH  32  33
ATOM     33  C   UNL A   1      43.801  21.874  25.183  1.00  0.00     0.261 C 
BRANCH  33  34
ATOM     34  O   UNL A   1      42.995  22.981  24.821  1.00  0.00    -0.460 OA
BRANCH  34  35
ATOM     35  C   UNL A   1      43.492  24.195  25.100  1.00  0.00     0.338 C 
ATOM     36  O   UNL A   1      44.518  24.710  24.653  1.00  0.00    -0.246 OA
BRANCH  35  37
ATOM     37  C   UNL A   1      42.647  24.784  26.135  1.00  0.00     0.060 A 
ATOM     38  C   UNL A   1      41.613  25.607  25.686  1.00  0.00     0.016 A 
ATOM     39  C   UNL A   1      43.109  24.807  27.462  1.00  0.00     0.016 A 
ATOM     40  C   UNL A   1      41.253  26.664  26.482  1.00  0.00     0.010 A 
ATOM     41  C   UNL A   1      42.782  25.886  28.236  1.00  0.00     0.010 A 
ATOM     42  C   UNL A   1      41.936  26.844  27.688  1.00  0.00    -0.014 A 
BRANCH  42  43
ATOM     43  C   UNL A   1      41.745  28.089  28.386  1.00  0.00     0.031 A 
ATOM     44  C   UNL A   1      42.826  29.061  28.150  1.00  0.00     0.074 A 
ATOM     45  C   UNL A   1      40.619  28.335  29.077  1.00  0.00     0.049 A 
ATOM     46  N   UNL A   1      43.670  29.534  29.003  1.00  0.00    -0.248 NA
ATOM     47  C   UNL A   1      43.094  29.437  26.752  1.00  0.00     0.031 C 
ATOM     48  C   UNL A   1      39.373  27.564  29.094  1.00  0.00     0.029 A 
ATOM     49  N   UNL A   1      40.324  29.416  29.841  1.00  0.00    -0.354 N 
ATOM     50  C   UNL A   1      44.464  30.411  28.278  1.00  0.00     0.074 A 
ATOM     51  C   UNL A   1      44.199  30.166  26.885  1.00  0.00     0.031 C 
ATOM     52  C   UNL A   1      38.397  28.317  29.653  1.00  0.00     0.029 A 
ATOM     53  C   UNL A   1      38.978  29.561  30.130  1.00  0.00     0.049 A 
ATOM     54  H   UNL A   1      41.010  30.044  30.163  1.00  0.00     0.167 HD
ATOM     55  C   UNL A   1      45.083  31.459  28.876  1.00  0.00     0.037 A 
ATOM     56  C   UNL A   1      38.399  30.679  30.633  1.00  0.00     0.037 A 
ATOM     57  C   UNL A   1      45.205  31.268  30.297  1.00  0.00     0.049 A 
ATOM     58  C   UNL A   1      39.483  31.521  31.211  1.00  0.00     0.074 A 
ATOM     59  C   UNL A   1      45.819  30.314  31.085  1.00  0.00     0.029 A 
ATOM     60  N   UNL A   1      44.319  31.918  31.120  1.00  0.00    -0.354 N 
ATOM     61  N   UNL A   1      40.163  31.210  32.279  1.00  0.00    -0.248 NA
ATOM     62  C   UNL A   1      40.116  32.501  30.337  1.00  0.00     0.031 C 
ATOM     63  C   UNL A   1      44.944  30.126  32.194  1.00  0.00     0.029 A 
ATOM     64  C   UNL A   1      43.871  31.004  32.042  1.00  0.00     0.049 A 
ATOM     65  H   UNL A   1      44.055  32.864  31.062  1.00  0.00     0.167 HD
ATOM     66  C   UNL A   1      41.461  31.623  32.012  1.00  0.00     0.074 A 
ATOM     67  C   UNL A   1      41.352  32.492  30.845  1.00  0.00     0.031 C 
ATOM     68  C   UNL A   1      42.531  30.997  32.583  1.00  0.00     0.037 A 
BRANCH  55  69
ATOM     69  C   UNL A   1      45.253  32.791  28.200  1.00  0.00     0.064 A 
ATOM     70  C   UNL A   1      46.543  33.279  27.942  1.00  0.00     0.173 A 
ATOM     71  C   UNL A   1      44.199  33.719  28.029  1.00  0.00     0.173 A 
ATOM     72  F   UNL A   1      47.616  32.493  28.122  1.00  0.00    -0.203 F 
ATOM     73  C   UNL A   1      46.763  34.608  27.572  1.00  0.00     0.198 A 
ATOM     74  C   UNL A   1      44.416  35.024  27.596  1.00  0.00     0.198 A 
ATOM     75  F   UNL A   1      42.937  33.439  28.378  1.00  0.00    -0.203 F 
ATOM     76  F   UNL A   1      48.017  35.062  27.446  1.00  0.00    -0.200 F 
ATOM     77  C   UNL A   1      45.701  35.476  27.394  1.00  0.00     0.200 A 
ATOM     78  F   UNL A   1      43.373  35.853  27.455  1.00  0.00    -0.200 F 
ATOM     79  F   UNL A   1      45.915  36.761  27.082  1.00  0.00    -0.200 F 
ENDBRANCH  55  69
BRANCH  56  80
ATOM     80  C   UNL A   1      37.047  31.211  30.348  1.00  0.00     0.064 A 
ATOM     81  C   UNL A   1      36.187  31.593  31.391  1.00  0.00     0.173 A 
ATOM     82  C   UNL A   1      36.667  31.606  29.049  1.00  0.00     0.173 A 
ATOM     83  F   UNL A   1      36.498  31.298  32.661  1.00  0.00    -0.203 F 
ATOM     84  C   UNL A   1      35.032  32.343  31.151  1.00  0.00     0.198 A 
ATOM     85  C   UNL A   1      35.508  32.343  28.810  1.00  0.00     0.198 A 
ATOM     86  F   UNL A   1      37.461  31.367  27.995  1.00  0.00    -0.203 F 
ATOM     87  F   UNL A   1      34.270  32.744  32.178  1.00  0.00    -0.200 F 
ATOM     88  C   UNL A   1      34.698  32.725  29.862  1.00  0.00     0.200 A 
ATOM     89  F   UNL A   1      35.217  32.736  27.561  1.00  0.00    -0.200 F 
ATOM     90  F   UNL A   1      33.623  33.493  29.637  1.00  0.00    -0.200 F 
ENDBRANCH  56  80
BRANCH  68  91
ATOM     91  C   UNL A   1      42.254  30.029  33.701  1.00  0.00     0.064 A 
ATOM     92  C   UNL A   1      41.901  28.684  33.500  1.00  0.00     0.173 A 
ATOM     93  C   UNL A   1      42.489  30.442  35.019  1.00  0.00     0.173 A 
ATOM     94  F   UNL A   1      41.767  28.182  32.266  1.00  0.00    -0.203 F 
ATOM     95  C   UNL A   1      41.737  27.809  34.574  1.00  0.00     0.198 A 
ATOM     96  C   UNL A   1      42.363  29.558  36.087  1.00  0.00     0.198 A 
ATOM     97  F   UNL A   1      42.889  31.699  35.267  1.00  0.00    -0.203 F 
ATOM     98  F   UNL A   1      41.384  26.534  34.354  1.00  0.00    -0.200 F 
ATOM     99  C   UNL A   1      41.976  28.246  35.866  1.00  0.00     0.200 A 
ATOM    100  F   UNL A   1      42.648  29.970  37.330  1.00  0.00    -0.200 F 
ATOM    101  F   UNL A   1      41.861  27.395  36.895  1.00  0.00    -0.200 F 
ENDBRANCH  68  91
ENDBRANCH  42  43
ENDBRANCH  35  37
ENDBRANCH  34  35
ENDBRANCH  33  34
ENDBRANCH  32  33
ENDBRANCH  31  32
ENDBRANCH  30  31
ENDBRANCH   1  30
TORSDOF 19
ENDMDL
MODEL 2
REMARK VINA RESULT:     -11.7      3.497      8.880
REMARK SMILES O=C(Cn1cc(/C=C(/Cl)c2nnc(C(=O)Nc3ccc(Cl)cc3)s2)nn1)OCCOCCOC(=O)c1ccc(-c2c3nc(c(-c4c(F)c(F)c(F)c(F)c4F)c4ccc([nH]4)c(-c4c(F)c(F)c(F)c(F)c4F)c4nc(c(-c5c(F)c(F)c(F)c(F)c5F)c5ccc2[nH]5)C=C4)C=C3)cc1
REMARK SMILES IDX 28 1 27 2 2 3 1 4 3 5 4 6 5 7 26 8 6 9 25 10 7 11 8 12 9 13
REMARK SMILES IDX 10 14 11 15 24 16 12 17 13 18 14 19 15 20 16 21 17 23 18 24
REMARK SMILES IDX 23 25 19 26 22 27 20 28 21 29 29 30 30 31 31 32 32 33 33 34
REMARK SMILES IDX 34 35 35 36 36 37 37 38 98 39 38 40 97 41 39 42 40 43 41 44
REMARK SMILES IDX 91 45 42 46 96 47 90 48 92 49 43 50 95 51 89 52 88 53 44 55
REMARK SMILES IDX 76 56 56 57 75 58 57 59 60 60 74 61 93 62 58 63 59 64 73 66
REMARK SMILES IDX 94 67 61 68 45 69 46 70 54 71 47 72 48 73 52 74 55 75 49 76
REMARK SMILES IDX 50 77 53 78 51 79 77 80 78 81 86 82 79 83 80 84 84 85 87 86
REMARK SMILES IDX 81 87 82 88 85 89 83 90 62 91 63 92 71 93 64 94 65 95 69 96
REMARK SMILES IDX 72 97 66 98 67 99 70 100 68 101
REMARK H PARENT 16 22 92 54 60 65
REMARK Flexibility Score: inf
ROOT
ATOM      1  C   UNL A   1      34.132  32.634  27.883  1.00  0.00     0.261 C 
ENDROOT
BRANCH   1   2
ATOM      2  O   UNL A   1      34.078  31.237  28.203  1.00  0.00    -0.462 OA
BRANCH   2   3
ATOM      3  C   UNL A   1      33.726  30.261  27.332  1.00  0.00     0.327 C 
ATOM      4  O   UNL A   1      34.592  29.483  26.932  1.00  0.00    -0.250 OA
BRANCH   3   5
ATOM      5  C   UNL A   1      32.335  30.237  26.759  1.00  0.00     0.268 C 
BRANCH   5   6
ATOM      6  N   UNL A   1      31.809  28.916  26.549  1.00  0.00    -0.241 N 
ATOM      7  C   UNL A   1      31.664  28.247  25.365  1.00  0.00     0.139 A 
ATOM      8  N   UNL A   1      31.482  28.146  27.596  1.00  0.00    -0.066 NA
ATOM      9  C   UNL A   1      31.154  27.038  25.760  1.00  0.00     0.107 A 
ATOM     10  N   UNL A   1      31.088  26.976  27.119  1.00  0.00    -0.131 NA
BRANCH   9  11
ATOM     11  C   UNL A   1      30.727  25.959  24.955  1.00  0.00     0.055 C 
ATOM     12  C   UNL A   1      31.488  25.079  24.276  1.00  0.00     0.081 C 
ATOM     13  Cl  UNL A   1      30.638  23.900  23.298  1.00  0.00    -0.081 Cl
BRANCH  12  14
ATOM     14  C   UNL A   1      32.916  24.908  24.335  1.00  0.00     0.159 A 
ATOM     15  N   UNL A   1      33.698  24.550  23.322  1.00  0.00    -0.137 NA
ATOM     16  S   UNL A   1      33.826  24.953  25.818  1.00  0.00    -0.086 S 
ATOM     17  N   UNL A   1      34.944  24.087  23.710  1.00  0.00    -0.133 NA
ATOM     18  C   UNL A   1      35.070  24.101  25.016  1.00  0.00     0.206 A 
BRANCH  18  19
ATOM     19  C   UNL A   1      36.129  23.433  25.755  1.00  0.00     0.286 C 
ATOM     20  O   UNL A   1      37.159  23.997  26.132  1.00  0.00    -0.266 OA
ATOM     21  N   UNL A   1      35.949  22.104  26.142  1.00  0.00    -0.320 N 
ATOM     22  H   UNL A   1      36.564  21.777  26.838  1.00  0.00     0.170 HD
BRANCH  21  23
ATOM     23  C   UNL A   1      35.006  21.169  25.675  1.00  0.00     0.041 A 
ATOM     24  C   UNL A   1      33.642  21.256  25.978  1.00  0.00     0.027 A 
ATOM     25  C   UNL A   1      35.470  20.085  24.927  1.00  0.00     0.027 A 
ATOM     26  C   UNL A   1      32.781  20.196  25.682  1.00  0.00     0.022 A 
ATOM     27  C   UNL A   1      34.606  19.029  24.620  1.00  0.00     0.022 A 
ATOM     28  C   UNL A   1      33.277  19.070  25.036  1.00  0.00     0.041 A 
ATOM     29  Cl  UNL A   1      32.256  17.711  24.782  1.00  0.00    -0.084 Cl
ENDBRANCH  21  23
ENDBRANCH  18  19
ENDBRANCH  12  14
ENDBRANCH   9  11
ENDBRANCH   5   6
ENDBRANCH   3   5
ENDBRANCH   2   3
ENDBRANCH   1   2
BRANCH   1  30
ATOM     30  C   UNL A   1      34.001  33.549  29.095  1.00  0.00     0.202 C 
BRANCH  30  31
ATOM     31  O   UNL A   1      34.691  33.141  30.275  1.00  0.00    -0.374 OA
BRANCH  31  32
ATOM     32  C   UNL A   1      36.060  33.538  30.422  1.00  0.00     0.202 C 
BRANCH  32  33
ATOM     33  C   UNL A   1      37.046  32.439  30.774  1.00  0.00     0.261 C 
BRANCH  33  34
ATOM     34  O   UNL A   1      36.630  31.224  30.177  1.00  0.00    -0.460 OA
BRANCH  34  35
ATOM     35  C   UNL A   1      36.542  30.162  30.992  1.00  0.00     0.338 C 
ATOM     36  O   UNL A   1      35.951  30.086  32.070  1.00  0.00    -0.246 OA
BRANCH  35  37
ATOM     37  C   UNL A   1      37.378  29.107  30.424  1.00  0.00     0.060 A 
ATOM     38  C   UNL A   1      38.157  28.388  31.330  1.00  0.00     0.016 A 
ATOM     39  C   UNL A   1      37.637  29.113  29.042  1.00  0.00     0.016 A 
ATOM     40  C   UNL A   1      39.372  27.925  30.895  1.00  0.00     0.010 A 
ATOM     41  C   UNL A   1      38.867  28.691  28.619  1.00  0.00     0.010 A 
ATOM     42  C   UNL A   1      39.747  28.197  29.575  1.00  0.00    -0.014 A 
BRANCH  42  43
ATOM     43  C   UNL A   1      41.115  27.948  29.203  1.00  0.00     0.031 A 
ATOM     44  C   UNL A   1      41.331  26.604  28.641  1.00  0.00     0.074 A 
ATOM     45  C   UNL A   1      42.044  28.918  29.271  1.00  0.00     0.049 A 
ATOM     46  N   UNL A   1      42.036  25.642  29.132  1.00  0.00    -0.248 NA
ATOM     47  C   UNL A   1      40.533  26.237  27.460  1.00  0.00     0.031 C 
ATOM     48  C   UNL A   1      41.850  30.351  29.505  1.00  0.00     0.029 A 
ATOM     49  N   UNL A   1      43.375  28.821  29.030  1.00  0.00    -0.354 N 
ATOM     50  C   UNL A   1      41.916  24.604  28.219  1.00  0.00     0.074 A 
ATOM     51  C   UNL A   1      40.840  24.949  27.327  1.00  0.00     0.031 C 
ATOM     52  C   UNL A   1      42.986  31.009  29.176  1.00  0.00     0.029 A 
ATOM     53  C   UNL A   1      44.008  30.035  28.827  1.00  0.00     0.049 A 
ATOM     54  H   UNL A   1      43.850  27.960  29.003  1.00  0.00     0.167 HD
ATOM     55  C   UNL A   1      42.883  23.660  28.094  1.00  0.00     0.037 A 
ATOM     56  C   UNL A   1      45.251  30.196  28.310  1.00  0.00     0.037 A 
ATOM     57  C   UNL A   1      43.722  23.597  29.260  1.00  0.00     0.049 A 
ATOM     58  C   UNL A   1      45.950  28.885  28.415  1.00  0.00     0.074 A 
ATOM     59  C   UNL A   1      43.487  23.336  30.596  1.00  0.00     0.029 A 
ATOM     60  N   UNL A   1      44.953  24.202  29.210  1.00  0.00    -0.354 N 
ATOM     61  N   UNL A   1      46.325  28.342  29.540  1.00  0.00    -0.248 NA
ATOM     62  C   UNL A   1      45.834  27.965  27.291  1.00  0.00     0.031 C 
ATOM     63  C   UNL A   1      44.357  24.214  31.307  1.00  0.00     0.029 A 
ATOM     64  C   UNL A   1      45.102  24.925  30.368  1.00  0.00     0.049 A 
ATOM     65  H   UNL A   1      45.610  24.131  28.480  1.00  0.00     0.167 HD
ATOM     66  C   UNL A   1      46.091  26.983  29.377  1.00  0.00     0.074 A 
ATOM     67  C   UNL A   1      45.878  26.802  27.945  1.00  0.00     0.031 C 
ATOM     68  C   UNL A   1      45.808  26.184  30.447  1.00  0.00     0.037 A 
BRANCH  55  69
ATOM     69  C   UNL A   1      43.255  23.055  26.769  1.00  0.00     0.064 A 
ATOM     70  C   UNL A   1      42.971  21.704  26.520  1.00  0.00     0.173 A 
ATOM     71  C   UNL A   1      44.109  23.686  25.835  1.00  0.00     0.173 A 
ATOM     72  F   UNL A   1      42.210  21.000  27.372  1.00  0.00    -0.203 F 
ATOM     73  C   UNL A   1      43.530  21.026  25.433  1.00  0.00     0.198 A 
ATOM     74  C   UNL A   1      44.611  23.027  24.717  1.00  0.00     0.198 A 
ATOM     75  F   UNL A   1      44.582  24.925  26.024  1.00  0.00    -0.203 F 
ATOM     76  F   UNL A   1      43.324  19.710  25.295  1.00  0.00    -0.200 F 
ATOM     77  C   UNL A   1      44.343  21.689  24.531  1.00  0.00     0.200 A 
ATOM     78  F   UNL A   1      45.416  23.684  23.871  1.00  0.00    -0.200 F 
ATOM     79  F   UNL A   1      44.913  21.029  23.514  1.00  0.00    -0.200 F 
ENDBRANCH  55  69
BRANCH  56  80
ATOM     80  C   UNL A   1      45.741  31.290  27.441  1.00  0.00     0.064 A 
ATOM     81  C   UNL A   1      44.921  31.843  26.445  1.00  0.00     0.173 A 
ATOM     82  C   UNL A   1      46.925  31.995  27.739  1.00  0.00     0.173 A 
ATOM     83  F   UNL A   1      43.755  31.260  26.133  1.00  0.00    -0.203 F 
ATOM     84  C   UNL A   1      45.252  33.042  25.804  1.00  0.00     0.198 A 
ATOM     85  C   UNL A   1      47.261  33.183  27.091  1.00  0.00     0.198 A 
ATOM     86  F   UNL A   1      47.734  31.599  28.732  1.00  0.00    -0.203 F 
ATOM     87  F   UNL A   1      44.412  33.573  24.905  1.00  0.00    -0.200 F 
ATOM     88  C   UNL A   1      46.417  33.714  26.133  1.00  0.00     0.200 A 
ATOM     89  F   UNL A   1      48.373  33.842  27.445  1.00  0.00    -0.200 F 
ATOM     90  F   UNL A   1      46.707  34.892  25.562  1.00  0.00    -0.200 F 
ENDBRANCH  56  80
BRANCH  68  91
ATOM     91  C   UNL A   1      46.016  26.763  31.820  1.00  0.00     0.064 A 
ATOM     92  C   UNL A   1      45.033  27.482  32.522  1.00  0.00     0.173 A 
ATOM     93  C   UNL A   1      47.202  26.461  32.503  1.00  0.00     0.173 A 
ATOM     94  F   UNL A   1      43.831  27.715  31.981  1.00  0.00    -0.203 F 
ATOM     95  C   UNL A   1      45.251  27.924  33.826  1.00  0.00     0.198 A 
ATOM     96  C   UNL A   1      47.401  26.869  33.819  1.00  0.00     0.198 A 
ATOM     97  F   UNL A   1      48.152  25.724  31.905  1.00  0.00    -0.203 F 
ATOM     98  F   UNL A   1      44.301  28.622  34.467  1.00  0.00    -0.200 F 
ATOM     99  C   UNL A   1      46.433  27.610  34.475  1.00  0.00     0.200 A 
ATOM    100  F   UNL A   1      48.524  26.517  34.462  1.00  0.00    -0.200 F 
ATOM    101  F   UNL A   1      46.625  27.997  35.744  1.00  0.00    -0.200 F 
ENDBRANCH  68  91
ENDBRANCH  42  43
ENDBRANCH  35  37
ENDBRANCH  34  35
ENDBRANCH  33  34
ENDBRANCH  32  33
ENDBRANCH  31  32
ENDBRANCH  30  31
ENDBRANCH   1  30
TORSDOF 19
ENDMDL
MODEL 3
REMARK VINA RESULT:     -11.2      1.449      2.033
REMARK SMILES O=C(Cn1cc(/C=C(/Cl)c2nnc(C(=O)Nc3ccc(Cl)cc3)s2)nn1)OCCOCCOC(=O)c1ccc(-c2c3nc(c(-c4c(F)c(F)c(F)c(F)c4F)c4ccc([nH]4)c(-c4c(F)c(F)c(F)c(F)c4F)c4nc(c(-c5c(F)c(F)c(F)c(F)c5F)c5ccc2[nH]5)C=C4)C=C3)cc1
REMARK SMILES IDX 28 1 27 2 2 3 1 4 3 5 4 6 5 7 26 8 6 9 25 10 7 11 8 12 9 13
REMARK SMILES IDX 10 14 11 15 24 16 12 17 13 18 14 19 15 20 16 21 17 23 18 24
REMARK SMILES IDX 23 25 19 26 22 27 20 28 21 29 29 30 30 31 31 32 32 33 33 34
REMARK SMILES IDX 34 35 35 36 36 37 37 38 98 39 38 40 97 41 39 42 40 43 41 44
REMARK SMILES IDX 91 45 42 46 96 47 90 48 92 49 43 50 95 51 89 52 88 53 44 55
REMARK SMILES IDX 76 56 56 57 75 58 57 59 60 60 74 61 93 62 58 63 59 64 73 66
REMARK SMILES IDX 94 67 61 68 45 69 46 70 54 71 47 72 48 73 52 74 55 75 49 76
REMARK SMILES IDX 50 77 53 78 51 79 77 80 78 81 86 82 79 83 80 84 84 85 87 86
REMARK SMILES IDX 81 87 82 88 85 89 83 90 62 91 63 92 71 93 64 94 65 95 69 96
REMARK SMILES IDX 72 97 66 98 67 99 70 100 68 101
REMARK H PARENT 16 22 92 54 60 65
REMARK Flexibility Score: inf
ROOT
ATOM      1  C   UNL A   1      40.383  22.530  26.610  1.00  0.00     0.261 C 
ENDROOT
BRANCH   1   2
ATOM      2  O   UNL A   1      38.960  22.445  26.766  1.00  0.00    -0.462 OA
BRANCH   2   3
ATOM      3  C   UNL A   1      38.061  22.691  25.782  1.00  0.00     0.327 C 
ATOM      4  O   UNL A   1      37.742  23.857  25.551  1.00  0.00    -0.250 OA
BRANCH   3   5
ATOM      5  C   UNL A   1      37.367  21.545  25.100  1.00  0.00     0.268 C 
BRANCH   5   6
ATOM      6  N   UNL A   1      35.935  21.664  25.063  1.00  0.00    -0.241 N 
ATOM      7  C   UNL A   1      35.070  21.755  26.119  1.00  0.00     0.139 A 
ATOM      8  N   UNL A   1      35.300  21.798  23.890  1.00  0.00    -0.066 NA
ATOM      9  C   UNL A   1      33.852  21.881  25.504  1.00  0.00     0.107 A 
ATOM     10  N   UNL A   1      34.011  21.946  24.153  1.00  0.00    -0.131 NA
BRANCH   9  11
ATOM     11  C   UNL A   1      32.571  21.936  26.096  1.00  0.00     0.055 C 
ATOM     12  C   UNL A   1      31.600  22.846  25.890  1.00  0.00     0.081 C 
ATOM     13  Cl  UNL A   1      30.147  22.672  26.852  1.00  0.00    -0.081 Cl
BRANCH  12  14
ATOM     14  C   UNL A   1      31.555  23.887  24.897  1.00  0.00     0.159 A 
ATOM     15  N   UNL A   1      30.604  24.048  23.982  1.00  0.00    -0.137 NA
ATOM     16  S   UNL A   1      32.865  24.998  24.613  1.00  0.00    -0.086 S 
ATOM     17  N   UNL A   1      30.973  24.863  22.925  1.00  0.00    -0.133 NA
ATOM     18  C   UNL A   1      32.204  25.295  23.067  1.00  0.00     0.206 A 
BRANCH  18  19
ATOM     19  C   UNL A   1      32.984  25.935  22.019  1.00  0.00     0.286 C 
ATOM     20  O   UNL A   1      33.473  25.327  21.065  1.00  0.00    -0.266 OA
ATOM     21  N   UNL A   1      33.123  27.324  22.033  1.00  0.00    -0.320 N 
ATOM     22  H   UNL A   1      33.437  27.728  21.191  1.00  0.00     0.170 HD
BRANCH  21  23
ATOM     23  C   UNL A   1      32.874  28.225  23.085  1.00  0.00     0.041 A 
ATOM     24  C   UNL A   1      33.860  28.604  24.004  1.00  0.00     0.027 A 
ATOM     25  C   UNL A   1      31.575  28.711  23.242  1.00  0.00     0.027 A 
ATOM     26  C   UNL A   1      33.520  29.321  25.153  1.00  0.00     0.022 A 
ATOM     27  C   UNL A   1      31.235  29.439  24.387  1.00  0.00     0.022 A 
ATOM     28  C   UNL A   1      32.199  29.704  25.357  1.00  0.00     0.041 A 
ATOM     29  Cl  UNL A   1      31.750  30.475  26.826  1.00  0.00    -0.084 Cl
ENDBRANCH  21  23
ENDBRANCH  18  19
ENDBRANCH  12  14
ENDBRANCH   9  11
ENDBRANCH   5   6
ENDBRANCH   3   5
ENDBRANCH   2   3
ENDBRANCH   1   2
BRANCH   1  30
ATOM     30  C   UNL A   1      41.014  21.274  26.019  1.00  0.00     0.202 C 
BRANCH  30  31
ATOM     31  O   UNL A   1      42.330  20.957  26.466  1.00  0.00    -0.374 OA
BRANCH  31  32
ATOM     32  C   UNL A   1      43.322  21.990  26.421  1.00  0.00     0.202 C 
BRANCH  32  33
ATOM     33  C   UNL A   1      43.752  22.451  25.040  1.00  0.00     0.261 C 
BRANCH  33  34
ATOM     34  O   UNL A   1      43.107  23.673  24.728  1.00  0.00    -0.460 OA
BRANCH  34  35
ATOM     35  C   UNL A   1      43.709  24.791  25.163  1.00  0.00     0.338 C 
ATOM     36  O   UNL A   1      44.810  25.231  24.831  1.00  0.00    -0.246 OA
BRANCH  35  37
ATOM     37  C   UNL A   1      42.862  25.363  26.206  1.00  0.00     0.060 A 
ATOM     38  C   UNL A   1      41.770  26.112  25.766  1.00  0.00     0.016 A 
ATOM     39  C   UNL A   1      43.362  25.453  27.516  1.00  0.00     0.016 A 
ATOM     40  C   UNL A   1      41.374  27.171  26.541  1.00  0.00     0.010 A 
ATOM     41  C   UNL A   1      42.997  26.536  28.268  1.00  0.00     0.010 A 
ATOM     42  C   UNL A   1      42.082  27.427  27.719  1.00  0.00    -0.014 A 
BRANCH  42  43
ATOM     43  C   UNL A   1      41.840  28.680  28.386  1.00  0.00     0.031 A 
ATOM     44  C   UNL A   1      42.867  29.697  28.104  1.00  0.00     0.074 A 
ATOM     45  C   UNL A   1      40.715  28.890  29.090  1.00  0.00     0.049 A 
ATOM     46  N   UNL A   1      43.700  30.234  28.929  1.00  0.00    -0.248 NA
ATOM     47  C   UNL A   1      43.094  30.045  26.692  1.00  0.00     0.031 C 
ATOM     48  C   UNL A   1      39.509  28.059  29.150  1.00  0.00     0.029 A 
ATOM     49  N   UNL A   1      40.379  29.976  29.829  1.00  0.00    -0.354 N 
ATOM     50  C   UNL A   1      44.439  31.128  28.166  1.00  0.00     0.074 A 
ATOM     51  C   UNL A   1      44.163  30.832  26.785  1.00  0.00     0.031 C 
ATOM     52  C   UNL A   1      38.506  28.780  29.704  1.00  0.00     0.029 A 
ATOM     53  C   UNL A   1      39.032  30.064  30.137  1.00  0.00     0.049 A 
ATOM     54  H   UNL A   1      41.038  30.646  30.121  1.00  0.00     0.167 HD
ATOM     55  C   UNL A   1      45.015  32.223  28.725  1.00  0.00     0.037 A 
ATOM     56  C   UNL A   1      38.407  31.165  30.619  1.00  0.00     0.037 A 
ATOM     57  C   UNL A   1      45.169  32.079  30.147  1.00  0.00     0.049 A 
ATOM     58  C   UNL A   1      39.457  32.076  31.154  1.00  0.00     0.074 A 
ATOM     59  C   UNL A   1      45.842  31.179  30.951  1.00  0.00     0.029 A 
ATOM     60  N   UNL A   1      44.265  32.707  30.968  1.00  0.00    -0.354 N 
ATOM     61  N   UNL A   1      40.168  31.829  32.219  1.00  0.00    -0.248 NA
ATOM     62  C   UNL A   1      40.027  33.061  30.243  1.00  0.00     0.031 C 
ATOM     63  C   UNL A   1      44.995  30.979  32.080  1.00  0.00     0.029 A 
ATOM     64  C   UNL A   1      43.878  31.799  31.922  1.00  0.00     0.049 A 
ATOM     65  H   UNL A   1      43.953  33.637  30.888  1.00  0.00     0.167 HD
ATOM     66  C   UNL A   1      41.440  32.298  31.917  1.00  0.00     0.074 A 
ATOM     67  C   UNL A   1      41.269  33.126  30.729  1.00  0.00     0.031 C 
ATOM     68  C   UNL A   1      42.549  31.741  32.486  1.00  0.00     0.037 A 
BRANCH  55  69
ATOM     69  C   UNL A   1      45.107  33.541  28.008  1.00  0.00     0.064 A 
ATOM     70  C   UNL A   1      46.367  34.079  27.706  1.00  0.00     0.173 A 
ATOM     71  C   UNL A   1      44.008  34.416  27.839  1.00  0.00     0.173 A 
ATOM     72  F   UNL A   1      47.479  33.349  27.880  1.00  0.00    -0.203 F 
ATOM     73  C   UNL A   1      46.517  35.406  27.295  1.00  0.00     0.198 A 
ATOM     74  C   UNL A   1      44.155  35.716  27.367  1.00  0.00     0.198 A 
ATOM     75  F   UNL A   1      42.769  34.089  28.227  1.00  0.00    -0.203 F 
ATOM     76  F   UNL A   1      47.746  35.913  27.126  1.00  0.00    -0.200 F 
ATOM     77  C   UNL A   1      45.413  36.221  27.121  1.00  0.00     0.200 A 
ATOM     78  F   UNL A   1      43.072  36.494  27.229  1.00  0.00    -0.200 F 
ATOM     79  F   UNL A   1      45.560  37.505  26.769  1.00  0.00    -0.200 F 
ENDBRANCH  55  69
BRANCH  56  80
ATOM     80  C   UNL A   1      37.026  31.622  30.343  1.00  0.00     0.064 A 
ATOM     81  C   UNL A   1      36.235  32.184  31.359  1.00  0.00     0.173 A 
ATOM     82  C   UNL A   1      36.544  31.764  29.026  1.00  0.00     0.173 A 
ATOM     83  F   UNL A   1      36.644  32.134  32.635  1.00  0.00    -0.203 F 
ATOM     84  C   UNL A   1      35.048  32.865  31.072  1.00  0.00     0.198 A 
ATOM     85  C   UNL A   1      35.353  32.433  28.742  1.00  0.00     0.198 A 
ATOM     86  F   UNL A   1      37.264  31.340  27.978  1.00  0.00    -0.203 F 
ATOM     87  F   UNL A   1      34.353  33.443  32.062  1.00  0.00    -0.200 F 
ATOM     88  C   UNL A   1      34.613  32.996  29.764  1.00  0.00     0.200 A 
ATOM     89  F   UNL A   1      34.963  32.583  27.468  1.00  0.00    -0.200 F 
ATOM     90  F   UNL A   1      33.507  33.699  29.482  1.00  0.00    -0.200 F 
ENDBRANCH  56  80
BRANCH  68  91
ATOM     91  C   UNL A   1      42.338  30.793  33.635  1.00  0.00     0.064 A 
ATOM     92  C   UNL A   1      42.279  31.196  34.980  1.00  0.00     0.173 A 
ATOM     93  C   UNL A   1      42.047  29.451  33.352  1.00  0.00     0.173 A 
ATOM     94  F   UNL A   1      42.435  32.480  35.323  1.00  0.00    -0.203 F 
ATOM     95  C   UNL A   1      41.997  30.284  35.998  1.00  0.00     0.198 A 
ATOM     96  C   UNL A   1      41.727  28.552  34.366  1.00  0.00     0.198 A 
ATOM     97  F   UNL A   1      42.027  29.022  32.080  1.00  0.00    -0.203 F 
ATOM     98  F   UNL A   1      41.964  30.693  37.276  1.00  0.00    -0.200 F 
ATOM     99  C   UNL A   1      41.714  28.965  35.688  1.00  0.00     0.200 A 
ATOM    100  F   UNL A   1      41.401  27.289  34.057  1.00  0.00    -0.200 F 
ATOM    101  F   UNL A   1      41.401  28.099  36.661  1.00  0.00    -0.200 F 
ENDBRANCH  68  91
ENDBRANCH  42  43
ENDBRANCH  35  37
ENDBRANCH  34  35
ENDBRANCH  33  34
ENDBRANCH  32  33
ENDBRANCH  31  32
ENDBRANCH  30  31
ENDBRANCH   1  30
TORSDOF 19
ENDMDL
