MODEL 1
REMARK VINA RESULT:     -10.9      0.000      0.000
REMARK SMILES CC(C)(C(=O)OCCOCCOC(=O)c1ccc(-c2c3nc(c(-c4c(F)c(F)c(F)c(F)c4F)c4ccc([nH]4)c(-c4c(F)c(F)c(F)c(F)c4F)c4nc(c(-c5c(F)c(F)c(F)c(F)c5F)c5ccc2[nH]5)C=C4)C=C3)cc1)n1nnnc1C(F)(F)C(F)F
REMARK SMILES IDX 8 1 7 2 6 3 4 4 5 5 2 6 1 7 3 8 78 9 79 10 82 11 80 12 81 13
REMARK SMILES IDX 83 14 84 15 85 16 86 17 87 18 88 19 9 20 10 21 11 22 12 23
REMARK SMILES IDX 13 24 14 25 15 26 16 27 77 28 17 29 76 30 18 31 19 32 20 33
REMARK SMILES IDX 70 34 21 35 75 36 69 37 71 38 22 39 74 40 68 41 67 42 23 44
REMARK SMILES IDX 55 45 35 46 54 47 36 48 39 49 53 50 72 51 37 52 38 53 52 55
REMARK SMILES IDX 73 56 40 57 24 58 25 59 33 60 26 61 27 62 31 63 34 64 28 65
REMARK SMILES IDX 29 66 32 67 30 68 56 69 57 70 65 71 58 72 59 73 63 74 66 75
REMARK SMILES IDX 60 76 61 77 64 78 62 79 41 80 42 81 50 82 43 83 44 84 48 85
REMARK SMILES IDX 51 86 45 87 46 88 49 89 47 90
REMARK H PARENT 71 43 39 54
REMARK Flexibility Score: inf
ROOT
ATOM      1  C   UNL A   1      32.831  27.325  26.669  1.00  0.00     0.202 C 
ENDROOT
BRANCH   1   2
ATOM      2  C   UNL A   1      33.409  27.085  25.268  1.00  0.00     0.261 C 
BRANCH   2   3
ATOM      3  O   UNL A   1      33.374  25.711  24.838  1.00  0.00    -0.461 OA
BRANCH   3   4
ATOM      4  C   UNL A   1      32.504  25.462  23.820  1.00  0.00     0.333 C 
ATOM      5  O   UNL A   1      32.726  25.788  22.660  1.00  0.00    -0.249 OA
BRANCH   4   6
ATOM      6  C   UNL A   1      31.241  24.714  24.253  1.00  0.00     0.158 C 
ATOM      7  C   UNL A   1      30.129  25.761  24.589  1.00  0.00     0.049 C 
ATOM      8  C   UNL A   1      30.654  23.849  23.125  1.00  0.00     0.049 C 
BRANCH   6   9
ATOM      9  N   UNL A   1      31.564  23.895  25.444  1.00  0.00    -0.207 N 
ATOM     10  N   UNL A   1      31.086  24.343  26.633  1.00  0.00    -0.044 NA
ATOM     11  C   UNL A   1      32.311  22.748  25.688  1.00  0.00     0.228 A 
ATOM     12  N   UNL A   1      31.581  23.556  27.562  1.00  0.00    -0.024 NA
ATOM     13  N   UNL A   1      32.327  22.574  27.006  1.00  0.00    -0.107 NA
BRANCH  11  14
ATOM     14  C   UNL A   1      33.049  21.805  24.781  1.00  0.00     0.367 C 
ATOM     15  F   UNL A   1      32.204  21.117  23.959  1.00  0.00    -0.191 F 
ATOM     16  F   UNL A   1      33.791  22.569  23.902  1.00  0.00    -0.191 F 
BRANCH  14  17
ATOM     17  C   UNL A   1      34.054  20.846  25.400  1.00  0.00     0.419 C 
ATOM     18  F   UNL A   1      33.507  19.616  25.592  1.00  0.00    -0.203 F 
ATOM     19  F   UNL A   1      35.151  20.656  24.628  1.00  0.00    -0.203 F 
ENDBRANCH  14  17
ENDBRANCH  11  14
ENDBRANCH   6   9
ENDBRANCH   4   6
ENDBRANCH   3   4
ENDBRANCH   2   3
ENDBRANCH   1   2
BRANCH   1  20
ATOM     20  O   UNL A   1      31.936  28.416  26.853  1.00  0.00    -0.374 OA
BRANCH  20  21
ATOM     21  C   UNL A   1      31.780  29.355  25.791  1.00  0.00     0.202 C 
BRANCH  21  22
ATOM     22  C   UNL A   1      31.974  30.839  26.122  1.00  0.00     0.261 C 
BRANCH  22  23
ATOM     23  O   UNL A   1      32.490  31.032  27.452  1.00  0.00    -0.460 OA
BRANCH  23  24
ATOM     24  C   UNL A   1      33.307  32.109  27.577  1.00  0.00     0.338 C 
ATOM     25  O   UNL A   1      32.983  33.282  27.626  1.00  0.00    -0.246 OA
BRANCH  24  26
ATOM     26  C   UNL A   1      34.691  31.678  27.848  1.00  0.00     0.060 A 
ATOM     27  C   UNL A   1      34.900  30.309  28.051  1.00  0.00     0.016 A 
ATOM     28  C   UNL A   1      35.733  32.592  28.019  1.00  0.00     0.016 A 
ATOM     29  C   UNL A   1      36.137  29.853  28.498  1.00  0.00     0.010 A 
ATOM     30  C   UNL A   1      36.975  32.132  28.479  1.00  0.00     0.010 A 
ATOM     31  C   UNL A   1      37.165  30.767  28.765  1.00  0.00    -0.014 A 
BRANCH  31  32
ATOM     32  C   UNL A   1      38.354  30.292  29.512  1.00  0.00     0.031 A 
ATOM     33  C   UNL A   1      38.554  30.755  30.931  1.00  0.00     0.074 A 
ATOM     34  C   UNL A   1      39.194  29.392  28.973  1.00  0.00     0.049 A 
ATOM     35  N   UNL A   1      39.475  30.414  31.796  1.00  0.00    -0.248 NA
ATOM     36  C   UNL A   1      37.577  31.730  31.446  1.00  0.00     0.031 C 
ATOM     37  C   UNL A   1      39.089  28.842  27.624  1.00  0.00     0.029 A 
ATOM     38  N   UNL A   1      40.299  28.775  29.505  1.00  0.00    -0.354 N 
ATOM     39  C   UNL A   1      39.180  31.116  32.958  1.00  0.00     0.074 A 
ATOM     40  C   UNL A   1      38.022  31.936  32.677  1.00  0.00     0.031 C 
ATOM     41  C   UNL A   1      40.092  27.969  27.430  1.00  0.00     0.029 A 
ATOM     42  C   UNL A   1      40.916  27.909  28.637  1.00  0.00     0.049 A 
ATOM     43  H   UNL A   1      40.618  28.937  30.422  1.00  0.00     0.167 HD
ATOM     44  C   UNL A   1      39.806  31.068  34.158  1.00  0.00     0.037 A 
ATOM     45  C   UNL A   1      42.023  27.159  28.798  1.00  0.00     0.037 A 
ATOM     46  C   UNL A   1      40.965  30.262  34.439  1.00  0.00     0.049 A 
ATOM     47  C   UNL A   1      42.736  27.168  30.126  1.00  0.00     0.074 A 
ATOM     48  C   UNL A   1      41.683  30.160  35.618  1.00  0.00     0.029 A 
ATOM     49  N   UNL A   1      41.579  29.421  33.523  1.00  0.00    -0.354 N 
ATOM     50  N   UNL A   1      42.437  27.819  31.223  1.00  0.00    -0.248 NA
ATOM     51  C   UNL A   1      43.935  26.323  30.240  1.00  0.00     0.031 C 
ATOM     52  C   UNL A   1      42.751  29.281  35.407  1.00  0.00     0.029 A 
ATOM     53  C   UNL A   1      42.674  28.806  34.108  1.00  0.00     0.049 A 
ATOM     54  H   UNL A   1      41.281  29.282  32.595  1.00  0.00     0.167 HD
ATOM     55  C   UNL A   1      43.393  27.449  32.161  1.00  0.00     0.074 A 
ATOM     56  C   UNL A   1      44.271  26.500  31.510  1.00  0.00     0.031 C 
ATOM     57  C   UNL A   1      43.533  27.860  33.445  1.00  0.00     0.037 A 
BRANCH  44  58
ATOM     58  C   UNL A   1      39.251  31.921  35.259  1.00  0.00     0.064 A 
ATOM     59  C   UNL A   1      38.436  31.376  36.264  1.00  0.00     0.173 A 
ATOM     60  C   UNL A   1      39.562  33.286  35.331  1.00  0.00     0.173 A 
ATOM     61  F   UNL A   1      38.098  30.079  36.228  1.00  0.00    -0.203 F 
ATOM     62  C   UNL A   1      37.937  32.174  37.290  1.00  0.00     0.198 A 
ATOM     63  C   UNL A   1      39.080  34.075  36.373  1.00  0.00     0.198 A 
ATOM     64  F   UNL A   1      40.338  33.854  34.396  1.00  0.00    -0.203 F 
ATOM     65  F   UNL A   1      37.130  31.641  38.218  1.00  0.00    -0.200 F 
ATOM     66  C   UNL A   1      38.265  33.521  37.348  1.00  0.00     0.200 A 
ATOM     67  F   UNL A   1      39.404  35.375  36.432  1.00  0.00    -0.200 F 
ATOM     68  F   UNL A   1      37.789  34.285  38.340  1.00  0.00    -0.200 F 
ENDBRANCH  44  58
BRANCH  45  69
ATOM     69  C   UNL A   1      42.534  26.337  27.671  1.00  0.00     0.064 A 
ATOM     70  C   UNL A   1      42.069  25.034  27.451  1.00  0.00     0.173 A 
ATOM     71  C   UNL A   1      43.519  26.834  26.806  1.00  0.00     0.173 A 
ATOM     72  F   UNL A   1      41.145  24.506  28.268  1.00  0.00    -0.203 F 
ATOM     73  C   UNL A   1      42.587  24.250  26.421  1.00  0.00     0.198 A 
ATOM     74  C   UNL A   1      44.016  26.061  25.760  1.00  0.00     0.198 A 
ATOM     75  F   UNL A   1      43.997  28.076  26.975  1.00  0.00    -0.203 F 
ATOM     76  F   UNL A   1      42.160  22.991  26.261  1.00  0.00    -0.200 F 
ATOM     77  C   UNL A   1      43.556  24.766  25.574  1.00  0.00     0.200 A 
ATOM     78  F   UNL A   1      44.945  26.567  24.937  1.00  0.00    -0.200 F 
ATOM     79  F   UNL A   1      44.053  24.012  24.584  1.00  0.00    -0.200 F 
ENDBRANCH  45  69
BRANCH  57  80
ATOM     80  C   UNL A   1      44.661  27.265  34.236  1.00  0.00     0.064 A 
ATOM     81  C   UNL A   1      45.913  27.893  34.315  1.00  0.00     0.173 A 
ATOM     82  C   UNL A   1      44.479  26.068  34.945  1.00  0.00     0.173 A 
ATOM     83  F   UNL A   1      46.140  29.031  33.643  1.00  0.00    -0.203 F 
ATOM     84  C   UNL A   1      46.950  27.330  35.054  1.00  0.00     0.198 A 
ATOM     85  C   UNL A   1      45.510  25.521  35.703  1.00  0.00     0.198 A 
ATOM     86  F   UNL A   1      43.299  25.432  34.907  1.00  0.00    -0.203 F 
ATOM     87  F   UNL A   1      48.152  27.922  35.077  1.00  0.00    -0.200 F 
ATOM     88  C   UNL A   1      46.747  26.147  35.752  1.00  0.00     0.200 A 
ATOM     89  F   UNL A   1      45.309  24.384  36.385  1.00  0.00    -0.200 F 
ATOM     90  F   UNL A   1      47.745  25.607  36.462  1.00  0.00    -0.200 F 
ENDBRANCH  57  80
ENDBRANCH  31  32
ENDBRANCH  24  26
ENDBRANCH  23  24
ENDBRANCH  22  23
ENDBRANCH  21  22
ENDBRANCH  20  21
ENDBRANCH   1  20
TORSDOF 17
ENDMDL
MODEL 2
REMARK VINA RESULT:     -10.8      1.281      2.725
REMARK SMILES CC(C)(C(=O)OCCOCCOC(=O)c1ccc(-c2c3nc(c(-c4c(F)c(F)c(F)c(F)c4F)c4ccc([nH]4)c(-c4c(F)c(F)c(F)c(F)c4F)c4nc(c(-c5c(F)c(F)c(F)c(F)c5F)c5ccc2[nH]5)C=C4)C=C3)cc1)n1nnnc1C(F)(F)C(F)F
REMARK SMILES IDX 8 1 7 2 6 3 4 4 5 5 2 6 1 7 3 8 78 9 79 10 82 11 80 12 81 13
REMARK SMILES IDX 83 14 84 15 85 16 86 17 87 18 88 19 9 20 10 21 11 22 12 23
REMARK SMILES IDX 13 24 14 25 15 26 16 27 77 28 17 29 76 30 18 31 19 32 20 33
REMARK SMILES IDX 70 34 21 35 75 36 69 37 71 38 22 39 74 40 68 41 67 42 23 44
REMARK SMILES IDX 55 45 35 46 54 47 36 48 39 49 53 50 72 51 37 52 38 53 52 55
REMARK SMILES IDX 73 56 40 57 24 58 25 59 33 60 26 61 27 62 31 63 34 64 28 65
REMARK SMILES IDX 29 66 32 67 30 68 56 69 57 70 65 71 58 72 59 73 63 74 66 75
REMARK SMILES IDX 60 76 61 77 64 78 62 79 41 80 42 81 50 82 43 83 44 84 48 85
REMARK SMILES IDX 51 86 45 87 46 88 49 89 47 90
REMARK H PARENT 71 43 39 54
REMARK Flexibility Score: inf
ROOT
ATOM      1  C   UNL A   1      32.595  27.661  25.396  1.00  0.00     0.202 C 
ENDROOT
BRANCH   1   2
ATOM      2  C   UNL A   1      33.714  26.779  25.964  1.00  0.00     0.261 C 
BRANCH   2   3
ATOM      3  O   UNL A   1      34.093  25.678  25.115  1.00  0.00    -0.461 OA
BRANCH   3   4
ATOM      4  C   UNL A   1      33.948  24.450  25.687  1.00  0.00     0.333 C 
ATOM      5  O   UNL A   1      33.087  24.204  26.523  1.00  0.00    -0.249 OA
BRANCH   4   6
ATOM      6  C   UNL A   1      34.937  23.404  25.168  1.00  0.00     0.158 C 
ATOM      7  C   UNL A   1      35.568  23.929  23.838  1.00  0.00     0.049 C 
ATOM      8  C   UNL A   1      36.124  23.192  26.123  1.00  0.00     0.049 C 
BRANCH   6   9
ATOM      9  N   UNL A   1      34.204  22.138  24.936  1.00  0.00    -0.207 N 
ATOM     10  N   UNL A   1      34.537  21.092  25.735  1.00  0.00    -0.044 NA
ATOM     11  C   UNL A   1      33.245  21.696  24.032  1.00  0.00     0.228 A 
ATOM     12  N   UNL A   1      33.874  20.048  25.291  1.00  0.00    -0.024 NA
ATOM     13  N   UNL A   1      33.077  20.397  24.255  1.00  0.00    -0.107 NA
BRANCH  11  14
ATOM     14  C   UNL A   1      32.484  22.392  22.939  1.00  0.00     0.367 C 
ATOM     15  F   UNL A   1      33.289  22.743  21.895  1.00  0.00    -0.191 F 
ATOM     16  F   UNL A   1      31.624  21.468  22.379  1.00  0.00    -0.191 F 
BRANCH  14  17
ATOM     17  C   UNL A   1      31.593  23.566  23.316  1.00  0.00     0.419 C 
ATOM     18  F   UNL A   1      31.930  24.683  22.617  1.00  0.00    -0.203 F 
ATOM     19  F   UNL A   1      30.282  23.341  23.060  1.00  0.00    -0.203 F 
ENDBRANCH  14  17
ENDBRANCH  11  14
ENDBRANCH   6   9
ENDBRANCH   4   6
ENDBRANCH   3   4
ENDBRANCH   2   3
ENDBRANCH   1   2
BRANCH   1  20
ATOM     20  O   UNL A   1      32.861  29.044  25.195  1.00  0.00    -0.374 OA
BRANCH  20  21
ATOM     21  C   UNL A   1      31.771  29.962  25.251  1.00  0.00     0.202 C 
BRANCH  21  22
ATOM     22  C   UNL A   1      31.684  30.887  26.471  1.00  0.00     0.261 C 
BRANCH  22  23
ATOM     23  O   UNL A   1      32.778  30.681  27.383  1.00  0.00    -0.460 OA
BRANCH  23  24
ATOM     24  C   UNL A   1      33.574  31.768  27.547  1.00  0.00     0.338 C 
ATOM     25  O   UNL A   1      33.229  32.933  27.627  1.00  0.00    -0.246 OA
BRANCH  24  26
ATOM     26  C   UNL A   1      34.963  31.354  27.818  1.00  0.00     0.060 A 
ATOM     27  C   UNL A   1      35.192  29.986  28.004  1.00  0.00     0.016 A 
ATOM     28  C   UNL A   1      35.990  32.281  28.007  1.00  0.00     0.016 A 
ATOM     29  C   UNL A   1      36.433  29.542  28.450  1.00  0.00     0.010 A 
ATOM     30  C   UNL A   1      37.237  31.833  28.466  1.00  0.00     0.010 A 
ATOM     31  C   UNL A   1      37.446  30.468  28.735  1.00  0.00    -0.014 A 
BRANCH  31  32
ATOM     32  C   UNL A   1      38.639  30.001  29.481  1.00  0.00     0.031 A 
ATOM     33  C   UNL A   1      38.868  30.511  30.879  1.00  0.00     0.074 A 
ATOM     34  C   UNL A   1      39.456  29.068  28.962  1.00  0.00     0.049 A 
ATOM     35  N   UNL A   1      39.797  30.186  31.742  1.00  0.00    -0.248 NA
ATOM     36  C   UNL A   1      37.915  31.520  31.372  1.00  0.00     0.031 C 
ATOM     37  C   UNL A   1      39.321  28.471  27.636  1.00  0.00     0.029 A 
ATOM     38  N   UNL A   1      40.559  28.451  29.500  1.00  0.00    -0.354 N 
ATOM     39  C   UNL A   1      39.531  30.934  32.882  1.00  0.00     0.074 A 
ATOM     40  C   UNL A   1      38.382  31.762  32.588  1.00  0.00     0.031 C 
ATOM     41  C   UNL A   1      40.307  27.575  27.459  1.00  0.00     0.029 A 
ATOM     42  C   UNL A   1      41.149  27.545  28.654  1.00  0.00     0.049 A 
ATOM     43  H   UNL A   1      40.894  28.641  30.405  1.00  0.00     0.167 HD
ATOM     44  C   UNL A   1      40.175  30.919  34.073  1.00  0.00     0.037 A 
ATOM     45  C   UNL A   1      42.246  26.783  28.826  1.00  0.00     0.037 A 
ATOM     46  C   UNL A   1      41.325  30.105  34.366  1.00  0.00     0.049 A 
ATOM     47  C   UNL A   1      42.979  26.828  30.142  1.00  0.00     0.074 A 
ATOM     48  C   UNL A   1      42.059  30.033  35.538  1.00  0.00     0.029 A 
ATOM     49  N   UNL A   1      41.911  29.221  33.472  1.00  0.00    -0.354 N 
ATOM     50  N   UNL A   1      42.708  27.524  31.219  1.00  0.00    -0.248 NA
ATOM     51  C   UNL A   1      44.166  25.968  30.269  1.00  0.00     0.031 C 
ATOM     52  C   UNL A   1      43.109  29.130  35.342  1.00  0.00     0.029 A 
ATOM     53  C   UNL A   1      43.005  28.609  34.062  1.00  0.00     0.049 A 
ATOM     54  H   UNL A   1      41.597  29.054  32.554  1.00  0.00     0.167 HD
ATOM     55  C   UNL A   1      43.672  27.172  32.155  1.00  0.00     0.074 A 
ATOM     56  C   UNL A   1      44.524  26.185  31.526  1.00  0.00     0.031 C 
ATOM     57  C   UNL A   1      43.839  27.626  33.422  1.00  0.00     0.037 A 
BRANCH  44  58
ATOM     58  C   UNL A   1      39.650  31.820  35.151  1.00  0.00     0.064 A 
ATOM     59  C   UNL A   1      40.056  33.160  35.244  1.00  0.00     0.173 A 
ATOM     60  C   UNL A   1      38.708  31.351  36.078  1.00  0.00     0.173 A 
ATOM     61  F   UNL A   1      40.968  33.649  34.389  1.00  0.00    -0.203 F 
ATOM     62  C   UNL A   1      39.553  33.992  36.239  1.00  0.00     0.198 A 
ATOM     63  C   UNL A   1      38.189  32.194  37.057  1.00  0.00     0.198 A 
ATOM     64  F   UNL A   1      38.287  30.079  36.030  1.00  0.00    -0.203 F 
ATOM     65  F   UNL A   1      39.983  35.259  36.333  1.00  0.00    -0.200 F 
ATOM     66  C   UNL A   1      38.614  33.511  37.141  1.00  0.00     0.200 A 
ATOM     67  F   UNL A   1      37.276  31.730  37.923  1.00  0.00    -0.200 F 
ATOM     68  F   UNL A   1      38.125  34.316  38.094  1.00  0.00    -0.200 F 
ENDBRANCH  44  58
BRANCH  45  69
ATOM     69  C   UNL A   1      42.726  25.913  27.723  1.00  0.00     0.064 A 
ATOM     70  C   UNL A   1      43.697  26.357  26.815  1.00  0.00     0.173 A 
ATOM     71  C   UNL A   1      42.200  24.625  27.540  1.00  0.00     0.173 A 
ATOM     72  F   UNL A   1      44.211  27.589  26.934  1.00  0.00    -0.203 F 
ATOM     73  C   UNL A   1      44.109  25.553  25.753  1.00  0.00     0.198 A 
ATOM     74  C   UNL A   1      42.632  23.813  26.495  1.00  0.00     0.198 A 
ATOM     75  F   UNL A   1      41.268  24.155  28.382  1.00  0.00    -0.203 F 
ATOM     76  F   UNL A   1      45.004  26.018  24.872  1.00  0.00    -0.200 F 
ATOM     77  C   UNL A   1      43.579  24.281  25.597  1.00  0.00     0.200 A 
ATOM     78  F   UNL A   1      42.126  22.581  26.353  1.00  0.00    -0.200 F 
ATOM     79  F   UNL A   1      43.976  23.509  24.576  1.00  0.00    -0.200 F 
ENDBRANCH  45  69
BRANCH  57  80
ATOM     80  C   UNL A   1      44.969  27.041  34.217  1.00  0.00     0.064 A 
ATOM     81  C   UNL A   1      44.824  25.839  34.925  1.00  0.00     0.173 A 
ATOM     82  C   UNL A   1      46.220  27.676  34.249  1.00  0.00     0.173 A 
ATOM     83  F   UNL A   1      43.643  25.202  34.937  1.00  0.00    -0.203 F 
ATOM     84  C   UNL A   1      45.882  25.307  35.657  1.00  0.00     0.198 A 
ATOM     85  C   UNL A   1      47.283  27.129  34.960  1.00  0.00     0.198 A 
ATOM     86  F   UNL A   1      46.413  28.825  33.583  1.00  0.00    -0.203 F 
ATOM     87  F   UNL A   1      45.706  24.183  36.364  1.00  0.00    -0.200 F 
ATOM     88  C   UNL A   1      47.112  25.950  35.671  1.00  0.00     0.200 A 
ATOM     89  F   UNL A   1      48.473  27.745  34.964  1.00  0.00    -0.200 F 
ATOM     90  F   UNL A   1      48.129  25.437  36.375  1.00  0.00    -0.200 F 
ENDBRANCH  57  80
ENDBRANCH  31  32
ENDBRANCH  24  26
ENDBRANCH  23  24
ENDBRANCH  22  23
ENDBRANCH  21  22
ENDBRANCH  20  21
ENDBRANCH   1  20
TORSDOF 17
ENDMDL
MODEL 3
REMARK VINA RESULT:     -10.7      2.095      3.028
REMARK SMILES CC(C)(C(=O)OCCOCCOC(=O)c1ccc(-c2c3nc(c(-c4c(F)c(F)c(F)c(F)c4F)c4ccc([nH]4)c(-c4c(F)c(F)c(F)c(F)c4F)c4nc(c(-c5c(F)c(F)c(F)c(F)c5F)c5ccc2[nH]5)C=C4)C=C3)cc1)n1nnnc1C(F)(F)C(F)F
REMARK SMILES IDX 8 1 7 2 6 3 4 4 5 5 2 6 1 7 3 8 78 9 79 10 82 11 80 12 81 13
REMARK SMILES IDX 83 14 84 15 85 16 86 17 87 18 88 19 9 20 10 21 11 22 12 23
REMARK SMILES IDX 13 24 14 25 15 26 16 27 77 28 17 29 76 30 18 31 19 32 20 33
REMARK SMILES IDX 70 34 21 35 75 36 69 37 71 38 22 39 74 40 68 41 67 42 23 44
REMARK SMILES IDX 55 45 35 46 54 47 36 48 39 49 53 50 72 51 37 52 38 53 52 55
REMARK SMILES IDX 73 56 40 57 24 58 25 59 33 60 26 61 27 62 31 63 34 64 28 65
REMARK SMILES IDX 29 66 32 67 30 68 56 69 57 70 65 71 58 72 59 73 63 74 66 75
REMARK SMILES IDX 60 76 61 77 64 78 62 79 41 80 42 81 50 82 43 83 44 84 48 85
REMARK SMILES IDX 51 86 45 87 46 88 49 89 47 90
REMARK H PARENT 71 43 39 54
REMARK Flexibility Score: inf
ROOT
ATOM      1  C   UNL A   1      32.499  29.601  27.377  1.00  0.00     0.202 C 
ENDROOT
BRANCH   1   2
ATOM      2  C   UNL A   1      31.988  28.237  26.896  1.00  0.00     0.261 C 
BRANCH   2   3
ATOM      3  O   UNL A   1      31.782  28.147  25.473  1.00  0.00    -0.461 OA
BRANCH   3   4
ATOM      4  C   UNL A   1      32.818  27.585  24.789  1.00  0.00     0.333 C 
ATOM      5  O   UNL A   1      33.716  26.959  25.339  1.00  0.00    -0.249 OA
BRANCH   4   6
ATOM      6  C   UNL A   1      32.739  27.782  23.274  1.00  0.00     0.158 C 
ATOM      7  C   UNL A   1      31.448  28.599  22.942  1.00  0.00     0.049 C 
ATOM      8  C   UNL A   1      33.903  28.628  22.729  1.00  0.00     0.049 C 
BRANCH   6   9
ATOM      9  N   UNL A   1      32.697  26.451  22.627  1.00  0.00    -0.207 N 
ATOM     10  N   UNL A   1      33.556  26.252  21.596  1.00  0.00    -0.044 NA
ATOM     11  C   UNL A   1      31.931  25.300  22.772  1.00  0.00     0.228 A 
ATOM     12  N   UNL A   1      33.276  25.073  21.088  1.00  0.00    -0.024 NA
ATOM     13  N   UNL A   1      32.291  24.474  21.796  1.00  0.00    -0.107 NA
BRANCH  11  14
ATOM     14  C   UNL A   1      30.853  24.914  23.745  1.00  0.00     0.367 C 
ATOM     15  F   UNL A   1      29.997  25.946  24.000  1.00  0.00    -0.191 F 
ATOM     16  F   UNL A   1      30.046  23.981  23.123  1.00  0.00    -0.191 F 
BRANCH  14  17
ATOM     17  C   UNL A   1      31.263  24.255  25.053  1.00  0.00     0.419 C 
ATOM     18  F   UNL A   1      31.066  25.091  26.108  1.00  0.00    -0.203 F 
ATOM     19  F   UNL A   1      30.559  23.130  25.325  1.00  0.00    -0.203 F 
ENDBRANCH  14  17
ENDBRANCH  11  14
ENDBRANCH   6   9
ENDBRANCH   4   6
ENDBRANCH   3   4
ENDBRANCH   2   3
ENDBRANCH   1   2
BRANCH   1  20
ATOM     20  O   UNL A   1      32.490  30.688  26.457  1.00  0.00    -0.374 OA
BRANCH  20  21
ATOM     21  C   UNL A   1      31.403  31.609  26.503  1.00  0.00     0.202 C 
BRANCH  21  22
ATOM     22  C   UNL A   1      31.724  33.069  26.844  1.00  0.00     0.261 C 
BRANCH  22  23
ATOM     23  O   UNL A   1      33.085  33.234  27.283  1.00  0.00    -0.460 OA
BRANCH  23  24
ATOM     24  C   UNL A   1      33.246  34.179  28.243  1.00  0.00     0.338 C 
ATOM     25  O   UNL A   1      32.529  35.138  28.467  1.00  0.00    -0.246 OA
BRANCH  24  26
ATOM     26  C   UNL A   1      34.340  33.804  29.158  1.00  0.00     0.060 A 
ATOM     27  C   UNL A   1      35.622  34.267  28.837  1.00  0.00     0.016 A 
ATOM     28  C   UNL A   1      34.146  32.928  30.228  1.00  0.00     0.016 A 
ATOM     29  C   UNL A   1      36.728  33.799  29.540  1.00  0.00     0.010 A 
ATOM     30  C   UNL A   1      35.262  32.450  30.929  1.00  0.00     0.010 A 
ATOM     31  C   UNL A   1      36.559  32.848  30.555  1.00  0.00    -0.014 A 
BRANCH  31  32
ATOM     32  C   UNL A   1      37.762  32.154  31.078  1.00  0.00     0.031 A 
ATOM     33  C   UNL A   1      38.243  32.481  32.466  1.00  0.00     0.074 A 
ATOM     34  C   UNL A   1      38.361  31.182  30.368  1.00  0.00     0.049 A 
ATOM     35  N   UNL A   1      39.222  31.950  33.155  1.00  0.00    -0.248 NA
ATOM     36  C   UNL A   1      37.518  33.548  33.177  1.00  0.00     0.031 C 
ATOM     37  C   UNL A   1      37.968  30.750  29.030  1.00  0.00     0.029 A 
ATOM     38  N   UNL A   1      39.425  30.375  30.686  1.00  0.00    -0.354 N 
ATOM     39  C   UNL A   1      39.219  32.603  34.381  1.00  0.00     0.074 A 
ATOM     40  C   UNL A   1      38.171  33.600  34.329  1.00  0.00     0.031 C 
ATOM     41  C   UNL A   1      38.783  29.757  28.636  1.00  0.00     0.029 A 
ATOM     42  C   UNL A   1      39.762  29.494  29.690  1.00  0.00     0.049 A 
ATOM     43  H   UNL A   1      39.901  30.424  31.546  1.00  0.00     0.167 HD
ATOM     44  C   UNL A   1      40.005  32.380  35.461  1.00  0.00     0.037 A 
ATOM     45  C   UNL A   1      40.752  28.582  29.635  1.00  0.00     0.037 A 
ATOM     46  C   UNL A   1      41.055  31.397  35.513  1.00  0.00     0.049 A 
ATOM     47  C   UNL A   1      41.651  28.393  30.830  1.00  0.00     0.074 A 
ATOM     48  C   UNL A   1      41.919  31.108  36.556  1.00  0.00     0.029 A 
ATOM     49  N   UNL A   1      41.385  30.543  34.472  1.00  0.00    -0.354 N 
ATOM     50  N   UNL A   1      41.626  29.002  31.991  1.00  0.00    -0.248 NA
ATOM     51  C   UNL A   1      42.709  27.378  30.710  1.00  0.00     0.031 C 
ATOM     52  C   UNL A   1      42.794  30.102  36.134  1.00  0.00     0.029 A 
ATOM     53  C   UNL A   1      42.448  29.736  34.843  1.00  0.00     0.049 A 
ATOM     54  H   UNL A   1      40.932  30.515  33.598  1.00  0.00     0.167 HD
ATOM     55  C   UNL A   1      42.645  28.432  32.743  1.00  0.00     0.074 A 
ATOM     56  C   UNL A   1      43.257  27.413  31.916  1.00  0.00     0.031 C 
ATOM     57  C   UNL A   1      43.041  28.725  34.007  1.00  0.00     0.037 A 
BRANCH  44  58
ATOM     58  C   UNL A   1      39.761  33.224  36.676  1.00  0.00     0.064 A 
ATOM     59  C   UNL A   1      40.482  34.407  36.899  1.00  0.00     0.173 A 
ATOM     60  C   UNL A   1      38.777  32.866  37.608  1.00  0.00     0.173 A 
ATOM     61  F   UNL A   1      41.445  34.782  36.044  1.00  0.00    -0.203 F 
ATOM     62  C   UNL A   1      40.238  35.191  38.023  1.00  0.00     0.198 A 
ATOM     63  C   UNL A   1      38.520  33.667  38.719  1.00  0.00     0.198 A 
ATOM     64  F   UNL A   1      38.060  31.746  37.439  1.00  0.00    -0.203 F 
ATOM     65  F   UNL A   1      40.964  36.298  38.237  1.00  0.00    -0.200 F 
ATOM     66  C   UNL A   1      39.253  34.825  38.928  1.00  0.00     0.200 A 
ATOM     67  F   UNL A   1      37.562  33.315  39.589  1.00  0.00    -0.200 F 
ATOM     68  F   UNL A   1      39.015  35.584  40.006  1.00  0.00    -0.200 F 
ENDBRANCH  44  58
BRANCH  45  69
ATOM     69  C   UNL A   1      40.953  27.777  28.404  1.00  0.00     0.064 A 
ATOM     70  C   UNL A   1      40.306  26.547  28.224  1.00  0.00     0.173 A 
ATOM     71  C   UNL A   1      41.819  28.213  27.391  1.00  0.00     0.173 A 
ATOM     72  F   UNL A   1      39.487  26.076  29.176  1.00  0.00    -0.203 F 
ATOM     73  C   UNL A   1      40.535  25.773  27.087  1.00  0.00     0.198 A 
ATOM     74  C   UNL A   1      42.027  27.453  26.243  1.00  0.00     0.198 A 
ATOM     75  F   UNL A   1      42.462  29.384  27.516  1.00  0.00    -0.203 F 
ATOM     76  F   UNL A   1      39.941  24.579  26.961  1.00  0.00    -0.200 F 
ATOM     77  C   UNL A   1      41.392  26.229  26.096  1.00  0.00     0.200 A 
ATOM     78  F   UNL A   1      42.846  27.902  25.283  1.00  0.00    -0.200 F 
ATOM     79  F   UNL A   1      41.611  25.485  25.003  1.00  0.00    -0.200 F 
ENDBRANCH  45  69
BRANCH  57  80
ATOM     80  C   UNL A   1      44.171  27.919  34.576  1.00  0.00     0.064 A 
ATOM     81  C   UNL A   1      45.502  28.348  34.477  1.00  0.00     0.173 A 
ATOM     82  C   UNL A   1      43.916  26.717  35.255  1.00  0.00     0.173 A 
ATOM     83  F   UNL A   1      45.798  29.483  33.825  1.00  0.00    -0.203 F 
ATOM     84  C   UNL A   1      46.541  27.590  35.012  1.00  0.00     0.198 A 
ATOM     85  C   UNL A   1      44.953  25.974  35.811  1.00  0.00     0.198 A 
ATOM     86  F   UNL A   1      42.659  26.266  35.384  1.00  0.00    -0.203 F 
ATOM     87  F   UNL A   1      47.809  27.995  34.862  1.00  0.00    -0.200 F 
ATOM     88  C   UNL A   1      46.265  26.406  35.682  1.00  0.00     0.200 A 
ATOM     89  F   UNL A   1      44.685  24.838  36.467  1.00  0.00    -0.200 F 
ATOM     90  F   UNL A   1      47.265  25.679  36.197  1.00  0.00    -0.200 F 
ENDBRANCH  57  80
ENDBRANCH  31  32
ENDBRANCH  24  26
ENDBRANCH  23  24
ENDBRANCH  22  23
ENDBRANCH  21  22
ENDBRANCH  20  21
ENDBRANCH   1  20
TORSDOF 17
ENDMDL
