MODEL 1
REMARK VINA RESULT:     -11.4      0.000      0.000
REMARK SMILES CC1=C(C)C(=O)N(C[C@H](CC(C)C)C(=O)OCCOCCOC(=O)c2ccc(-c3c4nc(c(-c5c(F)c(F)c(F)c(F)c5F)c5ccc([nH]5)c(-c5c(F)c(F)c(F)c(F)c5F)c5nc(c(-c6c(F)c(F)c(F)c(F)c6F)c6ccc3[nH]6)C=C5)C=C4)cc2)C1=O
REMARK SMILES IDX 19 1 18 2 17 3 16 4 14 5 15 6 9 7 8 8 7 9 1 10 2 11 3 12
REMARK SMILES IDX 88 13 4 14 5 15 89 16 6 17 10 18 11 19 12 20 13 21 20 22
REMARK SMILES IDX 21 23 22 24 23 25 24 26 25 27 26 28 87 29 27 30 86 31 28 32
REMARK SMILES IDX 29 33 30 34 80 35 31 36 85 37 79 38 81 39 32 40 84 41 78 42
REMARK SMILES IDX 77 43 33 45 65 46 45 47 64 48 46 49 49 50 63 51 82 52 47 53
REMARK SMILES IDX 48 54 62 56 83 57 50 58 34 59 35 60 43 61 36 62 37 63 41 64
REMARK SMILES IDX 44 65 38 66 39 67 42 68 40 69 66 70 67 71 75 72 68 73 69 74
REMARK SMILES IDX 73 75 76 76 70 77 71 78 74 79 72 80 51 81 52 82 60 83 53 84
REMARK SMILES IDX 54 85 58 86 61 87 55 88 56 89 59 90 57 91
REMARK H PARENT 81 44 49 55
REMARK Flexibility Score: inf
ROOT
ATOM      1  O   UNL A   1      35.604  21.672  25.581  1.00  0.00    -0.374 OA
ENDROOT
BRANCH   1   2
ATOM      2  C   UNL A   1      34.438  22.288  25.038  1.00  0.00     0.202 C 
BRANCH   2   3
ATOM      3  C   UNL A   1      33.638  23.170  25.998  1.00  0.00     0.261 C 
BRANCH   3   4
ATOM      4  O   UNL A   1      32.486  23.765  25.365  1.00  0.00    -0.463 OA
BRANCH   4   5
ATOM      5  C   UNL A   1      31.748  24.619  26.133  1.00  0.00     0.310 C 
ATOM      6  O   UNL A   1      31.098  24.293  27.118  1.00  0.00    -0.252 OA
BRANCH   5   7
ATOM      7  C   UNL A   1      31.797  26.051  25.608  1.00  0.00     0.119 C 
BRANCH   7   8
ATOM      8  C   UNL A   1      31.405  26.049  24.117  1.00  0.00     0.144 C 
BRANCH   8   9
ATOM      9  N   UNL A   1      30.550  27.144  23.695  1.00  0.00    -0.274 N 
ATOM     10  C   UNL A   1      29.873  30.082  21.650  1.00  0.00     0.051 C 
ATOM     11  C   UNL A   1      29.762  28.975  22.623  1.00  0.00     0.023 C 
ATOM     12  C   UNL A   1      28.697  28.345  23.127  1.00  0.00     0.023 C 
ATOM     13  C   UNL A   1      30.954  28.329  23.187  1.00  0.00     0.256 C 
ATOM     14  C   UNL A   1      27.254  28.622  22.960  1.00  0.00     0.051 C 
ATOM     15  C   UNL A   1      29.200  27.159  23.840  1.00  0.00     0.256 C 
ATOM     16  O   UNL A   1      32.052  28.848  23.217  1.00  0.00    -0.269 OA
ATOM     17  O   UNL A   1      28.489  26.341  24.398  1.00  0.00    -0.269 OA
ENDBRANCH   8   9
ENDBRANCH   7   8
BRANCH   7  18
ATOM     18  C   UNL A   1      33.017  26.826  26.186  1.00  0.00     0.020 C 
BRANCH  18  19
ATOM     19  C   UNL A   1      32.876  28.070  27.076  1.00  0.00    -0.017 C 
ATOM     20  C   UNL A   1      33.265  29.378  26.387  1.00  0.00     0.007 C 
ATOM     21  C   UNL A   1      31.421  28.211  27.555  1.00  0.00     0.007 C 
ENDBRANCH  18  19
ENDBRANCH   7  18
ENDBRANCH   5   7
ENDBRANCH   4   5
ENDBRANCH   3   4
ENDBRANCH   2   3
ENDBRANCH   1   2
BRANCH   1  22
ATOM     22  C   UNL A   1      36.106  20.523  24.905  1.00  0.00     0.202 C 
BRANCH  22  23
ATOM     23  C   UNL A   1      37.633  20.383  24.884  1.00  0.00     0.261 C 
BRANCH  23  24
ATOM     24  O   UNL A   1      38.306  21.571  25.347  1.00  0.00    -0.460 OA
BRANCH  24  25
ATOM     25  C   UNL A   1      39.400  21.330  26.107  1.00  0.00     0.338 C 
ATOM     26  O   UNL A   1      40.108  20.336  26.091  1.00  0.00    -0.246 OA
BRANCH  25  27
ATOM     27  C   UNL A   1      39.754  22.509  26.923  1.00  0.00     0.060 A 
ATOM     28  C   UNL A   1      39.014  23.677  26.701  1.00  0.00     0.016 A 
ATOM     29  C   UNL A   1      40.870  22.528  27.763  1.00  0.00     0.016 A 
ATOM     30  C   UNL A   1      39.438  24.889  27.241  1.00  0.00     0.010 A 
ATOM     31  C   UNL A   1      41.299  23.749  28.303  1.00  0.00     0.010 A 
ATOM     32  C   UNL A   1      40.620  24.942  27.993  1.00  0.00    -0.014 A 
BRANCH  32  33
ATOM     33  C   UNL A   1      41.237  26.269  28.251  1.00  0.00     0.031 A 
ATOM     34  C   UNL A   1      42.627  26.534  27.734  1.00  0.00     0.074 A 
ATOM     35  C   UNL A   1      40.548  27.254  28.854  1.00  0.00     0.049 A 
ATOM     36  N   UNL A   1      43.341  27.630  27.787  1.00  0.00    -0.248 NA
ATOM     37  C   UNL A   1      43.301  25.411  27.060  1.00  0.00     0.031 C 
ATOM     38  C   UNL A   1      39.182  27.141  29.357  1.00  0.00     0.029 A 
ATOM     39  N   UNL A   1      40.907  28.548  29.138  1.00  0.00    -0.354 N 
ATOM     40  C   UNL A   1      44.540  27.331  27.155  1.00  0.00     0.074 A 
ATOM     41  C   UNL A   1      44.476  25.942  26.758  1.00  0.00     0.031 C 
ATOM     42  C   UNL A   1      38.818  28.317  29.899  1.00  0.00     0.029 A 
ATOM     43  C   UNL A   1      39.930  29.260  29.789  1.00  0.00     0.049 A 
ATOM     44  H   UNL A   1      41.782  28.929  28.898  1.00  0.00     0.167 HD
ATOM     45  C   UNL A   1      45.596  28.144  26.909  1.00  0.00     0.037 A 
ATOM     46  C   UNL A   1      39.936  30.529  30.242  1.00  0.00     0.037 A 
ATOM     47  C   UNL A   1      45.663  29.528  27.293  1.00  0.00     0.049 A 
ATOM     48  C   UNL A   1      41.141  31.400  29.997  1.00  0.00     0.074 A 
ATOM     49  C   UNL A   1      46.689  30.434  27.088  1.00  0.00     0.029 A 
ATOM     50  N   UNL A   1      44.660  30.208  27.967  1.00  0.00    -0.354 N 
ATOM     51  N   UNL A   1      42.258  31.115  29.372  1.00  0.00    -0.248 NA
ATOM     52  C   UNL A   1      41.077  32.778  30.507  1.00  0.00     0.031 C 
ATOM     53  C   UNL A   1      46.322  31.652  27.669  1.00  0.00     0.029 A 
ATOM     54  C   UNL A   1      45.047  31.517  28.196  1.00  0.00     0.049 A 
ATOM     55  H   UNL A   1      43.799  29.817  28.242  1.00  0.00     0.167 HD
ATOM     56  C   UNL A   1      43.008  32.284  29.377  1.00  0.00     0.074 A 
ATOM     57  C   UNL A   1      42.219  33.285  30.062  1.00  0.00     0.031 C 
ATOM     58  C   UNL A   1      44.240  32.509  28.857  1.00  0.00     0.037 A 
BRANCH  45  59
ATOM     59  C   UNL A   1      46.776  27.548  26.201  1.00  0.00     0.064 A 
ATOM     60  C   UNL A   1      46.912  27.624  24.807  1.00  0.00     0.173 A 
ATOM     61  C   UNL A   1      47.800  26.923  26.929  1.00  0.00     0.173 A 
ATOM     62  F   UNL A   1      45.953  28.198  24.066  1.00  0.00    -0.203 F 
ATOM     63  C   UNL A   1      48.020  27.078  24.165  1.00  0.00     0.198 A 
ATOM     64  C   UNL A   1      48.919  26.401  26.286  1.00  0.00     0.198 A 
ATOM     65  F   UNL A   1      47.719  26.827  28.264  1.00  0.00    -0.203 F 
ATOM     66  F   UNL A   1      48.110  27.126  22.829  1.00  0.00    -0.200 F 
ATOM     67  C   UNL A   1      49.026  26.473  24.905  1.00  0.00     0.200 A 
ATOM     68  F   UNL A   1      49.895  25.826  27.003  1.00  0.00    -0.200 F 
ATOM     69  F   UNL A   1      50.095  25.953  24.286  1.00  0.00    -0.200 F 
ENDBRANCH  45  59
BRANCH  46  70
ATOM     70  C   UNL A   1      38.754  31.065  30.967  1.00  0.00     0.064 A 
ATOM     71  C   UNL A   1      38.651  30.967  32.361  1.00  0.00     0.173 A 
ATOM     72  C   UNL A   1      37.690  31.658  30.274  1.00  0.00     0.173 A 
ATOM     73  F   UNL A   1      39.634  30.386  33.065  1.00  0.00    -0.203 F 
ATOM     74  C   UNL A   1      37.517  31.420  33.032  1.00  0.00     0.198 A 
ATOM     75  C   UNL A   1      36.568  32.135  30.948  1.00  0.00     0.198 A 
ATOM     76  F   UNL A   1      37.740  31.777  28.938  1.00  0.00    -0.203 F 
ATOM     77  F   UNL A   1      37.423  31.270  34.360  1.00  0.00    -0.200 F 
ATOM     78  C   UNL A   1      36.478  32.007  32.325  1.00  0.00     0.200 A 
ATOM     79  F   UNL A   1      35.571  32.713  30.262  1.00  0.00    -0.200 F 
ATOM     80  F   UNL A   1      35.388  32.442  32.971  1.00  0.00    -0.200 F 
ENDBRANCH  46  70
BRANCH  58  81
ATOM     81  C   UNL A   1      44.787  33.904  28.954  1.00  0.00     0.064 A 
ATOM     82  C   UNL A   1      45.586  34.312  30.032  1.00  0.00     0.173 A 
ATOM     83  C   UNL A   1      44.535  34.833  27.934  1.00  0.00     0.173 A 
ATOM     84  F   UNL A   1      45.844  33.464  31.040  1.00  0.00    -0.203 F 
ATOM     85  C   UNL A   1      46.087  35.609  30.100  1.00  0.00     0.198 A 
ATOM     86  C   UNL A   1      45.061  36.121  27.990  1.00  0.00     0.198 A 
ATOM     87  F   UNL A   1      43.785  34.490  26.876  1.00  0.00    -0.203 F 
ATOM     88  F   UNL A   1      46.806  35.993  31.164  1.00  0.00    -0.200 F 
ATOM     89  C   UNL A   1      45.830  36.510  29.076  1.00  0.00     0.200 A 
ATOM     90  F   UNL A   1      44.822  36.985  26.994  1.00  0.00    -0.200 F 
ATOM     91  F   UNL A   1      46.316  37.757  29.142  1.00  0.00    -0.200 F 
ENDBRANCH  58  81
ENDBRANCH  32  33
ENDBRANCH  25  27
ENDBRANCH  24  25
ENDBRANCH  23  24
ENDBRANCH  22  23
ENDBRANCH   1  22
TORSDOF 18
ENDMDL
MODEL 2
REMARK VINA RESULT:     -11.4      4.604      7.647
REMARK SMILES CC1=C(C)C(=O)N(C[C@H](CC(C)C)C(=O)OCCOCCOC(=O)c2ccc(-c3c4nc(c(-c5c(F)c(F)c(F)c(F)c5F)c5ccc([nH]5)c(-c5c(F)c(F)c(F)c(F)c5F)c5nc(c(-c6c(F)c(F)c(F)c(F)c6F)c6ccc3[nH]6)C=C5)C=C4)cc2)C1=O
REMARK SMILES IDX 19 1 18 2 17 3 16 4 14 5 15 6 9 7 8 8 7 9 1 10 2 11 3 12
REMARK SMILES IDX 88 13 4 14 5 15 89 16 6 17 10 18 11 19 12 20 13 21 20 22
REMARK SMILES IDX 21 23 22 24 23 25 24 26 25 27 26 28 87 29 27 30 86 31 28 32
REMARK SMILES IDX 29 33 30 34 80 35 31 36 85 37 79 38 81 39 32 40 84 41 78 42
REMARK SMILES IDX 77 43 33 45 65 46 45 47 64 48 46 49 49 50 63 51 82 52 47 53
REMARK SMILES IDX 48 54 62 56 83 57 50 58 34 59 35 60 43 61 36 62 37 63 41 64
REMARK SMILES IDX 44 65 38 66 39 67 42 68 40 69 66 70 67 71 75 72 68 73 69 74
REMARK SMILES IDX 73 75 76 76 70 77 71 78 74 79 72 80 51 81 52 82 60 83 53 84
REMARK SMILES IDX 54 85 58 86 61 87 55 88 56 89 59 90 57 91
REMARK H PARENT 81 44 49 55
REMARK Flexibility Score: inf
ROOT
ATOM      1  O   UNL A   1      41.806  18.858  25.733  1.00  0.00    -0.374 OA
ENDROOT
BRANCH   1   2
ATOM      2  C   UNL A   1      43.077  19.327  26.177  1.00  0.00     0.202 C 
BRANCH   2   3
ATOM      3  C   UNL A   1      44.058  19.741  25.079  1.00  0.00     0.261 C 
BRANCH   3   4
ATOM      4  O   UNL A   1      44.004  21.156  24.802  1.00  0.00    -0.463 OA
BRANCH   4   5
ATOM      5  C   UNL A   1      44.766  21.958  25.603  1.00  0.00     0.310 C 
ATOM      6  O   UNL A   1      45.929  21.738  25.914  1.00  0.00    -0.252 OA
BRANCH   5   7
ATOM      7  C   UNL A   1      43.989  23.172  26.103  1.00  0.00     0.119 C 
BRANCH   7   8
ATOM      8  C   UNL A   1      43.811  24.166  24.937  1.00  0.00     0.144 C 
BRANCH   8   9
ATOM      9  N   UNL A   1      44.459  25.453  25.110  1.00  0.00    -0.274 N 
ATOM     10  C   UNL A   1      44.504  28.883  26.339  1.00  0.00     0.051 C 
ATOM     11  C   UNL A   1      44.870  27.598  25.707  1.00  0.00     0.023 C 
ATOM     12  C   UNL A   1      46.060  27.038  25.467  1.00  0.00     0.023 C 
ATOM     13  C   UNL A   1      43.846  26.648  25.253  1.00  0.00     0.256 C 
ATOM     14  C   UNL A   1      47.424  27.575  25.657  1.00  0.00     0.051 C 
ATOM     15  C   UNL A   1      45.803  25.646  25.063  1.00  0.00     0.256 C 
ATOM     16  O   UNL A   1      42.698  26.961  25.007  1.00  0.00    -0.269 OA
ATOM     17  O   UNL A   1      46.675  24.837  24.796  1.00  0.00    -0.269 OA
ENDBRANCH   8   9
ENDBRANCH   7   8
BRANCH   7  18
ATOM     18  C   UNL A   1      44.439  23.584  27.535  1.00  0.00     0.020 C 
BRANCH  18  19
ATOM     19  C   UNL A   1      43.887  22.928  28.810  1.00  0.00    -0.017 C 
ATOM     20  C   UNL A   1      44.528  23.437  30.101  1.00  0.00     0.007 C 
ATOM     21  C   UNL A   1      42.371  23.174  28.913  1.00  0.00     0.007 C 
ENDBRANCH  18  19
ENDBRANCH   7  18
ENDBRANCH   5   7
ENDBRANCH   4   5
ENDBRANCH   3   4
ENDBRANCH   2   3
ENDBRANCH   1   2
BRANCH   1  22
ATOM     22  C   UNL A   1      40.664  19.622  26.111  1.00  0.00     0.202 C 
BRANCH  22  23
ATOM     23  C   UNL A   1      40.955  20.888  26.926  1.00  0.00     0.261 C 
BRANCH  23  24
ATOM     24  O   UNL A   1      40.804  22.094  26.151  1.00  0.00    -0.460 OA
BRANCH  24  25
ATOM     25  C   UNL A   1      39.536  22.564  26.094  1.00  0.00     0.338 C 
ATOM     26  O   UNL A   1      38.540  21.964  25.721  1.00  0.00    -0.246 OA
BRANCH  25  27
ATOM     27  C   UNL A   1      39.439  23.916  26.682  1.00  0.00     0.060 A 
ATOM     28  C   UNL A   1      40.167  24.932  26.051  1.00  0.00     0.016 A 
ATOM     29  C   UNL A   1      38.792  24.158  27.895  1.00  0.00     0.016 A 
ATOM     30  C   UNL A   1      40.331  26.167  26.674  1.00  0.00     0.010 A 
ATOM     31  C   UNL A   1      38.959  25.400  28.524  1.00  0.00     0.010 A 
ATOM     32  C   UNL A   1      39.780  26.386  27.944  1.00  0.00    -0.014 A 
BRANCH  32  33
ATOM     33  C   UNL A   1      40.256  27.553  28.731  1.00  0.00     0.031 A 
ATOM     34  C   UNL A   1      41.706  27.606  29.142  1.00  0.00     0.074 A 
ATOM     35  C   UNL A   1      39.445  28.590  29.004  1.00  0.00     0.049 A 
ATOM     36  N   UNL A   1      42.357  28.547  29.777  1.00  0.00    -0.248 NA
ATOM     37  C   UNL A   1      42.533  26.444  28.779  1.00  0.00     0.031 C 
ATOM     38  C   UNL A   1      38.039  28.682  28.623  1.00  0.00     0.029 A 
ATOM     39  N   UNL A   1      39.694  29.768  29.662  1.00  0.00    -0.354 N 
ATOM     40  C   UNL A   1      43.664  28.093  29.888  1.00  0.00     0.074 A 
ATOM     41  C   UNL A   1      43.709  26.778  29.288  1.00  0.00     0.031 C 
ATOM     42  C   UNL A   1      37.543  29.852  29.063  1.00  0.00     0.029 A 
ATOM     43  C   UNL A   1      38.596  30.585  29.764  1.00  0.00     0.049 A 
ATOM     44  H   UNL A   1      40.578  30.005  30.027  1.00  0.00     0.167 HD
ATOM     45  C   UNL A   1      44.738  28.720  30.425  1.00  0.00     0.037 A 
ATOM     46  C   UNL A   1      38.460  31.788  30.356  1.00  0.00     0.037 A 
ATOM     47  C   UNL A   1      44.703  30.031  31.016  1.00  0.00     0.049 A 
ATOM     48  C   UNL A   1      39.659  32.445  30.987  1.00  0.00     0.074 A 
ATOM     49  C   UNL A   1      45.738  30.752  31.585  1.00  0.00     0.029 A 
ATOM     50  N   UNL A   1      43.566  30.819  31.116  1.00  0.00    -0.354 N 
ATOM     51  N   UNL A   1      40.897  32.019  31.060  1.00  0.00    -0.248 NA
ATOM     52  C   UNL A   1      39.445  33.762  31.605  1.00  0.00     0.031 C 
ATOM     53  C   UNL A   1      45.222  31.961  32.062  1.00  0.00     0.029 A 
ATOM     54  C   UNL A   1      43.873  32.013  31.748  1.00  0.00     0.049 A 
ATOM     55  H   UNL A   1      42.673  30.568  30.786  1.00  0.00     0.167 HD
ATOM     56  C   UNL A   1      41.613  33.029  31.690  1.00  0.00     0.074 A 
ATOM     57  C   UNL A   1      40.674  34.092  31.976  1.00  0.00     0.031 C 
ATOM     58  C   UNL A   1      42.932  33.072  32.002  1.00  0.00     0.037 A 
BRANCH  45  59
ATOM     59  C   UNL A   1      46.045  27.985  30.412  1.00  0.00     0.064 A 
ATOM     60  C   UNL A   1      46.334  26.983  31.349  1.00  0.00     0.173 A 
ATOM     61  C   UNL A   1      47.007  28.264  29.428  1.00  0.00     0.173 A 
ATOM     62  F   UNL A   1      45.454  26.691  32.318  1.00  0.00    -0.203 F 
ATOM     63  C   UNL A   1      47.547  26.299  31.316  1.00  0.00     0.198 A 
ATOM     64  C   UNL A   1      48.208  27.561  29.382  1.00  0.00     0.198 A 
ATOM     65  F   UNL A   1      46.777  29.211  28.508  1.00  0.00    -0.203 F 
ATOM     66  F   UNL A   1      47.820  25.374  32.246  1.00  0.00    -0.200 F 
ATOM     67  C   UNL A   1      48.480  26.584  30.328  1.00  0.00     0.200 A 
ATOM     68  F   UNL A   1      49.103  27.830  28.422  1.00  0.00    -0.200 F 
ATOM     69  F   UNL A   1      49.645  25.921  30.294  1.00  0.00    -0.200 F 
ENDBRANCH  45  59
BRANCH  46  70
ATOM     70  C   UNL A   1      37.135  32.463  30.371  1.00  0.00     0.064 A 
ATOM     71  C   UNL A   1      36.766  33.361  29.361  1.00  0.00     0.173 A 
ATOM     72  C   UNL A   1      36.226  32.245  31.416  1.00  0.00     0.173 A 
ATOM     73  F   UNL A   1      37.612  33.619  28.353  1.00  0.00    -0.203 F 
ATOM     74  C   UNL A   1      35.546  34.034  29.407  1.00  0.00     0.198 A 
ATOM     75  C   UNL A   1      34.996  32.898  31.448  1.00  0.00     0.198 A 
ATOM     76  F   UNL A   1      36.532  31.394  32.407  1.00  0.00    -0.203 F 
ATOM     77  F   UNL A   1      35.238  34.924  28.454  1.00  0.00    -0.200 F 
ATOM     78  C   UNL A   1      34.661  33.799  30.449  1.00  0.00     0.200 A 
ATOM     79  F   UNL A   1      34.139  32.659  32.450  1.00  0.00    -0.200 F 
ATOM     80  F   UNL A   1      33.490  34.447  30.493  1.00  0.00    -0.200 F 
ENDBRANCH  46  70
BRANCH  58  81
ATOM     81  C   UNL A   1      43.452  34.332  32.632  1.00  0.00     0.064 A 
ATOM     82  C   UNL A   1      43.870  35.426  31.862  1.00  0.00     0.173 A 
ATOM     83  C   UNL A   1      43.496  34.456  34.029  1.00  0.00     0.173 A 
ATOM     84  F   UNL A   1      43.859  35.352  30.522  1.00  0.00    -0.203 F 
ATOM     85  C   UNL A   1      44.344  36.587  32.467  1.00  0.00     0.198 A 
ATOM     86  C   UNL A   1      43.944  35.629  34.631  1.00  0.00     0.198 A 
ATOM     87  F   UNL A   1      43.099  33.442  34.811  1.00  0.00    -0.203 F 
ATOM     88  F   UNL A   1      44.787  37.602  31.711  1.00  0.00    -0.200 F 
ATOM     89  C   UNL A   1      44.375  36.690  33.850  1.00  0.00     0.200 A 
ATOM     90  F   UNL A   1      43.961  35.730  35.968  1.00  0.00    -0.200 F 
ATOM     91  F   UNL A   1      44.829  37.810  34.431  1.00  0.00    -0.200 F 
ENDBRANCH  58  81
ENDBRANCH  32  33
ENDBRANCH  25  27
ENDBRANCH  24  25
ENDBRANCH  23  24
ENDBRANCH  22  23
ENDBRANCH   1  22
TORSDOF 18
ENDMDL
MODEL 3
REMARK VINA RESULT:     -11.4      4.200      9.601
REMARK SMILES CC1=C(C)C(=O)N(C[C@H](CC(C)C)C(=O)OCCOCCOC(=O)c2ccc(-c3c4nc(c(-c5c(F)c(F)c(F)c(F)c5F)c5ccc([nH]5)c(-c5c(F)c(F)c(F)c(F)c5F)c5nc(c(-c6c(F)c(F)c(F)c(F)c6F)c6ccc3[nH]6)C=C5)C=C4)cc2)C1=O
REMARK SMILES IDX 19 1 18 2 17 3 16 4 14 5 15 6 9 7 8 8 7 9 1 10 2 11 3 12
REMARK SMILES IDX 88 13 4 14 5 15 89 16 6 17 10 18 11 19 12 20 13 21 20 22
REMARK SMILES IDX 21 23 22 24 23 25 24 26 25 27 26 28 87 29 27 30 86 31 28 32
REMARK SMILES IDX 29 33 30 34 80 35 31 36 85 37 79 38 81 39 32 40 84 41 78 42
REMARK SMILES IDX 77 43 33 45 65 46 45 47 64 48 46 49 49 50 63 51 82 52 47 53
REMARK SMILES IDX 48 54 62 56 83 57 50 58 34 59 35 60 43 61 36 62 37 63 41 64
REMARK SMILES IDX 44 65 38 66 39 67 42 68 40 69 66 70 67 71 75 72 68 73 69 74
REMARK SMILES IDX 73 75 76 76 70 77 71 78 74 79 72 80 51 81 52 82 60 83 53 84
REMARK SMILES IDX 54 85 58 86 61 87 55 88 56 89 59 90 57 91
REMARK H PARENT 81 44 49 55
REMARK Flexibility Score: inf
ROOT
ATOM      1  O   UNL A   1      31.289  28.983  25.945  1.00  0.00    -0.374 OA
ENDROOT
BRANCH   1   2
ATOM      2  C   UNL A   1      31.584  28.049  26.981  1.00  0.00     0.202 C 
BRANCH   2   3
ATOM      3  C   UNL A   1      32.559  26.928  26.615  1.00  0.00     0.261 C 
BRANCH   3   4
ATOM      4  O   UNL A   1      32.017  25.620  26.890  1.00  0.00    -0.463 OA
BRANCH   4   5
ATOM      5  C   UNL A   1      31.016  25.195  26.064  1.00  0.00     0.310 C 
ATOM      6  O   UNL A   1      29.852  25.027  26.401  1.00  0.00    -0.252 OA
BRANCH   5   7
ATOM      7  C   UNL A   1      31.519  24.919  24.650  1.00  0.00     0.119 C 
BRANCH   7   8
ATOM      8  C   UNL A   1      30.350  25.101  23.660  1.00  0.00     0.144 C 
BRANCH   8   9
ATOM      9  N   UNL A   1      29.929  26.472  23.438  1.00  0.00    -0.274 N 
ATOM     10  C   UNL A   1      30.294  29.720  21.827  1.00  0.00     0.051 C 
ATOM     11  C   UNL A   1      29.818  28.595  22.659  1.00  0.00     0.023 C 
ATOM     12  C   UNL A   1      28.609  28.310  23.153  1.00  0.00     0.023 C 
ATOM     13  C   UNL A   1      30.715  27.502  23.056  1.00  0.00     0.256 C 
ATOM     14  C   UNL A   1      27.355  29.092  23.120  1.00  0.00     0.051 C 
ATOM     15  C   UNL A   1      28.674  26.936  23.676  1.00  0.00     0.256 C 
ATOM     16  O   UNL A   1      31.927  27.597  23.075  1.00  0.00    -0.269 OA
ATOM     17  O   UNL A   1      27.732  26.346  24.175  1.00  0.00    -0.269 OA
ENDBRANCH   8   9
ENDBRANCH   7   8
BRANCH   7  18
ATOM     18  C   UNL A   1      32.501  23.711  24.621  1.00  0.00     0.020 C 
BRANCH  18  19
ATOM     19  C   UNL A   1      33.953  23.822  24.133  1.00  0.00    -0.017 C 
ATOM     20  C   UNL A   1      34.900  24.481  25.135  1.00  0.00     0.007 C 
ATOM     21  C   UNL A   1      34.509  22.421  23.818  1.00  0.00     0.007 C 
ENDBRANCH  18  19
ENDBRANCH   7  18
ENDBRANCH   5   7
ENDBRANCH   4   5
ENDBRANCH   3   4
ENDBRANCH   2   3
ENDBRANCH   1   2
BRANCH   1  22
ATOM     22  C   UNL A   1      32.221  30.041  25.739  1.00  0.00     0.202 C 
BRANCH  22  23
ATOM     23  C   UNL A   1      31.925  31.341  26.498  1.00  0.00     0.261 C 
BRANCH  23  24
ATOM     24  O   UNL A   1      32.666  31.445  27.730  1.00  0.00    -0.460 OA
BRANCH  24  25
ATOM     25  C   UNL A   1      33.544  32.475  27.765  1.00  0.00     0.338 C 
ATOM     26  O   UNL A   1      33.285  33.668  27.769  1.00  0.00    -0.246 OA
BRANCH  25  27
ATOM     27  C   UNL A   1      34.929  31.992  27.935  1.00  0.00     0.060 A 
ATOM     28  C   UNL A   1      35.111  30.605  27.996  1.00  0.00     0.016 A 
ATOM     29  C   UNL A   1      35.997  32.857  28.185  1.00  0.00     0.016 A 
ATOM     30  C   UNL A   1      36.335  30.076  28.400  1.00  0.00     0.010 A 
ATOM     31  C   UNL A   1      37.227  32.325  28.594  1.00  0.00     0.010 A 
ATOM     32  C   UNL A   1      37.381  30.935  28.762  1.00  0.00    -0.014 A 
BRANCH  32  33
ATOM     33  C   UNL A   1      38.531  30.373  29.516  1.00  0.00     0.031 A 
ATOM     34  C   UNL A   1      38.721  30.778  30.956  1.00  0.00     0.074 A 
ATOM     35  C   UNL A   1      39.345  29.454  28.967  1.00  0.00     0.049 A 
ATOM     36  N   UNL A   1      39.613  30.372  31.824  1.00  0.00    -0.248 NA
ATOM     37  C   UNL A   1      37.770  31.767  31.489  1.00  0.00     0.031 C 
ATOM     38  C   UNL A   1      39.240  28.945  27.603  1.00  0.00     0.029 A 
ATOM     39  N   UNL A   1      40.416  28.781  29.497  1.00  0.00    -0.354 N 
ATOM     40  C   UNL A   1      39.330  31.053  33.001  1.00  0.00     0.074 A 
ATOM     41  C   UNL A   1      38.208  31.925  32.729  1.00  0.00     0.031 C 
ATOM     42  C   UNL A   1      40.217  28.044  27.397  1.00  0.00     0.029 A 
ATOM     43  C   UNL A   1      41.020  27.921  28.613  1.00  0.00     0.049 A 
ATOM     44  H   UNL A   1      40.724  28.903  30.425  1.00  0.00     0.167 HD
ATOM     45  C   UNL A   1      39.938  30.950  34.208  1.00  0.00     0.037 A 
ATOM     46  C   UNL A   1      42.096  27.127  28.771  1.00  0.00     0.037 A 
ATOM     47  C   UNL A   1      41.048  30.080  34.487  1.00  0.00     0.049 A 
ATOM     48  C   UNL A   1      42.784  27.064  30.111  1.00  0.00     0.074 A 
ATOM     49  C   UNL A   1      41.730  29.904  35.679  1.00  0.00     0.029 A 
ATOM     50  N   UNL A   1      41.642  29.238  33.559  1.00  0.00    -0.354 N 
ATOM     51  N   UNL A   1      42.490  27.691  31.224  1.00  0.00    -0.248 NA
ATOM     52  C   UNL A   1      43.945  26.169  30.218  1.00  0.00     0.031 C 
ATOM     53  C   UNL A   1      42.760  28.983  35.463  1.00  0.00     0.029 A 
ATOM     54  C   UNL A   1      42.689  28.550  34.148  1.00  0.00     0.049 A 
ATOM     55  H   UNL A   1      41.360  29.143  32.621  1.00  0.00     0.167 HD
ATOM     56  C   UNL A   1      43.399  27.235  32.171  1.00  0.00     0.074 A 
ATOM     57  C   UNL A   1      44.252  26.276  31.504  1.00  0.00     0.031 C 
ATOM     58  C   UNL A   1      43.514  27.579  33.477  1.00  0.00     0.037 A 
BRANCH  45  59
ATOM     59  C   UNL A   1      39.421  31.817  35.317  1.00  0.00     0.064 A 
ATOM     60  C   UNL A   1      38.490  31.338  36.251  1.00  0.00     0.173 A 
ATOM     61  C   UNL A   1      39.888  33.131  35.468  1.00  0.00     0.173 A 
ATOM     62  F   UNL A   1      38.002  30.094  36.140  1.00  0.00    -0.203 F 
ATOM     63  C   UNL A   1      38.029  32.150  37.284  1.00  0.00     0.198 A 
ATOM     64  C   UNL A   1      39.444  33.932  36.517  1.00  0.00     0.198 A 
ATOM     65  F   UNL A   1      40.780  33.635  34.603  1.00  0.00    -0.203 F 
ATOM     66  F   UNL A   1      37.109  31.686  38.140  1.00  0.00    -0.200 F 
ATOM     67  C   UNL A   1      38.512  33.444  37.420  1.00  0.00     0.200 A 
ATOM     68  F   UNL A   1      39.919  35.178  36.654  1.00  0.00    -0.200 F 
ATOM     69  F   UNL A   1      38.072  34.223  38.418  1.00  0.00    -0.200 F 
ENDBRANCH  45  59
BRANCH  46  70
ATOM     70  C   UNL A   1      42.591  26.310  27.632  1.00  0.00     0.064 A 
ATOM     71  C   UNL A   1      43.585  26.792  26.770  1.00  0.00     0.173 A 
ATOM     72  C   UNL A   1      42.054  25.042  27.365  1.00  0.00     0.173 A 
ATOM     73  F   UNL A   1      44.113  28.009  26.971  1.00  0.00    -0.203 F 
ATOM     74  C   UNL A   1      44.008  26.047  25.671  1.00  0.00     0.198 A 
ATOM     75  C   UNL A   1      42.496  24.287  26.282  1.00  0.00     0.198 A 
ATOM     76  F   UNL A   1      41.101  24.536  28.161  1.00  0.00    -0.203 F 
ATOM     77  F   UNL A   1      44.925  26.552  24.834  1.00  0.00    -0.200 F 
ATOM     78  C   UNL A   1      43.465  24.794  25.429  1.00  0.00     0.200 A 
ATOM     79  F   UNL A   1      41.977  23.071  26.059  1.00  0.00    -0.200 F 
ATOM     80  F   UNL A   1      43.871  24.079  24.372  1.00  0.00    -0.200 F 
ENDBRANCH  46  70
BRANCH  58  81
ATOM     81  C   UNL A   1      44.560  26.871  34.288  1.00  0.00     0.064 A 
ATOM     82  C   UNL A   1      45.813  27.447  34.545  1.00  0.00     0.173 A 
ATOM     83  C   UNL A   1      44.289  25.612  34.846  1.00  0.00     0.173 A 
ATOM     84  F   UNL A   1      46.125  28.643  34.023  1.00  0.00    -0.203 F 
ATOM     85  C   UNL A   1      46.767  26.775  35.304  1.00  0.00     0.198 A 
ATOM     86  C   UNL A   1      45.235  24.955  35.629  1.00  0.00     0.198 A 
ATOM     87  F   UNL A   1      43.103  25.022  34.638  1.00  0.00    -0.203 F 
ATOM     88  F   UNL A   1      47.975  27.322  35.494  1.00  0.00    -0.200 F 
ATOM     89  C   UNL A   1      46.475  25.534  35.851  1.00  0.00     0.200 A 
ATOM     90  F   UNL A   1      44.946  23.762  36.166  1.00  0.00    -0.200 F 
ATOM     91  F   UNL A   1      47.394  24.890  36.584  1.00  0.00    -0.200 F 
ENDBRANCH  58  81
ENDBRANCH  32  33
ENDBRANCH  25  27
ENDBRANCH  24  25
ENDBRANCH  23  24
ENDBRANCH  22  23
ENDBRANCH   1  22
TORSDOF 18
ENDMDL
