MODEL 1
REMARK VINA RESULT:     -12.9      0.000      0.000
REMARK SMILES Cc1ccc(-c2nn(-c3ccccc3)cc2[C@@H]2[NH2+][C@H](C(=O)OCCOCCOC(=O)c3ccc(-c4c5nc(c(-c6c(F)c(F)c(F)c(F)c6F)c6ccc([nH]6)c(-c6c(F)c(F)c(F)c(F)c6F)c6nc(c(-c7c(F)c(F)c(F)c(F)c7F)c7ccc4[nH]7)C=C6)C=C5)cc3)CS2)cc1
REMARK SMILES IDX 25 1 24 2 23 3 22 4 20 5 21 6 19 7 17 8 18 9 95 10 94 13
REMARK SMILES IDX 16 14 6 15 7 16 8 17 15 18 5 19 1 20 2 21 3 22 97 23 4 24
REMARK SMILES IDX 96 25 9 26 10 27 14 28 11 29 13 30 12 31 26 32 27 33 28 34
REMARK SMILES IDX 29 35 30 36 31 37 32 38 93 39 33 40 92 41 34 42 35 43 36 44
REMARK SMILES IDX 86 45 37 46 91 47 85 48 87 49 38 50 90 51 84 52 83 53 39 55
REMARK SMILES IDX 71 56 51 57 70 58 52 59 55 60 69 61 88 62 53 63 54 64 68 66
REMARK SMILES IDX 89 67 56 68 40 69 41 70 49 71 42 72 43 73 47 74 50 75 44 76
REMARK SMILES IDX 45 77 48 78 46 79 72 80 73 81 81 82 74 83 75 84 79 85 82 86
REMARK SMILES IDX 76 87 77 88 80 89 78 90 57 91 58 92 66 93 59 94 60 95 64 96
REMARK SMILES IDX 67 97 61 98 62 99 65 100 63 101
REMARK H PARENT 18 11 18 12 87 54 55 65
REMARK Flexibility Score: inf
ROOT
ATOM      1  O   UNL A   1      32.905  27.825  25.738  1.00  0.00    -0.374 OA
ENDROOT
BRANCH   1   2
ATOM      2  C   UNL A   1      33.490  27.104  24.683  1.00  0.00     0.202 C 
BRANCH   2   3
ATOM      3  C   UNL A   1      32.402  27.217  23.709  1.00  0.00     0.261 C 
BRANCH   3   4
ATOM      4  O   UNL A   1      31.551  26.119  23.783  1.00  0.00    -0.459 OA
BRANCH   4   5
ATOM      5  C   UNL A   1      31.720  25.269  22.744  1.00  0.00     0.365 C 
ATOM      6  O   UNL A   1      32.350  25.472  21.720  1.00  0.00    -0.245 OA
BRANCH   5   7
ATOM      7  C   UNL A   1      30.936  24.052  23.123  1.00  0.00     0.304 C 
ATOM      8  C   UNL A   1      32.391  22.265  23.944  1.00  0.00     0.278 C 
ATOM      9  N   UNL A   1      31.753  22.835  22.752  1.00  0.00    -0.319 N 
ATOM     10  S   UNL A   1      31.518  22.836  25.417  1.00  0.00    -0.087 SA
ATOM     11  H   UNL A   1      31.142  22.135  22.331  1.00  0.00     0.348 HD
ATOM     12  H   UNL A   1      32.478  23.113  22.092  1.00  0.00     0.348 HD
ATOM     13  C   UNL A   1      30.667  24.198  24.609  1.00  0.00     0.153 C 
BRANCH   8  14
ATOM     14  C   UNL A   1      33.959  22.233  24.103  1.00  0.00     0.067 A 
ATOM     15  C   UNL A   1      34.645  20.813  25.206  1.00  0.00     0.103 A 
ATOM     16  N   UNL A   1      36.227  21.100  25.760  1.00  0.00    -0.167 NA
ATOM     17  N   UNL A   1      36.881  22.709  25.058  1.00  0.00    -0.240 N 
ATOM     18  C   UNL A   1      35.337  23.393  23.915  1.00  0.00     0.126 A 
BRANCH  15  19
ATOM     19  C   UNL A   1      34.070  19.441  25.089  1.00  0.00     0.003 A 
ATOM     20  C   UNL A   1      32.793  15.303  25.133  1.00  0.00     0.044 C 
ATOM     21  C   UNL A   1      33.218  16.741  25.092  1.00  0.00    -0.051 A 
ATOM     22  C   UNL A   1      34.374  17.099  24.404  1.00  0.00     0.004 A 
ATOM     23  C   UNL A   1      32.498  17.738  25.770  1.00  0.00     0.004 A 
ATOM     24  C   UNL A   1      34.790  18.432  24.402  1.00  0.00     0.011 A 
ATOM     25  C   UNL A   1      32.924  19.076  25.780  1.00  0.00     0.011 A 
ENDBRANCH  15  19
BRANCH  17  26
ATOM     26  C   UNL A   1      38.321  23.010  25.506  1.00  0.00     0.065 A 
ATOM     27  C   UNL A   1      38.610  24.219  26.171  1.00  0.00     0.028 A 
ATOM     28  C   UNL A   1      39.176  21.917  25.725  1.00  0.00     0.028 A 
ATOM     29  C   UNL A   1      39.410  24.189  27.326  1.00  0.00     0.002 A 
ATOM     30  C   UNL A   1      39.970  21.893  26.882  1.00  0.00     0.002 A 
ATOM     31  C   UNL A   1      40.013  23.000  27.727  1.00  0.00     0.000 A 
ENDBRANCH  17  26
ENDBRANCH   8  14
ENDBRANCH   5   7
ENDBRANCH   4   5
ENDBRANCH   3   4
ENDBRANCH   2   3
ENDBRANCH   1   2
BRANCH   1  32
ATOM     32  C   UNL A   1      33.840  28.255  26.679  1.00  0.00     0.202 C 
BRANCH  32  33
ATOM     33  C   UNL A   1      34.032  29.772  26.559  1.00  0.00     0.261 C 
BRANCH  33  34
ATOM     34  O   UNL A   1      34.864  30.219  27.686  1.00  0.00    -0.460 OA
BRANCH  34  35
ATOM     35  C   UNL A   1      34.669  31.452  28.266  1.00  0.00     0.338 C 
ATOM     36  O   UNL A   1      33.802  32.243  27.935  1.00  0.00    -0.246 OA
BRANCH  35  37
ATOM     37  C   UNL A   1      35.800  31.790  29.226  1.00  0.00     0.060 A 
ATOM     38  C   UNL A   1      36.838  32.690  28.907  1.00  0.00     0.016 A 
ATOM     39  C   UNL A   1      36.013  30.956  30.306  1.00  0.00     0.016 A 
ATOM     40  C   UNL A   1      38.149  32.542  29.461  1.00  0.00     0.010 A 
ATOM     41  C   UNL A   1      37.323  30.740  30.737  1.00  0.00     0.010 A 
ATOM     42  C   UNL A   1      38.449  31.422  30.212  1.00  0.00    -0.014 A 
BRANCH  42  43
ATOM     43  C   UNL A   1      39.814  30.839  30.548  1.00  0.00     0.031 A 
ATOM     44  C   UNL A   1      39.935  29.495  29.963  1.00  0.00     0.074 A 
ATOM     45  C   UNL A   1      40.924  31.404  31.172  1.00  0.00     0.049 A 
ATOM     46  N   UNL A   1      40.557  28.520  30.526  1.00  0.00    -0.248 NA
ATOM     47  C   UNL A   1      39.188  29.050  28.769  1.00  0.00     0.031 C 
ATOM     48  C   UNL A   1      42.375  31.149  31.040  1.00  0.00     0.029 A 
ATOM     49  N   UNL A   1      41.016  32.510  32.018  1.00  0.00    -0.354 N 
ATOM     50  C   UNL A   1      40.759  27.647  29.487  1.00  0.00     0.074 A 
ATOM     51  C   UNL A   1      39.612  27.795  28.654  1.00  0.00     0.031 C 
ATOM     52  C   UNL A   1      43.098  31.853  31.957  1.00  0.00     0.029 A 
ATOM     53  C   UNL A   1      42.174  32.597  32.798  1.00  0.00     0.049 A 
ATOM     54  H   UNL A   1      40.307  33.191  32.063  1.00  0.00     0.167 HD
ATOM     55  C   UNL A   1      42.038  27.273  29.210  1.00  0.00     0.037 A 
ATOM     56  C   UNL A   1      42.124  32.838  34.146  1.00  0.00     0.037 A 
ATOM     57  C   UNL A   1      42.963  27.721  30.280  1.00  0.00     0.049 A 
ATOM     58  C   UNL A   1      42.444  31.448  34.715  1.00  0.00     0.074 A 
ATOM     59  C   UNL A   1      44.130  28.466  30.314  1.00  0.00     0.029 A 
ATOM     60  N   UNL A   1      42.556  27.636  31.620  1.00  0.00    -0.354 N 
ATOM     61  N   UNL A   1      42.594  30.400  33.946  1.00  0.00    -0.248 NA
ATOM     62  C   UNL A   1      42.645  31.103  36.111  1.00  0.00     0.031 C 
ATOM     63  C   UNL A   1      44.418  28.789  31.684  1.00  0.00     0.029 A 
ATOM     64  C   UNL A   1      43.432  28.247  32.496  1.00  0.00     0.049 A 
ATOM     65  H   UNL A   1      41.730  27.186  31.907  1.00  0.00     0.167 HD
ATOM     66  C   UNL A   1      42.963  29.296  34.637  1.00  0.00     0.074 A 
ATOM     67  C   UNL A   1      42.958  29.792  36.011  1.00  0.00     0.031 C 
ATOM     68  C   UNL A   1      43.221  28.127  33.959  1.00  0.00     0.037 A 
BRANCH  55  69
ATOM     69  C   UNL A   1      42.480  26.691  27.870  1.00  0.00     0.064 A 
ATOM     70  C   UNL A   1      42.831  25.330  27.813  1.00  0.00     0.173 A 
ATOM     71  C   UNL A   1      42.604  27.370  26.628  1.00  0.00     0.173 A 
ATOM     72  F   UNL A   1      42.784  24.561  28.909  1.00  0.00    -0.203 F 
ATOM     73  C   UNL A   1      43.234  24.700  26.630  1.00  0.00     0.198 A 
ATOM     74  C   UNL A   1      42.953  26.726  25.435  1.00  0.00     0.198 A 
ATOM     75  F   UNL A   1      42.451  28.690  26.494  1.00  0.00    -0.203 F 
ATOM     76  F   UNL A   1      43.583  23.407  26.657  1.00  0.00    -0.200 F 
ATOM     77  C   UNL A   1      43.273  25.391  25.436  1.00  0.00     0.200 A 
ATOM     78  F   UNL A   1      42.991  27.424  24.289  1.00  0.00    -0.200 F 
ATOM     79  F   UNL A   1      43.625  24.776  24.300  1.00  0.00    -0.200 F 
ENDBRANCH  55  69
BRANCH  56  80
ATOM     80  C   UNL A   1      40.895  33.717  34.547  1.00  0.00     0.064 A 
ATOM     81  C   UNL A   1      39.259  33.094  35.011  1.00  0.00     0.173 A 
ATOM     82  C   UNL A   1      41.483  35.047  35.471  1.00  0.00     0.173 A 
ATOM     83  F   UNL A   1      38.893  32.004  34.265  1.00  0.00    -0.203 F 
ATOM     84  C   UNL A   1      38.378  33.957  36.719  1.00  0.00     0.198 A 
ATOM     85  C   UNL A   1      40.725  35.740  36.845  1.00  0.00     0.198 A 
ATOM     86  F   UNL A   1      42.677  35.561  35.123  1.00  0.00    -0.203 F 
ATOM     87  F   UNL A   1      37.312  33.636  37.509  1.00  0.00    -0.200 F 
ATOM     88  C   UNL A   1      39.260  35.243  37.509  1.00  0.00     0.200 A 
ATOM     89  F   UNL A   1      41.257  36.875  37.318  1.00  0.00    -0.200 F 
ATOM     90  F   UNL A   1      38.799  35.802  38.633  1.00  0.00    -0.200 F 
ENDBRANCH  56  80
BRANCH  68  91
ATOM     91  C   UNL A   1      43.384  26.733  34.556  1.00  0.00     0.064 A 
ATOM     92  C   UNL A   1      42.339  25.926  35.020  1.00  0.00     0.173 A 
ATOM     93  C   UNL A   1      44.666  26.113  34.629  1.00  0.00     0.173 A 
ATOM     94  F   UNL A   1      41.059  26.278  34.915  1.00  0.00    -0.203 F 
ATOM     95  C   UNL A   1      42.556  24.665  35.582  1.00  0.00     0.198 A 
ATOM     96  C   UNL A   1      44.869  24.827  35.114  1.00  0.00     0.198 A 
ATOM     97  F   UNL A   1      45.793  26.709  34.221  1.00  0.00    -0.203 F 
ATOM     98  F   UNL A   1      41.513  23.981  36.071  1.00  0.00    -0.200 F 
ATOM     99  C   UNL A   1      43.816  24.111  35.621  1.00  0.00     0.200 A 
ATOM    100  F   UNL A   1      46.099  24.295  35.080  1.00  0.00    -0.200 F 
ATOM    101  F   UNL A   1      44.010  22.888  36.128  1.00  0.00    -0.200 F 
ENDBRANCH  68  91
ENDBRANCH  42  43
ENDBRANCH  35  37
ENDBRANCH  34  35
ENDBRANCH  33  34
ENDBRANCH  32  33
ENDBRANCH   1  32
TORSDOF 17
ENDMDL
MODEL 2
REMARK VINA RESULT:     -12.6      5.496      9.691
REMARK SMILES Cc1ccc(-c2nn(-c3ccccc3)cc2[C@@H]2[NH2+][C@H](C(=O)OCCOCCOC(=O)c3ccc(-c4c5nc(c(-c6c(F)c(F)c(F)c(F)c6F)c6ccc([nH]6)c(-c6c(F)c(F)c(F)c(F)c6F)c6nc(c(-c7c(F)c(F)c(F)c(F)c7F)c7ccc4[nH]7)C=C6)C=C5)cc3)CS2)cc1
REMARK SMILES IDX 25 1 24 2 23 3 22 4 20 5 21 6 19 7 17 8 18 9 95 10 94 13
REMARK SMILES IDX 16 14 6 15 7 16 8 17 15 18 5 19 1 20 2 21 3 22 97 23 4 24
REMARK SMILES IDX 96 25 9 26 10 27 14 28 11 29 13 30 12 31 26 32 27 33 28 34
REMARK SMILES IDX 29 35 30 36 31 37 32 38 93 39 33 40 92 41 34 42 35 43 36 44
REMARK SMILES IDX 86 45 37 46 91 47 85 48 87 49 38 50 90 51 84 52 83 53 39 55
REMARK SMILES IDX 71 56 51 57 70 58 52 59 55 60 69 61 88 62 53 63 54 64 68 66
REMARK SMILES IDX 89 67 56 68 40 69 41 70 49 71 42 72 43 73 47 74 50 75 44 76
REMARK SMILES IDX 45 77 48 78 46 79 72 80 73 81 81 82 74 83 75 84 79 85 82 86
REMARK SMILES IDX 76 87 77 88 80 89 78 90 57 91 58 92 66 93 59 94 60 95 64 96
REMARK SMILES IDX 67 97 61 98 62 99 65 100 63 101
REMARK H PARENT 18 11 18 12 87 54 55 65
REMARK Flexibility Score: inf
ROOT
ATOM      1  O   UNL A   1      37.268  32.323  35.395  1.00  0.00    -0.374 OA
ENDROOT
BRANCH   1   2
ATOM      2  C   UNL A   1      37.179  33.372  34.465  1.00  0.00     0.202 C 
BRANCH   2   3
ATOM      3  C   UNL A   1      36.177  32.789  33.569  1.00  0.00     0.261 C 
BRANCH   3   4
ATOM      4  O   UNL A   1      36.213  33.396  32.318  1.00  0.00    -0.459 OA
BRANCH   4   5
ATOM      5  C   UNL A   1      35.136  33.079  31.564  1.00  0.00     0.365 C 
ATOM      6  O   UNL A   1      34.224  32.327  31.861  1.00  0.00    -0.245 OA
BRANCH   5   7
ATOM      7  C   UNL A   1      35.338  33.829  30.285  1.00  0.00     0.304 C 
ATOM      8  C   UNL A   1      36.808  32.614  28.753  1.00  0.00     0.278 C 
ATOM      9  N   UNL A   1      36.764  33.606  29.832  1.00  0.00    -0.319 N 
ATOM     10  S   UNL A   1      35.177  32.486  27.993  1.00  0.00    -0.087 SA
ATOM     11  H   UNL A   1      37.151  34.487  29.494  1.00  0.00     0.348 HD
ATOM     12  H   UNL A   1      37.310  33.261  30.621  1.00  0.00     0.348 HD
ATOM     13  C   UNL A   1      34.286  33.286  29.335  1.00  0.00     0.153 C 
BRANCH   8  14
ATOM     14  C   UNL A   1      37.536  31.228  28.940  1.00  0.00     0.067 A 
ATOM     15  C   UNL A   1      39.392  31.333  29.440  1.00  0.00     0.103 A 
ATOM     16  N   UNL A   1      40.250  29.896  29.137  1.00  0.00    -0.167 NA
ATOM     17  N   UNL A   1      39.098  28.579  28.467  1.00  0.00    -0.240 N 
ATOM     18  C   UNL A   1      37.287  29.514  28.409  1.00  0.00     0.126 A 
BRANCH  15  19
ATOM     19  C   UNL A   1      39.828  32.333  30.458  1.00  0.00     0.003 A 
ATOM     20  C   UNL A   1      41.583  34.937  33.440  1.00  0.00     0.044 C 
ATOM     21  C   UNL A   1      40.947  34.049  32.412  1.00  0.00    -0.051 A 
ATOM     22  C   UNL A   1      40.454  32.802  32.790  1.00  0.00     0.004 A 
ATOM     23  C   UNL A   1      40.874  34.425  31.061  1.00  0.00     0.004 A 
ATOM     24  C   UNL A   1      39.900  31.959  31.824  1.00  0.00     0.011 A 
ATOM     25  C   UNL A   1      40.330  33.571  30.088  1.00  0.00     0.011 A 
ENDBRANCH  15  19
BRANCH  17  26
ATOM     26  C   UNL A   1      39.815  27.246  28.198  1.00  0.00     0.065 A 
ATOM     27  C   UNL A   1      39.347  26.063  28.808  1.00  0.00     0.028 A 
ATOM     28  C   UNL A   1      40.542  27.127  27.002  1.00  0.00     0.028 A 
ATOM     29  C   UNL A   1      39.211  24.902  28.029  1.00  0.00     0.002 A 
ATOM     30  C   UNL A   1      40.398  25.965  26.228  1.00  0.00     0.002 A 
ATOM     31  C   UNL A   1      39.655  24.889  26.709  1.00  0.00     0.000 A 
ENDBRANCH  17  26
ENDBRANCH   8  14
ENDBRANCH   5   7
ENDBRANCH   4   5
ENDBRANCH   3   4
ENDBRANCH   2   3
ENDBRANCH   1   2
BRANCH   1  32
ATOM     32  C   UNL A   1      37.779  31.152  34.838  1.00  0.00     0.202 C 
BRANCH  32  33
ATOM     33  C   UNL A   1      39.124  30.813  35.493  1.00  0.00     0.261 C 
BRANCH  33  34
ATOM     34  O   UNL A   1      39.789  29.791  34.672  1.00  0.00    -0.460 OA
BRANCH  34  35
ATOM     35  C   UNL A   1      41.144  29.573  34.772  1.00  0.00     0.338 C 
ATOM     36  O   UNL A   1      41.909  30.261  35.425  1.00  0.00    -0.246 OA
BRANCH  35  37
ATOM     37  C   UNL A   1      41.598  28.493  33.800  1.00  0.00     0.060 A 
ATOM     38  C   UNL A   1      42.908  27.973  33.784  1.00  0.00     0.016 A 
ATOM     39  C   UNL A   1      40.819  28.246  32.686  1.00  0.00     0.016 A 
ATOM     40  C   UNL A   1      43.505  27.491  32.575  1.00  0.00     0.010 A 
ATOM     41  C   UNL A   1      41.451  27.899  31.492  1.00  0.00     0.010 A 
ATOM     42  C   UNL A   1      42.844  27.663  31.374  1.00  0.00    -0.014 A 
BRANCH  42  43
ATOM     43  C   UNL A   1      43.411  27.625  29.963  1.00  0.00     0.031 A 
ATOM     44  C   UNL A   1      43.929  26.279  29.675  1.00  0.00     0.074 A 
ATOM     45  C   UNL A   1      43.393  28.572  28.941  1.00  0.00     0.049 A 
ATOM     46  N   UNL A   1      44.977  26.049  28.964  1.00  0.00    -0.248 NA
ATOM     47  C   UNL A   1      43.436  25.052  30.333  1.00  0.00     0.031 C 
ATOM     48  C   UNL A   1      43.393  28.444  27.467  1.00  0.00     0.029 A 
ATOM     49  N   UNL A   1      43.215  29.955  28.997  1.00  0.00    -0.354 N 
ATOM     50  C   UNL A   1      44.837  24.724  28.636  1.00  0.00     0.074 A 
ATOM     51  C   UNL A   1      44.208  24.129  29.769  1.00  0.00     0.031 C 
ATOM     52  C   UNL A   1      43.510  29.656  26.854  1.00  0.00     0.029 A 
ATOM     53  C   UNL A   1      43.642  30.679  27.879  1.00  0.00     0.049 A 
ATOM     54  H   UNL A   1      42.811  30.396  29.779  1.00  0.00     0.167 HD
ATOM     55  C   UNL A   1      44.827  24.393  27.316  1.00  0.00     0.037 A 
ATOM     56  C   UNL A   1      44.434  31.791  27.994  1.00  0.00     0.037 A 
ATOM     57  C   UNL A   1      45.220  25.553  26.478  1.00  0.00     0.049 A 
ATOM     58  C   UNL A   1      45.793  31.243  27.537  1.00  0.00     0.074 A 
ATOM     59  C   UNL A   1      44.654  26.217  25.404  1.00  0.00     0.029 A 
ATOM     60  N   UNL A   1      46.256  26.393  26.911  1.00  0.00    -0.354 N 
ATOM     61  N   UNL A   1      45.972  29.978  27.248  1.00  0.00    -0.248 NA
ATOM     62  C   UNL A   1      47.016  32.000  27.338  1.00  0.00     0.031 C 
ATOM     63  C   UNL A   1      45.384  27.436  25.193  1.00  0.00     0.029 A 
ATOM     64  C   UNL A   1      46.400  27.526  26.134  1.00  0.00     0.049 A 
ATOM     65  H   UNL A   1      46.824  26.195  27.689  1.00  0.00     0.167 HD
ATOM     66  C   UNL A   1      47.215  29.723  26.778  1.00  0.00     0.074 A 
ATOM     67  C   UNL A   1      47.845  31.037  26.877  1.00  0.00     0.031 C 
ATOM     68  C   UNL A   1      47.537  28.448  26.372  1.00  0.00     0.037 A 
BRANCH  55  69
ATOM     69  C   UNL A   1      44.256  23.086  26.774  1.00  0.00     0.064 A 
ATOM     70  C   UNL A   1      45.054  22.311  25.913  1.00  0.00     0.173 A 
ATOM     71  C   UNL A   1      42.969  22.533  27.019  1.00  0.00     0.173 A 
ATOM     72  F   UNL A   1      46.286  22.711  25.571  1.00  0.00    -0.203 F 
ATOM     73  C   UNL A   1      44.627  21.091  25.376  1.00  0.00     0.198 A 
ATOM     74  C   UNL A   1      42.565  21.287  26.527  1.00  0.00     0.198 A 
ATOM     75  F   UNL A   1      42.012  23.173  27.697  1.00  0.00    -0.203 F 
ATOM     76  F   UNL A   1      45.430  20.422  24.538  1.00  0.00    -0.200 F 
ATOM     77  C   UNL A   1      43.393  20.566  25.701  1.00  0.00     0.200 A 
ATOM     78  F   UNL A   1      41.356  20.804  26.852  1.00  0.00    -0.200 F 
ATOM     79  F   UNL A   1      43.001  19.382  25.213  1.00  0.00    -0.200 F 
ENDBRANCH  55  69
BRANCH  56  80
ATOM     80  C   UNL A   1      44.175  32.570  29.325  1.00  0.00     0.064 A 
ATOM     81  C   UNL A   1      45.110  32.369  30.863  1.00  0.00     0.173 A 
ATOM     82  C   UNL A   1      43.749  34.186  28.909  1.00  0.00     0.173 A 
ATOM     83  F   UNL A   1      45.456  31.063  31.088  1.00  0.00    -0.203 F 
ATOM     84  C   UNL A   1      45.699  34.141  31.839  1.00  0.00     0.198 A 
ATOM     85  C   UNL A   1      44.228  35.607  29.744  1.00  0.00     0.198 A 
ATOM     86  F   UNL A   1      43.016  34.365  27.795  1.00  0.00    -0.203 F 
ATOM     87  F   UNL A   1      46.570  34.430  32.849  1.00  0.00    -0.200 F 
ATOM     88  C   UNL A   1      45.185  35.653  31.127  1.00  0.00     0.200 A 
ATOM     89  F   UNL A   1      43.650  36.754  29.361  1.00  0.00    -0.200 F 
ATOM     90  F   UNL A   1      45.567  36.823  31.650  1.00  0.00    -0.200 F 
ENDBRANCH  56  80
BRANCH  68  91
ATOM     91  C   UNL A   1      48.928  27.901  26.070  1.00  0.00     0.064 A 
ATOM     92  C   UNL A   1      49.377  27.485  24.812  1.00  0.00     0.173 A 
ATOM     93  C   UNL A   1      49.924  27.832  27.089  1.00  0.00     0.173 A 
ATOM     94  F   UNL A   1      48.634  27.596  23.712  1.00  0.00    -0.203 F 
ATOM     95  C   UNL A   1      50.658  26.968  24.604  1.00  0.00     0.198 A 
ATOM     96  C   UNL A   1      51.223  27.392  26.862  1.00  0.00     0.198 A 
ATOM     97  F   UNL A   1      49.703  28.198  28.356  1.00  0.00    -0.203 F 
ATOM     98  F   UNL A   1      50.992  26.521  23.385  1.00  0.00    -0.200 F 
ATOM     99  C   UNL A   1      51.584  26.930  25.624  1.00  0.00     0.200 A 
ATOM    100  F   UNL A   1      52.115  27.428  27.861  1.00  0.00    -0.200 F 
ATOM    101  F   UNL A   1      52.821  26.467  25.408  1.00  0.00    -0.200 F 
ENDBRANCH  68  91
ENDBRANCH  42  43
ENDBRANCH  35  37
ENDBRANCH  34  35
ENDBRANCH  33  34
ENDBRANCH  32  33
ENDBRANCH   1  32
TORSDOF 17
ENDMDL
MODEL 3
REMARK VINA RESULT:     -12.3      3.795      9.990
REMARK SMILES Cc1ccc(-c2nn(-c3ccccc3)cc2[C@@H]2[NH2+][C@H](C(=O)OCCOCCOC(=O)c3ccc(-c4c5nc(c(-c6c(F)c(F)c(F)c(F)c6F)c6ccc([nH]6)c(-c6c(F)c(F)c(F)c(F)c6F)c6nc(c(-c7c(F)c(F)c(F)c(F)c7F)c7ccc4[nH]7)C=C6)C=C5)cc3)CS2)cc1
REMARK SMILES IDX 25 1 24 2 23 3 22 4 20 5 21 6 19 7 17 8 18 9 95 10 94 13
REMARK SMILES IDX 16 14 6 15 7 16 8 17 15 18 5 19 1 20 2 21 3 22 97 23 4 24
REMARK SMILES IDX 96 25 9 26 10 27 14 28 11 29 13 30 12 31 26 32 27 33 28 34
REMARK SMILES IDX 29 35 30 36 31 37 32 38 93 39 33 40 92 41 34 42 35 43 36 44
REMARK SMILES IDX 86 45 37 46 91 47 85 48 87 49 38 50 90 51 84 52 83 53 39 55
REMARK SMILES IDX 71 56 51 57 70 58 52 59 55 60 69 61 88 62 53 63 54 64 68 66
REMARK SMILES IDX 89 67 56 68 40 69 41 70 49 71 42 72 43 73 47 74 50 75 44 76
REMARK SMILES IDX 45 77 48 78 46 79 72 80 73 81 81 82 74 83 75 84 79 85 82 86
REMARK SMILES IDX 76 87 77 88 80 89 78 90 57 91 58 92 66 93 59 94 60 95 64 96
REMARK SMILES IDX 67 97 61 98 62 99 65 100 63 101
REMARK H PARENT 18 11 18 12 87 54 55 65
REMARK Flexibility Score: inf
ROOT
ATOM      1  O   UNL A   1      35.914  23.071  26.092  1.00  0.00    -0.374 OA
ENDROOT
BRANCH   1   2
ATOM      2  C   UNL A   1      34.689  23.687  25.783  1.00  0.00     0.202 C 
BRANCH   2   3
ATOM      3  C   UNL A   1      33.862  22.484  25.662  1.00  0.00     0.261 C 
BRANCH   3   4
ATOM      4  O   UNL A   1      32.882  22.650  24.689  1.00  0.00    -0.459 OA
BRANCH   4   5
ATOM      5  C   UNL A   1      31.725  23.124  25.204  1.00  0.00     0.365 C 
ATOM      6  O   UNL A   1      31.368  23.092  26.369  1.00  0.00    -0.245 OA
BRANCH   5   7
ATOM      7  C   UNL A   1      30.978  23.658  24.022  1.00  0.00     0.304 C 
ATOM      8  C   UNL A   1      30.903  26.103  24.036  1.00  0.00     0.278 C 
ATOM      9  N   UNL A   1      30.212  24.883  24.467  1.00  0.00    -0.319 N 
ATOM     10  S   UNL A   1      32.027  25.704  22.682  1.00  0.00    -0.087 SA
ATOM     11  H   UNL A   1      29.277  24.864  24.057  1.00  0.00     0.348 HD
ATOM     12  H   UNL A   1      30.149  24.882  25.485  1.00  0.00     0.348 HD
ATOM     13  C   UNL A   1      32.039  23.929  22.971  1.00  0.00     0.153 C 
BRANCH   8  14
ATOM     14  C   UNL A   1      31.496  27.125  25.079  1.00  0.00     0.067 A 
ATOM     15  C   UNL A   1      31.710  28.927  24.437  1.00  0.00     0.103 A 
ATOM     16  N   UNL A   1      32.790  29.848  25.372  1.00  0.00    -0.167 NA
ATOM     17  N   UNL A   1      33.408  28.846  26.829  1.00  0.00    -0.240 N 
ATOM     18  C   UNL A   1      32.465  27.052  26.608  1.00  0.00     0.126 A 
BRANCH  15  19
ATOM     19  C   UNL A   1      30.641  29.545  23.598  1.00  0.00     0.003 A 
ATOM     20  C   UNL A   1      27.865  31.809  21.164  1.00  0.00     0.044 C 
ATOM     21  C   UNL A   1      28.805  31.002  22.011  1.00  0.00    -0.051 A 
ATOM     22  C   UNL A   1      28.877  31.245  23.380  1.00  0.00     0.004 A 
ATOM     23  C   UNL A   1      29.651  30.032  21.449  1.00  0.00     0.004 A 
ATOM     24  C   UNL A   1      29.782  30.522  24.161  1.00  0.00     0.011 A 
ATOM     25  C   UNL A   1      30.570  29.316  22.232  1.00  0.00     0.011 A 
ENDBRANCH  15  19
BRANCH  17  26
ATOM     26  C   UNL A   1      34.371  29.639  27.729  1.00  0.00     0.065 A 
ATOM     27  C   UNL A   1      35.742  29.309  27.747  1.00  0.00     0.028 A 
ATOM     28  C   UNL A   1      34.004  30.947  28.083  1.00  0.00     0.028 A 
ATOM     29  C   UNL A   1      36.694  30.341  27.666  1.00  0.00     0.002 A 
ATOM     30  C   UNL A   1      34.958  31.972  27.997  1.00  0.00     0.002 A 
ATOM     31  C   UNL A   1      36.285  31.671  27.699  1.00  0.00     0.000 A 
ENDBRANCH  17  26
ENDBRANCH   8  14
ENDBRANCH   5   7
ENDBRANCH   4   5
ENDBRANCH   3   4
ENDBRANCH   2   3
ENDBRANCH   1   2
BRANCH   1  32
ATOM     32  C   UNL A   1      37.003  23.721  25.513  1.00  0.00     0.202 C 
BRANCH  32  33
ATOM     33  C   UNL A   1      38.307  23.182  26.117  1.00  0.00     0.261 C 
BRANCH  33  34
ATOM     34  O   UNL A   1      38.541  23.872  27.393  1.00  0.00    -0.460 OA
BRANCH  34  35
ATOM     35  C   UNL A   1      39.690  24.597  27.607  1.00  0.00     0.338 C 
ATOM     36  O   UNL A   1      40.812  24.121  27.641  1.00  0.00    -0.246 OA
BRANCH  35  37
ATOM     37  C   UNL A   1      39.368  26.030  28.004  1.00  0.00     0.060 A 
ATOM     38  C   UNL A   1      39.571  27.131  27.146  1.00  0.00     0.016 A 
ATOM     39  C   UNL A   1      39.186  26.314  29.344  1.00  0.00     0.016 A 
ATOM     40  C   UNL A   1      39.883  28.429  27.661  1.00  0.00     0.010 A 
ATOM     41  C   UNL A   1      39.619  27.547  29.831  1.00  0.00     0.010 A 
ATOM     42  C   UNL A   1      40.127  28.586  29.012  1.00  0.00    -0.014 A 
BRANCH  42  43
ATOM     43  C   UNL A   1      40.854  29.718  29.722  1.00  0.00     0.031 A 
ATOM     44  C   UNL A   1      39.876  30.693  30.229  1.00  0.00     0.074 A 
ATOM     45  C   UNL A   1      42.199  29.884  30.046  1.00  0.00     0.049 A 
ATOM     46  N   UNL A   1      40.076  31.963  30.259  1.00  0.00    -0.248 NA
ATOM     47  C   UNL A   1      38.479  30.352  30.566  1.00  0.00     0.031 C 
ATOM     48  C   UNL A   1      42.874  30.599  31.152  1.00  0.00     0.029 A 
ATOM     49  N   UNL A   1      43.337  29.289  29.501  1.00  0.00    -0.354 N 
ATOM     50  C   UNL A   1      39.126  32.400  31.148  1.00  0.00     0.074 A 
ATOM     51  C   UNL A   1      38.009  31.537  30.947  1.00  0.00     0.031 C 
ATOM     52  C   UNL A   1      44.228  30.609  30.995  1.00  0.00     0.029 A 
ATOM     53  C   UNL A   1      44.552  29.938  29.747  1.00  0.00     0.049 A 
ATOM     54  H   UNL A   1      43.288  28.459  28.974  1.00  0.00     0.167 HD
ATOM     55  C   UNL A   1      39.547  33.098  32.237  1.00  0.00     0.037 A 
ATOM     56  C   UNL A   1      45.446  30.209  28.745  1.00  0.00     0.037 A 
ATOM     57  C   UNL A   1      40.981  33.457  32.112  1.00  0.00     0.049 A 
ATOM     58  C   UNL A   1      45.247  31.720  28.561  1.00  0.00     0.074 A 
ATOM     59  C   UNL A   1      42.106  33.276  32.899  1.00  0.00     0.029 A 
ATOM     60  N   UNL A   1      41.480  33.869  30.868  1.00  0.00    -0.354 N 
ATOM     61  N   UNL A   1      44.333  32.386  29.220  1.00  0.00    -0.248 NA
ATOM     62  C   UNL A   1      46.014  32.602  27.700  1.00  0.00     0.031 C 
ATOM     63  C   UNL A   1      43.263  33.611  32.116  1.00  0.00     0.029 A 
ATOM     64  C   UNL A   1      42.855  34.000  30.848  1.00  0.00     0.049 A 
ATOM     65  H   UNL A   1      40.908  34.046  30.087  1.00  0.00     0.167 HD
ATOM     66  C   UNL A   1      44.387  33.718  28.982  1.00  0.00     0.074 A 
ATOM     67  C   UNL A   1      45.457  33.798  27.992  1.00  0.00     0.031 C 
ATOM     68  C   UNL A   1      43.528  34.560  29.651  1.00  0.00     0.037 A 
BRANCH  55  69
ATOM     69  C   UNL A   1      38.719  33.267  33.508  1.00  0.00     0.064 A 
ATOM     70  C   UNL A   1      37.540  34.032  33.443  1.00  0.00     0.173 A 
ATOM     71  C   UNL A   1      38.997  32.748  34.801  1.00  0.00     0.173 A 
ATOM     72  F   UNL A   1      37.154  34.605  32.295  1.00  0.00    -0.203 F 
ATOM     73  C   UNL A   1      36.705  34.234  34.548  1.00  0.00     0.198 A 
ATOM     74  C   UNL A   1      38.132  32.903  35.891  1.00  0.00     0.198 A 
ATOM     75  F   UNL A   1      40.130  32.110  35.109  1.00  0.00    -0.203 F 
ATOM     76  F   UNL A   1      35.614  35.000  34.419  1.00  0.00    -0.200 F 
ATOM     77  C   UNL A   1      36.987  33.650  35.766  1.00  0.00     0.200 A 
ATOM     78  F   UNL A   1      38.436  32.332  37.067  1.00  0.00    -0.200 F 
ATOM     79  F   UNL A   1      36.167  33.816  36.812  1.00  0.00    -0.200 F 
ENDBRANCH  55  69
BRANCH  56  80
ATOM     80  C   UNL A   1      45.394  29.145  27.599  1.00  0.00     0.064 A 
ATOM     81  C   UNL A   1      45.879  27.407  27.752  1.00  0.00     0.173 A 
ATOM     82  C   UNL A   1      43.981  29.452  26.664  1.00  0.00     0.173 A 
ATOM     83  F   UNL A   1      46.977  27.248  28.557  1.00  0.00    -0.203 F 
ATOM     84  C   UNL A   1      44.560  25.990  26.921  1.00  0.00     0.198 A 
ATOM     85  C   UNL A   1      42.942  28.270  25.980  1.00  0.00     0.198 A 
ATOM     86  F   UNL A   1      43.620  30.737  26.495  1.00  0.00    -0.203 F 
ATOM     87  F   UNL A   1      44.434  24.634  27.011  1.00  0.00    -0.200 F 
ATOM     88  C   UNL A   1      43.146  26.604  26.096  1.00  0.00     0.200 A 
ATOM     89  F   UNL A   1      41.993  28.714  25.145  1.00  0.00    -0.200 F 
ATOM     90  F   UNL A   1      42.228  25.771  25.594  1.00  0.00    -0.200 F 
ENDBRANCH  56  80
BRANCH  68  91
ATOM     91  C   UNL A   1      43.249  36.026  29.339  1.00  0.00     0.064 A 
ATOM     92  C   UNL A   1      43.742  37.115  30.067  1.00  0.00     0.173 A 
ATOM     93  C   UNL A   1      42.479  36.398  28.197  1.00  0.00     0.173 A 
ATOM     94  F   UNL A   1      44.584  36.973  31.088  1.00  0.00    -0.203 F 
ATOM     95  C   UNL A   1      43.428  38.438  29.745  1.00  0.00     0.198 A 
ATOM     96  C   UNL A   1      42.235  37.717  27.834  1.00  0.00     0.198 A 
ATOM     97  F   UNL A   1      41.931  35.509  27.361  1.00  0.00    -0.203 F 
ATOM     98  F   UNL A   1      43.878  39.425  30.532  1.00  0.00    -0.200 F 
ATOM     99  C   UNL A   1      42.684  38.741  28.626  1.00  0.00     0.200 A 
ATOM    100  F   UNL A   1      41.561  37.976  26.704  1.00  0.00    -0.200 F 
ATOM    101  F   UNL A   1      42.419  40.012  28.304  1.00  0.00    -0.200 F 
ENDBRANCH  68  91
ENDBRANCH  42  43
ENDBRANCH  35  37
ENDBRANCH  34  35
ENDBRANCH  33  34
ENDBRANCH  32  33
ENDBRANCH   1  32
TORSDOF 17
ENDMDL
