MODEL 1
REMARK VINA RESULT:     -12.0      0.000      0.000
REMARK SMILES COc1ccc(C(=O)N[C@H](C(=O)OCCOCCOC(=O)c2ccc(-c3c4nc(c(-c5c(F)c(F)c(F)c(F)c5F)c5ccc([nH]5)c(-c5c(F)c(F)c(F)c(F)c5F)c5nc(c(-c6c(F)c(F)c(F)c(F)c6F)c6ccc3[nH]6)C=C5)C=C4)cc2)C2=C(C)N=N[C@H]2C)c(F)c1F
REMARK SMILES IDX 15 1 14 2 13 3 11 4 12 5 10 6 9 7 7 8 8 9 6 11 3 12 4 13
REMARK SMILES IDX 94 14 5 15 92 16 95 17 93 18 2 19 1 20 85 21 86 22 90 23
REMARK SMILES IDX 87 24 88 25 89 26 91 27 16 28 17 29 18 30 19 31 20 32 21 33
REMARK SMILES IDX 22 34 23 35 84 36 24 37 83 38 25 39 26 40 27 41 77 42 28 43
REMARK SMILES IDX 82 44 76 45 78 46 29 47 81 48 75 49 74 50 30 52 62 53 42 54
REMARK SMILES IDX 61 55 43 56 46 57 60 58 79 59 44 60 45 61 59 63 80 64 47 65
REMARK SMILES IDX 31 66 32 67 40 68 33 69 34 70 38 71 41 72 35 73 36 74 39 75
REMARK SMILES IDX 37 76 63 77 64 78 72 79 65 80 66 81 70 82 73 83 67 84 68 85
REMARK SMILES IDX 71 86 69 87 48 88 49 89 57 90 50 91 51 92 55 93 58 94 52 95
REMARK SMILES IDX 53 96 56 97 54 98
REMARK H PARENT 9 10 78 51 46 62
REMARK Flexibility Score: inf
ROOT
ATOM      1  C   UNL A   1      31.382  28.981  23.338  1.00  0.00     0.202 C 
ENDROOT
BRANCH   1   2
ATOM      2  C   UNL A   1      30.634  28.067  22.364  1.00  0.00     0.261 C 
BRANCH   2   3
ATOM      3  O   UNL A   1      30.607  26.704  22.826  1.00  0.00    -0.461 OA
BRANCH   3   4
ATOM      4  C   UNL A   1      31.536  25.871  22.276  1.00  0.00     0.333 C 
ATOM      5  O   UNL A   1      31.911  25.925  21.110  1.00  0.00    -0.249 OA
BRANCH   4   6
ATOM      6  C   UNL A   1      32.015  24.794  23.284  1.00  0.00     0.223 C 
BRANCH   6   7
ATOM      7  N   UNL A   1      33.442  24.577  23.054  1.00  0.00    -0.335 N 
ATOM      8  C   UNL A   1      34.268  23.523  23.310  1.00  0.00     0.255 C 
ATOM      9  O   UNL A   1      35.439  23.595  22.938  1.00  0.00    -0.269 OA
ATOM     10  H   UNL A   1      33.895  25.342  22.632  1.00  0.00     0.165 HD
BRANCH   8  11
ATOM     11  C   UNL A   1      33.803  22.277  23.940  1.00  0.00     0.078 A 
ATOM     12  C   UNL A   1      32.751  19.920  25.000  1.00  0.00     0.157 A 
ATOM     13  C   UNL A   1      32.531  20.224  23.660  1.00  0.00     0.050 A 
ATOM     14  C   UNL A   1      33.510  20.774  25.799  1.00  0.00     0.201 A 
ATOM     15  C   UNL A   1      33.061  21.400  23.130  1.00  0.00     0.021 A 
ATOM     16  C   UNL A   1      34.070  21.925  25.260  1.00  0.00     0.175 A 
ATOM     17  F   UNL A   1      33.703  20.490  27.096  1.00  0.00    -0.200 F 
ATOM     18  F   UNL A   1      34.867  22.674  26.035  1.00  0.00    -0.203 F 
BRANCH  12  19
ATOM     19  O   UNL A   1      32.154  18.809  25.526  1.00  0.00    -0.494 OA
ATOM     20  C   UNL A   1      32.940  17.649  25.251  1.00  0.00     0.278 C 
ENDBRANCH  12  19
ENDBRANCH   8  11
ENDBRANCH   6   7
BRANCH   6  21
ATOM     21  C   UNL A   1      31.832  25.129  24.735  1.00  0.00     0.012 C 
ATOM     22  C   UNL A   1      31.250  24.409  25.704  1.00  0.00     0.064 C 
ATOM     23  C   UNL A   1      32.311  26.371  25.430  1.00  0.00     0.156 C 
ATOM     24  C   UNL A   1      30.638  23.053  25.634  1.00  0.00     0.069 C 
ATOM     25  N   UNL A   1      31.223  25.063  26.909  1.00  0.00    -0.160 NA
ATOM     26  N   UNL A   1      31.768  26.193  26.807  1.00  0.00    -0.181 NA
ATOM     27  C   UNL A   1      33.825  26.530  25.566  1.00  0.00     0.040 C 
ENDBRANCH   6  21
ENDBRANCH   4   6
ENDBRANCH   3   4
ENDBRANCH   2   3
ENDBRANCH   1   2
BRANCH   1  28
ATOM     28  O   UNL A   1      30.645  29.418  24.478  1.00  0.00    -0.374 OA
BRANCH  28  29
ATOM     29  C   UNL A   1      31.229  30.429  25.298  1.00  0.00     0.202 C 
BRANCH  29  30
ATOM     30  C   UNL A   1      32.637  30.148  25.830  1.00  0.00     0.261 C 
BRANCH  30  31
ATOM     31  O   UNL A   1      32.746  30.462  27.229  1.00  0.00    -0.460 OA
BRANCH  31  32
ATOM     32  C   UNL A   1      33.523  31.532  27.500  1.00  0.00     0.338 C 
ATOM     33  O   UNL A   1      33.169  32.701  27.596  1.00  0.00    -0.246 OA
BRANCH  32  34
ATOM     34  C   UNL A   1      34.891  31.112  27.849  1.00  0.00     0.060 A 
ATOM     35  C   UNL A   1      35.084  29.750  28.109  1.00  0.00     0.016 A 
ATOM     36  C   UNL A   1      35.924  32.030  28.052  1.00  0.00     0.016 A 
ATOM     37  C   UNL A   1      36.279  29.312  28.668  1.00  0.00     0.010 A 
ATOM     38  C   UNL A   1      37.125  31.589  28.622  1.00  0.00     0.010 A 
ATOM     39  C   UNL A   1      37.280  30.239  28.987  1.00  0.00    -0.014 A 
BRANCH  39  40
ATOM     40  C   UNL A   1      38.370  29.809  29.896  1.00  0.00     0.031 A 
ATOM     41  C   UNL A   1      39.408  28.853  29.371  1.00  0.00     0.074 A 
ATOM     42  C   UNL A   1      38.497  30.341  31.123  1.00  0.00     0.049 A 
ATOM     43  N   UNL A   1      40.479  28.385  29.960  1.00  0.00    -0.248 NA
ATOM     44  C   UNL A   1      39.220  28.367  27.995  1.00  0.00     0.031 C 
ATOM     45  C   UNL A   1      37.590  31.322  31.713  1.00  0.00     0.029 A 
ATOM     46  N   UNL A   1      39.453  30.139  32.087  1.00  0.00    -0.354 N 
ATOM     47  C   UNL A   1      41.090  27.556  29.027  1.00  0.00     0.074 A 
ATOM     48  C   UNL A   1      40.256  27.555  27.846  1.00  0.00     0.031 C 
ATOM     49  C   UNL A   1      38.039  31.646  32.938  1.00  0.00     0.029 A 
ATOM     50  C   UNL A   1      39.248  30.876  33.226  1.00  0.00     0.049 A 
ATOM     51  H   UNL A   1      40.214  29.525  31.971  1.00  0.00     0.167 HD
ATOM     52  C   UNL A   1      42.252  26.873  29.139  1.00  0.00     0.037 A 
ATOM     53  C   UNL A   1      39.955  30.915  34.374  1.00  0.00     0.037 A 
ATOM     54  C   UNL A   1      43.087  26.883  30.309  1.00  0.00     0.049 A 
ATOM     55  C   UNL A   1      41.198  30.075  34.507  1.00  0.00     0.074 A 
ATOM     56  C   UNL A   1      44.291  26.232  30.515  1.00  0.00     0.029 A 
ATOM     57  N   UNL A   1      42.801  27.578  31.474  1.00  0.00    -0.354 N 
ATOM     58  N   UNL A   1      41.772  29.302  33.618  1.00  0.00    -0.248 NA
ATOM     59  C   UNL A   1      41.889  30.110  35.804  1.00  0.00     0.031 C 
ATOM     60  C   UNL A   1      44.711  26.497  31.821  1.00  0.00     0.029 A 
ATOM     61  C   UNL A   1      43.793  27.348  32.414  1.00  0.00     0.049 A 
ATOM     62  H   UNL A   1      42.012  28.150  31.613  1.00  0.00     0.167 HD
ATOM     63  C   UNL A   1      42.895  28.771  34.238  1.00  0.00     0.074 A 
ATOM     64  C   UNL A   1      42.932  29.322  35.577  1.00  0.00     0.031 C 
ATOM     65  C   UNL A   1      43.810  27.903  33.744  1.00  0.00     0.037 A 
BRANCH  52  66
ATOM     66  C   UNL A   1      42.689  26.044  27.969  1.00  0.00     0.064 A 
ATOM     67  C   UNL A   1      43.560  26.577  27.006  1.00  0.00     0.173 A 
ATOM     68  C   UNL A   1      42.202  24.744  27.768  1.00  0.00     0.173 A 
ATOM     69  F   UNL A   1      44.050  27.817  27.150  1.00  0.00    -0.203 F 
ATOM     70  C   UNL A   1      43.918  25.842  25.879  1.00  0.00     0.198 A 
ATOM     71  C   UNL A   1      42.581  24.002  26.653  1.00  0.00     0.198 A 
ATOM     72  F   UNL A   1      41.378  24.186  28.668  1.00  0.00    -0.203 F 
ATOM     73  F   UNL A   1      44.729  26.380  24.959  1.00  0.00    -0.200 F 
ATOM     74  C   UNL A   1      43.432  24.554  25.706  1.00  0.00     0.200 A 
ATOM     75  F   UNL A   1      42.129  22.751  26.496  1.00  0.00    -0.200 F 
ATOM     76  F   UNL A   1      43.785  23.845  24.625  1.00  0.00    -0.200 F 
ENDBRANCH  52  66
BRANCH  53  77
ATOM     77  C   UNL A   1      39.496  31.785  35.486  1.00  0.00     0.064 A 
ATOM     78  C   UNL A   1      38.556  31.330  36.423  1.00  0.00     0.173 A 
ATOM     79  C   UNL A   1      39.975  33.094  35.625  1.00  0.00     0.173 A 
ATOM     80  F   UNL A   1      38.069  30.084  36.335  1.00  0.00    -0.203 F 
ATOM     81  C   UNL A   1      38.094  32.161  37.442  1.00  0.00     0.198 A 
ATOM     82  C   UNL A   1      39.532  33.917  36.660  1.00  0.00     0.198 A 
ATOM     83  F   UNL A   1      40.895  33.565  34.770  1.00  0.00    -0.203 F 
ATOM     84  F   UNL A   1      37.172  31.711  38.304  1.00  0.00    -0.200 F 
ATOM     85  C   UNL A   1      38.585  33.451  37.562  1.00  0.00     0.200 A 
ATOM     86  F   UNL A   1      40.025  35.155  36.787  1.00  0.00    -0.200 F 
ATOM     87  F   UNL A   1      38.148  34.247  38.548  1.00  0.00    -0.200 F 
ENDBRANCH  53  77
BRANCH  65  88
ATOM     88  C   UNL A   1      44.936  27.486  34.643  1.00  0.00     0.064 A 
ATOM     89  C   UNL A   1      44.811  26.360  35.470  1.00  0.00     0.173 A 
ATOM     90  C   UNL A   1      46.100  28.259  34.755  1.00  0.00     0.173 A 
ATOM     91  F   UNL A   1      43.711  25.594  35.406  1.00  0.00    -0.203 F 
ATOM     92  C   UNL A   1      45.802  26.034  36.391  1.00  0.00     0.198 A 
ATOM     93  C   UNL A   1      47.100  27.917  35.660  1.00  0.00     0.198 A 
ATOM     94  F   UNL A   1      46.271  29.339  33.977  1.00  0.00    -0.203 F 
ATOM     95  F   UNL A   1      45.643  24.976  37.198  1.00  0.00    -0.200 F 
ATOM     96  C   UNL A   1      46.946  26.812  36.485  1.00  0.00     0.200 A 
ATOM     97  F   UNL A   1      48.215  28.657  35.735  1.00  0.00    -0.200 F 
ATOM     98  F   UNL A   1      47.901  26.496  37.370  1.00  0.00    -0.200 F 
ENDBRANCH  65  88
ENDBRANCH  39  40
ENDBRANCH  32  34
ENDBRANCH  31  32
ENDBRANCH  30  31
ENDBRANCH  29  30
ENDBRANCH  28  29
ENDBRANCH   1  28
TORSDOF 18
ENDMDL
MODEL 2
REMARK VINA RESULT:     -12.0      1.692      7.514
REMARK SMILES COc1ccc(C(=O)N[C@H](C(=O)OCCOCCOC(=O)c2ccc(-c3c4nc(c(-c5c(F)c(F)c(F)c(F)c5F)c5ccc([nH]5)c(-c5c(F)c(F)c(F)c(F)c5F)c5nc(c(-c6c(F)c(F)c(F)c(F)c6F)c6ccc3[nH]6)C=C5)C=C4)cc2)C2=C(C)N=N[C@H]2C)c(F)c1F
REMARK SMILES IDX 15 1 14 2 13 3 11 4 12 5 10 6 9 7 7 8 8 9 6 11 3 12 4 13
REMARK SMILES IDX 94 14 5 15 92 16 95 17 93 18 2 19 1 20 85 21 86 22 90 23
REMARK SMILES IDX 87 24 88 25 89 26 91 27 16 28 17 29 18 30 19 31 20 32 21 33
REMARK SMILES IDX 22 34 23 35 84 36 24 37 83 38 25 39 26 40 27 41 77 42 28 43
REMARK SMILES IDX 82 44 76 45 78 46 29 47 81 48 75 49 74 50 30 52 62 53 42 54
REMARK SMILES IDX 61 55 43 56 46 57 60 58 79 59 44 60 45 61 59 63 80 64 47 65
REMARK SMILES IDX 31 66 32 67 40 68 33 69 34 70 38 71 41 72 35 73 36 74 39 75
REMARK SMILES IDX 37 76 63 77 64 78 72 79 65 80 66 81 70 82 73 83 67 84 68 85
REMARK SMILES IDX 71 86 69 87 48 88 49 89 57 90 50 91 51 92 55 93 58 94 52 95
REMARK SMILES IDX 53 96 56 97 54 98
REMARK H PARENT 9 10 78 51 46 62
REMARK Flexibility Score: inf
ROOT
ATOM      1  C   UNL A   1      32.689  29.736  26.517  1.00  0.00     0.202 C 
ENDROOT
BRANCH   1   2
ATOM      2  C   UNL A   1      32.669  28.442  27.334  1.00  0.00     0.261 C 
BRANCH   2   3
ATOM      3  O   UNL A   1      33.014  27.299  26.530  1.00  0.00    -0.461 OA
BRANCH   3   4
ATOM      4  C   UNL A   1      31.978  26.486  26.177  1.00  0.00     0.333 C 
ATOM      5  O   UNL A   1      31.035  26.208  26.909  1.00  0.00    -0.249 OA
BRANCH   4   6
ATOM      6  C   UNL A   1      32.166  25.893  24.756  1.00  0.00     0.223 C 
BRANCH   6   7
ATOM      7  N   UNL A   1      31.660  24.522  24.778  1.00  0.00    -0.335 N 
ATOM      8  C   UNL A   1      32.281  23.310  24.848  1.00  0.00     0.255 C 
ATOM      9  O   UNL A   1      31.583  22.299  24.919  1.00  0.00    -0.269 OA
ATOM     10  H   UNL A   1      30.679  24.462  24.733  1.00  0.00     0.165 HD
BRANCH   8  11
ATOM     11  C   UNL A   1      33.744  23.165  24.920  1.00  0.00     0.078 A 
ATOM     12  C   UNL A   1      36.511  23.003  25.239  1.00  0.00     0.157 A 
ATOM     13  C   UNL A   1      35.696  23.073  26.365  1.00  0.00     0.050 A 
ATOM     14  C   UNL A   1      35.947  22.990  23.964  1.00  0.00     0.201 A 
ATOM     15  C   UNL A   1      34.313  23.149  26.205  1.00  0.00     0.021 A 
ATOM     16  C   UNL A   1      34.568  23.026  23.807  1.00  0.00     0.175 A 
ATOM     17  F   UNL A   1      36.736  22.944  22.879  1.00  0.00    -0.200 F 
ATOM     18  F   UNL A   1      34.060  22.921  22.571  1.00  0.00    -0.203 F 
BRANCH  12  19
ATOM     19  O   UNL A   1      37.867  23.017  25.411  1.00  0.00    -0.494 OA
ATOM     20  C   UNL A   1      38.233  24.014  26.365  1.00  0.00     0.278 C 
ENDBRANCH  12  19
ENDBRANCH   8  11
ENDBRANCH   6   7
BRANCH   6  21
ATOM     21  C   UNL A   1      31.465  26.621  23.647  1.00  0.00     0.012 C 
ATOM     22  C   UNL A   1      31.772  26.675  22.343  1.00  0.00     0.064 C 
ATOM     23  C   UNL A   1      30.213  27.440  23.769  1.00  0.00     0.156 C 
ATOM     24  C   UNL A   1      32.881  26.008  21.606  1.00  0.00     0.069 C 
ATOM     25  N   UNL A   1      30.926  27.486  21.631  1.00  0.00    -0.160 NA
ATOM     26  N   UNL A   1      30.052  27.981  22.390  1.00  0.00    -0.181 NA
ATOM     27  C   UNL A   1      28.933  26.674  24.099  1.00  0.00     0.040 C 
ENDBRANCH   6  21
ENDBRANCH   4   6
ENDBRANCH   3   4
ENDBRANCH   2   3
ENDBRANCH   1   2
BRANCH   1  28
ATOM     28  O   UNL A   1      31.425  30.361  26.303  1.00  0.00    -0.374 OA
BRANCH  28  29
ATOM     29  C   UNL A   1      31.404  31.778  26.135  1.00  0.00     0.202 C 
BRANCH  29  30
ATOM     30  C   UNL A   1      31.771  32.615  27.362  1.00  0.00     0.261 C 
BRANCH  30  31
ATOM     31  O   UNL A   1      33.051  33.253  27.203  1.00  0.00    -0.460 OA
BRANCH  31  32
ATOM     32  C   UNL A   1      33.669  33.558  28.364  1.00  0.00     0.338 C 
ATOM     33  O   UNL A   1      33.219  34.216  29.293  1.00  0.00    -0.246 OA
BRANCH  32  34
ATOM     34  C   UNL A   1      34.952  32.844  28.478  1.00  0.00     0.060 A 
ATOM     35  C   UNL A   1      34.890  31.488  28.820  1.00  0.00     0.016 A 
ATOM     36  C   UNL A   1      36.182  33.502  28.390  1.00  0.00     0.016 A 
ATOM     37  C   UNL A   1      36.049  30.807  29.175  1.00  0.00     0.010 A 
ATOM     38  C   UNL A   1      37.348  32.817  28.754  1.00  0.00     0.010 A 
ATOM     39  C   UNL A   1      37.274  31.486  29.206  1.00  0.00    -0.014 A 
BRANCH  39  40
ATOM     40  C   UNL A   1      38.408  30.854  29.921  1.00  0.00     0.031 A 
ATOM     41  C   UNL A   1      38.622  31.196  31.372  1.00  0.00     0.074 A 
ATOM     42  C   UNL A   1      39.165  29.917  29.328  1.00  0.00     0.049 A 
ATOM     43  N   UNL A   1      39.508  30.727  32.214  1.00  0.00    -0.248 NA
ATOM     44  C   UNL A   1      37.708  32.191  31.956  1.00  0.00     0.031 C 
ATOM     45  C   UNL A   1      39.011  29.459  27.949  1.00  0.00     0.029 A 
ATOM     46  N   UNL A   1      40.205  29.168  29.819  1.00  0.00    -0.354 N 
ATOM     47  C   UNL A   1      39.255  31.366  33.422  1.00  0.00     0.074 A 
ATOM     48  C   UNL A   1      38.158  32.281  33.199  1.00  0.00     0.031 C 
ATOM     49  C   UNL A   1      39.919  28.500  27.706  1.00  0.00     0.029 A 
ATOM     50  C   UNL A   1      40.735  28.295  28.902  1.00  0.00     0.049 A 
ATOM     51  H   UNL A   1      40.540  29.250  30.741  1.00  0.00     0.167 HD
ATOM     52  C   UNL A   1      39.870  31.190  34.614  1.00  0.00     0.037 A 
ATOM     53  C   UNL A   1      41.766  27.435  29.017  1.00  0.00     0.037 A 
ATOM     54  C   UNL A   1      40.954  30.272  34.838  1.00  0.00     0.049 A 
ATOM     55  C   UNL A   1      42.494  27.323  30.331  1.00  0.00     0.074 A 
ATOM     56  C   UNL A   1      41.635  30.014  36.014  1.00  0.00     0.029 A 
ATOM     57  N   UNL A   1      41.515  29.464  33.860  1.00  0.00    -0.354 N 
ATOM     58  N   UNL A   1      42.243  27.924  31.468  1.00  0.00    -0.248 NA
ATOM     59  C   UNL A   1      43.650  26.416  30.376  1.00  0.00     0.031 C 
ATOM     60  C   UNL A   1      42.640  29.082  35.739  1.00  0.00     0.029 A 
ATOM     61  C   UNL A   1      42.556  28.727  34.402  1.00  0.00     0.049 A 
ATOM     62  H   UNL A   1      41.219  29.421  32.923  1.00  0.00     0.167 HD
ATOM     63  C   UNL A   1      43.196  27.461  32.367  1.00  0.00     0.074 A 
ATOM     64  C   UNL A   1      44.023  26.515  31.646  1.00  0.00     0.031 C 
ATOM     65  C   UNL A   1      43.371  27.793  33.668  1.00  0.00     0.037 A 
BRANCH  52  66
ATOM     66  C   UNL A   1      39.397  32.017  35.771  1.00  0.00     0.064 A 
ATOM     67  C   UNL A   1      38.439  31.508  36.662  1.00  0.00     0.173 A 
ATOM     68  C   UNL A   1      39.845  33.331  35.966  1.00  0.00     0.173 A 
ATOM     69  F   UNL A   1      37.975  30.259  36.516  1.00  0.00    -0.203 F 
ATOM     70  C   UNL A   1      37.940  32.291  37.700  1.00  0.00     0.198 A 
ATOM     71  C   UNL A   1      39.362  34.103  37.019  1.00  0.00     0.198 A 
ATOM     72  F   UNL A   1      40.770  33.857  35.149  1.00  0.00    -0.203 F 
ATOM     73  F   UNL A   1      37.007  31.794  38.523  1.00  0.00    -0.200 F 
ATOM     74  C   UNL A   1      38.405  33.586  37.880  1.00  0.00     0.200 A 
ATOM     75  F   UNL A   1      39.826  35.346  37.206  1.00  0.00    -0.200 F 
ATOM     76  F   UNL A   1      37.930  34.334  38.885  1.00  0.00    -0.200 F 
ENDBRANCH  52  66
BRANCH  53  77
ATOM     77  C   UNL A   1      42.167  26.612  27.848  1.00  0.00     0.064 A 
ATOM     78  C   UNL A   1      41.619  25.338  27.635  1.00  0.00     0.173 A 
ATOM     79  C   UNL A   1      43.120  27.074  26.930  1.00  0.00     0.173 A 
ATOM     80  F   UNL A   1      40.702  24.851  28.483  1.00  0.00    -0.203 F 
ATOM     81  C   UNL A   1      42.026  24.549  26.561  1.00  0.00     0.198 A 
ATOM     82  C   UNL A   1      43.508  26.294  25.842  1.00  0.00     0.198 A 
ATOM     83  F   UNL A   1      43.653  28.296  27.077  1.00  0.00    -0.203 F 
ATOM     84  F   UNL A   1      41.510  23.324  26.400  1.00  0.00    -0.200 F 
ATOM     85  C   UNL A   1      42.967  25.029  25.664  1.00  0.00     0.200 A 
ATOM     86  F   UNL A   1      44.400  26.770  24.964  1.00  0.00    -0.200 F 
ATOM     87  F   UNL A   1      43.352  24.274  24.626  1.00  0.00    -0.200 F 
ENDBRANCH  53  77
BRANCH  65  88
ATOM     88  C   UNL A   1      44.496  27.135  34.412  1.00  0.00     0.064 A 
ATOM     89  C   UNL A   1      44.293  25.922  35.087  1.00  0.00     0.173 A 
ATOM     90  C   UNL A   1      45.746  27.757  34.535  1.00  0.00     0.173 A 
ATOM     91  F   UNL A   1      43.110  25.294  35.007  1.00  0.00    -0.203 F 
ATOM     92  C   UNL A   1      45.295  25.365  35.876  1.00  0.00     0.198 A 
ATOM     93  C   UNL A   1      46.755  27.185  35.305  1.00  0.00     0.198 A 
ATOM     94  F   UNL A   1      45.991  28.912  33.899  1.00  0.00    -0.203 F 
ATOM     95  F   UNL A   1      45.067  24.225  36.542  1.00  0.00    -0.200 F 
ATOM     96  C   UNL A   1      46.526  25.996  35.983  1.00  0.00     0.200 A 
ATOM     97  F   UNL A   1      47.950  27.784  35.391  1.00  0.00    -0.200 F 
ATOM     98  F   UNL A   1      47.492  25.457  36.740  1.00  0.00    -0.200 F 
ENDBRANCH  65  88
ENDBRANCH  39  40
ENDBRANCH  32  34
ENDBRANCH  31  32
ENDBRANCH  30  31
ENDBRANCH  29  30
ENDBRANCH  28  29
ENDBRANCH   1  28
TORSDOF 18
ENDMDL
MODEL 3
REMARK VINA RESULT:     -11.7      2.056      7.936
REMARK SMILES COc1ccc(C(=O)N[C@H](C(=O)OCCOCCOC(=O)c2ccc(-c3c4nc(c(-c5c(F)c(F)c(F)c(F)c5F)c5ccc([nH]5)c(-c5c(F)c(F)c(F)c(F)c5F)c5nc(c(-c6c(F)c(F)c(F)c(F)c6F)c6ccc3[nH]6)C=C5)C=C4)cc2)C2=C(C)N=N[C@H]2C)c(F)c1F
REMARK SMILES IDX 15 1 14 2 13 3 11 4 12 5 10 6 9 7 7 8 8 9 6 11 3 12 4 13
REMARK SMILES IDX 94 14 5 15 92 16 95 17 93 18 2 19 1 20 85 21 86 22 90 23
REMARK SMILES IDX 87 24 88 25 89 26 91 27 16 28 17 29 18 30 19 31 20 32 21 33
REMARK SMILES IDX 22 34 23 35 84 36 24 37 83 38 25 39 26 40 27 41 77 42 28 43
REMARK SMILES IDX 82 44 76 45 78 46 29 47 81 48 75 49 74 50 30 52 62 53 42 54
REMARK SMILES IDX 61 55 43 56 46 57 60 58 79 59 44 60 45 61 59 63 80 64 47 65
REMARK SMILES IDX 31 66 32 67 40 68 33 69 34 70 38 71 41 72 35 73 36 74 39 75
REMARK SMILES IDX 37 76 63 77 64 78 72 79 65 80 66 81 70 82 73 83 67 84 68 85
REMARK SMILES IDX 71 86 69 87 48 88 49 89 57 90 50 91 51 92 55 93 58 94 52 95
REMARK SMILES IDX 53 96 56 97 54 98
REMARK H PARENT 9 10 78 51 46 62
REMARK Flexibility Score: inf
ROOT
ATOM      1  C   UNL A   1      32.983  29.715  26.017  1.00  0.00     0.202 C 
ENDROOT
BRANCH   1   2
ATOM      2  C   UNL A   1      33.497  28.524  26.830  1.00  0.00     0.261 C 
BRANCH   2   3
ATOM      3  O   UNL A   1      33.240  27.273  26.164  1.00  0.00    -0.461 OA
BRANCH   3   4
ATOM      4  C   UNL A   1      32.007  26.729  26.376  1.00  0.00     0.333 C 
ATOM      5  O   UNL A   1      31.312  26.949  27.362  1.00  0.00    -0.249 OA
BRANCH   4   6
ATOM      6  C   UNL A   1      31.612  25.739  25.250  1.00  0.00     0.223 C 
BRANCH   6   7
ATOM      7  N   UNL A   1      32.286  26.167  24.027  1.00  0.00    -0.335 N 
ATOM      8  C   UNL A   1      31.958  27.071  23.060  1.00  0.00     0.255 C 
ATOM      9  O   UNL A   1      32.767  27.281  22.157  1.00  0.00    -0.269 OA
ATOM     10  H   UNL A   1      33.144  25.713  23.869  1.00  0.00     0.165 HD
BRANCH   8  11
ATOM     11  C   UNL A   1      30.717  27.863  23.094  1.00  0.00     0.078 A 
ATOM     12  C   UNL A   1      28.481  29.526  23.235  1.00  0.00     0.157 A 
ATOM     13  C   UNL A   1      29.733  30.083  22.990  1.00  0.00     0.050 A 
ATOM     14  C   UNL A   1      28.343  28.147  23.384  1.00  0.00     0.201 A 
ATOM     15  C   UNL A   1      30.849  29.251  22.915  1.00  0.00     0.021 A 
ATOM     16  C   UNL A   1      29.450  27.315  23.270  1.00  0.00     0.175 A 
ATOM     17  F   UNL A   1      27.139  27.613  23.641  1.00  0.00    -0.200 F 
ATOM     18  F   UNL A   1      29.264  25.988  23.331  1.00  0.00    -0.203 F 
BRANCH  12  19
ATOM     19  O   UNL A   1      27.412  30.362  23.391  1.00  0.00    -0.494 OA
ATOM     20  C   UNL A   1      27.634  31.584  22.686  1.00  0.00     0.278 C 
ENDBRANCH  12  19
ENDBRANCH   8  11
ENDBRANCH   6   7
BRANCH   6  21
ATOM     21  C   UNL A   1      31.969  24.301  25.490  1.00  0.00     0.012 C 
ATOM     22  C   UNL A   1      33.179  23.737  25.605  1.00  0.00     0.064 C 
ATOM     23  C   UNL A   1      31.007  23.166  25.691  1.00  0.00     0.156 C 
ATOM     24  C   UNL A   1      34.525  24.372  25.556  1.00  0.00     0.069 C 
ATOM     25  N   UNL A   1      33.117  22.376  25.773  1.00  0.00    -0.160 NA
ATOM     26  N   UNL A   1      31.919  21.991  25.786  1.00  0.00    -0.181 NA
ATOM     27  C   UNL A   1      30.185  23.195  26.979  1.00  0.00     0.040 C 
ENDBRANCH   6  21
ENDBRANCH   4   6
ENDBRANCH   3   4
ENDBRANCH   2   3
ENDBRANCH   1   2
BRANCH   1  28
ATOM     28  O   UNL A   1      31.666  30.164  26.328  1.00  0.00    -0.374 OA
BRANCH  28  29
ATOM     29  C   UNL A   1      31.367  31.543  26.117  1.00  0.00     0.202 C 
BRANCH  29  30
ATOM     30  C   UNL A   1      31.669  32.492  27.281  1.00  0.00     0.261 C 
BRANCH  30  31
ATOM     31  O   UNL A   1      32.911  33.191  27.084  1.00  0.00    -0.460 OA
BRANCH  31  32
ATOM     32  C   UNL A   1      33.537  33.543  28.227  1.00  0.00     0.338 C 
ATOM     33  O   UNL A   1      33.085  34.219  29.143  1.00  0.00    -0.246 OA
BRANCH  32  34
ATOM     34  C   UNL A   1      34.838  32.862  28.344  1.00  0.00     0.060 A 
ATOM     35  C   UNL A   1      34.807  31.496  28.650  1.00  0.00     0.016 A 
ATOM     36  C   UNL A   1      36.050  33.555  28.294  1.00  0.00     0.016 A 
ATOM     37  C   UNL A   1      35.978  30.838  29.007  1.00  0.00     0.010 A 
ATOM     38  C   UNL A   1      37.228  32.892  28.660  1.00  0.00     0.010 A 
ATOM     39  C   UNL A   1      37.184  31.549  29.076  1.00  0.00    -0.014 A 
BRANCH  39  40
ATOM     40  C   UNL A   1      38.323  30.930  29.795  1.00  0.00     0.031 A 
ATOM     41  C   UNL A   1      38.526  31.267  31.248  1.00  0.00     0.074 A 
ATOM     42  C   UNL A   1      39.095  30.005  29.201  1.00  0.00     0.049 A 
ATOM     43  N   UNL A   1      39.414  30.807  32.092  1.00  0.00    -0.248 NA
ATOM     44  C   UNL A   1      37.595  32.248  31.832  1.00  0.00     0.031 C 
ATOM     45  C   UNL A   1      38.954  29.551  27.819  1.00  0.00     0.029 A 
ATOM     46  N   UNL A   1      40.144  29.269  29.694  1.00  0.00    -0.354 N 
ATOM     47  C   UNL A   1      39.147  31.437  33.301  1.00  0.00     0.074 A 
ATOM     48  C   UNL A   1      38.038  32.338  33.077  1.00  0.00     0.031 C 
ATOM     49  C   UNL A   1      39.876  28.606  27.576  1.00  0.00     0.029 A 
ATOM     50  C   UNL A   1      40.689  28.407  28.776  1.00  0.00     0.049 A 
ATOM     51  H   UNL A   1      40.473  29.351  30.618  1.00  0.00     0.167 HD
ATOM     52  C   UNL A   1      39.759  31.265  34.495  1.00  0.00     0.037 A 
ATOM     53  C   UNL A   1      41.732  27.560  28.892  1.00  0.00     0.037 A 
ATOM     54  C   UNL A   1      40.853  30.361  34.721  1.00  0.00     0.049 A 
ATOM     55  C   UNL A   1      42.455  27.452  30.208  1.00  0.00     0.074 A 
ATOM     56  C   UNL A   1      41.533  30.107  35.899  1.00  0.00     0.029 A 
ATOM     57  N   UNL A   1      41.430  29.565  33.742  1.00  0.00    -0.354 N 
ATOM     58  N   UNL A   1      42.190  28.045  31.347  1.00  0.00    -0.248 NA
ATOM     59  C   UNL A   1      43.623  26.561  30.255  1.00  0.00     0.031 C 
ATOM     60  C   UNL A   1      42.551  29.190  35.624  1.00  0.00     0.029 A 
ATOM     61  C   UNL A   1      42.478  28.839  34.286  1.00  0.00     0.049 A 
ATOM     62  H   UNL A   1      41.139  29.522  32.804  1.00  0.00     0.167 HD
ATOM     63  C   UNL A   1      43.145  27.592  32.248  1.00  0.00     0.074 A 
ATOM     64  C   UNL A   1      43.988  26.660  31.527  1.00  0.00     0.031 C 
ATOM     65  C   UNL A   1      43.310  27.920  33.552  1.00  0.00     0.037 A 
BRANCH  52  66
ATOM     66  C   UNL A   1      39.268  32.080  35.654  1.00  0.00     0.064 A 
ATOM     67  C   UNL A   1      39.775  33.368  35.882  1.00  0.00     0.173 A 
ATOM     68  C   UNL A   1      38.340  31.566  36.571  1.00  0.00     0.173 A 
ATOM     69  F   UNL A   1      40.668  33.903  35.036  1.00  0.00    -0.203 F 
ATOM     70  C   UNL A   1      39.379  34.107  36.993  1.00  0.00     0.198 A 
ATOM     71  C   UNL A   1      37.928  32.317  37.669  1.00  0.00     0.198 A 
ATOM     72  F   UNL A   1      37.816  30.344  36.389  1.00  0.00    -0.203 F 
ATOM     73  F   UNL A   1      39.896  35.325  37.205  1.00  0.00    -0.200 F 
ATOM     74  C   UNL A   1      38.453  33.583  37.883  1.00  0.00     0.200 A 
ATOM     75  F   UNL A   1      37.018  31.819  38.516  1.00  0.00    -0.200 F 
ATOM     76  F   UNL A   1      38.066  34.300  38.947  1.00  0.00    -0.200 F 
ENDBRANCH  52  66
BRANCH  53  77
ATOM     77  C   UNL A   1      42.149  26.748  27.721  1.00  0.00     0.064 A 
ATOM     78  C   UNL A   1      41.591  25.484  27.478  1.00  0.00     0.173 A 
ATOM     79  C   UNL A   1      43.128  27.211  26.831  1.00  0.00     0.173 A 
ATOM     80  F   UNL A   1      40.649  24.997  28.299  1.00  0.00    -0.203 F 
ATOM     81  C   UNL A   1      42.013  24.704  26.404  1.00  0.00     0.198 A 
ATOM     82  C   UNL A   1      43.532  26.440  25.741  1.00  0.00     0.198 A 
ATOM     83  F   UNL A   1      43.672  28.424  27.007  1.00  0.00    -0.203 F 
ATOM     84  F   UNL A   1      41.486  23.487  26.214  1.00  0.00    -0.200 F 
ATOM     85  C   UNL A   1      42.980  25.185  25.535  1.00  0.00     0.200 A 
ATOM     86  F   UNL A   1      44.449  26.917  24.891  1.00  0.00    -0.200 F 
ATOM     87  F   UNL A   1      43.379  24.438  24.495  1.00  0.00    -0.200 F 
ENDBRANCH  53  77
BRANCH  65  88
ATOM     88  C   UNL A   1      44.440  27.274  34.298  1.00  0.00     0.064 A 
ATOM     89  C   UNL A   1      44.257  26.044  34.946  1.00  0.00     0.173 A 
ATOM     90  C   UNL A   1      45.673  27.923  34.451  1.00  0.00     0.173 A 
ATOM     91  F   UNL A   1      43.091  25.389  34.838  1.00  0.00    -0.203 F 
ATOM     92  C   UNL A   1      45.262  25.495  35.737  1.00  0.00     0.198 A 
ATOM     93  C   UNL A   1      46.685  27.360  35.223  1.00  0.00     0.198 A 
ATOM     94  F   UNL A   1      45.898  29.096  33.841  1.00  0.00    -0.203 F 
ATOM     95  F   UNL A   1      45.052  24.337  36.379  1.00  0.00    -0.200 F 
ATOM     96  C   UNL A   1      46.475  26.153  35.874  1.00  0.00     0.200 A 
ATOM     97  F   UNL A   1      47.864  27.985  35.337  1.00  0.00    -0.200 F 
ATOM     98  F   UNL A   1      47.444  25.622  36.634  1.00  0.00    -0.200 F 
ENDBRANCH  65  88
ENDBRANCH  39  40
ENDBRANCH  32  34
ENDBRANCH  31  32
ENDBRANCH  30  31
ENDBRANCH  29  30
ENDBRANCH  28  29
ENDBRANCH   1  28
TORSDOF 18
ENDMDL
