MODEL 1
REMARK VINA RESULT:     -11.6      0.000      0.000
REMARK SMILES COc1cc2cc(C(=O)OCCOCCOC(=O)c3ccc(-c4c5nc(c(-c6c(F)c(F)c(F)c(F)c6F)c6ccc([nH]6)c(-c6c(F)c(F)c(F)c(F)c6F)c6nc(c(-c7c(F)c(F)c(F)c(F)c7F)c7ccc4[nH]7)C=C6)C=C5)cc3)n(Cc3ccccc3)c2c(OC)c1OC
REMARK SMILES IDX 13 1 12 2 11 3 10 4 8 5 9 6 7 7 3 8 4 9 94 10 5 11 91 12
REMARK SMILES IDX 6 13 90 14 82 15 2 16 1 17 95 18 96 19 92 20 93 21 83 22
REMARK SMILES IDX 84 23 85 24 89 25 86 26 88 27 87 28 14 29 15 30 16 31 17 32
REMARK SMILES IDX 18 33 19 34 20 35 81 36 21 37 80 38 22 39 23 40 24 41 74 42
REMARK SMILES IDX 25 43 79 44 73 45 75 46 26 47 78 48 72 49 71 50 27 52 59 53
REMARK SMILES IDX 39 54 58 55 40 56 43 57 57 58 76 59 41 60 42 61 56 63 77 64
REMARK SMILES IDX 44 65 28 66 29 67 37 68 30 69 31 70 35 71 38 72 32 73 33 74
REMARK SMILES IDX 36 75 34 76 60 77 61 78 69 79 62 80 63 81 67 82 70 83 64 84
REMARK SMILES IDX 65 85 68 86 66 87 45 88 46 89 54 90 47 91 48 92 52 93 55 94
REMARK SMILES IDX 49 95 50 96 53 97 51 98
REMARK H PARENT 75 51 43 62
REMARK Flexibility Score: inf
ROOT
ATOM      1  O   UNL A   1      41.258  20.716  27.192  1.00  0.00    -0.374 OA
ENDROOT
BRANCH   1   2
ATOM      2  C   UNL A   1      40.031  20.457  26.517  1.00  0.00     0.202 C 
BRANCH   2   3
ATOM      3  C   UNL A   1      39.338  21.595  25.753  1.00  0.00     0.261 C 
BRANCH   3   4
ATOM      4  O   UNL A   1      37.977  21.819  26.145  1.00  0.00    -0.459 OA
BRANCH   4   5
ATOM      5  C   UNL A   1      37.094  21.313  25.242  1.00  0.00     0.355 C 
ATOM      6  O   UNL A   1      37.214  20.223  24.697  1.00  0.00    -0.244 OA
BRANCH   5   7
ATOM      7  C   UNL A   1      35.908  22.129  25.092  1.00  0.00     0.129 A 
ATOM      8  C   UNL A   1      33.380  25.948  25.347  1.00  0.00     0.165 A 
ATOM      9  C   UNL A   1      34.504  25.449  24.699  1.00  0.00     0.061 A 
ATOM     10  C   UNL A   1      32.491  25.103  26.029  1.00  0.00     0.205 A 
ATOM     11  C   UNL A   1      34.825  24.096  24.849  1.00  0.00     0.008 A 
ATOM     12  C   UNL A   1      32.764  23.704  26.129  1.00  0.00     0.189 A 
ATOM     13  C   UNL A   1      35.979  23.377  24.502  1.00  0.00     0.044 A 
ATOM     14  C   UNL A   1      33.971  23.230  25.538  1.00  0.00     0.096 A 
ATOM     15  N   UNL A   1      34.586  21.963  25.499  1.00  0.00    -0.327 N 
BRANCH   8  16
ATOM     16  O   UNL A   1      33.212  27.311  25.277  1.00  0.00    -0.493 OA
ATOM     17  C   UNL A   1      33.943  27.950  26.328  1.00  0.00     0.278 C 
ENDBRANCH   8  16
BRANCH  10  18
ATOM     18  O   UNL A   1      31.390  25.579  26.701  1.00  0.00    -0.490 OA
ATOM     19  C   UNL A   1      30.238  25.943  25.951  1.00  0.00     0.278 C 
ENDBRANCH  10  18
BRANCH  12  20
ATOM     20  O   UNL A   1      32.005  22.764  26.769  1.00  0.00    -0.491 OA
ATOM     21  C   UNL A   1      30.746  22.384  26.238  1.00  0.00     0.278 C 
ENDBRANCH  12  20
BRANCH  15  22
ATOM     22  C   UNL A   1      33.984  20.716  25.989  1.00  0.00     0.158 C 
BRANCH  22  23
ATOM     23  C   UNL A   1      33.533  19.781  24.880  1.00  0.00    -0.028 A 
ATOM     24  C   UNL A   1      32.567  20.181  23.953  1.00  0.00     0.005 A 
ATOM     25  C   UNL A   1      34.124  18.522  24.692  1.00  0.00     0.005 A 
ATOM     26  C   UNL A   1      32.193  19.366  22.880  1.00  0.00     0.000 A 
ATOM     27  C   UNL A   1      33.757  17.705  23.612  1.00  0.00     0.000 A 
ATOM     28  C   UNL A   1      32.794  18.130  22.702  1.00  0.00     0.000 A 
ENDBRANCH  22  23
ENDBRANCH  15  22
ENDBRANCH   5   7
ENDBRANCH   4   5
ENDBRANCH   3   4
ENDBRANCH   2   3
ENDBRANCH   1   2
BRANCH   1  29
ATOM     29  C   UNL A   1      42.273  19.705  27.180  1.00  0.00     0.202 C 
BRANCH  29  30
ATOM     30  C   UNL A   1      42.784  19.210  25.815  1.00  0.00     0.261 C 
BRANCH  30  31
ATOM     31  O   UNL A   1      43.058  20.333  24.968  1.00  0.00    -0.460 OA
BRANCH  31  32
ATOM     32  C   UNL A   1      44.358  20.714  24.855  1.00  0.00     0.338 C 
ATOM     33  O   UNL A   1      45.233  20.175  24.222  1.00  0.00    -0.246 OA
BRANCH  32  34
ATOM     34  C   UNL A   1      44.367  22.121  25.321  1.00  0.00     0.060 A 
ATOM     35  C   UNL A   1      45.204  22.538  26.361  1.00  0.00     0.016 A 
ATOM     36  C   UNL A   1      43.266  22.893  24.925  1.00  0.00     0.016 A 
ATOM     37  C   UNL A   1      44.870  23.688  27.070  1.00  0.00     0.010 A 
ATOM     38  C   UNL A   1      42.926  24.029  25.649  1.00  0.00     0.010 A 
ATOM     39  C   UNL A   1      43.697  24.400  26.752  1.00  0.00    -0.014 A 
BRANCH  39  40
ATOM     40  C   UNL A   1      43.425  25.657  27.462  1.00  0.00     0.031 A 
ATOM     41  C   UNL A   1      44.396  26.729  27.100  1.00  0.00     0.074 A 
ATOM     42  C   UNL A   1      42.340  25.919  28.227  1.00  0.00     0.049 A 
ATOM     43  N   UNL A   1      45.198  27.375  27.881  1.00  0.00    -0.248 NA
ATOM     44  C   UNL A   1      44.598  27.012  25.668  1.00  0.00     0.031 C 
ATOM     45  C   UNL A   1      41.172  25.069  28.463  1.00  0.00     0.029 A 
ATOM     46  N   UNL A   1      42.004  27.069  28.895  1.00  0.00    -0.354 N 
ATOM     47  C   UNL A   1      45.884  28.274  27.064  1.00  0.00     0.074 A 
ATOM     48  C   UNL A   1      45.594  27.896  25.708  1.00  0.00     0.031 C 
ATOM     49  C   UNL A   1      40.176  25.805  29.010  1.00  0.00     0.029 A 
ATOM     50  C   UNL A   1      40.665  27.147  29.281  1.00  0.00     0.049 A 
ATOM     51  H   UNL A   1      42.655  27.781  29.087  1.00  0.00     0.167 HD
ATOM     52  C   UNL A   1      46.437  29.405  27.579  1.00  0.00     0.037 A 
ATOM     53  C   UNL A   1      40.000  28.243  29.739  1.00  0.00     0.037 A 
ATOM     54  C   UNL A   1      46.641  29.279  28.999  1.00  0.00     0.049 A 
ATOM     55  C   UNL A   1      41.017  29.207  30.221  1.00  0.00     0.074 A 
ATOM     56  C   UNL A   1      47.380  28.443  29.811  1.00  0.00     0.029 A 
ATOM     57  N   UNL A   1      45.750  29.910  29.828  1.00  0.00    -0.354 N 
ATOM     58  N   UNL A   1      41.758  29.019  31.275  1.00  0.00    -0.248 NA
ATOM     59  C   UNL A   1      41.504  30.193  29.270  1.00  0.00     0.031 C 
ATOM     60  C   UNL A   1      46.580  28.261  30.978  1.00  0.00     0.029 A 
ATOM     61  C   UNL A   1      45.434  29.041  30.834  1.00  0.00     0.049 A 
ATOM     62  H   UNL A   1      45.400  30.824  29.718  1.00  0.00     0.167 HD
ATOM     63  C   UNL A   1      42.999  29.509  30.908  1.00  0.00     0.074 A 
ATOM     64  C   UNL A   1      42.765  30.292  29.698  1.00  0.00     0.031 C 
ATOM     65  C   UNL A   1      44.136  28.994  31.456  1.00  0.00     0.037 A 
BRANCH  52  66
ATOM     66  C   UNL A   1      46.379  30.759  26.898  1.00  0.00     0.064 A 
ATOM     67  C   UNL A   1      47.546  31.551  26.877  1.00  0.00     0.173 A 
ATOM     68  C   UNL A   1      45.183  31.441  26.586  1.00  0.00     0.173 A 
ATOM     69  F   UNL A   1      48.745  31.013  27.155  1.00  0.00    -0.203 F 
ATOM     70  C   UNL A   1      47.500  32.934  26.688  1.00  0.00     0.198 A 
ATOM     71  C   UNL A   1      45.147  32.814  26.346  1.00  0.00     0.198 A 
ATOM     72  F   UNL A   1      43.986  30.846  26.608  1.00  0.00    -0.203 F 
ATOM     73  F   UNL A   1      48.614  33.662  26.836  1.00  0.00    -0.200 F 
ATOM     74  C   UNL A   1      46.297  33.566  26.438  1.00  0.00     0.200 A 
ATOM     75  F   UNL A   1      43.969  33.410  26.118  1.00  0.00    -0.200 F 
ATOM     76  F   UNL A   1      46.237  34.900  26.335  1.00  0.00    -0.200 F 
ENDBRANCH  52  66
BRANCH  53  77
ATOM     77  C   UNL A   1      38.594  28.682  29.501  1.00  0.00     0.064 A 
ATOM     78  C   UNL A   1      37.743  29.012  30.576  1.00  0.00     0.173 A 
ATOM     79  C   UNL A   1      38.164  29.095  28.227  1.00  0.00     0.173 A 
ATOM     80  F   UNL A   1      38.088  28.697  31.833  1.00  0.00    -0.203 F 
ATOM     81  C   UNL A   1      36.565  29.747  30.391  1.00  0.00     0.198 A 
ATOM     82  C   UNL A   1      36.985  29.825  28.042  1.00  0.00     0.198 A 
ATOM     83  F   UNL A   1      38.928  28.893  27.146  1.00  0.00    -0.203 F 
ATOM     84  F   UNL A   1      35.825  30.108  31.449  1.00  0.00    -0.200 F 
ATOM     85  C   UNL A   1      36.195  30.167  29.125  1.00  0.00     0.200 A 
ATOM     86  F   UNL A   1      36.657  30.256  26.817  1.00  0.00    -0.200 F 
ATOM     87  F   UNL A   1      35.109  30.933  28.953  1.00  0.00    -0.200 F 
ENDBRANCH  53  77
BRANCH  65  88
ATOM     88  C   UNL A   1      44.009  28.111  32.662  1.00  0.00     0.064 A 
ATOM     89  C   UNL A   1      43.875  26.714  32.606  1.00  0.00     0.173 A 
ATOM     90  C   UNL A   1      44.226  28.694  33.918  1.00  0.00     0.173 A 
ATOM     91  F   UNL A   1      43.749  26.076  31.436  1.00  0.00    -0.203 F 
ATOM     92  C   UNL A   1      43.945  25.940  33.765  1.00  0.00     0.198 A 
ATOM     93  C   UNL A   1      44.332  27.917  35.065  1.00  0.00     0.198 A 
ATOM     94  F   UNL A   1      44.405  30.021  34.019  1.00  0.00    -0.203 F 
ATOM     95  F   UNL A   1      43.826  24.606  33.689  1.00  0.00    -0.200 F 
ATOM     96  C   UNL A   1      44.189  26.542  34.989  1.00  0.00     0.200 A 
ATOM     97  F   UNL A   1      44.619  28.499  36.238  1.00  0.00    -0.200 F 
ATOM     98  F   UNL A   1      44.321  25.792  36.093  1.00  0.00    -0.200 F 
ENDBRANCH  65  88
ENDBRANCH  39  40
ENDBRANCH  32  34
ENDBRANCH  31  32
ENDBRANCH  30  31
ENDBRANCH  29  30
ENDBRANCH   1  29
TORSDOF 19
ENDMDL
MODEL 2
REMARK VINA RESULT:     -10.8      2.865      8.669
REMARK SMILES COc1cc2cc(C(=O)OCCOCCOC(=O)c3ccc(-c4c5nc(c(-c6c(F)c(F)c(F)c(F)c6F)c6ccc([nH]6)c(-c6c(F)c(F)c(F)c(F)c6F)c6nc(c(-c7c(F)c(F)c(F)c(F)c7F)c7ccc4[nH]7)C=C6)C=C5)cc3)n(Cc3ccccc3)c2c(OC)c1OC
REMARK SMILES IDX 13 1 12 2 11 3 10 4 8 5 9 6 7 7 3 8 4 9 94 10 5 11 91 12
REMARK SMILES IDX 6 13 90 14 82 15 2 16 1 17 95 18 96 19 92 20 93 21 83 22
REMARK SMILES IDX 84 23 85 24 89 25 86 26 88 27 87 28 14 29 15 30 16 31 17 32
REMARK SMILES IDX 18 33 19 34 20 35 81 36 21 37 80 38 22 39 23 40 24 41 74 42
REMARK SMILES IDX 25 43 79 44 73 45 75 46 26 47 78 48 72 49 71 50 27 52 59 53
REMARK SMILES IDX 39 54 58 55 40 56 43 57 57 58 76 59 41 60 42 61 56 63 77 64
REMARK SMILES IDX 44 65 28 66 29 67 37 68 30 69 31 70 35 71 38 72 32 73 33 74
REMARK SMILES IDX 36 75 34 76 60 77 61 78 69 79 62 80 63 81 67 82 70 83 64 84
REMARK SMILES IDX 65 85 68 86 66 87 45 88 46 89 54 90 47 91 48 92 52 93 55 94
REMARK SMILES IDX 49 95 50 96 53 97 51 98
REMARK H PARENT 75 51 43 62
REMARK Flexibility Score: inf
ROOT
ATOM      1  O   UNL A   1      32.081  29.627  27.322  1.00  0.00    -0.374 OA
ENDROOT
BRANCH   1   2
ATOM      2  C   UNL A   1      31.870  28.243  27.582  1.00  0.00     0.202 C 
BRANCH   2   3
ATOM      3  C   UNL A   1      30.977  27.428  26.635  1.00  0.00     0.261 C 
BRANCH   3   4
ATOM      4  O   UNL A   1      31.022  26.013  26.861  1.00  0.00    -0.459 OA
BRANCH   4   5
ATOM      5  C   UNL A   1      30.617  25.306  25.772  1.00  0.00     0.355 C 
ATOM      6  O   UNL A   1      29.586  25.530  25.149  1.00  0.00    -0.244 OA
BRANCH   5   7
ATOM      7  C   UNL A   1      31.601  24.346  25.322  1.00  0.00     0.129 A 
ATOM      8  C   UNL A   1      33.678  20.263  25.077  1.00  0.00     0.165 A 
ATOM      9  C   UNL A   1      32.461  20.865  24.780  1.00  0.00     0.061 A 
ATOM     10  C   UNL A   1      34.821  21.024  25.371  1.00  0.00     0.205 A 
ATOM     11  C   UNL A   1      32.344  22.252  24.911  1.00  0.00     0.008 A 
ATOM     12  C   UNL A   1      34.736  22.449  25.436  1.00  0.00     0.189 A 
ATOM     13  C   UNL A   1      31.219  23.090  24.890  1.00  0.00     0.044 A 
ATOM     14  C   UNL A   1      33.458  23.039  25.221  1.00  0.00     0.096 A 
ATOM     15  N   UNL A   1      32.994  24.368  25.274  1.00  0.00    -0.327 N 
BRANCH   8  16
ATOM     16  O   UNL A   1      33.676  18.888  25.071  1.00  0.00    -0.493 OA
ATOM     17  C   UNL A   1      33.269  18.403  23.787  1.00  0.00     0.278 C 
ENDBRANCH   8  16
BRANCH  10  18
ATOM     18  O   UNL A   1      36.027  20.448  25.696  1.00  0.00    -0.490 OA
ATOM     19  C   UNL A   1      36.933  20.126  24.649  1.00  0.00     0.278 C 
ENDBRANCH  10  18
BRANCH  12  20
ATOM     20  O   UNL A   1      35.753  23.317  25.723  1.00  0.00    -0.491 OA
ATOM     21  C   UNL A   1      36.674  23.694  24.713  1.00  0.00     0.278 C 
ENDBRANCH  12  20
BRANCH  15  22
ATOM     22  C   UNL A   1      33.844  25.553  25.443  1.00  0.00     0.158 C 
BRANCH  22  23
ATOM     23  C   UNL A   1      33.850  26.477  24.238  1.00  0.00    -0.028 A 
ATOM     24  C   UNL A   1      33.624  25.977  22.951  1.00  0.00     0.005 A 
ATOM     25  C   UNL A   1      33.994  27.866  24.373  1.00  0.00     0.005 A 
ATOM     26  C   UNL A   1      33.549  26.819  21.837  1.00  0.00     0.000 A 
ATOM     27  C   UNL A   1      33.911  28.714  23.258  1.00  0.00     0.000 A 
ATOM     28  C   UNL A   1      33.682  28.190  21.990  1.00  0.00     0.000 A 
ENDBRANCH  22  23
ENDBRANCH  15  22
ENDBRANCH   5   7
ENDBRANCH   4   5
ENDBRANCH   3   4
ENDBRANCH   2   3
ENDBRANCH   1   2
BRANCH   1  29
ATOM     29  C   UNL A   1      33.388  30.056  26.919  1.00  0.00     0.202 C 
BRANCH  29  30
ATOM     30  C   UNL A   1      34.039  31.216  27.694  1.00  0.00     0.261 C 
BRANCH  30  31
ATOM     31  O   UNL A   1      35.203  30.741  28.382  1.00  0.00    -0.460 OA
BRANCH  31  32
ATOM     32  C   UNL A   1      36.319  31.513  28.307  1.00  0.00     0.338 C 
ATOM     33  O   UNL A   1      36.387  32.690  28.047  1.00  0.00    -0.246 OA
BRANCH  32  34
ATOM     34  C   UNL A   1      37.358  30.720  29.005  1.00  0.00     0.060 A 
ATOM     35  C   UNL A   1      38.549  31.308  29.444  1.00  0.00     0.016 A 
ATOM     36  C   UNL A   1      37.244  29.329  28.875  1.00  0.00     0.016 A 
ATOM     37  C   UNL A   1      39.660  30.495  29.654  1.00  0.00     0.010 A 
ATOM     38  C   UNL A   1      38.361  28.525  29.066  1.00  0.00     0.010 A 
ATOM     39  C   UNL A   1      39.582  29.111  29.406  1.00  0.00    -0.014 A 
BRANCH  39  40
ATOM     40  C   UNL A   1      40.746  28.274  29.725  1.00  0.00     0.031 A 
ATOM     41  C   UNL A   1      41.039  28.251  31.187  1.00  0.00     0.074 A 
ATOM     42  C   UNL A   1      41.403  27.464  28.863  1.00  0.00     0.049 A 
ATOM     43  N   UNL A   1      42.123  28.616  31.789  1.00  0.00    -0.248 NA
ATOM     44  C   UNL A   1      39.932  27.914  32.100  1.00  0.00     0.031 C 
ATOM     45  C   UNL A   1      41.075  27.174  27.466  1.00  0.00     0.029 A 
ATOM     46  N   UNL A   1      42.473  26.637  29.090  1.00  0.00    -0.354 N 
ATOM     47  C   UNL A   1      41.900  28.389  33.147  1.00  0.00     0.074 A 
ATOM     48  C   UNL A   1      40.496  28.114  33.290  1.00  0.00     0.031 C 
ATOM     49  C   UNL A   1      41.767  26.086  27.052  1.00  0.00     0.029 A 
ATOM     50  C   UNL A   1      42.680  25.670  28.105  1.00  0.00     0.049 A 
ATOM     51  H   UNL A   1      43.049  26.720  29.883  1.00  0.00     0.167 HD
ATOM     52  C   UNL A   1      42.939  28.206  34.005  1.00  0.00     0.037 A 
ATOM     53  C   UNL A   1      43.500  24.585  28.172  1.00  0.00     0.037 A 
ATOM     54  C   UNL A   1      44.159  28.746  33.461  1.00  0.00     0.049 A 
ATOM     55  C   UNL A   1      44.492  24.847  29.241  1.00  0.00     0.074 A 
ATOM     56  C   UNL A   1      44.586  29.999  33.072  1.00  0.00     0.029 A 
ATOM     57  N   UNL A   1      45.064  27.864  32.931  1.00  0.00    -0.354 N 
ATOM     58  N   UNL A   1      45.428  25.748  29.161  1.00  0.00    -0.248 NA
ATOM     59  C   UNL A   1      44.166  24.388  30.580  1.00  0.00     0.031 C 
ATOM     60  C   UNL A   1      45.430  29.769  31.945  1.00  0.00     0.029 A 
ATOM     61  C   UNL A   1      45.514  28.390  31.753  1.00  0.00     0.049 A 
ATOM     62  H   UNL A   1      45.340  27.006  33.327  1.00  0.00     0.167 HD
ATOM     63  C   UNL A   1      45.485  26.291  30.432  1.00  0.00     0.074 A 
ATOM     64  C   UNL A   1      44.747  25.362  31.283  1.00  0.00     0.031 C 
ATOM     65  C   UNL A   1      45.876  27.584  30.617  1.00  0.00     0.037 A 
BRANCH  52  66
ATOM     66  C   UNL A   1      42.950  27.166  35.109  1.00  0.00     0.064 A 
ATOM     67  C   UNL A   1      43.324  27.570  36.408  1.00  0.00     0.173 A 
ATOM     68  C   UNL A   1      42.951  25.772  34.888  1.00  0.00     0.173 A 
ATOM     69  F   UNL A   1      43.359  28.871  36.739  1.00  0.00    -0.203 F 
ATOM     70  C   UNL A   1      43.787  26.660  37.362  1.00  0.00     0.198 A 
ATOM     71  C   UNL A   1      43.363  24.863  35.861  1.00  0.00     0.198 A 
ATOM     72  F   UNL A   1      42.667  25.230  33.700  1.00  0.00    -0.203 F 
ATOM     73  F   UNL A   1      44.281  27.109  38.523  1.00  0.00    -0.200 F 
ATOM     74  C   UNL A   1      43.820  25.308  37.081  1.00  0.00     0.200 A 
ATOM     75  F   UNL A   1      43.400  23.556  35.564  1.00  0.00    -0.200 F 
ATOM     76  F   UNL A   1      44.335  24.441  37.963  1.00  0.00    -0.200 F 
ENDBRANCH  52  66
BRANCH  53  77
ATOM     77  C   UNL A   1      43.312  23.206  27.635  1.00  0.00     0.064 A 
ATOM     78  C   UNL A   1      42.237  22.399  28.060  1.00  0.00     0.173 A 
ATOM     79  C   UNL A   1      43.979  22.778  26.472  1.00  0.00     0.173 A 
ATOM     80  F   UNL A   1      41.513  22.748  29.135  1.00  0.00    -0.203 F 
ATOM     81  C   UNL A   1      41.828  21.267  27.343  1.00  0.00     0.198 A 
ATOM     82  C   UNL A   1      43.574  21.645  25.759  1.00  0.00     0.198 A 
ATOM     83  F   UNL A   1      44.971  23.506  25.943  1.00  0.00    -0.203 F 
ATOM     84  F   UNL A   1      40.752  20.573  27.738  1.00  0.00    -0.200 F 
ATOM     85  C   UNL A   1      42.489  20.900  26.183  1.00  0.00     0.200 A 
ATOM     86  F   UNL A   1      44.198  21.322  24.618  1.00  0.00    -0.200 F 
ATOM     87  F   UNL A   1      42.055  19.863  25.453  1.00  0.00    -0.200 F 
ENDBRANCH  53  77
BRANCH  65  88
ATOM     88  C   UNL A   1      46.520  28.304  29.469  1.00  0.00     0.064 A 
ATOM     89  C   UNL A   1      45.811  29.014  28.486  1.00  0.00     0.173 A 
ATOM     90  C   UNL A   1      47.916  28.433  29.485  1.00  0.00     0.173 A 
ATOM     91  F   UNL A   1      44.472  29.007  28.457  1.00  0.00    -0.203 F 
ATOM     92  C   UNL A   1      46.478  29.809  27.554  1.00  0.00     0.198 A 
ATOM     93  C   UNL A   1      48.574  29.255  28.579  1.00  0.00     0.198 A 
ATOM     94  F   UNL A   1      48.636  27.810  30.432  1.00  0.00    -0.203 F 
ATOM     95  F   UNL A   1      45.782  30.488  26.630  1.00  0.00    -0.200 F 
ATOM     96  C   UNL A   1      47.857  29.940  27.612  1.00  0.00     0.200 A 
ATOM     97  F   UNL A   1      49.901  29.418  28.672  1.00  0.00    -0.200 F 
ATOM     98  F   UNL A   1      48.492  30.755  26.758  1.00  0.00    -0.200 F 
ENDBRANCH  65  88
ENDBRANCH  39  40
ENDBRANCH  32  34
ENDBRANCH  31  32
ENDBRANCH  30  31
ENDBRANCH  29  30
ENDBRANCH   1  29
TORSDOF 19
ENDMDL
MODEL 3
REMARK VINA RESULT:     -10.8      3.517      9.044
REMARK SMILES COc1cc2cc(C(=O)OCCOCCOC(=O)c3ccc(-c4c5nc(c(-c6c(F)c(F)c(F)c(F)c6F)c6ccc([nH]6)c(-c6c(F)c(F)c(F)c(F)c6F)c6nc(c(-c7c(F)c(F)c(F)c(F)c7F)c7ccc4[nH]7)C=C6)C=C5)cc3)n(Cc3ccccc3)c2c(OC)c1OC
REMARK SMILES IDX 13 1 12 2 11 3 10 4 8 5 9 6 7 7 3 8 4 9 94 10 5 11 91 12
REMARK SMILES IDX 6 13 90 14 82 15 2 16 1 17 95 18 96 19 92 20 93 21 83 22
REMARK SMILES IDX 84 23 85 24 89 25 86 26 88 27 87 28 14 29 15 30 16 31 17 32
REMARK SMILES IDX 18 33 19 34 20 35 81 36 21 37 80 38 22 39 23 40 24 41 74 42
REMARK SMILES IDX 25 43 79 44 73 45 75 46 26 47 78 48 72 49 71 50 27 52 59 53
REMARK SMILES IDX 39 54 58 55 40 56 43 57 57 58 76 59 41 60 42 61 56 63 77 64
REMARK SMILES IDX 44 65 28 66 29 67 37 68 30 69 31 70 35 71 38 72 32 73 33 74
REMARK SMILES IDX 36 75 34 76 60 77 61 78 69 79 62 80 63 81 67 82 70 83 64 84
REMARK SMILES IDX 65 85 68 86 66 87 45 88 46 89 54 90 47 91 48 92 52 93 55 94
REMARK SMILES IDX 49 95 50 96 53 97 51 98
REMARK H PARENT 75 51 43 62
REMARK Flexibility Score: inf
ROOT
ATOM      1  O   UNL A   1      34.785  32.353  27.420  1.00  0.00    -0.374 OA
ENDROOT
BRANCH   1   2
ATOM      2  C   UNL A   1      34.848  31.027  27.934  1.00  0.00     0.202 C 
BRANCH   2   3
ATOM      3  C   UNL A   1      34.503  29.846  27.014  1.00  0.00     0.261 C 
BRANCH   3   4
ATOM      4  O   UNL A   1      33.363  29.089  27.439  1.00  0.00    -0.459 OA
BRANCH   4   5
ATOM      5  C   UNL A   1      32.280  29.301  26.643  1.00  0.00     0.355 C 
ATOM      6  O   UNL A   1      31.880  30.409  26.305  1.00  0.00    -0.244 OA
BRANCH   5   7
ATOM      7  C   UNL A   1      31.724  28.078  26.106  1.00  0.00     0.129 A 
ATOM      8  C   UNL A   1      31.424  23.554  25.407  1.00  0.00     0.165 A 
ATOM      9  C   UNL A   1      31.335  24.488  26.433  1.00  0.00     0.061 A 
ATOM     10  C   UNL A   1      31.401  23.942  24.057  1.00  0.00     0.205 A 
ATOM     11  C   UNL A   1      31.360  25.849  26.112  1.00  0.00     0.008 A 
ATOM     12  C   UNL A   1      31.352  25.328  23.710  1.00  0.00     0.189 A 
ATOM     13  C   UNL A   1      31.498  26.986  26.922  1.00  0.00     0.044 A 
ATOM     14  C   UNL A   1      31.356  26.270  24.779  1.00  0.00     0.096 A 
ATOM     15  N   UNL A   1      31.383  27.678  24.815  1.00  0.00    -0.327 N 
BRANCH   8  16
ATOM     16  O   UNL A   1      31.544  22.244  25.806  1.00  0.00    -0.493 OA
ATOM     17  C   UNL A   1      32.856  22.007  26.326  1.00  0.00     0.278 C 
ENDBRANCH   8  16
BRANCH  10  18
ATOM     18  O   UNL A   1      31.518  23.039  23.028  1.00  0.00    -0.490 OA
ATOM     19  C   UNL A   1      32.815  22.583  22.664  1.00  0.00     0.278 C 
ENDBRANCH  10  18
BRANCH  12  20
ATOM     20  O   UNL A   1      31.338  25.856  22.449  1.00  0.00    -0.491 OA
ATOM     21  C   UNL A   1      32.548  25.995  21.723  1.00  0.00     0.278 C 
ENDBRANCH  12  20
BRANCH  15  22
ATOM     22  C   UNL A   1      31.261  28.556  23.644  1.00  0.00     0.158 C 
BRANCH  22  23
ATOM     23  C   UNL A   1      29.896  29.207  23.509  1.00  0.00    -0.028 A 
ATOM     24  C   UNL A   1      29.731  30.578  23.728  1.00  0.00     0.005 A 
ATOM     25  C   UNL A   1      28.773  28.483  23.081  1.00  0.00     0.005 A 
ATOM     26  C   UNL A   1      28.499  31.212  23.535  1.00  0.00     0.000 A 
ATOM     27  C   UNL A   1      27.537  29.117  22.878  1.00  0.00     0.000 A 
ATOM     28  C   UNL A   1      27.402  30.484  23.100  1.00  0.00     0.000 A 
ENDBRANCH  22  23
ENDBRANCH  15  22
ENDBRANCH   5   7
ENDBRANCH   4   5
ENDBRANCH   3   4
ENDBRANCH   2   3
ENDBRANCH   1   2
BRANCH   1  29
ATOM     29  C   UNL A   1      34.730  33.445  28.346  1.00  0.00     0.202 C 
BRANCH  29  30
ATOM     30  C   UNL A   1      34.446  33.125  29.825  1.00  0.00     0.261 C 
BRANCH  30  31
ATOM     31  O   UNL A   1      35.675  32.823  30.497  1.00  0.00    -0.460 OA
BRANCH  31  32
ATOM     32  C   UNL A   1      35.580  32.234  31.717  1.00  0.00     0.338 C 
ATOM     33  O   UNL A   1      34.599  32.133  32.414  1.00  0.00    -0.246 OA
BRANCH  32  34
ATOM     34  C   UNL A   1      36.801  31.399  31.815  1.00  0.00     0.060 A 
ATOM     35  C   UNL A   1      38.056  31.970  32.053  1.00  0.00     0.016 A 
ATOM     36  C   UNL A   1      36.683  30.098  31.307  1.00  0.00     0.016 A 
ATOM     37  C   UNL A   1      39.195  31.262  31.681  1.00  0.00     0.010 A 
ATOM     38  C   UNL A   1      37.823  29.404  30.920  1.00  0.00     0.010 A 
ATOM     39  C   UNL A   1      39.076  30.005  31.058  1.00  0.00    -0.014 A 
BRANCH  39  40
ATOM     40  C   UNL A   1      40.301  29.249  30.762  1.00  0.00     0.031 A 
ATOM     41  C   UNL A   1      41.110  28.989  31.987  1.00  0.00     0.074 A 
ATOM     42  C   UNL A   1      40.619  28.684  29.575  1.00  0.00     0.049 A 
ATOM     43  N   UNL A   1      42.329  29.348  32.229  1.00  0.00    -0.248 NA
ATOM     44  C   UNL A   1      40.427  28.377  33.140  1.00  0.00     0.031 C 
ATOM     45  C   UNL A   1      39.809  28.622  28.356  1.00  0.00     0.029 A 
ATOM     46  N   UNL A   1      41.722  27.945  29.231  1.00  0.00    -0.354 N 
ATOM     47  C   UNL A   1      42.627  28.854  33.498  1.00  0.00     0.074 A 
ATOM     48  C   UNL A   1      41.383  28.414  34.068  1.00  0.00     0.031 C 
ATOM     49  C   UNL A   1      40.333  27.706  27.508  1.00  0.00     0.029 A 
ATOM     50  C   UNL A   1      41.581  27.202  28.058  1.00  0.00     0.049 A 
ATOM     51  H   UNL A   1      42.546  27.941  29.768  1.00  0.00     0.167 HD
ATOM     52  C   UNL A   1      43.914  28.626  33.875  1.00  0.00     0.037 A 
ATOM     53  C   UNL A   1      42.400  26.214  27.603  1.00  0.00     0.037 A 
ATOM     54  C   UNL A   1      44.831  29.380  33.060  1.00  0.00     0.049 A 
ATOM     55  C   UNL A   1      43.707  26.378  28.281  1.00  0.00     0.074 A 
ATOM     56  C   UNL A   1      45.048  30.722  32.816  1.00  0.00     0.029 A 
ATOM     57  N   UNL A   1      45.505  28.710  32.072  1.00  0.00    -0.354 N 
ATOM     58  N   UNL A   1      44.521  27.370  28.065  1.00  0.00    -0.248 NA
ATOM     59  C   UNL A   1      43.910  25.649  29.522  1.00  0.00     0.031 C 
ATOM     60  C   UNL A   1      45.425  30.791  31.442  1.00  0.00     0.029 A 
ATOM     61  C   UNL A   1      45.474  29.487  30.949  1.00  0.00     0.049 A 
ATOM     62  H   UNL A   1      45.933  27.827  32.157  1.00  0.00     0.167 HD
ATOM     63  C   UNL A   1      45.025  27.674  29.317  1.00  0.00     0.074 A 
ATOM     64  C   UNL A   1      44.679  26.533  30.161  1.00  0.00     0.031 C 
ATOM     65  C   UNL A   1      45.418  28.945  29.617  1.00  0.00     0.037 A 
BRANCH  52  66
ATOM     66  C   UNL A   1      44.361  27.409  34.661  1.00  0.00     0.064 A 
ATOM     67  C   UNL A   1      45.176  27.604  35.796  1.00  0.00     0.173 A 
ATOM     68  C   UNL A   1      44.320  26.086  34.169  1.00  0.00     0.173 A 
ATOM     69  F   UNL A   1      45.293  28.819  36.356  1.00  0.00    -0.203 F 
ATOM     70  C   UNL A   1      45.983  26.587  36.311  1.00  0.00     0.198 A 
ATOM     71  C   UNL A   1      45.088  25.061  34.720  1.00  0.00     0.198 A 
ATOM     72  F   UNL A   1      43.634  25.744  33.074  1.00  0.00    -0.203 F 
ATOM     73  F   UNL A   1      46.858  26.864  37.288  1.00  0.00    -0.200 F 
ATOM     74  C   UNL A   1      45.949  25.320  35.763  1.00  0.00     0.200 A 
ATOM     75  F   UNL A   1      45.050  23.842  34.165  1.00  0.00    -0.200 F 
ATOM     76  F   UNL A   1      46.778  24.364  36.202  1.00  0.00    -0.200 F 
ENDBRANCH  52  66
BRANCH  53  77
ATOM     77  C   UNL A   1      42.070  24.945  26.891  1.00  0.00     0.064 A 
ATOM     78  C   UNL A   1      42.828  24.514  25.783  1.00  0.00     0.173 A 
ATOM     79  C   UNL A   1      41.226  23.980  27.472  1.00  0.00     0.173 A 
ATOM     80  F   UNL A   1      43.692  25.350  25.188  1.00  0.00    -0.203 F 
ATOM     81  C   UNL A   1      42.778  23.193  25.318  1.00  0.00     0.198 A 
ATOM     82  C   UNL A   1      41.174  22.663  27.004  1.00  0.00     0.198 A 
ATOM     83  F   UNL A   1      40.514  24.263  28.569  1.00  0.00    -0.203 F 
ATOM     84  F   UNL A   1      43.574  22.805  24.312  1.00  0.00    -0.200 F 
ATOM     85  C   UNL A   1      41.962  22.264  25.940  1.00  0.00     0.200 A 
ATOM     86  F   UNL A   1      40.408  21.765  27.638  1.00  0.00    -0.200 F 
ATOM     87  F   UNL A   1      41.968  20.983  25.547  1.00  0.00    -0.200 F 
ENDBRANCH  53  77
BRANCH  65  88
ATOM     88  C   UNL A   1      45.573  29.926  28.492  1.00  0.00     0.064 A 
ATOM     89  C   UNL A   1      44.527  30.712  27.982  1.00  0.00     0.173 A 
ATOM     90  C   UNL A   1      46.873  30.210  28.055  1.00  0.00     0.173 A 
ATOM     91  F   UNL A   1      43.269  30.557  28.415  1.00  0.00    -0.203 F 
ATOM     92  C   UNL A   1      44.778  31.731  27.063  1.00  0.00     0.198 A 
ATOM     93  C   UNL A   1      47.124  31.250  27.168  1.00  0.00     0.198 A 
ATOM     94  F   UNL A   1      47.913  29.516  28.546  1.00  0.00    -0.203 F 
ATOM     95  F   UNL A   1      43.766  32.478  26.597  1.00  0.00    -0.200 F 
ATOM     96  C   UNL A   1      46.078  32.008  26.670  1.00  0.00     0.200 A 
ATOM     97  F   UNL A   1      48.388  31.546  26.830  1.00  0.00    -0.200 F 
ATOM     98  F   UNL A   1      46.326  33.029  25.837  1.00  0.00    -0.200 F 
ENDBRANCH  65  88
ENDBRANCH  39  40
ENDBRANCH  32  34
ENDBRANCH  31  32
ENDBRANCH  30  31
ENDBRANCH  29  30
ENDBRANCH   1  29
TORSDOF 19
ENDMDL
