MODEL 1
REMARK VINA RESULT:     -12.1      0.000      0.000
REMARK SMILES C[C@@H](NS(=O)(=O)c1ccc2c(c1)CCC2)C(=O)OCCOCCOC(=O)c1ccc(-c2c3nc(c(-c4c(F)c(F)c(F)c(F)c4F)c4ccc([nH]4)c(-c4c(F)c(F)c(F)c(F)c4F)c4nc(c(-c5c(F)c(F)c(F)c(F)c5F)c5ccc2[nH]5)C=C4)C=C3)cc1
REMARK SMILES IDX 20 1 19 2 18 3 16 4 17 5 2 6 1 7 3 8 4 10 5 11 6 12 7 13
REMARK SMILES IDX 8 14 12 15 9 16 11 17 10 18 13 19 15 20 14 21 21 22 22 23
REMARK SMILES IDX 23 24 24 25 25 26 26 27 27 28 28 29 89 30 29 31 88 32 30 33
REMARK SMILES IDX 31 34 32 35 82 36 33 37 87 38 81 39 83 40 34 41 86 42 80 43
REMARK SMILES IDX 79 44 35 46 67 47 47 48 66 49 48 50 51 51 65 52 84 53 49 54
REMARK SMILES IDX 50 55 64 57 85 58 52 59 36 60 37 61 45 62 38 63 39 64 43 65
REMARK SMILES IDX 46 66 40 67 41 68 44 69 42 70 68 71 69 72 77 73 70 74 71 75
REMARK SMILES IDX 75 76 78 77 72 78 73 79 76 80 74 81 53 82 54 83 62 84 55 85
REMARK SMILES IDX 56 86 60 87 63 88 57 89 58 90 61 91 59 92
REMARK H PARENT 3 9 83 45 51 56
REMARK Flexibility Score: inf
ROOT
ATOM      1  C   UNL A   1      32.267  29.182  25.853  1.00  0.00     0.202 C 
ENDROOT
BRANCH   1   2
ATOM      2  C   UNL A   1      32.014  29.287  24.343  1.00  0.00     0.261 C 
BRANCH   2   3
ATOM      3  O   UNL A   1      30.678  29.280  23.845  1.00  0.00    -0.462 OA
BRANCH   3   4
ATOM      4  C   UNL A   1      30.459  28.498  22.749  1.00  0.00     0.323 C 
ATOM      5  O   UNL A   1      29.829  28.832  21.756  1.00  0.00    -0.250 OA
BRANCH   4   6
ATOM      6  C   UNL A   1      31.039  27.114  22.921  1.00  0.00     0.176 C 
ATOM      7  C   UNL A   1      30.054  26.230  23.684  1.00  0.00     0.038 C 
BRANCH   6   8
ATOM      8  N   UNL A   1      31.370  26.536  21.595  1.00  0.00    -0.197 NA
ATOM      9  H   UNL A   1      31.147  27.243  20.895  1.00  0.00     0.142 HD
BRANCH   8  10
ATOM     10  S   UNL A   1      32.966  26.029  21.307  1.00  0.00     0.241 S 
ATOM     11  O   UNL A   1      33.039  25.553  19.947  1.00  0.00    -0.207 OA
ATOM     12  O   UNL A   1      33.785  27.139  21.755  1.00  0.00    -0.207 OA
BRANCH  10  13
ATOM     13  C   UNL A   1      33.263  24.670  22.423  1.00  0.00     0.082 A 
ATOM     14  C   UNL A   1      34.132  24.857  23.514  1.00  0.00     0.022 A 
ATOM     15  C   UNL A   1      32.592  23.453  22.261  1.00  0.00     0.025 A 
ATOM     16  C   UNL A   1      34.533  23.778  24.304  1.00  0.00     0.005 A 
ATOM     17  C   UNL A   1      32.908  22.418  23.134  1.00  0.00    -0.043 A 
ATOM     18  C   UNL A   1      33.932  22.556  24.080  1.00  0.00    -0.045 A 
ATOM     19  C   UNL A   1      32.289  21.056  23.239  1.00  0.00     0.036 C 
ATOM     20  C   UNL A   1      34.241  21.239  24.719  1.00  0.00     0.036 C 
ATOM     21  C   UNL A   1      32.884  20.550  24.569  1.00  0.00     0.010 C 
ENDBRANCH  10  13
ENDBRANCH   8  10
ENDBRANCH   6   8
ENDBRANCH   4   6
ENDBRANCH   3   4
ENDBRANCH   2   3
ENDBRANCH   1   2
BRANCH   1  22
ATOM     22  O   UNL A   1      31.791  30.156  26.761  1.00  0.00    -0.374 OA
BRANCH  22  23
ATOM     23  C   UNL A   1      31.317  31.410  26.282  1.00  0.00     0.202 C 
BRANCH  23  24
ATOM     24  C   UNL A   1      31.905  32.688  26.867  1.00  0.00     0.261 C 
BRANCH  24  25
ATOM     25  O   UNL A   1      32.896  32.402  27.866  1.00  0.00    -0.460 OA
BRANCH  25  26
ATOM     26  C   UNL A   1      33.858  33.347  27.962  1.00  0.00     0.338 C 
ATOM     27  O   UNL A   1      33.706  34.553  28.067  1.00  0.00    -0.246 OA
BRANCH  26  28
ATOM     28  C   UNL A   1      35.178  32.715  28.106  1.00  0.00     0.060 A 
ATOM     29  C   UNL A   1      35.208  31.316  28.161  1.00  0.00     0.016 A 
ATOM     30  C   UNL A   1      36.333  33.470  28.321  1.00  0.00     0.016 A 
ATOM     31  C   UNL A   1      36.370  30.666  28.544  1.00  0.00     0.010 A 
ATOM     32  C   UNL A   1      37.503  32.813  28.708  1.00  0.00     0.010 A 
ATOM     33  C   UNL A   1      37.499  31.418  28.888  1.00  0.00    -0.014 A 
BRANCH  33  34
ATOM     34  C   UNL A   1      38.580  30.752  29.645  1.00  0.00     0.031 A 
ATOM     35  C   UNL A   1      38.747  31.084  31.101  1.00  0.00     0.074 A 
ATOM     36  C   UNL A   1      39.337  29.807  29.062  1.00  0.00     0.049 A 
ATOM     37  N   UNL A   1      39.606  30.615  31.970  1.00  0.00    -0.248 NA
ATOM     38  C   UNL A   1      37.819  32.082  31.658  1.00  0.00     0.031 C 
ATOM     39  C   UNL A   1      39.213  29.368  27.674  1.00  0.00     0.029 A 
ATOM     40  N   UNL A   1      40.351  29.043  29.573  1.00  0.00    -0.354 N 
ATOM     41  C   UNL A   1      39.330  31.268  33.165  1.00  0.00     0.074 A 
ATOM     42  C   UNL A   1      38.248  32.192  32.904  1.00  0.00     0.031 C 
ATOM     43  C   UNL A   1      40.118  28.403  27.443  1.00  0.00     0.029 A 
ATOM     44  C   UNL A   1      40.904  28.186  28.656  1.00  0.00     0.049 A 
ATOM     45  H   UNL A   1      40.654  29.103  30.508  1.00  0.00     0.167 HD
ATOM     46  C   UNL A   1      39.919  31.102  34.372  1.00  0.00     0.037 A 
ATOM     47  C   UNL A   1      41.940  27.338  28.786  1.00  0.00     0.037 A 
ATOM     48  C   UNL A   1      40.990  30.171  34.619  1.00  0.00     0.049 A 
ATOM     49  C   UNL A   1      42.630  27.228  30.121  1.00  0.00     0.074 A 
ATOM     50  C   UNL A   1      41.649  29.906  35.805  1.00  0.00     0.029 A 
ATOM     51  N   UNL A   1      41.564  29.358  33.651  1.00  0.00    -0.354 N 
ATOM     52  N   UNL A   1      42.353  27.832  31.252  1.00  0.00    -0.248 NA
ATOM     53  C   UNL A   1      43.775  26.313  30.196  1.00  0.00     0.031 C 
ATOM     54  C   UNL A   1      42.665  28.981  35.542  1.00  0.00     0.029 A 
ATOM     55  C   UNL A   1      42.592  28.614  34.208  1.00  0.00     0.049 A 
ATOM     56  H   UNL A   1      41.281  29.314  32.710  1.00  0.00     0.167 HD
ATOM     57  C   UNL A   1      43.263  27.343  32.180  1.00  0.00     0.074 A 
ATOM     58  C   UNL A   1      44.092  26.382  31.481  1.00  0.00     0.031 C 
ATOM     59  C   UNL A   1      43.400  27.656  33.494  1.00  0.00     0.037 A 
BRANCH  46  60
ATOM     60  C   UNL A   1      39.448  31.974  35.502  1.00  0.00     0.064 A 
ATOM     61  C   UNL A   1      38.482  31.544  36.425  1.00  0.00     0.173 A 
ATOM     62  C   UNL A   1      39.987  33.259  35.672  1.00  0.00     0.173 A 
ATOM     63  F   UNL A   1      37.922  30.331  36.301  1.00  0.00    -0.203 F 
ATOM     64  C   UNL A   1      38.046  32.380  37.451  1.00  0.00     0.198 A 
ATOM     65  C   UNL A   1      39.574  34.078  36.720  1.00  0.00     0.198 A 
ATOM     66  F   UNL A   1      40.916  33.721  34.822  1.00  0.00    -0.203 F 
ATOM     67  F   UNL A   1      37.079  31.970  38.282  1.00  0.00    -0.200 F 
ATOM     68  C   UNL A   1      38.598  33.643  37.601  1.00  0.00     0.200 A 
ATOM     69  F   UNL A   1      40.120  35.293  36.871  1.00  0.00    -0.200 F 
ATOM     70  F   UNL A   1      38.182  34.444  38.592  1.00  0.00    -0.200 F 
ENDBRANCH  46  60
BRANCH  47  71
ATOM     71  C   UNL A   1      42.385  26.525  27.625  1.00  0.00     0.064 A 
ATOM     72  C   UNL A   1      41.818  25.270  27.361  1.00  0.00     0.173 A 
ATOM     73  C   UNL A   1      43.393  26.979  26.761  1.00  0.00     0.173 A 
ATOM     74  F   UNL A   1      40.864  24.783  28.169  1.00  0.00    -0.203 F 
ATOM     75  C   UNL A   1      42.259  24.492  26.293  1.00  0.00     0.198 A 
ATOM     76  C   UNL A   1      43.811  26.214  25.676  1.00  0.00     0.198 A 
ATOM     77  F   UNL A   1      43.967  28.174  26.967  1.00  0.00    -0.203 F 
ATOM     78  F   UNL A   1      41.735  23.275  26.094  1.00  0.00    -0.200 F 
ATOM     79  C   UNL A   1      43.250  24.966  25.448  1.00  0.00     0.200 A 
ATOM     80  F   UNL A   1      44.757  26.684  24.852  1.00  0.00    -0.200 F 
ATOM     81  F   UNL A   1      43.671  24.219  24.419  1.00  0.00    -0.200 F 
ENDBRANCH  47  71
BRANCH  59  82
ATOM     82  C   UNL A   1      44.453  26.915  34.269  1.00  0.00     0.064 A 
ATOM     83  C   UNL A   1      44.214  25.650  34.824  1.00  0.00     0.173 A 
ATOM     84  C   UNL A   1      45.730  27.473  34.435  1.00  0.00     0.173 A 
ATOM     85  F   UNL A   1      43.007  25.077  34.705  1.00  0.00    -0.203 F 
ATOM     86  C   UNL A   1      45.201  24.988  35.551  1.00  0.00     0.198 A 
ATOM     87  C   UNL A   1      46.727  26.792  35.129  1.00  0.00     0.198 A 
ATOM     88  F   UNL A   1      46.017  28.675  33.916  1.00  0.00    -0.203 F 
ATOM     89  F   UNL A   1      44.928  23.810  36.128  1.00  0.00    -0.200 F 
ATOM     90  C   UNL A   1      46.457  25.557  35.697  1.00  0.00     0.200 A 
ATOM     91  F   UNL A   1      47.946  27.335  35.252  1.00  0.00    -0.200 F 
ATOM     92  F   UNL A   1      47.407  24.917  36.394  1.00  0.00    -0.200 F 
ENDBRANCH  59  82
ENDBRANCH  33  34
ENDBRANCH  26  28
ENDBRANCH  25  26
ENDBRANCH  24  25
ENDBRANCH  23  24
ENDBRANCH  22  23
ENDBRANCH   1  22
TORSDOF 17
ENDMDL
MODEL 2
REMARK VINA RESULT:     -11.7      3.656      8.937
REMARK SMILES C[C@@H](NS(=O)(=O)c1ccc2c(c1)CCC2)C(=O)OCCOCCOC(=O)c1ccc(-c2c3nc(c(-c4c(F)c(F)c(F)c(F)c4F)c4ccc([nH]4)c(-c4c(F)c(F)c(F)c(F)c4F)c4nc(c(-c5c(F)c(F)c(F)c(F)c5F)c5ccc2[nH]5)C=C4)C=C3)cc1
REMARK SMILES IDX 20 1 19 2 18 3 16 4 17 5 2 6 1 7 3 8 4 10 5 11 6 12 7 13
REMARK SMILES IDX 8 14 12 15 9 16 11 17 10 18 13 19 15 20 14 21 21 22 22 23
REMARK SMILES IDX 23 24 24 25 25 26 26 27 27 28 28 29 89 30 29 31 88 32 30 33
REMARK SMILES IDX 31 34 32 35 82 36 33 37 87 38 81 39 83 40 34 41 86 42 80 43
REMARK SMILES IDX 79 44 35 46 67 47 47 48 66 49 48 50 51 51 65 52 84 53 49 54
REMARK SMILES IDX 50 55 64 57 85 58 52 59 36 60 37 61 45 62 38 63 39 64 43 65
REMARK SMILES IDX 46 66 40 67 41 68 44 69 42 70 68 71 69 72 77 73 70 74 71 75
REMARK SMILES IDX 75 76 78 77 72 78 73 79 76 80 74 81 53 82 54 83 62 84 55 85
REMARK SMILES IDX 56 86 60 87 63 88 57 89 58 90 61 91 59 92
REMARK H PARENT 3 9 83 45 51 56
REMARK Flexibility Score: inf
ROOT
ATOM      1  C   UNL A   1      40.702  21.047  26.462  1.00  0.00     0.202 C 
ENDROOT
BRANCH   1   2
ATOM      2  C   UNL A   1      39.460  21.589  25.742  1.00  0.00     0.261 C 
BRANCH   2   3
ATOM      3  O   UNL A   1      38.365  22.097  26.500  1.00  0.00    -0.462 OA
BRANCH   3   4
ATOM      4  C   UNL A   1      37.911  23.329  26.130  1.00  0.00     0.323 C 
ATOM      5  O   UNL A   1      38.525  24.378  26.261  1.00  0.00    -0.250 OA
BRANCH   4   6
ATOM      6  C   UNL A   1      36.503  23.269  25.585  1.00  0.00     0.176 C 
ATOM      7  C   UNL A   1      36.518  22.694  24.171  1.00  0.00     0.038 C 
BRANCH   6   8
ATOM      8  N   UNL A   1      35.645  22.463  26.489  1.00  0.00    -0.197 NA
ATOM      9  H   UNL A   1      35.813  22.795  27.439  1.00  0.00     0.142 HD
BRANCH   8  10
ATOM     10  S   UNL A   1      33.965  22.480  26.240  1.00  0.00     0.241 S 
ATOM     11  O   UNL A   1      33.328  22.236  27.512  1.00  0.00    -0.207 OA
ATOM     12  O   UNL A   1      33.720  23.706  25.505  1.00  0.00    -0.207 OA
BRANCH  10  13
ATOM     13  C   UNL A   1      33.613  21.124  25.137  1.00  0.00     0.082 A 
ATOM     14  C   UNL A   1      32.714  21.322  24.073  1.00  0.00     0.022 A 
ATOM     15  C   UNL A   1      34.271  19.896  25.281  1.00  0.00     0.025 A 
ATOM     16  C   UNL A   1      32.273  20.248  23.298  1.00  0.00     0.005 A 
ATOM     17  C   UNL A   1      33.912  18.865  24.420  1.00  0.00    -0.043 A 
ATOM     18  C   UNL A   1      32.862  19.017  23.505  1.00  0.00    -0.045 A 
ATOM     19  C   UNL A   1      34.506  17.494  24.299  1.00  0.00     0.036 C 
ATOM     20  C   UNL A   1      32.513  17.705  22.879  1.00  0.00     0.036 C 
ATOM     21  C   UNL A   1      33.864  16.995  22.989  1.00  0.00     0.010 C 
ENDBRANCH  10  13
ENDBRANCH   8  10
ENDBRANCH   6   8
ENDBRANCH   4   6
ENDBRANCH   3   4
ENDBRANCH   2   3
ENDBRANCH   1   2
BRANCH   1  22
ATOM     22  O   UNL A   1      41.920  21.766  26.495  1.00  0.00    -0.374 OA
BRANCH  22  23
ATOM     23  C   UNL A   1      43.039  21.314  25.739  1.00  0.00     0.202 C 
BRANCH  23  24
ATOM     24  C   UNL A   1      44.027  22.345  25.207  1.00  0.00     0.261 C 
BRANCH  24  25
ATOM     25  O   UNL A   1      43.356  23.513  24.712  1.00  0.00    -0.460 OA
BRANCH  25  26
ATOM     26  C   UNL A   1      43.984  24.670  25.016  1.00  0.00     0.338 C 
ATOM     27  O   UNL A   1      45.077  25.046  24.626  1.00  0.00    -0.246 OA
BRANCH  26  28
ATOM     28  C   UNL A   1      43.085  25.553  25.775  1.00  0.00     0.060 A 
ATOM     29  C   UNL A   1      43.540  26.854  26.025  1.00  0.00     0.016 A 
ATOM     30  C   UNL A   1      41.899  25.083  26.341  1.00  0.00     0.016 A 
ATOM     31  C   UNL A   1      42.870  27.655  26.937  1.00  0.00     0.010 A 
ATOM     32  C   UNL A   1      41.226  25.890  27.260  1.00  0.00     0.010 A 
ATOM     33  C   UNL A   1      41.753  27.146  27.609  1.00  0.00    -0.014 A 
BRANCH  33  34
ATOM     34  C   UNL A   1      41.290  27.846  28.826  1.00  0.00     0.031 A 
ATOM     35  C   UNL A   1      42.078  27.678  30.096  1.00  0.00     0.074 A 
ATOM     36  C   UNL A   1      40.241  28.683  28.773  1.00  0.00     0.049 A 
ATOM     37  N   UNL A   1      41.879  28.205  31.276  1.00  0.00    -0.248 NA
ATOM     38  C   UNL A   1      43.253  26.792  30.026  1.00  0.00     0.031 C 
ATOM     39  C   UNL A   1      39.449  28.964  27.578  1.00  0.00     0.029 A 
ATOM     40  N   UNL A   1      39.671  29.455  29.750  1.00  0.00    -0.354 N 
ATOM     41  C   UNL A   1      42.891  27.707  32.087  1.00  0.00     0.074 A 
ATOM     42  C   UNL A   1      43.683  26.808  31.277  1.00  0.00     0.031 C 
ATOM     43  C   UNL A   1      38.493  29.855  27.891  1.00  0.00     0.029 A 
ATOM     44  C   UNL A   1      38.588  30.175  29.314  1.00  0.00     0.049 A 
ATOM     45  H   UNL A   1      40.007  29.490  30.675  1.00  0.00     0.167 HD
ATOM     46  C   UNL A   1      43.142  27.984  33.389  1.00  0.00     0.037 A 
ATOM     47  C   UNL A   1      37.761  30.986  29.999  1.00  0.00     0.037 A 
ATOM     48  C   UNL A   1      42.351  28.889  34.181  1.00  0.00     0.049 A 
ATOM     49  C   UNL A   1      38.017  31.217  31.465  1.00  0.00     0.074 A 
ATOM     50  C   UNL A   1      42.523  29.260  35.502  1.00  0.00     0.029 A 
ATOM     51  N   UNL A   1      41.225  29.559  33.721  1.00  0.00    -0.354 N 
ATOM     52  N   UNL A   1      38.985  30.761  32.223  1.00  0.00    -0.248 NA
ATOM     53  C   UNL A   1      37.063  32.084  32.170  1.00  0.00     0.031 C 
ATOM     54  C   UNL A   1      41.466  30.101  35.861  1.00  0.00     0.029 A 
ATOM     55  C   UNL A   1      40.674  30.315  34.743  1.00  0.00     0.049 A 
ATOM     56  H   UNL A   1      40.872  29.506  32.804  1.00  0.00     0.167 HD
ATOM     57  C   UNL A   1      38.780  31.313  33.481  1.00  0.00     0.074 A 
ATOM     58  C   UNL A   1      37.601  32.149  33.379  1.00  0.00     0.031 C 
ATOM     59  C   UNL A   1      39.503  31.148  34.617  1.00  0.00     0.037 A 
BRANCH  46  60
ATOM     60  C   UNL A   1      44.292  27.271  34.043  1.00  0.00     0.064 A 
ATOM     61  C   UNL A   1      45.566  27.848  34.151  1.00  0.00     0.173 A 
ATOM     62  C   UNL A   1      44.108  25.989  34.586  1.00  0.00     0.173 A 
ATOM     63  F   UNL A   1      45.802  29.065  33.636  1.00  0.00    -0.203 F 
ATOM     64  C   UNL A   1      46.621  27.156  34.743  1.00  0.00     0.198 A 
ATOM     65  C   UNL A   1      45.156  25.315  35.208  1.00  0.00     0.198 A 
ATOM     66  F   UNL A   1      42.910  25.389  34.514  1.00  0.00    -0.203 F 
ATOM     67  F   UNL A   1      47.843  27.704  34.780  1.00  0.00    -0.200 F 
ATOM     68  C   UNL A   1      46.412  25.894  35.277  1.00  0.00     0.200 A 
ATOM     69  F   UNL A   1      44.948  24.101  35.736  1.00  0.00    -0.200 F 
ATOM     70  F   UNL A   1      47.426  25.232  35.851  1.00  0.00    -0.200 F 
ENDBRANCH  46  60
BRANCH  47  71
ATOM     71  C   UNL A   1      36.620  31.638  29.307  1.00  0.00     0.064 A 
ATOM     72  C   UNL A   1      36.614  33.020  29.068  1.00  0.00     0.173 A 
ATOM     73  C   UNL A   1      35.506  30.899  28.881  1.00  0.00     0.173 A 
ATOM     74  F   UNL A   1      37.647  33.774  29.472  1.00  0.00    -0.203 F 
ATOM     75  C   UNL A   1      35.528  33.638  28.451  1.00  0.00     0.198 A 
ATOM     76  C   UNL A   1      34.436  31.513  28.237  1.00  0.00     0.198 A 
ATOM     77  F   UNL A   1      35.463  29.573  29.084  1.00  0.00    -0.203 F 
ATOM     78  F   UNL A   1      35.527  34.967  28.280  1.00  0.00    -0.200 F 
ATOM     79  C   UNL A   1      34.443  32.885  28.031  1.00  0.00     0.200 A 
ATOM     80  F   UNL A   1      33.397  30.778  27.818  1.00  0.00    -0.200 F 
ATOM     81  F   UNL A   1      33.402  33.479  27.434  1.00  0.00    -0.200 F 
ENDBRANCH  47  71
BRANCH  59  82
ATOM     82  C   UNL A   1      39.066  31.926  35.827  1.00  0.00     0.064 A 
ATOM     83  C   UNL A   1      39.471  33.250  36.044  1.00  0.00     0.173 A 
ATOM     84  C   UNL A   1      38.205  31.341  36.769  1.00  0.00     0.173 A 
ATOM     85  F   UNL A   1      40.302  33.853  35.181  1.00  0.00    -0.203 F 
ATOM     86  C   UNL A   1      39.065  33.947  37.180  1.00  0.00     0.198 A 
ATOM     87  C   UNL A   1      37.770  32.052  37.884  1.00  0.00     0.198 A 
ATOM     88  F   UNL A   1      37.778  30.080  36.605  1.00  0.00    -0.203 F 
ATOM     89  F   UNL A   1      39.518  35.188  37.400  1.00  0.00    -0.200 F 
ATOM     90  C   UNL A   1      38.210  33.349  38.094  1.00  0.00     0.200 A 
ATOM     91  F   UNL A   1      36.929  31.479  38.755  1.00  0.00    -0.200 F 
ATOM     92  F   UNL A   1      37.816  34.022  39.185  1.00  0.00    -0.200 F 
ENDBRANCH  59  82
ENDBRANCH  33  34
ENDBRANCH  26  28
ENDBRANCH  25  26
ENDBRANCH  24  25
ENDBRANCH  23  24
ENDBRANCH  22  23
ENDBRANCH   1  22
TORSDOF 17
ENDMDL
MODEL 3
REMARK VINA RESULT:     -11.6      4.519     10.186
REMARK SMILES C[C@@H](NS(=O)(=O)c1ccc2c(c1)CCC2)C(=O)OCCOCCOC(=O)c1ccc(-c2c3nc(c(-c4c(F)c(F)c(F)c(F)c4F)c4ccc([nH]4)c(-c4c(F)c(F)c(F)c(F)c4F)c4nc(c(-c5c(F)c(F)c(F)c(F)c5F)c5ccc2[nH]5)C=C4)C=C3)cc1
REMARK SMILES IDX 20 1 19 2 18 3 16 4 17 5 2 6 1 7 3 8 4 10 5 11 6 12 7 13
REMARK SMILES IDX 8 14 12 15 9 16 11 17 10 18 13 19 15 20 14 21 21 22 22 23
REMARK SMILES IDX 23 24 24 25 25 26 26 27 27 28 28 29 89 30 29 31 88 32 30 33
REMARK SMILES IDX 31 34 32 35 82 36 33 37 87 38 81 39 83 40 34 41 86 42 80 43
REMARK SMILES IDX 79 44 35 46 67 47 47 48 66 49 48 50 51 51 65 52 84 53 49 54
REMARK SMILES IDX 50 55 64 57 85 58 52 59 36 60 37 61 45 62 38 63 39 64 43 65
REMARK SMILES IDX 46 66 40 67 41 68 44 69 42 70 68 71 69 72 77 73 70 74 71 75
REMARK SMILES IDX 75 76 78 77 72 78 73 79 76 80 74 81 53 82 54 83 62 84 55 85
REMARK SMILES IDX 56 86 60 87 63 88 57 89 58 90 61 91 59 92
REMARK H PARENT 3 9 83 45 51 56
REMARK Flexibility Score: inf
ROOT
ATOM      1  C   UNL A   1      33.870  20.075  24.998  1.00  0.00     0.202 C 
ENDROOT
BRANCH   1   2
ATOM      2  C   UNL A   1      33.249  21.451  25.276  1.00  0.00     0.261 C 
BRANCH   2   3
ATOM      3  O   UNL A   1      33.639  22.185  26.434  1.00  0.00    -0.462 OA
BRANCH   3   4
ATOM      4  C   UNL A   1      32.621  22.591  27.247  1.00  0.00     0.323 C 
ATOM      5  O   UNL A   1      32.537  22.359  28.444  1.00  0.00    -0.250 OA
BRANCH   4   6
ATOM      6  C   UNL A   1      31.545  23.322  26.479  1.00  0.00     0.176 C 
ATOM      7  C   UNL A   1      30.176  22.737  26.819  1.00  0.00     0.038 C 
BRANCH   6   8
ATOM      8  N   UNL A   1      31.604  24.773  26.783  1.00  0.00    -0.197 NA
ATOM      9  H   UNL A   1      32.360  24.909  27.455  1.00  0.00     0.142 HD
BRANCH   8  10
ATOM     10  S   UNL A   1      31.868  25.860  25.504  1.00  0.00     0.241 S 
ATOM     11  O   UNL A   1      32.938  25.333  24.691  1.00  0.00    -0.207 OA
ATOM     12  O   UNL A   1      30.550  26.091  24.946  1.00  0.00    -0.207 OA
BRANCH  10  13
ATOM     13  C   UNL A   1      32.399  27.388  26.254  1.00  0.00     0.082 A 
ATOM     14  C   UNL A   1      31.432  28.263  26.784  1.00  0.00     0.022 A 
ATOM     15  C   UNL A   1      33.760  27.688  26.379  1.00  0.00     0.025 A 
ATOM     16  C   UNL A   1      31.784  29.543  27.215  1.00  0.00     0.005 A 
ATOM     17  C   UNL A   1      34.104  28.919  26.927  1.00  0.00    -0.043 A 
ATOM     18  C   UNL A   1      33.125  29.866  27.252  1.00  0.00    -0.045 A 
ATOM     19  C   UNL A   1      35.467  29.455  27.251  1.00  0.00     0.036 C 
ATOM     20  C   UNL A   1      33.753  31.182  27.584  1.00  0.00     0.036 C 
ATOM     21  C   UNL A   1      35.116  30.703  28.086  1.00  0.00     0.010 C 
ENDBRANCH  10  13
ENDBRANCH   8  10
ENDBRANCH   6   8
ENDBRANCH   4   6
ENDBRANCH   3   4
ENDBRANCH   2   3
ENDBRANCH   1   2
BRANCH   1  22
ATOM     22  O   UNL A   1      35.227  19.929  24.626  1.00  0.00    -0.374 OA
BRANCH  22  23
ATOM     23  C   UNL A   1      36.186  20.905  25.019  1.00  0.00     0.202 C 
BRANCH  23  24
ATOM     24  C   UNL A   1      37.662  20.527  25.005  1.00  0.00     0.261 C 
BRANCH  24  25
ATOM     25  O   UNL A   1      38.501  21.665  25.257  1.00  0.00    -0.460 OA
BRANCH  25  26
ATOM     26  C   UNL A   1      39.520  21.410  26.106  1.00  0.00     0.338 C 
ATOM     27  O   UNL A   1      40.222  20.412  26.146  1.00  0.00    -0.246 OA
BRANCH  26  28
ATOM     28  C   UNL A   1      39.822  22.602  26.912  1.00  0.00     0.060 A 
ATOM     29  C   UNL A   1      39.103  23.767  26.612  1.00  0.00     0.016 A 
ATOM     30  C   UNL A   1      40.869  22.620  27.835  1.00  0.00     0.016 A 
ATOM     31  C   UNL A   1      39.502  24.980  27.149  1.00  0.00     0.010 A 
ATOM     32  C   UNL A   1      41.271  23.843  28.374  1.00  0.00     0.010 A 
ATOM     33  C   UNL A   1      40.632  25.030  27.974  1.00  0.00    -0.014 A 
BRANCH  33  34
ATOM     34  C   UNL A   1      41.260  26.346  28.222  1.00  0.00     0.031 A 
ATOM     35  C   UNL A   1      42.640  26.596  27.680  1.00  0.00     0.074 A 
ATOM     36  C   UNL A   1      40.575  27.322  28.840  1.00  0.00     0.049 A 
ATOM     37  N   UNL A   1      43.381  27.671  27.753  1.00  0.00    -0.248 NA
ATOM     38  C   UNL A   1      43.273  25.480  26.957  1.00  0.00     0.031 C 
ATOM     39  C   UNL A   1      39.210  27.201  29.346  1.00  0.00     0.029 A 
ATOM     40  N   UNL A   1      40.936  28.609  29.135  1.00  0.00    -0.354 N 
ATOM     41  C   UNL A   1      44.566  27.358  27.099  1.00  0.00     0.074 A 
ATOM     42  C   UNL A   1      44.463  25.982  26.667  1.00  0.00     0.031 C 
ATOM     43  C   UNL A   1      38.843  28.374  29.888  1.00  0.00     0.029 A 
ATOM     44  C   UNL A   1      39.961  29.311  29.797  1.00  0.00     0.049 A 
ATOM     45  H   UNL A   1      41.810  28.993  28.895  1.00  0.00     0.167 HD
ATOM     46  C   UNL A   1      45.640  28.151  26.872  1.00  0.00     0.037 A 
ATOM     47  C   UNL A   1      39.985  30.564  30.286  1.00  0.00     0.037 A 
ATOM     48  C   UNL A   1      45.726  29.523  27.301  1.00  0.00     0.049 A 
ATOM     49  C   UNL A   1      41.221  31.401  30.088  1.00  0.00     0.074 A 
ATOM     50  C   UNL A   1      46.755  30.426  27.110  1.00  0.00     0.029 A 
ATOM     51  N   UNL A   1      44.740  30.186  28.020  1.00  0.00    -0.354 N 
ATOM     52  N   UNL A   1      42.331  31.108  29.452  1.00  0.00    -0.248 NA
ATOM     53  C   UNL A   1      41.204  32.748  30.672  1.00  0.00     0.031 C 
ATOM     54  C   UNL A   1      46.421  31.614  27.769  1.00  0.00     0.029 A 
ATOM     55  C   UNL A   1      45.152  31.477  28.309  1.00  0.00     0.049 A 
ATOM     56  H   UNL A   1      43.875  29.797  28.284  1.00  0.00     0.167 HD
ATOM     57  C   UNL A   1      43.127  32.244  29.528  1.00  0.00     0.074 A 
ATOM     58  C   UNL A   1      42.366  33.235  30.260  1.00  0.00     0.031 C 
ATOM     59  C   UNL A   1      44.373  32.451  29.033  1.00  0.00     0.037 A 
BRANCH  46  60
ATOM     60  C   UNL A   1      46.818  27.543  26.166  1.00  0.00     0.064 A 
ATOM     61  C   UNL A   1      47.813  26.829  26.851  1.00  0.00     0.173 A 
ATOM     62  C   UNL A   1      46.946  27.667  24.773  1.00  0.00     0.173 A 
ATOM     63  F   UNL A   1      47.750  26.693  28.184  1.00  0.00    -0.203 F 
ATOM     64  C   UNL A   1      48.908  26.292  26.175  1.00  0.00     0.198 A 
ATOM     65  C   UNL A   1      48.023  27.099  24.096  1.00  0.00     0.198 A 
ATOM     66  F   UNL A   1      46.023  28.337  24.066  1.00  0.00    -0.203 F 
ATOM     67  F   UNL A   1      49.875  25.667  26.859  1.00  0.00    -0.200 F 
ATOM     68  C   UNL A   1      49.007  26.422  24.798  1.00  0.00     0.200 A 
ATOM     69  F   UNL A   1      48.109  27.214  22.764  1.00  0.00    -0.200 F 
ATOM     70  F   UNL A   1      50.057  25.902  24.149  1.00  0.00    -0.200 F 
ENDBRANCH  46  60
BRANCH  47  71
ATOM     71  C   UNL A   1      38.802  31.102  31.007  1.00  0.00     0.064 A 
ATOM     72  C   UNL A   1      37.808  31.822  30.328  1.00  0.00     0.173 A 
ATOM     73  C   UNL A   1      38.646  30.921  32.389  1.00  0.00     0.173 A 
ATOM     74  F   UNL A   1      37.921  32.039  29.009  1.00  0.00    -0.203 F 
ATOM     75  C   UNL A   1      36.717  32.357  31.008  1.00  0.00     0.198 A 
ATOM     76  C   UNL A   1      37.538  31.430  33.062  1.00  0.00     0.198 A 
ATOM     77  F   UNL A   1      39.567  30.238  33.085  1.00  0.00    -0.203 F 
ATOM     78  F   UNL A   1      35.808  33.083  30.343  1.00  0.00    -0.200 F 
ATOM     79  C   UNL A   1      36.579  32.156  32.373  1.00  0.00     0.200 A 
ATOM     80  F   UNL A   1      37.402  31.218  34.378  1.00  0.00    -0.200 F 
ATOM     81  F   UNL A   1      35.527  32.668  33.026  1.00  0.00    -0.200 F 
ENDBRANCH  47  71
BRANCH  59  82
ATOM     82  C   UNL A   1      44.969  33.817  29.225  1.00  0.00     0.064 A 
ATOM     83  C   UNL A   1      45.776  34.128  30.329  1.00  0.00     0.173 A 
ATOM     84  C   UNL A   1      44.747  34.825  28.273  1.00  0.00     0.173 A 
ATOM     85  F   UNL A   1      46.011  33.206  31.275  1.00  0.00    -0.203 F 
ATOM     86  C   UNL A   1      46.305  35.406  30.494  1.00  0.00     0.198 A 
ATOM     87  C   UNL A   1      45.309  36.090  28.420  1.00  0.00     0.198 A 
ATOM     88  F   UNL A   1      43.991  34.580  27.192  1.00  0.00    -0.203 F 
ATOM     89  F   UNL A   1      47.019  35.697  31.590  1.00  0.00    -0.200 F 
ATOM     90  C   UNL A   1      46.077  36.382  29.536  1.00  0.00     0.200 A 
ATOM     91  F   UNL A   1      45.102  37.026  27.484  1.00  0.00    -0.200 F 
ATOM     92  F   UNL A   1      46.590  37.611  29.694  1.00  0.00    -0.200 F 
ENDBRANCH  59  82
ENDBRANCH  33  34
ENDBRANCH  26  28
ENDBRANCH  25  26
ENDBRANCH  24  25
ENDBRANCH  23  24
ENDBRANCH  22  23
ENDBRANCH   1  22
TORSDOF 17
ENDMDL
