MODEL 1
REMARK VINA RESULT:      -8.3      0.000      0.000
REMARK SMILES CCN1C(=O)/C(=C/N[C@H](CCSC)C(=O)OCCOCCOC(=O)c2ccc(-c3c4nc(c(-c5c(F)c(F)c(F)c(F)c5F)c5ccc([nH]5)c(-c5c(F)c(F)c(F)c(F)c5F)c5nc(c(-c6c(F)c(F)c(F)c(F)c6F)c6ccc3[nH]6)C=C5)C=C4)cc2)C(=O)NC1=S
REMARK SMILES IDX 18 1 17 2 16 3 14 4 15 5 9 6 8 7 7 9 3 10 4 11 91 12 5 13
REMARK SMILES IDX 6 14 90 15 92 16 88 17 89 19 2 20 1 21 10 22 11 23 12 24
REMARK SMILES IDX 13 25 19 26 20 27 21 28 22 29 23 30 24 31 25 32 26 33 87 34
REMARK SMILES IDX 27 35 86 36 28 37 29 38 30 39 80 40 31 41 85 42 79 43 81 44
REMARK SMILES IDX 32 45 84 46 78 47 77 48 33 50 65 51 45 52 64 53 46 54 49 55
REMARK SMILES IDX 63 56 82 57 47 58 48 59 62 61 83 62 50 63 34 64 35 65 43 66
REMARK SMILES IDX 36 67 37 68 41 69 44 70 38 71 39 72 42 73 40 74 66 75 67 76
REMARK SMILES IDX 75 77 68 78 69 79 73 80 76 81 70 82 71 83 74 84 72 85 51 86
REMARK SMILES IDX 52 87 60 88 53 89 54 90 58 91 61 92 55 93 56 94 59 95 57 96
REMARK H PARENT 8 8 90 18 81 49 49 60
REMARK Flexibility Score: inf
ROOT
ATOM      1  C   UNL A   1      37.621  33.372  37.792  1.00  0.00     0.202 C 
ENDROOT
BRANCH   1   2
ATOM      2  C   UNL A   1      38.338  32.194  37.128  1.00  0.00     0.261 C 
BRANCH   2   3
ATOM      3  O   UNL A   1      37.576  31.631  36.045  1.00  0.00    -0.462 OA
BRANCH   3   4
ATOM      4  C   UNL A   1      38.289  30.866  35.174  1.00  0.00     0.328 C 
ATOM      5  O   UNL A   1      39.082  29.988  35.501  1.00  0.00    -0.250 OA
BRANCH   4   6
ATOM      6  C   UNL A   1      38.064  31.257  33.706  1.00  0.00     0.190 C 
BRANCH   6   7
ATOM      7  N   UNL A   1      36.649  31.587  33.485  1.00  0.00    -0.377 N 
ATOM      8  H   UNL A   1      36.008  30.848  33.382  1.00  0.00     0.160 HD
BRANCH   7   9
ATOM      9  C   UNL A   1      36.174  32.874  33.414  1.00  0.00     0.098 C 
ATOM     10  N   UNL A   1      34.105  35.309  31.794  1.00  0.00    -0.285 N 
ATOM     11  C   UNL A   1      35.111  34.879  32.671  1.00  0.00     0.267 C 
ATOM     12  C   UNL A   1      33.987  34.788  30.510  1.00  0.00     0.182 C 
ATOM     13  O   UNL A   1      35.467  35.515  33.664  1.00  0.00    -0.268 OA
ATOM     14  C   UNL A   1      35.715  33.571  32.365  1.00  0.00     0.121 C 
ATOM     15  N   UNL A   1      34.787  33.708  30.202  1.00  0.00    -0.298 N 
ATOM     16  S   UNL A   1      33.007  35.290  29.250  1.00  0.00    -0.040 S 
ATOM     17  C   UNL A   1      35.632  33.012  31.019  1.00  0.00     0.264 C 
ATOM     18  H   UNL A   1      34.743  33.398  29.268  1.00  0.00     0.172 HD
ATOM     19  O   UNL A   1      36.223  32.004  30.648  1.00  0.00    -0.269 OA
BRANCH  10  20
ATOM     20  C   UNL A   1      33.347  36.432  32.387  1.00  0.00     0.125 C 
ATOM     21  C   UNL A   1      33.655  37.879  32.054  1.00  0.00     0.028 C 
ENDBRANCH  10  20
ENDBRANCH   7   9
ENDBRANCH   6   7
BRANCH   6  22
ATOM     22  C   UNL A   1      38.571  30.256  32.664  1.00  0.00     0.048 C 
BRANCH  22  23
ATOM     23  C   UNL A   1      39.885  30.657  31.980  1.00  0.00     0.072 C 
BRANCH  23  24
ATOM     24  S   UNL A   1      39.664  31.641  30.449  1.00  0.00    -0.165 SA
ATOM     25  C   UNL A   1      39.499  33.321  31.120  1.00  0.00     0.085 C 
ENDBRANCH  23  24
ENDBRANCH  22  23
ENDBRANCH   6  22
ENDBRANCH   4   6
ENDBRANCH   3   4
ENDBRANCH   2   3
ENDBRANCH   1   2
BRANCH   1  26
ATOM     26  O   UNL A   1      37.873  33.577  39.180  1.00  0.00    -0.374 OA
BRANCH  26  27
ATOM     27  C   UNL A   1      39.224  33.787  39.591  1.00  0.00     0.202 C 
BRANCH  27  28
ATOM     28  C   UNL A   1      39.601  35.214  40.012  1.00  0.00     0.261 C 
BRANCH  28  29
ATOM     29  O   UNL A   1      39.472  36.163  38.935  1.00  0.00    -0.460 OA
BRANCH  29  30
ATOM     30  C   UNL A   1      40.630  36.774  38.580  1.00  0.00     0.338 C 
ATOM     31  O   UNL A   1      41.273  37.582  39.229  1.00  0.00    -0.246 OA
BRANCH  30  32
ATOM     32  C   UNL A   1      41.152  36.204  37.324  1.00  0.00     0.060 A 
ATOM     33  C   UNL A   1      40.217  35.778  36.372  1.00  0.00     0.016 A 
ATOM     34  C   UNL A   1      42.515  35.979  37.130  1.00  0.00     0.016 A 
ATOM     35  C   UNL A   1      40.640  35.084  35.239  1.00  0.00     0.010 A 
ATOM     36  C   UNL A   1      42.937  35.271  35.997  1.00  0.00     0.010 A 
ATOM     37  C   UNL A   1      41.999  34.790  35.065  1.00  0.00    -0.014 A 
BRANCH  37  38
ATOM     38  C   UNL A   1      42.408  33.860  33.984  1.00  0.00     0.031 A 
ATOM     39  C   UNL A   1      42.708  34.410  32.617  1.00  0.00     0.074 A 
ATOM     40  C   UNL A   1      42.554  32.546  34.226  1.00  0.00     0.049 A 
ATOM     41  N   UNL A   1      43.086  33.782  31.533  1.00  0.00    -0.248 NA
ATOM     42  C   UNL A   1      42.566  35.865  32.451  1.00  0.00     0.031 C 
ATOM     43  C   UNL A   1      42.329  31.895  35.515  1.00  0.00     0.029 A 
ATOM     44  N   UNL A   1      42.925  31.522  33.390  1.00  0.00    -0.354 N 
ATOM     45  C   UNL A   1      43.229  34.760  30.558  1.00  0.00     0.074 A 
ATOM     46  C   UNL A   1      42.870  36.023  31.171  1.00  0.00     0.031 C 
ATOM     47  C   UNL A   1      42.559  30.577  35.383  1.00  0.00     0.029 A 
ATOM     48  C   UNL A   1      42.922  30.290  33.996  1.00  0.00     0.049 A 
ATOM     49  H   UNL A   1      43.170  31.658  32.447  1.00  0.00     0.167 HD
ATOM     50  C   UNL A   1      43.630  34.622  29.273  1.00  0.00     0.037 A 
ATOM     51  C   UNL A   1      43.169  29.068  33.483  1.00  0.00     0.037 A 
ATOM     52  C   UNL A   1      43.990  33.370  28.661  1.00  0.00     0.049 A 
ATOM     53  C   UNL A   1      43.549  28.933  32.032  1.00  0.00     0.074 A 
ATOM     54  C   UNL A   1      44.435  33.135  27.371  1.00  0.00     0.029 A 
ATOM     55  N   UNL A   1      43.935  32.139  29.295  1.00  0.00    -0.354 N 
ATOM     56  N   UNL A   1      43.712  29.869  31.129  1.00  0.00    -0.248 NA
ATOM     57  C   UNL A   1      43.780  27.570  31.531  1.00  0.00     0.031 C 
ATOM     58  C   UNL A   1      44.609  31.756  27.213  1.00  0.00     0.029 A 
ATOM     59  C   UNL A   1      44.312  31.137  28.416  1.00  0.00     0.049 A 
ATOM     60  H   UNL A   1      43.668  31.998  30.233  1.00  0.00     0.167 HD
ATOM     61  C   UNL A   1      44.084  29.213  29.962  1.00  0.00     0.074 A 
ATOM     62  C   UNL A   1      44.136  27.801  30.274  1.00  0.00     0.031 C 
ATOM     63  C   UNL A   1      44.360  29.735  28.741  1.00  0.00     0.037 A 
BRANCH  50  64
ATOM     64  C   UNL A   1      43.685  35.860  28.430  1.00  0.00     0.064 A 
ATOM     65  C   UNL A   1      42.531  36.409  27.854  1.00  0.00     0.173 A 
ATOM     66  C   UNL A   1      44.903  36.528  28.229  1.00  0.00     0.173 A 
ATOM     67  F   UNL A   1      41.346  35.799  28.007  1.00  0.00    -0.203 F 
ATOM     68  C   UNL A   1      42.596  37.572  27.090  1.00  0.00     0.198 A 
ATOM     69  C   UNL A   1      44.960  37.703  27.484  1.00  0.00     0.198 A 
ATOM     70  F   UNL A   1      46.035  36.046  28.762  1.00  0.00    -0.203 F 
ATOM     71  F   UNL A   1      41.486  38.059  26.518  1.00  0.00    -0.200 F 
ATOM     72  C   UNL A   1      43.808  38.220  26.910  1.00  0.00     0.200 A 
ATOM     73  F   UNL A   1      46.131  38.332  27.318  1.00  0.00    -0.200 F 
ATOM     74  F   UNL A   1      43.869  39.342  26.180  1.00  0.00    -0.200 F 
ENDBRANCH  50  64
BRANCH  51  75
ATOM     75  C   UNL A   1      43.052  27.868  34.349  1.00  0.00     0.064 A 
ATOM     76  C   UNL A   1      44.160  27.368  35.047  1.00  0.00     0.173 A 
ATOM     77  C   UNL A   1      41.834  27.185  34.479  1.00  0.00     0.173 A 
ATOM     78  F   UNL A   1      45.352  27.970  34.930  1.00  0.00    -0.203 F 
ATOM     79  C   UNL A   1      44.055  26.223  35.835  1.00  0.00     0.198 A 
ATOM     80  C   UNL A   1      41.725  26.055  35.285  1.00  0.00     0.198 A 
ATOM     81  F   UNL A   1      40.748  27.621  33.824  1.00  0.00    -0.203 F 
ATOM     82  F   UNL A   1      45.138  25.741  36.460  1.00  0.00    -0.200 F 
ATOM     83  C   UNL A   1      42.836  25.571  35.958  1.00  0.00     0.200 A 
ATOM     84  F   UNL A   1      40.544  25.433  35.407  1.00  0.00    -0.200 F 
ATOM     85  F   UNL A   1      42.736  24.471  36.716  1.00  0.00    -0.200 F 
ENDBRANCH  51  75
BRANCH  63  86
ATOM     86  C   UNL A   1      44.761  28.780  27.657  1.00  0.00     0.064 A 
ATOM     87  C   UNL A   1      43.820  28.254  26.759  1.00  0.00     0.173 A 
ATOM     88  C   UNL A   1      46.107  28.420  27.487  1.00  0.00     0.173 A 
ATOM     89  F   UNL A   1      42.521  28.556  26.889  1.00  0.00    -0.203 F 
ATOM     90  C   UNL A   1      44.212  27.387  25.741  1.00  0.00     0.198 A 
ATOM     91  C   UNL A   1      46.496  27.572  26.454  1.00  0.00     0.198 A 
ATOM     92  F   UNL A   1      47.044  28.901  28.317  1.00  0.00    -0.203 F 
ATOM     93  F   UNL A   1      43.291  26.866  24.918  1.00  0.00    -0.200 F 
ATOM     94  C   UNL A   1      45.549  27.053  25.585  1.00  0.00     0.200 A 
ATOM     95  F   UNL A   1      47.790  27.259  26.298  1.00  0.00    -0.200 F 
ATOM     96  F   UNL A   1      45.923  26.223  24.601  1.00  0.00    -0.200 F 
ENDBRANCH  63  86
ENDBRANCH  37  38
ENDBRANCH  30  32
ENDBRANCH  29  30
ENDBRANCH  28  29
ENDBRANCH  27  28
ENDBRANCH  26  27
ENDBRANCH   1  26
TORSDOF 20
ENDMDL
MODEL 2
REMARK VINA RESULT:      -7.7      6.311     10.466
REMARK SMILES CCN1C(=O)/C(=C/N[C@H](CCSC)C(=O)OCCOCCOC(=O)c2ccc(-c3c4nc(c(-c5c(F)c(F)c(F)c(F)c5F)c5ccc([nH]5)c(-c5c(F)c(F)c(F)c(F)c5F)c5nc(c(-c6c(F)c(F)c(F)c(F)c6F)c6ccc3[nH]6)C=C5)C=C4)cc2)C(=O)NC1=S
REMARK SMILES IDX 18 1 17 2 16 3 14 4 15 5 9 6 8 7 7 9 3 10 4 11 91 12 5 13
REMARK SMILES IDX 6 14 90 15 92 16 88 17 89 19 2 20 1 21 10 22 11 23 12 24
REMARK SMILES IDX 13 25 19 26 20 27 21 28 22 29 23 30 24 31 25 32 26 33 87 34
REMARK SMILES IDX 27 35 86 36 28 37 29 38 30 39 80 40 31 41 85 42 79 43 81 44
REMARK SMILES IDX 32 45 84 46 78 47 77 48 33 50 65 51 45 52 64 53 46 54 49 55
REMARK SMILES IDX 63 56 82 57 47 58 48 59 62 61 83 62 50 63 34 64 35 65 43 66
REMARK SMILES IDX 36 67 37 68 41 69 44 70 38 71 39 72 42 73 40 74 66 75 67 76
REMARK SMILES IDX 75 77 68 78 69 79 73 80 76 81 70 82 71 83 74 84 72 85 51 86
REMARK SMILES IDX 52 87 60 88 53 89 54 90 58 91 61 92 55 93 56 94 59 95 57 96
REMARK H PARENT 8 8 90 18 81 49 49 60
REMARK Flexibility Score: inf
ROOT
ATOM      1  C   UNL A   1      35.120  32.297  28.007  1.00  0.00     0.202 C 
ENDROOT
BRANCH   1   2
ATOM      2  C   UNL A   1      33.652  31.865  28.005  1.00  0.00     0.261 C 
BRANCH   2   3
ATOM      3  O   UNL A   1      33.400  30.789  27.084  1.00  0.00    -0.462 OA
BRANCH   3   4
ATOM      4  C   UNL A   1      32.169  30.801  26.503  1.00  0.00     0.328 C 
ATOM      5  O   UNL A   1      31.405  31.762  26.502  1.00  0.00    -0.250 OA
BRANCH   4   6
ATOM      6  C   UNL A   1      31.777  29.446  25.896  1.00  0.00     0.190 C 
BRANCH   6   7
ATOM      7  N   UNL A   1      32.705  28.402  26.355  1.00  0.00    -0.377 N 
ATOM      8  H   UNL A   1      33.616  28.669  26.616  1.00  0.00     0.160 HD
BRANCH   7   9
ATOM      9  C   UNL A   1      32.369  27.073  26.439  1.00  0.00     0.098 C 
ATOM     10  N   UNL A   1      33.197  23.641  25.830  1.00  0.00    -0.285 N 
ATOM     11  C   UNL A   1      32.342  24.702  26.162  1.00  0.00     0.267 C 
ATOM     12  C   UNL A   1      34.105  23.739  24.781  1.00  0.00     0.182 C 
ATOM     13  O   UNL A   1      31.319  24.567  26.835  1.00  0.00    -0.268 OA
ATOM     14  C   UNL A   1      32.753  26.033  25.685  1.00  0.00     0.121 C 
ATOM     15  N   UNL A   1      34.251  24.980  24.199  1.00  0.00    -0.298 N 
ATOM     16  S   UNL A   1      35.061  22.549  24.096  1.00  0.00    -0.040 S 
ATOM     17  C   UNL A   1      33.683  26.166  24.568  1.00  0.00     0.264 C 
ATOM     18  H   UNL A   1      34.843  25.016  23.413  1.00  0.00     0.172 HD
ATOM     19  O   UNL A   1      33.966  27.228  24.024  1.00  0.00    -0.269 OA
BRANCH  10  20
ATOM     20  C   UNL A   1      32.878  22.446  26.641  1.00  0.00     0.125 C 
ATOM     21  C   UNL A   1      33.503  22.203  28.001  1.00  0.00     0.028 C 
ENDBRANCH  10  20
ENDBRANCH   7   9
ENDBRANCH   6   7
BRANCH   6  22
ATOM     22  C   UNL A   1      31.617  29.419  24.374  1.00  0.00     0.048 C 
BRANCH  22  23
ATOM     23  C   UNL A   1      30.193  29.703  23.876  1.00  0.00     0.072 C 
BRANCH  23  24
ATOM     24  S   UNL A   1      29.369  28.265  23.094  1.00  0.00    -0.165 SA
ATOM     25  C   UNL A   1      30.795  27.323  22.477  1.00  0.00     0.085 C 
ENDBRANCH  23  24
ENDBRANCH  22  23
ENDBRANCH   6  22
ENDBRANCH   4   6
ENDBRANCH   3   4
ENDBRANCH   2   3
ENDBRANCH   1   2
BRANCH   1  26
ATOM     26  O   UNL A   1      35.630  32.833  29.225  1.00  0.00    -0.374 OA
BRANCH  26  27
ATOM     27  C   UNL A   1      35.103  32.326  30.452  1.00  0.00     0.202 C 
BRANCH  27  28
ATOM     28  C   UNL A   1      34.431  33.344  31.384  1.00  0.00     0.261 C 
BRANCH  28  29
ATOM     29  O   UNL A   1      35.076  34.632  31.357  1.00  0.00    -0.460 OA
BRANCH  29  30
ATOM     30  C   UNL A   1      35.343  35.154  32.580  1.00  0.00     0.338 C 
ATOM     31  O   UNL A   1      34.687  35.977  33.196  1.00  0.00    -0.246 OA
BRANCH  30  32
ATOM     32  C   UNL A   1      36.491  34.463  33.197  1.00  0.00     0.060 A 
ATOM     33  C   UNL A   1      36.278  33.831  34.428  1.00  0.00     0.016 A 
ATOM     34  C   UNL A   1      37.772  34.533  32.647  1.00  0.00     0.016 A 
ATOM     35  C   UNL A   1      37.355  33.303  35.138  1.00  0.00     0.010 A 
ATOM     36  C   UNL A   1      38.855  34.013  33.368  1.00  0.00     0.010 A 
ATOM     37  C   UNL A   1      38.656  33.427  34.632  1.00  0.00    -0.014 A 
BRANCH  37  38
ATOM     38  C   UNL A   1      39.808  33.071  35.496  1.00  0.00     0.031 A 
ATOM     39  C   UNL A   1      40.315  34.076  36.493  1.00  0.00     0.074 A 
ATOM     40  C   UNL A   1      40.368  31.852  35.427  1.00  0.00     0.049 A 
ATOM     41  N   UNL A   1      41.300  33.973  37.349  1.00  0.00    -0.248 NA
ATOM     42  C   UNL A   1      39.616  35.370  36.533  1.00  0.00     0.031 C 
ATOM     43  C   UNL A   1      39.946  30.778  34.530  1.00  0.00     0.029 A 
ATOM     44  N   UNL A   1      41.419  31.313  36.128  1.00  0.00    -0.354 N 
ATOM     45  C   UNL A   1      41.339  35.183  38.029  1.00  0.00     0.074 A 
ATOM     46  C   UNL A   1      40.296  36.017  37.468  1.00  0.00     0.031 C 
ATOM     47  C   UNL A   1      40.737  29.710  34.728  1.00  0.00     0.029 A 
ATOM     48  C   UNL A   1      41.736  30.033  35.746  1.00  0.00     0.049 A 
ATOM     49  H   UNL A   1      41.901  31.799  36.835  1.00  0.00     0.167 HD
ATOM     50  C   UNL A   1      42.162  35.563  39.034  1.00  0.00     0.037 A 
ATOM     51  C   UNL A   1      42.728  29.222  36.162  1.00  0.00     0.037 A 
ATOM     52  C   UNL A   1      43.199  34.737  39.596  1.00  0.00     0.049 A 
ATOM     53  C   UNL A   1      43.673  29.693  37.235  1.00  0.00     0.074 A 
ATOM     54  C   UNL A   1      44.065  35.026  40.636  1.00  0.00     0.029 A 
ATOM     55  N   UNL A   1      43.514  33.461  39.156  1.00  0.00    -0.354 N 
ATOM     56  N   UNL A   1      43.681  30.826  37.893  1.00  0.00    -0.248 NA
ATOM     57  C   UNL A   1      44.749  28.768  37.624  1.00  0.00     0.031 C 
ATOM     58  C   UNL A   1      44.933  33.941  40.796  1.00  0.00     0.029 A 
ATOM     59  C   UNL A   1      44.581  32.960  39.884  1.00  0.00     0.049 A 
ATOM     60  H   UNL A   1      43.048  32.982  38.432  1.00  0.00     0.167 HD
ATOM     61  C   UNL A   1      44.742  30.744  38.785  1.00  0.00     0.074 A 
ATOM     62  C   UNL A   1      45.349  29.444  38.594  1.00  0.00     0.031 C 
ATOM     63  C   UNL A   1      45.174  31.663  39.683  1.00  0.00     0.037 A 
BRANCH  50  64
ATOM     64  C   UNL A   1      41.988  36.946  39.584  1.00  0.00     0.064 A 
ATOM     65  C   UNL A   1      41.082  37.216  40.619  1.00  0.00     0.173 A 
ATOM     66  C   UNL A   1      42.766  38.007  39.096  1.00  0.00     0.173 A 
ATOM     67  F   UNL A   1      40.307  36.238  41.111  1.00  0.00    -0.203 F 
ATOM     68  C   UNL A   1      40.946  38.504  41.133  1.00  0.00     0.198 A 
ATOM     69  C   UNL A   1      42.643  39.288  39.628  1.00  0.00     0.198 A 
ATOM     70  F   UNL A   1      43.649  37.799  38.109  1.00  0.00    -0.203 F 
ATOM     71  F   UNL A   1      40.047  38.748  42.098  1.00  0.00    -0.200 F 
ATOM     72  C   UNL A   1      41.729  39.537  40.641  1.00  0.00     0.200 A 
ATOM     73  F   UNL A   1      43.407  40.283  39.156  1.00  0.00    -0.200 F 
ATOM     74  F   UNL A   1      41.602  40.774  41.140  1.00  0.00    -0.200 F 
ENDBRANCH  50  64
BRANCH  51  75
ATOM     75  C   UNL A   1      42.889  27.879  35.549  1.00  0.00     0.064 A 
ATOM     76  C   UNL A   1      42.137  26.784  35.998  1.00  0.00     0.173 A 
ATOM     77  C   UNL A   1      43.811  27.660  34.515  1.00  0.00     0.173 A 
ATOM     78  F   UNL A   1      41.264  26.938  37.003  1.00  0.00    -0.203 F 
ATOM     79  C   UNL A   1      42.311  25.518  35.442  1.00  0.00     0.198 A 
ATOM     80  C   UNL A   1      43.967  26.399  33.945  1.00  0.00     0.198 A 
ATOM     81  F   UNL A   1      44.558  28.675  34.057  1.00  0.00    -0.203 F 
ATOM     82  F   UNL A   1      41.610  24.479  35.916  1.00  0.00    -0.200 F 
ATOM     83  C   UNL A   1      43.221  25.328  34.412  1.00  0.00     0.200 A 
ATOM     84  F   UNL A   1      44.842  26.222  32.945  1.00  0.00    -0.200 F 
ATOM     85  F   UNL A   1      43.387  24.111  33.878  1.00  0.00    -0.200 F 
ENDBRANCH  51  75
BRANCH  63  86
ATOM     86  C   UNL A   1      46.346  31.291  40.542  1.00  0.00     0.064 A 
ATOM     87  C   UNL A   1      46.177  30.610  41.757  1.00  0.00     0.173 A 
ATOM     88  C   UNL A   1      47.654  31.579  40.126  1.00  0.00     0.173 A 
ATOM     89  F   UNL A   1      44.945  30.325  42.205  1.00  0.00    -0.203 F 
ATOM     90  C   UNL A   1      47.275  30.248  42.532  1.00  0.00     0.198 A 
ATOM     91  C   UNL A   1      48.751  31.195  40.892  1.00  0.00     0.198 A 
ATOM     92  F   UNL A   1      47.868  32.225  38.969  1.00  0.00    -0.203 F 
ATOM     93  F   UNL A   1      47.089  29.632  43.708  1.00  0.00    -0.200 F 
ATOM     94  C   UNL A   1      48.561  30.534  42.096  1.00  0.00     0.200 A 
ATOM     95  F   UNL A   1      49.992  31.463  40.464  1.00  0.00    -0.200 F 
ATOM     96  F   UNL A   1      49.617  30.180  42.841  1.00  0.00    -0.200 F 
ENDBRANCH  63  86
ENDBRANCH  37  38
ENDBRANCH  30  32
ENDBRANCH  29  30
ENDBRANCH  28  29
ENDBRANCH  27  28
ENDBRANCH  26  27
ENDBRANCH   1  26
TORSDOF 20
ENDMDL
MODEL 3
REMARK VINA RESULT:      -7.6      0.835      7.371
REMARK SMILES CCN1C(=O)/C(=C/N[C@H](CCSC)C(=O)OCCOCCOC(=O)c2ccc(-c3c4nc(c(-c5c(F)c(F)c(F)c(F)c5F)c5ccc([nH]5)c(-c5c(F)c(F)c(F)c(F)c5F)c5nc(c(-c6c(F)c(F)c(F)c(F)c6F)c6ccc3[nH]6)C=C5)C=C4)cc2)C(=O)NC1=S
REMARK SMILES IDX 18 1 17 2 16 3 14 4 15 5 9 6 8 7 7 9 3 10 4 11 91 12 5 13
REMARK SMILES IDX 6 14 90 15 92 16 88 17 89 19 2 20 1 21 10 22 11 23 12 24
REMARK SMILES IDX 13 25 19 26 20 27 21 28 22 29 23 30 24 31 25 32 26 33 87 34
REMARK SMILES IDX 27 35 86 36 28 37 29 38 30 39 80 40 31 41 85 42 79 43 81 44
REMARK SMILES IDX 32 45 84 46 78 47 77 48 33 50 65 51 45 52 64 53 46 54 49 55
REMARK SMILES IDX 63 56 82 57 47 58 48 59 62 61 83 62 50 63 34 64 35 65 43 66
REMARK SMILES IDX 36 67 37 68 41 69 44 70 38 71 39 72 42 73 40 74 66 75 67 76
REMARK SMILES IDX 75 77 68 78 69 79 73 80 76 81 70 82 71 83 74 84 72 85 51 86
REMARK SMILES IDX 52 87 60 88 53 89 54 90 58 91 61 92 55 93 56 94 59 95 57 96
REMARK H PARENT 8 8 90 18 81 49 49 60
REMARK Flexibility Score: inf
ROOT
ATOM      1  C   UNL A   1      38.296  33.597  38.383  1.00  0.00     0.202 C 
ENDROOT
BRANCH   1   2
ATOM      2  C   UNL A   1      37.630  32.241  38.142  1.00  0.00     0.261 C 
BRANCH   2   3
ATOM      3  O   UNL A   1      37.351  32.008  36.750  1.00  0.00    -0.462 OA
BRANCH   3   4
ATOM      4  C   UNL A   1      38.337  31.372  36.061  1.00  0.00     0.328 C 
ATOM      5  O   UNL A   1      39.273  30.768  36.575  1.00  0.00    -0.250 OA
BRANCH   4   6
ATOM      6  C   UNL A   1      38.214  31.544  34.539  1.00  0.00     0.190 C 
BRANCH   6   7
ATOM      7  N   UNL A   1      37.192  32.553  34.228  1.00  0.00    -0.377 N 
ATOM      8  H   UNL A   1      37.084  33.313  34.845  1.00  0.00     0.160 HD
BRANCH   7   9
ATOM      9  C   UNL A   1      36.379  32.493  33.123  1.00  0.00     0.098 C 
ATOM     10  N   UNL A   1      34.222  34.149  30.790  1.00  0.00    -0.285 N 
ATOM     11  C   UNL A   1      34.798  33.035  31.418  1.00  0.00     0.267 C 
ATOM     12  C   UNL A   1      33.793  35.254  31.520  1.00  0.00     0.182 C 
ATOM     13  O   UNL A   1      34.888  31.926  30.888  1.00  0.00    -0.268 OA
ATOM     14  C   UNL A   1      35.344  33.266  32.766  1.00  0.00     0.121 C 
ATOM     15  N   UNL A   1      34.120  35.279  32.858  1.00  0.00    -0.298 N 
ATOM     16  S   UNL A   1      32.911  36.580  31.008  1.00  0.00    -0.040 S 
ATOM     17  C   UNL A   1      34.891  34.401  33.565  1.00  0.00     0.264 C 
ATOM     18  H   UNL A   1      33.747  36.031  33.374  1.00  0.00     0.172 HD
ATOM     19  O   UNL A   1      35.188  34.584  34.740  1.00  0.00    -0.269 OA
BRANCH  10  20
ATOM     20  C   UNL A   1      34.037  33.892  29.346  1.00  0.00     0.125 C 
ATOM     21  C   UNL A   1      35.024  34.381  28.305  1.00  0.00     0.028 C 
ENDBRANCH  10  20
ENDBRANCH   7   9
ENDBRANCH   6   7
BRANCH   6  22
ATOM     22  C   UNL A   1      37.988  30.258  33.739  1.00  0.00     0.048 C 
BRANCH  22  23
ATOM     23  C   UNL A   1      39.127  29.898  32.775  1.00  0.00     0.072 C 
BRANCH  23  24
ATOM     24  S   UNL A   1      39.789  31.321  31.829  1.00  0.00    -0.165 SA
ATOM     25  C   UNL A   1      38.687  31.339  30.384  1.00  0.00     0.085 C 
ENDBRANCH  23  24
ENDBRANCH  22  23
ENDBRANCH   6  22
ENDBRANCH   4   6
ENDBRANCH   3   4
ENDBRANCH   2   3
ENDBRANCH   1   2
BRANCH   1  26
ATOM     26  O   UNL A   1      39.501  33.595  39.144  1.00  0.00    -0.374 OA
BRANCH  26  27
ATOM     27  C   UNL A   1      39.503  34.280  40.397  1.00  0.00     0.202 C 
BRANCH  27  28
ATOM     28  C   UNL A   1      39.315  35.802  40.348  1.00  0.00     0.261 C 
BRANCH  28  29
ATOM     29  O   UNL A   1      39.757  36.376  39.102  1.00  0.00    -0.460 OA
BRANCH  29  30
ATOM     30  C   UNL A   1      41.096  36.573  39.016  1.00  0.00     0.338 C 
ATOM     31  O   UNL A   1      41.848  36.967  39.891  1.00  0.00    -0.246 OA
BRANCH  30  32
ATOM     32  C   UNL A   1      41.609  36.075  37.726  1.00  0.00     0.060 A 
ATOM     33  C   UNL A   1      40.681  35.870  36.697  1.00  0.00     0.016 A 
ATOM     34  C   UNL A   1      42.944  35.701  37.561  1.00  0.00     0.016 A 
ATOM     35  C   UNL A   1      41.075  35.249  35.513  1.00  0.00     0.010 A 
ATOM     36  C   UNL A   1      43.336  35.067  36.375  1.00  0.00     0.010 A 
ATOM     37  C   UNL A   1      42.396  34.806  35.361  1.00  0.00    -0.014 A 
BRANCH  37  38
ATOM     38  C   UNL A   1      42.745  33.949  34.201  1.00  0.00     0.031 A 
ATOM     39  C   UNL A   1      42.776  32.456  34.376  1.00  0.00     0.074 A 
ATOM     40  C   UNL A   1      42.987  34.489  32.994  1.00  0.00     0.049 A 
ATOM     41  N   UNL A   1      43.047  31.522  33.501  1.00  0.00    -0.248 NA
ATOM     42  C   UNL A   1      42.455  31.947  35.719  1.00  0.00     0.031 C 
ATOM     43  C   UNL A   1      42.951  35.917  32.686  1.00  0.00     0.029 A 
ATOM     44  N   UNL A   1      43.313  33.893  31.801  1.00  0.00    -0.354 N 
ATOM     45  C   UNL A   1      42.930  30.318  34.182  1.00  0.00     0.074 A 
ATOM     46  C   UNL A   1      42.588  30.639  35.552  1.00  0.00     0.031 C 
ATOM     47  C   UNL A   1      43.254  36.089  31.388  1.00  0.00     0.029 A 
ATOM     48  C   UNL A   1      43.528  34.787  30.782  1.00  0.00     0.049 A 
ATOM     49  H   UNL A   1      43.386  32.918  31.688  1.00  0.00     0.167 HD
ATOM     50  C   UNL A   1      43.083  29.059  33.708  1.00  0.00     0.037 A 
ATOM     51  C   UNL A   1      43.917  34.577  29.509  1.00  0.00     0.037 A 
ATOM     52  C   UNL A   1      43.419  28.735  32.348  1.00  0.00     0.049 A 
ATOM     53  C   UNL A   1      44.145  33.169  29.023  1.00  0.00     0.074 A 
ATOM     54  C   UNL A   1      43.569  27.487  31.768  1.00  0.00     0.029 A 
ATOM     55  N   UNL A   1      43.668  29.669  31.354  1.00  0.00    -0.354 N 
ATOM     56  N   UNL A   1      44.000  32.038  29.668  1.00  0.00    -0.248 NA
ATOM     57  C   UNL A   1      44.593  33.013  27.631  1.00  0.00     0.031 C 
ATOM     58  C   UNL A   1      43.950  27.666  30.434  1.00  0.00     0.029 A 
ATOM     59  C   UNL A   1      43.998  29.026  30.172  1.00  0.00     0.049 A 
ATOM     60  H   UNL A   1      43.618  30.646  31.471  1.00  0.00     0.167 HD
ATOM     61  C   UNL A   1      44.315  31.036  28.758  1.00  0.00     0.074 A 
ATOM     62  C   UNL A   1      44.648  31.693  27.512  1.00  0.00     0.031 C 
ATOM     63  C   UNL A   1      44.326  29.693  28.939  1.00  0.00     0.037 A 
BRANCH  50  64
ATOM     64  C   UNL A   1      42.904  27.930  34.678  1.00  0.00     0.064 A 
ATOM     65  C   UNL A   1      43.861  27.651  35.665  1.00  0.00     0.173 A 
ATOM     66  C   UNL A   1      41.743  27.143  34.645  1.00  0.00     0.173 A 
ATOM     67  F   UNL A   1      44.993  28.368  35.729  1.00  0.00    -0.203 F 
ATOM     68  C   UNL A   1      43.670  26.611  36.572  1.00  0.00     0.198 A 
ATOM     69  C   UNL A   1      41.546  26.119  35.567  1.00  0.00     0.198 A 
ATOM     70  F   UNL A   1      40.797  27.372  33.723  1.00  0.00    -0.203 F 
ATOM     71  F   UNL A   1      44.614  26.338  37.484  1.00  0.00    -0.200 F 
ATOM     72  C   UNL A   1      42.512  25.850  36.526  1.00  0.00     0.200 A 
ATOM     73  F   UNL A   1      40.423  25.389  35.527  1.00  0.00    -0.200 F 
ATOM     74  F   UNL A   1      42.328  24.853  37.403  1.00  0.00    -0.200 F 
ENDBRANCH  50  64
BRANCH  51  75
ATOM     75  C   UNL A   1      44.127  35.733  28.601  1.00  0.00     0.064 A 
ATOM     76  C   UNL A   1      45.410  36.252  28.375  1.00  0.00     0.173 A 
ATOM     77  C   UNL A   1      43.047  36.354  27.957  1.00  0.00     0.173 A 
ATOM     78  F   UNL A   1      46.469  35.710  28.992  1.00  0.00    -0.203 F 
ATOM     79  C   UNL A   1      45.602  37.356  27.548  1.00  0.00     0.198 A 
ATOM     80  C   UNL A   1      43.243  37.443  27.111  1.00  0.00     0.198 A 
ATOM     81  F   UNL A   1      41.801  35.898  28.148  1.00  0.00    -0.203 F 
ATOM     82  F   UNL A   1      46.832  37.859  27.380  1.00  0.00    -0.200 F 
ATOM     83  C   UNL A   1      44.519  37.947  26.911  1.00  0.00     0.200 A 
ATOM     84  F   UNL A   1      42.195  38.006  26.494  1.00  0.00    -0.200 F 
ATOM     85  F   UNL A   1      44.704  39.008  26.115  1.00  0.00    -0.200 F 
ENDBRANCH  51  75
BRANCH  63  86
ATOM     86  C   UNL A   1      44.690  28.841  27.760  1.00  0.00     0.064 A 
ATOM     87  C   UNL A   1      45.997  28.361  27.578  1.00  0.00     0.173 A 
ATOM     88  C   UNL A   1      43.715  28.464  26.825  1.00  0.00     0.173 A 
ATOM     89  F   UNL A   1      46.967  28.706  28.436  1.00  0.00    -0.203 F 
ATOM     90  C   UNL A   1      46.315  27.550  26.492  1.00  0.00     0.198 A 
ATOM     91  C   UNL A   1      44.032  27.634  25.753  1.00  0.00     0.198 A 
ATOM     92  F   UNL A   1      42.451  28.893  26.957  1.00  0.00    -0.203 F 
ATOM     93  F   UNL A   1      47.577  27.135  26.316  1.00  0.00    -0.200 F 
ATOM     94  C   UNL A   1      45.332  27.182  25.585  1.00  0.00     0.200 A 
ATOM     95  F   UNL A   1      43.079  27.270  24.885  1.00  0.00    -0.200 F 
ATOM     96  F   UNL A   1      45.640  26.396  24.543  1.00  0.00    -0.200 F 
ENDBRANCH  63  86
ENDBRANCH  37  38
ENDBRANCH  30  32
ENDBRANCH  29  30
ENDBRANCH  28  29
ENDBRANCH  27  28
ENDBRANCH  26  27
ENDBRANCH   1  26
TORSDOF 20
ENDMDL
