MODEL 1
REMARK VINA RESULT:     -12.8      0.000      0.000
REMARK SMILES Cc1ccc(-c2c(C(=O)OCCOCCOC(=O)c3ccc(-c4c5nc(c(-c6c(F)c(F)c(F)c(F)c6F)c6ccc([nH]6)c(-c6c(F)c(F)c(F)c(F)c6F)c6nc(c(-c7c(F)c(F)c(F)c(F)c7F)c7ccc4[nH]7)C=C6)C=C5)cc3)nnn2Cc2c(F)cccc2Cl)cc1
REMARK SMILES IDX 13 1 12 2 11 3 10 4 8 5 9 6 7 7 6 8 84 9 82 10 83 11 5 12
REMARK SMILES IDX 1 13 2 14 3 15 95 16 4 17 94 18 85 19 86 20 87 21 92 22
REMARK SMILES IDX 88 23 89 24 91 25 93 26 90 27 14 28 15 29 16 30 17 31 18 32
REMARK SMILES IDX 19 33 20 34 81 35 21 36 80 37 22 38 23 39 24 40 74 41 25 42
REMARK SMILES IDX 79 43 73 44 75 45 26 46 78 47 72 48 71 49 27 51 59 52 39 53
REMARK SMILES IDX 58 54 40 55 43 56 57 57 76 58 41 59 42 60 56 62 77 63 44 64
REMARK SMILES IDX 28 65 29 66 37 67 30 68 31 69 35 70 38 71 32 72 33 73 36 74
REMARK SMILES IDX 34 75 60 76 61 77 69 78 62 79 63 80 67 81 70 82 64 83 65 84
REMARK SMILES IDX 68 85 66 86 45 87 46 88 54 89 47 90 48 91 52 92 55 93 49 94
REMARK SMILES IDX 50 95 53 96 51 97
REMARK H PARENT 75 50 43 61
REMARK Flexibility Score: inf
ROOT
ATOM      1  O   UNL A   1      31.669  30.105  25.479  1.00  0.00    -0.374 OA
ENDROOT
BRANCH   1   2
ATOM      2  C   UNL A   1      31.566  28.877  24.774  1.00  0.00     0.202 C 
BRANCH   2   3
ATOM      3  C   UNL A   1      32.619  28.953  23.713  1.00  0.00     0.261 C 
BRANCH   3   4
ATOM      4  O   UNL A   1      33.478  27.818  23.757  1.00  0.00    -0.458 OA
BRANCH   4   5
ATOM      5  C   UNL A   1      33.446  26.982  22.672  1.00  0.00     0.361 C 
ATOM      6  O   UNL A   1      34.028  27.183  21.626  1.00  0.00    -0.244 OA
BRANCH   5   7
ATOM      7  C   UNL A   1      32.608  25.837  22.956  1.00  0.00     0.198 A 
ATOM      8  C   UNL A   1      32.979  24.638  23.560  1.00  0.00     0.104 A 
ATOM      9  N   UNL A   1      31.749  24.086  23.835  1.00  0.00    -0.239 N 
ATOM     10  N   UNL A   1      31.272  25.806  22.645  1.00  0.00    -0.122 NA
ATOM     11  N   UNL A   1      30.771  24.682  23.128  1.00  0.00    -0.066 NA
BRANCH   8  12
ATOM     12  C   UNL A   1      34.259  24.164  24.088  1.00  0.00     0.002 A 
ATOM     13  C   UNL A   1      38.060  22.857  25.675  1.00  0.00     0.044 C 
ATOM     14  C   UNL A   1      36.723  23.268  25.129  1.00  0.00    -0.051 A 
ATOM     15  C   UNL A   1      35.903  24.120  25.873  1.00  0.00     0.004 A 
ATOM     16  C   UNL A   1      36.312  22.888  23.847  1.00  0.00     0.004 A 
ATOM     17  C   UNL A   1      34.704  24.592  25.343  1.00  0.00     0.011 A 
ATOM     18  C   UNL A   1      35.080  23.318  23.335  1.00  0.00     0.011 A 
ENDBRANCH   8  12
BRANCH   9  19
ATOM     19  C   UNL A   1      31.385  23.107  24.847  1.00  0.00     0.187 C 
BRANCH  19  20
ATOM     20  C   UNL A   1      32.260  21.874  24.892  1.00  0.00     0.028 A 
ATOM     21  C   UNL A   1      32.236  21.059  23.753  1.00  0.00     0.129 A 
ATOM     22  C   UNL A   1      33.075  21.447  25.958  1.00  0.00     0.049 A 
ATOM     23  F   UNL A   1      31.394  21.355  22.752  1.00  0.00    -0.207 F 
ATOM     24  C   UNL A   1      33.050  19.939  23.618  1.00  0.00     0.040 A 
ATOM     25  C   UNL A   1      33.947  20.360  25.801  1.00  0.00     0.021 A 
ATOM     26  Cl  UNL A   1      33.081  22.180  27.522  1.00  0.00    -0.084 Cl
ATOM     27  C   UNL A   1      33.942  19.610  24.629  1.00  0.00     0.005 A 
ENDBRANCH  19  20
ENDBRANCH   9  19
ENDBRANCH   5   7
ENDBRANCH   4   5
ENDBRANCH   3   4
ENDBRANCH   2   3
ENDBRANCH   1   2
BRANCH   1  28
ATOM     28  C   UNL A   1      32.116  30.021  26.817  1.00  0.00     0.202 C 
BRANCH  28  29
ATOM     29  C   UNL A   1      33.643  30.108  26.953  1.00  0.00     0.261 C 
BRANCH  29  30
ATOM     30  O   UNL A   1      33.992  31.005  28.030  1.00  0.00    -0.460 OA
BRANCH  30  31
ATOM     31  C   UNL A   1      35.278  31.454  28.056  1.00  0.00     0.338 C 
ATOM     32  O   UNL A   1      35.642  32.576  27.744  1.00  0.00    -0.246 OA
BRANCH  31  33
ATOM     33  C   UNL A   1      36.208  30.300  28.237  1.00  0.00     0.060 A 
ATOM     34  C   UNL A   1      36.344  29.681  29.494  1.00  0.00     0.016 A 
ATOM     35  C   UNL A   1      37.163  30.078  27.249  1.00  0.00     0.016 A 
ATOM     36  C   UNL A   1      37.512  28.970  29.803  1.00  0.00     0.010 A 
ATOM     37  C   UNL A   1      38.367  29.520  27.612  1.00  0.00     0.010 A 
ATOM     38  C   UNL A   1      38.561  28.979  28.891  1.00  0.00    -0.014 A 
BRANCH  38  39
ATOM     39  C   UNL A   1      39.923  28.506  29.135  1.00  0.00     0.031 A 
ATOM     40  C   UNL A   1      40.234  27.131  28.688  1.00  0.00     0.074 A 
ATOM     41  C   UNL A   1      40.916  29.355  29.506  1.00  0.00     0.049 A 
ATOM     42  N   UNL A   1      41.263  26.466  29.074  1.00  0.00    -0.248 NA
ATOM     43  C   UNL A   1      39.383  26.362  27.778  1.00  0.00     0.031 C 
ATOM     44  C   UNL A   1      42.363  29.188  29.363  1.00  0.00     0.029 A 
ATOM     45  N   UNL A   1      40.825  30.607  30.143  1.00  0.00    -0.354 N 
ATOM     46  C   UNL A   1      41.394  25.384  28.233  1.00  0.00     0.074 A 
ATOM     47  C   UNL A   1      40.151  25.305  27.513  1.00  0.00     0.031 C 
ATOM     48  C   UNL A   1      42.996  30.073  30.159  1.00  0.00     0.029 A 
ATOM     49  C   UNL A   1      41.971  30.754  30.935  1.00  0.00     0.049 A 
ATOM     50  H   UNL A   1      40.093  31.257  30.049  1.00  0.00     0.167 HD
ATOM     51  C   UNL A   1      42.611  24.783  28.133  1.00  0.00     0.037 A 
ATOM     52  C   UNL A   1      41.882  30.870  32.287  1.00  0.00     0.037 A 
ATOM     53  C   UNL A   1      43.585  25.478  28.983  1.00  0.00     0.049 A 
ATOM     54  C   UNL A   1      42.653  29.739  32.876  1.00  0.00     0.074 A 
ATOM     55  C   UNL A   1      44.583  26.399  28.705  1.00  0.00     0.029 A 
ATOM     56  N   UNL A   1      43.353  25.567  30.356  1.00  0.00    -0.354 N 
ATOM     57  N   UNL A   1      42.699  28.557  32.321  1.00  0.00    -0.248 NA
ATOM     58  C   UNL A   1      43.585  29.906  33.983  1.00  0.00     0.031 C 
ATOM     59  C   UNL A   1      44.946  27.039  29.922  1.00  0.00     0.029 A 
ATOM     60  C   UNL A   1      44.170  26.511  30.944  1.00  0.00     0.049 A 
ATOM     61  H   UNL A   1      42.690  25.024  30.843  1.00  0.00     0.167 HD
ATOM     62  C   UNL A   1      43.736  27.869  32.878  1.00  0.00     0.074 A 
ATOM     63  C   UNL A   1      44.228  28.727  33.943  1.00  0.00     0.031 C 
ATOM     64  C   UNL A   1      44.195  26.685  32.389  1.00  0.00     0.037 A 
BRANCH  51  65
ATOM     65  C   UNL A   1      42.973  23.773  27.065  1.00  0.00     0.064 A 
ATOM     66  C   UNL A   1      42.624  22.413  27.206  1.00  0.00     0.173 A 
ATOM     67  C   UNL A   1      43.670  24.075  25.877  1.00  0.00     0.173 A 
ATOM     68  F   UNL A   1      41.878  21.984  28.231  1.00  0.00    -0.203 F 
ATOM     69  C   UNL A   1      43.016  21.434  26.287  1.00  0.00     0.198 A 
ATOM     70  C   UNL A   1      44.113  23.089  24.987  1.00  0.00     0.198 A 
ATOM     71  F   UNL A   1      43.887  25.341  25.496  1.00  0.00    -0.203 F 
ATOM     72  F   UNL A   1      42.637  20.161  26.472  1.00  0.00    -0.200 F 
ATOM     73  C   UNL A   1      43.786  21.766  25.193  1.00  0.00     0.200 A 
ATOM     74  F   UNL A   1      44.843  23.437  23.918  1.00  0.00    -0.200 F 
ATOM     75  F   UNL A   1      44.178  20.825  24.325  1.00  0.00    -0.200 F 
ENDBRANCH  51  65
BRANCH  52  76
ATOM     76  C   UNL A   1      40.596  31.480  32.740  1.00  0.00     0.064 A 
ATOM     77  C   UNL A   1      40.463  32.871  32.564  1.00  0.00     0.173 A 
ATOM     78  C   UNL A   1      39.410  30.746  32.850  1.00  0.00     0.173 A 
ATOM     79  F   UNL A   1      41.562  33.633  32.546  1.00  0.00    -0.203 F 
ATOM     80  C   UNL A   1      39.233  33.469  32.293  1.00  0.00     0.198 A 
ATOM     81  C   UNL A   1      38.167  31.355  32.621  1.00  0.00     0.198 A 
ATOM     82  F   UNL A   1      39.449  29.423  33.048  1.00  0.00    -0.203 F 
ATOM     83  F   UNL A   1      39.176  34.759  31.928  1.00  0.00    -0.200 F 
ATOM     84  C   UNL A   1      38.088  32.696  32.276  1.00  0.00     0.200 A 
ATOM     85  F   UNL A   1      37.048  30.615  32.627  1.00  0.00    -0.200 F 
ATOM     86  F   UNL A   1      36.925  33.227  31.870  1.00  0.00    -0.200 F 
ENDBRANCH  52  76
BRANCH  64  87
ATOM     87  C   UNL A   1      44.760  25.596  33.261  1.00  0.00     0.064 A 
ATOM     88  C   UNL A   1      46.124  25.258  33.290  1.00  0.00     0.173 A 
ATOM     89  C   UNL A   1      43.965  24.998  34.267  1.00  0.00     0.173 A 
ATOM     90  F   UNL A   1      47.018  25.833  32.474  1.00  0.00    -0.203 F 
ATOM     91  C   UNL A   1      46.641  24.354  34.214  1.00  0.00     0.198 A 
ATOM     92  C   UNL A   1      44.502  24.158  35.238  1.00  0.00     0.198 A 
ATOM     93  F   UNL A   1      42.652  25.240  34.379  1.00  0.00    -0.203 F 
ATOM     94  F   UNL A   1      47.942  24.035  34.162  1.00  0.00    -0.200 F 
ATOM     95  C   UNL A   1      45.836  23.821  35.199  1.00  0.00     0.200 A 
ATOM     96  F   UNL A   1      43.719  23.705  36.226  1.00  0.00    -0.200 F 
ATOM     97  F   UNL A   1      46.352  23.001  36.122  1.00  0.00    -0.200 F 
ENDBRANCH  64  87
ENDBRANCH  38  39
ENDBRANCH  31  33
ENDBRANCH  30  31
ENDBRANCH  29  30
ENDBRANCH  28  29
ENDBRANCH   1  28
TORSDOF 17
ENDMDL
MODEL 2
REMARK VINA RESULT:     -12.7      1.006      1.561
REMARK SMILES Cc1ccc(-c2c(C(=O)OCCOCCOC(=O)c3ccc(-c4c5nc(c(-c6c(F)c(F)c(F)c(F)c6F)c6ccc([nH]6)c(-c6c(F)c(F)c(F)c(F)c6F)c6nc(c(-c7c(F)c(F)c(F)c(F)c7F)c7ccc4[nH]7)C=C6)C=C5)cc3)nnn2Cc2c(F)cccc2Cl)cc1
REMARK SMILES IDX 13 1 12 2 11 3 10 4 8 5 9 6 7 7 6 8 84 9 82 10 83 11 5 12
REMARK SMILES IDX 1 13 2 14 3 15 95 16 4 17 94 18 85 19 86 20 87 21 92 22
REMARK SMILES IDX 88 23 89 24 91 25 93 26 90 27 14 28 15 29 16 30 17 31 18 32
REMARK SMILES IDX 19 33 20 34 81 35 21 36 80 37 22 38 23 39 24 40 74 41 25 42
REMARK SMILES IDX 79 43 73 44 75 45 26 46 78 47 72 48 71 49 27 51 59 52 39 53
REMARK SMILES IDX 58 54 40 55 43 56 57 57 76 58 41 59 42 60 56 62 77 63 44 64
REMARK SMILES IDX 28 65 29 66 37 67 30 68 31 69 35 70 38 71 32 72 33 73 36 74
REMARK SMILES IDX 34 75 60 76 61 77 69 78 62 79 63 80 67 81 70 82 64 83 65 84
REMARK SMILES IDX 68 85 66 86 45 87 46 88 54 89 47 90 48 91 52 92 55 93 49 94
REMARK SMILES IDX 50 95 53 96 51 97
REMARK H PARENT 75 50 43 61
REMARK Flexibility Score: inf
ROOT
ATOM      1  O   UNL A   1      31.698  30.022  25.540  1.00  0.00    -0.374 OA
ENDROOT
BRANCH   1   2
ATOM      2  C   UNL A   1      31.597  28.788  24.847  1.00  0.00     0.202 C 
BRANCH   2   3
ATOM      3  C   UNL A   1      32.606  28.881  23.746  1.00  0.00     0.261 C 
BRANCH   3   4
ATOM      4  O   UNL A   1      33.451  27.735  23.722  1.00  0.00    -0.458 OA
BRANCH   4   5
ATOM      5  C   UNL A   1      33.383  26.945  22.605  1.00  0.00     0.361 C 
ATOM      6  O   UNL A   1      33.925  27.194  21.548  1.00  0.00    -0.244 OA
BRANCH   5   7
ATOM      7  C   UNL A   1      32.560  25.784  22.870  1.00  0.00     0.198 A 
ATOM      8  C   UNL A   1      32.940  24.594  23.486  1.00  0.00     0.104 A 
ATOM      9  N   UNL A   1      31.714  24.018  23.731  1.00  0.00    -0.239 N 
ATOM     10  N   UNL A   1      31.235  25.726  22.524  1.00  0.00    -0.122 NA
ATOM     11  N   UNL A   1      30.743  24.593  22.997  1.00  0.00    -0.066 NA
BRANCH   8  12
ATOM     12  C   UNL A   1      34.215  24.147  24.048  1.00  0.00     0.002 A 
ATOM     13  C   UNL A   1      38.000  22.920  25.735  1.00  0.00     0.044 C 
ATOM     14  C   UNL A   1      36.669  23.304  25.155  1.00  0.00    -0.051 A 
ATOM     15  C   UNL A   1      35.826  24.163  25.863  1.00  0.00     0.004 A 
ATOM     16  C   UNL A   1      36.286  22.888  23.875  1.00  0.00     0.004 A 
ATOM     17  C   UNL A   1      34.632  24.609  25.301  1.00  0.00     0.011 A 
ATOM     18  C   UNL A   1      35.058  23.293  23.331  1.00  0.00     0.011 A 
ENDBRANCH   8  12
BRANCH   9  19
ATOM     19  C   UNL A   1      31.344  23.035  24.736  1.00  0.00     0.187 C 
BRANCH  19  20
ATOM     20  C   UNL A   1      32.160  21.761  24.720  1.00  0.00     0.028 A 
ATOM     21  C   UNL A   1      32.834  21.446  25.907  1.00  0.00     0.129 A 
ATOM     22  C   UNL A   1      32.334  20.876  23.640  1.00  0.00     0.049 A 
ATOM     23  F   UNL A   1      32.796  22.310  26.933  1.00  0.00    -0.207 F 
ATOM     24  C   UNL A   1      33.554  20.267  26.068  1.00  0.00     0.040 A 
ATOM     25  C   UNL A   1      33.001  19.654  23.816  1.00  0.00     0.021 A 
ATOM     26  Cl  UNL A   1      31.778  21.188  22.036  1.00  0.00    -0.084 Cl
ATOM     27  C   UNL A   1      33.605  19.345  25.031  1.00  0.00     0.005 A 
ENDBRANCH  19  20
ENDBRANCH   9  19
ENDBRANCH   5   7
ENDBRANCH   4   5
ENDBRANCH   3   4
ENDBRANCH   2   3
ENDBRANCH   1   2
BRANCH   1  28
ATOM     28  C   UNL A   1      32.194  29.956  26.862  1.00  0.00     0.202 C 
BRANCH  28  29
ATOM     29  C   UNL A   1      33.719  30.113  26.946  1.00  0.00     0.261 C 
BRANCH  29  30
ATOM     30  O   UNL A   1      34.063  31.043  27.996  1.00  0.00    -0.460 OA
BRANCH  30  31
ATOM     31  C   UNL A   1      35.347  31.498  28.011  1.00  0.00     0.338 C 
ATOM     32  O   UNL A   1      35.705  32.617  27.687  1.00  0.00    -0.246 OA
BRANCH  31  33
ATOM     33  C   UNL A   1      36.282  30.348  28.198  1.00  0.00     0.060 A 
ATOM     34  C   UNL A   1      36.430  29.745  29.461  1.00  0.00     0.016 A 
ATOM     35  C   UNL A   1      37.230  30.118  27.205  1.00  0.00     0.016 A 
ATOM     36  C   UNL A   1      37.603  29.041  29.769  1.00  0.00     0.010 A 
ATOM     37  C   UNL A   1      38.438  29.568  27.565  1.00  0.00     0.010 A 
ATOM     38  C   UNL A   1      38.645  29.043  28.848  1.00  0.00    -0.014 A 
BRANCH  38  39
ATOM     39  C   UNL A   1      40.011  28.577  29.086  1.00  0.00     0.031 A 
ATOM     40  C   UNL A   1      40.318  27.193  28.666  1.00  0.00     0.074 A 
ATOM     41  C   UNL A   1      41.006  29.436  29.428  1.00  0.00     0.049 A 
ATOM     42  N   UNL A   1      41.353  26.538  29.053  1.00  0.00    -0.248 NA
ATOM     43  C   UNL A   1      39.458  26.404  27.781  1.00  0.00     0.031 C 
ATOM     44  C   UNL A   1      42.452  29.267  29.272  1.00  0.00     0.029 A 
ATOM     45  N   UNL A   1      40.921  30.700  30.039  1.00  0.00    -0.354 N 
ATOM     46  C   UNL A   1      41.476  25.439  28.235  1.00  0.00     0.074 A 
ATOM     47  C   UNL A   1      40.225  25.343  27.530  1.00  0.00     0.031 C 
ATOM     48  C   UNL A   1      43.093  30.170  30.042  1.00  0.00     0.029 A 
ATOM     49  C   UNL A   1      42.075  30.866  30.815  1.00  0.00     0.049 A 
ATOM     50  H   UNL A   1      40.186  31.347  29.939  1.00  0.00     0.167 HD
ATOM     51  C   UNL A   1      42.693  24.838  28.134  1.00  0.00     0.037 A 
ATOM     52  C   UNL A   1      42.001  31.010  32.165  1.00  0.00     0.037 A 
ATOM     53  C   UNL A   1      43.676  25.552  28.957  1.00  0.00     0.049 A 
ATOM     54  C   UNL A   1      42.781  29.893  32.769  1.00  0.00     0.074 A 
ATOM     55  C   UNL A   1      44.669  26.468  28.648  1.00  0.00     0.029 A 
ATOM     56  N   UNL A   1      43.459  25.669  30.330  1.00  0.00    -0.354 N 
ATOM     57  N   UNL A   1      42.823  28.700  32.238  1.00  0.00    -0.248 NA
ATOM     58  C   UNL A   1      43.725  30.085  33.861  1.00  0.00     0.031 C 
ATOM     59  C   UNL A   1      45.044  27.134  29.847  1.00  0.00     0.029 A 
ATOM     60  C   UNL A   1      44.282  26.627  30.888  1.00  0.00     0.049 A 
ATOM     61  H   UNL A   1      42.803  25.137  30.836  1.00  0.00     0.167 HD
ATOM     62  C   UNL A   1      43.867  28.025  32.798  1.00  0.00     0.074 A 
ATOM     63  C   UNL A   1      44.370  28.906  33.839  1.00  0.00     0.031 C 
ATOM     64  C   UNL A   1      44.323  26.832  32.329  1.00  0.00     0.037 A 
BRANCH  51  65
ATOM     65  C   UNL A   1      43.044  23.805  27.083  1.00  0.00     0.064 A 
ATOM     66  C   UNL A   1      42.738  22.441  27.276  1.00  0.00     0.173 A 
ATOM     67  C   UNL A   1      43.690  24.089  25.862  1.00  0.00     0.173 A 
ATOM     68  F   UNL A   1      42.041  22.024  28.340  1.00  0.00    -0.203 F 
ATOM     69  C   UNL A   1      43.124  21.445  26.372  1.00  0.00     0.198 A 
ATOM     70  C   UNL A   1      44.128  23.089  24.986  1.00  0.00     0.198 A 
ATOM     71  F   UNL A   1      43.858  25.349  25.436  1.00  0.00    -0.203 F 
ATOM     72  F   UNL A   1      42.787  20.169  26.609  1.00  0.00    -0.200 F 
ATOM     73  C   UNL A   1      43.845  21.765  25.242  1.00  0.00     0.200 A 
ATOM     74  F   UNL A   1      44.810  23.423  23.881  1.00  0.00    -0.200 F 
ATOM     75  F   UNL A   1      44.232  20.808  24.388  1.00  0.00    -0.200 F 
ENDBRANCH  51  65
BRANCH  52  76
ATOM     76  C   UNL A   1      40.720  31.628  32.619  1.00  0.00     0.064 A 
ATOM     77  C   UNL A   1      39.784  30.765  33.222  1.00  0.00     0.173 A 
ATOM     78  C   UNL A   1      40.603  32.988  32.923  1.00  0.00     0.173 A 
ATOM     79  F   UNL A   1      39.789  29.468  32.895  1.00  0.00    -0.203 F 
ATOM     80  C   UNL A   1      38.927  31.193  34.236  1.00  0.00     0.198 A 
ATOM     81  C   UNL A   1      39.710  33.427  33.912  1.00  0.00     0.198 A 
ATOM     82  F   UNL A   1      41.435  33.879  32.369  1.00  0.00    -0.203 F 
ATOM     83  F   UNL A   1      38.200  30.301  34.926  1.00  0.00    -0.200 F 
ATOM     84  C   UNL A   1      38.926  32.522  34.612  1.00  0.00     0.200 A 
ATOM     85  F   UNL A   1      39.686  34.721  34.265  1.00  0.00    -0.200 F 
ATOM     86  F   UNL A   1      38.220  32.918  35.682  1.00  0.00    -0.200 F 
ENDBRANCH  52  76
BRANCH  64  87
ATOM     87  C   UNL A   1      44.900  25.762  33.217  1.00  0.00     0.064 A 
ATOM     88  C   UNL A   1      46.263  25.422  33.232  1.00  0.00     0.173 A 
ATOM     89  C   UNL A   1      44.120  25.190  34.250  1.00  0.00     0.173 A 
ATOM     90  F   UNL A   1      47.145  25.975  32.389  1.00  0.00    -0.203 F 
ATOM     91  C   UNL A   1      46.793  24.539  34.169  1.00  0.00     0.198 A 
ATOM     92  C   UNL A   1      44.670  24.373  35.232  1.00  0.00     0.198 A 
ATOM     93  F   UNL A   1      42.809  25.438  34.377  1.00  0.00    -0.203 F 
ATOM     94  F   UNL A   1      48.092  24.216  34.105  1.00  0.00    -0.200 F 
ATOM     95  C   UNL A   1      46.003  24.031  35.179  1.00  0.00     0.200 A 
ATOM     96  F   UNL A   1      43.902  23.945  36.243  1.00  0.00    -0.200 F 
ATOM     97  F   UNL A   1      46.531  23.232  36.114  1.00  0.00    -0.200 F 
ENDBRANCH  64  87
ENDBRANCH  38  39
ENDBRANCH  31  33
ENDBRANCH  30  31
ENDBRANCH  29  30
ENDBRANCH  28  29
ENDBRANCH   1  28
TORSDOF 17
ENDMDL
MODEL 3
REMARK VINA RESULT:     -12.7      3.402      9.238
REMARK SMILES Cc1ccc(-c2c(C(=O)OCCOCCOC(=O)c3ccc(-c4c5nc(c(-c6c(F)c(F)c(F)c(F)c6F)c6ccc([nH]6)c(-c6c(F)c(F)c(F)c(F)c6F)c6nc(c(-c7c(F)c(F)c(F)c(F)c7F)c7ccc4[nH]7)C=C6)C=C5)cc3)nnn2Cc2c(F)cccc2Cl)cc1
REMARK SMILES IDX 13 1 12 2 11 3 10 4 8 5 9 6 7 7 6 8 84 9 82 10 83 11 5 12
REMARK SMILES IDX 1 13 2 14 3 15 95 16 4 17 94 18 85 19 86 20 87 21 92 22
REMARK SMILES IDX 88 23 89 24 91 25 93 26 90 27 14 28 15 29 16 30 17 31 18 32
REMARK SMILES IDX 19 33 20 34 81 35 21 36 80 37 22 38 23 39 24 40 74 41 25 42
REMARK SMILES IDX 79 43 73 44 75 45 26 46 78 47 72 48 71 49 27 51 59 52 39 53
REMARK SMILES IDX 58 54 40 55 43 56 57 57 76 58 41 59 42 60 56 62 77 63 44 64
REMARK SMILES IDX 28 65 29 66 37 67 30 68 31 69 35 70 38 71 32 72 33 73 36 74
REMARK SMILES IDX 34 75 60 76 61 77 69 78 62 79 63 80 67 81 70 82 64 83 65 84
REMARK SMILES IDX 68 85 66 86 45 87 46 88 54 89 47 90 48 91 52 92 55 93 49 94
REMARK SMILES IDX 50 95 53 96 51 97
REMARK H PARENT 75 50 43 61
REMARK Flexibility Score: inf
ROOT
ATOM      1  O   UNL A   1      36.265  20.684  25.379  1.00  0.00    -0.374 OA
ENDROOT
BRANCH   1   2
ATOM      2  C   UNL A   1      35.369  21.779  25.264  1.00  0.00     0.202 C 
BRANCH   2   3
ATOM      3  C   UNL A   1      34.591  21.776  26.542  1.00  0.00     0.261 C 
BRANCH   3   4
ATOM      4  O   UNL A   1      34.027  23.057  26.806  1.00  0.00    -0.458 OA
BRANCH   4   5
ATOM      5  C   UNL A   1      32.669  23.108  26.976  1.00  0.00     0.361 C 
ATOM      6  O   UNL A   1      32.090  22.824  28.005  1.00  0.00    -0.244 OA
BRANCH   5   7
ATOM      7  C   UNL A   1      32.033  23.534  25.749  1.00  0.00     0.198 A 
ATOM      8  C   UNL A   1      31.898  24.834  25.266  1.00  0.00     0.104 A 
ATOM      9  N   UNL A   1      31.507  24.597  23.968  1.00  0.00    -0.239 N 
ATOM     10  N   UNL A   1      31.460  22.651  24.870  1.00  0.00    -0.122 NA
ATOM     11  N   UNL A   1      31.070  23.333  23.807  1.00  0.00    -0.066 NA
BRANCH   8  12
ATOM     12  C   UNL A   1      32.336  26.125  25.798  1.00  0.00     0.002 A 
ATOM     13  C   UNL A   1      33.547  29.980  27.331  1.00  0.00     0.044 C 
ATOM     14  C   UNL A   1      33.151  28.620  26.831  1.00  0.00    -0.051 A 
ATOM     15  C   UNL A   1      31.835  28.180  26.988  1.00  0.00     0.004 A 
ATOM     16  C   UNL A   1      34.052  27.812  26.130  1.00  0.00     0.004 A 
ATOM     17  C   UNL A   1      31.423  26.965  26.445  1.00  0.00     0.011 A 
ATOM     18  C   UNL A   1      33.652  26.564  25.631  1.00  0.00     0.011 A 
ENDBRANCH   8  12
BRANCH   9  19
ATOM     19  C   UNL A   1      31.647  25.445  22.796  1.00  0.00     0.187 C 
BRANCH  19  20
ATOM     20  C   UNL A   1      31.160  26.866  22.969  1.00  0.00     0.028 A 
ATOM     21  C   UNL A   1      29.792  27.022  23.231  1.00  0.00     0.129 A 
ATOM     22  C   UNL A   1      31.923  28.045  22.873  1.00  0.00     0.049 A 
ATOM     23  F   UNL A   1      28.995  25.943  23.222  1.00  0.00    -0.207 F 
ATOM     24  C   UNL A   1      29.217  28.261  23.495  1.00  0.00     0.040 A 
ATOM     25  C   UNL A   1      31.364  29.289  23.205  1.00  0.00     0.021 A 
ATOM     26  Cl  UNL A   1      33.566  28.091  22.345  1.00  0.00    -0.084 Cl
ATOM     27  C   UNL A   1      30.014  29.397  23.524  1.00  0.00     0.005 A 
ENDBRANCH  19  20
ENDBRANCH   9  19
ENDBRANCH   5   7
ENDBRANCH   4   5
ENDBRANCH   3   4
ENDBRANCH   2   3
ENDBRANCH   1   2
BRANCH   1  28
ATOM     28  C   UNL A   1      37.604  20.932  25.003  1.00  0.00     0.202 C 
BRANCH  28  29
ATOM     29  C   UNL A   1      38.089  22.341  25.375  1.00  0.00     0.261 C 
BRANCH  29  30
ATOM     30  O   UNL A   1      38.926  22.280  26.551  1.00  0.00    -0.460 OA
BRANCH  30  31
ATOM     31  C   UNL A   1      40.073  23.016  26.520  1.00  0.00     0.338 C 
ATOM     32  O   UNL A   1      41.204  22.560  26.496  1.00  0.00    -0.246 OA
BRANCH  31  33
ATOM     33  C   UNL A   1      39.758  24.445  26.816  1.00  0.00     0.060 A 
ATOM     34  C   UNL A   1      40.341  25.477  26.056  1.00  0.00     0.016 A 
ATOM     35  C   UNL A   1      39.165  24.736  28.041  1.00  0.00     0.016 A 
ATOM     36  C   UNL A   1      40.461  26.765  26.598  1.00  0.00     0.010 A 
ATOM     37  C   UNL A   1      39.430  25.952  28.626  1.00  0.00     0.010 A 
ATOM     38  C   UNL A   1      40.092  26.969  27.924  1.00  0.00    -0.014 A 
BRANCH  38  39
ATOM     39  C   UNL A   1      40.366  28.162  28.724  1.00  0.00     0.031 A 
ATOM     40  C   UNL A   1      39.313  29.202  28.739  1.00  0.00     0.074 A 
ATOM     41  C   UNL A   1      41.398  28.207  29.605  1.00  0.00     0.049 A 
ATOM     42  N   UNL A   1      39.501  30.408  29.138  1.00  0.00    -0.248 NA
ATOM     43  C   UNL A   1      37.945  28.976  28.270  1.00  0.00     0.031 C 
ATOM     44  C   UNL A   1      41.566  29.076  30.771  1.00  0.00     0.029 A 
ATOM     45  N   UNL A   1      42.584  27.452  29.627  1.00  0.00    -0.354 N 
ATOM     46  C   UNL A   1      38.263  30.983  29.309  1.00  0.00     0.074 A 
ATOM     47  C   UNL A   1      37.334  30.095  28.663  1.00  0.00     0.031 C 
ATOM     48  C   UNL A   1      42.856  29.053  31.164  1.00  0.00     0.029 A 
ATOM     49  C   UNL A   1      43.583  28.262  30.182  1.00  0.00     0.049 A 
ATOM     50  H   UNL A   1      42.692  26.526  29.309  1.00  0.00     0.167 HD
ATOM     51  C   UNL A   1      38.158  32.067  30.126  1.00  0.00     0.037 A 
ATOM     52  C   UNL A   1      44.679  28.622  29.462  1.00  0.00     0.037 A 
ATOM     53  C   UNL A   1      39.469  32.393  30.699  1.00  0.00     0.049 A 
ATOM     54  C   UNL A   1      44.693  30.111  29.398  1.00  0.00     0.074 A 
ATOM     55  C   UNL A   1      40.038  32.149  31.939  1.00  0.00     0.029 A 
ATOM     56  N   UNL A   1      40.529  32.702  29.845  1.00  0.00    -0.354 N 
ATOM     57  N   UNL A   1      43.597  30.819  29.323  1.00  0.00    -0.248 NA
ATOM     58  C   UNL A   1      45.892  30.904  29.630  1.00  0.00     0.031 C 
ATOM     59  C   UNL A   1      41.445  32.314  31.821  1.00  0.00     0.029 A 
ATOM     60  C   UNL A   1      41.738  32.659  30.510  1.00  0.00     0.049 A 
ATOM     61  H   UNL A   1      40.427  32.923  28.891  1.00  0.00     0.167 HD
ATOM     62  C   UNL A   1      43.907  32.110  29.633  1.00  0.00     0.074 A 
ATOM     63  C   UNL A   1      45.355  32.128  29.768  1.00  0.00     0.031 C 
ATOM     64  C   UNL A   1      42.970  33.072  29.852  1.00  0.00     0.037 A 
BRANCH  51  65
ATOM     65  C   UNL A   1      36.843  32.633  30.620  1.00  0.00     0.064 A 
ATOM     66  C   UNL A   1      36.048  33.451  29.790  1.00  0.00     0.173 A 
ATOM     67  C   UNL A   1      36.307  32.413  31.906  1.00  0.00     0.173 A 
ATOM     68  F   UNL A   1      36.373  33.675  28.511  1.00  0.00    -0.203 F 
ATOM     69  C   UNL A   1      34.873  34.065  30.236  1.00  0.00     0.198 A 
ATOM     70  C   UNL A   1      35.164  33.073  32.372  1.00  0.00     0.198 A 
ATOM     71  F   UNL A   1      36.829  31.498  32.734  1.00  0.00    -0.203 F 
ATOM     72  F   UNL A   1      34.156  34.819  29.390  1.00  0.00    -0.200 F 
ATOM     73  C   UNL A   1      34.446  33.900  31.537  1.00  0.00     0.200 A 
ATOM     74  F   UNL A   1      34.753  32.881  33.635  1.00  0.00    -0.200 F 
ATOM     75  F   UNL A   1      33.332  34.505  31.969  1.00  0.00    -0.200 F 
ENDBRANCH  51  65
BRANCH  52  76
ATOM     76  C   UNL A   1      45.046  27.623  28.414  1.00  0.00     0.064 A 
ATOM     77  C   UNL A   1      45.665  26.440  28.861  1.00  0.00     0.173 A 
ATOM     78  C   UNL A   1      44.407  27.564  27.170  1.00  0.00     0.173 A 
ATOM     79  F   UNL A   1      46.369  26.463  29.998  1.00  0.00    -0.203 F 
ATOM     80  C   UNL A   1      45.474  25.216  28.221  1.00  0.00     0.198 A 
ATOM     81  C   UNL A   1      44.253  26.341  26.502  1.00  0.00     0.198 A 
ATOM     82  F   UNL A   1      43.820  28.653  26.659  1.00  0.00    -0.203 F 
ATOM     83  F   UNL A   1      45.908  24.082  28.791  1.00  0.00    -0.200 F 
ATOM     84  C   UNL A   1      44.725  25.162  27.061  1.00  0.00     0.200 A 
ATOM     85  F   UNL A   1      43.547  26.285  25.363  1.00  0.00    -0.200 F 
ATOM     86  F   UNL A   1      44.408  23.977  26.520  1.00  0.00    -0.200 F 
ENDBRANCH  52  76
BRANCH  64  87
ATOM     87  C   UNL A   1      43.174  34.520  29.494  1.00  0.00     0.064 A 
ATOM     88  C   UNL A   1      43.342  35.536  30.451  1.00  0.00     0.173 A 
ATOM     89  C   UNL A   1      43.426  34.898  28.155  1.00  0.00     0.173 A 
ATOM     90  F   UNL A   1      43.251  35.299  31.765  1.00  0.00    -0.203 F 
ATOM     91  C   UNL A   1      43.681  36.838  30.091  1.00  0.00     0.198 A 
ATOM     92  C   UNL A   1      43.842  36.180  27.810  1.00  0.00     0.198 A 
ATOM     93  F   UNL A   1      43.326  34.033  27.136  1.00  0.00    -0.203 F 
ATOM     94  F   UNL A   1      43.780  37.776  31.043  1.00  0.00    -0.200 F 
ATOM     95  C   UNL A   1      43.950  37.155  28.776  1.00  0.00     0.200 A 
ATOM     96  F   UNL A   1      44.166  36.451  26.538  1.00  0.00    -0.200 F 
ATOM     97  F   UNL A   1      44.336  38.393  28.445  1.00  0.00    -0.200 F 
ENDBRANCH  64  87
ENDBRANCH  38  39
ENDBRANCH  31  33
ENDBRANCH  30  31
ENDBRANCH  29  30
ENDBRANCH  28  29
ENDBRANCH   1  28
TORSDOF 17
ENDMDL
