MODEL 1
REMARK VINA RESULT:     -12.9      0.000      0.000
REMARK SMILES C[C@@](COc1ccccc1)(NC(=O)CN1CSCC1=O)C(=O)OCCOCCOC(=O)c1ccc(-c2c3nc(c(-c4c(F)c(F)c(F)c(F)c4F)c4ccc([nH]4)c(-c4c(F)c(F)c(F)c(F)c4F)c4nc(c(-c5c(F)c(F)c(F)c(F)c5F)c5ccc2[nH]5)C=C4)C=C3)cc1
REMARK SMILES IDX 25 1 24 2 23 3 21 4 22 5 2 6 1 7 3 8 4 9 5 10 6 11 10 12
REMARK SMILES IDX 7 13 9 14 8 15 11 16 12 17 13 19 14 20 15 21 16 22 19 23
REMARK SMILES IDX 17 24 18 25 20 26 26 27 27 28 28 29 29 30 30 31 31 32 32 33
REMARK SMILES IDX 33 34 94 35 34 36 93 37 35 38 36 39 37 40 87 41 38 42 92 43
REMARK SMILES IDX 86 44 88 45 39 46 91 47 85 48 84 49 40 51 72 52 52 53 71 54
REMARK SMILES IDX 53 55 56 56 70 57 89 58 54 59 55 60 69 62 90 63 57 64 41 65
REMARK SMILES IDX 42 66 50 67 43 68 44 69 48 70 51 71 45 72 46 73 49 74 47 75
REMARK SMILES IDX 73 76 74 77 82 78 75 79 76 80 80 81 83 82 77 83 78 84 81 85
REMARK SMILES IDX 79 86 58 87 59 88 67 89 60 90 61 91 65 92 68 93 62 94 63 95
REMARK SMILES IDX 66 96 64 97
REMARK H PARENT 11 18 88 50 56 61
REMARK Flexibility Score: inf
ROOT
ATOM      1  C   UNL A   1      32.550  31.015  26.988  1.00  0.00     0.202 C 
ENDROOT
BRANCH   1   2
ATOM      2  C   UNL A   1      32.739  29.420  26.982  1.00  0.00     0.261 C 
BRANCH   2   3
ATOM      3  O   UNL A   1      31.698  28.660  26.320  1.00  0.00    -0.461 OA
BRANCH   3   4
ATOM      4  C   UNL A   1      31.636  27.308  26.240  1.00  0.00     0.335 C 
ATOM      5  O   UNL A   1      31.035  26.603  27.036  1.00  0.00    -0.249 OA
BRANCH   4   6
ATOM      6  C   UNL A   1      32.129  26.849  24.824  1.00  0.00     0.169 C 
ATOM      7  C   UNL A   1      33.681  26.793  24.940  1.00  0.00     0.051 C 
BRANCH   6   8
ATOM      8  C   UNL A   1      31.842  27.912  23.716  1.00  0.00     0.269 C 
BRANCH   8   9
ATOM      9  O   UNL A   1      30.569  27.625  23.044  1.00  0.00    -0.491 OA
BRANCH   9  10
ATOM     10  C   UNL A   1      29.607  28.595  23.160  1.00  0.00     0.119 A 
ATOM     11  C   UNL A   1      29.945  29.919  23.421  1.00  0.00     0.046 A 
ATOM     12  C   UNL A   1      28.258  28.232  23.065  1.00  0.00     0.046 A 
ATOM     13  C   UNL A   1      28.942  30.891  23.498  1.00  0.00     0.004 A 
ATOM     14  C   UNL A   1      27.259  29.209  23.099  1.00  0.00     0.004 A 
ATOM     15  C   UNL A   1      27.603  30.542  23.310  1.00  0.00     0.000 A 
ENDBRANCH   9  10
ENDBRANCH   8   9
ENDBRANCH   6   8
BRANCH   6  16
ATOM     16  N   UNL A   1      31.527  25.569  24.258  1.00  0.00    -0.336 N 
ATOM     17  C   UNL A   1      31.478  24.225  24.429  1.00  0.00     0.240 C 
ATOM     18  H   UNL A   1      30.969  25.804  23.481  1.00  0.00     0.164 HD
ATOM     19  O   UNL A   1      31.092  23.587  23.441  1.00  0.00    -0.273 OA
BRANCH  17  20
ATOM     20  C   UNL A   1      31.860  23.481  25.705  1.00  0.00     0.220 C 
BRANCH  20  21
ATOM     21  N   UNL A   1      32.789  22.398  25.383  1.00  0.00    -0.323 N 
ATOM     22  C   UNL A   1      32.131  20.664  24.941  1.00  0.00     0.190 C 
ATOM     23  C   UNL A   1      34.601  22.610  25.260  1.00  0.00     0.233 C 
ATOM     24  S   UNL A   1      33.926  19.174  24.690  1.00  0.00    -0.130 SA
ATOM     25  C   UNL A   1      35.540  20.887  24.923  1.00  0.00     0.171 C 
ATOM     26  O   UNL A   1      35.206  23.667  25.279  1.00  0.00    -0.274 OA
ENDBRANCH  20  21
ENDBRANCH  17  20
ENDBRANCH   6  16
ENDBRANCH   4   6
ENDBRANCH   3   4
ENDBRANCH   2   3
ENDBRANCH   1   2
BRANCH   1  27
ATOM     27  O   UNL A   1      33.615  32.123  27.536  1.00  0.00    -0.374 OA
BRANCH  27  28
ATOM     28  C   UNL A   1      33.732  33.907  28.439  1.00  0.00     0.202 C 
BRANCH  28  29
ATOM     29  C   UNL A   1      34.151  34.370  30.041  1.00  0.00     0.261 C 
BRANCH  29  30
ATOM     30  O   UNL A   1      35.318  33.802  30.688  1.00  0.00    -0.460 OA
BRANCH  30  31
ATOM     31  C   UNL A   1      35.190  32.662  31.424  1.00  0.00     0.338 C 
ATOM     32  O   UNL A   1      34.366  32.467  32.302  1.00  0.00    -0.246 OA
BRANCH  31  33
ATOM     33  C   UNL A   1      36.149  31.601  30.950  1.00  0.00     0.060 A 
ATOM     34  C   UNL A   1      36.894  30.825  31.861  1.00  0.00     0.016 A 
ATOM     35  C   UNL A   1      36.401  31.431  29.590  1.00  0.00     0.016 A 
ATOM     36  C   UNL A   1      37.874  29.914  31.449  1.00  0.00     0.010 A 
ATOM     37  C   UNL A   1      37.423  30.554  29.171  1.00  0.00     0.010 A 
ATOM     38  C   UNL A   1      38.197  29.825  30.099  1.00  0.00    -0.014 A 
BRANCH  38  39
ATOM     39  C   UNL A   1      39.519  29.269  29.685  1.00  0.00     0.031 A 
ATOM     40  C   UNL A   1      40.690  30.221  29.677  1.00  0.00     0.074 A 
ATOM     41  C   UNL A   1      39.721  27.985  29.338  1.00  0.00     0.049 A 
ATOM     42  N   UNL A   1      41.881  30.083  29.152  1.00  0.00    -0.248 NA
ATOM     43  C   UNL A   1      40.475  31.514  30.349  1.00  0.00     0.031 C 
ATOM     44  C   UNL A   1      38.735  26.911  29.411  1.00  0.00     0.029 A 
ATOM     45  N   UNL A   1      40.844  27.374  28.821  1.00  0.00    -0.354 N 
ATOM     46  C   UNL A   1      42.538  31.283  29.394  1.00  0.00     0.074 A 
ATOM     47  C   UNL A   1      41.615  32.141  30.103  1.00  0.00     0.031 C 
ATOM     48  C   UNL A   1      39.282  25.783  28.918  1.00  0.00     0.029 A 
ATOM     49  C   UNL A   1      40.639  26.067  28.448  1.00  0.00     0.049 A 
ATOM     50  H   UNL A   1      41.711  27.831  28.727  1.00  0.00     0.167 HD
ATOM     51  C   UNL A   1      43.797  31.646  29.052  1.00  0.00     0.037 A 
ATOM     52  C   UNL A   1      41.438  25.216  27.767  1.00  0.00     0.037 A 
ATOM     53  C   UNL A   1      44.727  30.798  28.358  1.00  0.00     0.049 A 
ATOM     54  C   UNL A   1      42.802  25.676  27.298  1.00  0.00     0.074 A 
ATOM     55  C   UNL A   1      46.018  31.085  27.950  1.00  0.00     0.029 A 
ATOM     56  N   UNL A   1      44.467  29.491  27.976  1.00  0.00    -0.354 N 
ATOM     57  N   UNL A   1      43.404  26.825  27.486  1.00  0.00    -0.248 NA
ATOM     58  C   UNL A   1      43.594  24.716  26.509  1.00  0.00     0.031 C 
ATOM     59  C   UNL A   1      46.525  29.967  27.281  1.00  0.00     0.029 A 
ATOM     60  C   UNL A   1      45.570  28.964  27.325  1.00  0.00     0.049 A 
ATOM     61  H   UNL A   1      43.624  29.011  28.142  1.00  0.00     0.167 HD
ATOM     62  C   UNL A   1      44.654  26.708  26.885  1.00  0.00     0.074 A 
ATOM     63  C   UNL A   1      44.728  25.378  26.325  1.00  0.00     0.031 C 
ATOM     64  C   UNL A   1      45.652  27.624  26.806  1.00  0.00     0.037 A 
BRANCH  51  65
ATOM     65  C   UNL A   1      44.232  33.041  29.393  1.00  0.00     0.064 A 
ATOM     66  C   UNL A   1      43.967  34.125  28.543  1.00  0.00     0.173 A 
ATOM     67  C   UNL A   1      44.890  33.299  30.604  1.00  0.00     0.173 A 
ATOM     68  F   UNL A   1      43.353  33.927  27.366  1.00  0.00    -0.203 F 
ATOM     69  C   UNL A   1      44.365  35.414  28.886  1.00  0.00     0.198 A 
ATOM     70  C   UNL A   1      45.259  34.594  30.957  1.00  0.00     0.198 A 
ATOM     71  F   UNL A   1      45.165  32.298  31.453  1.00  0.00    -0.203 F 
ATOM     72  F   UNL A   1      44.140  36.430  28.040  1.00  0.00    -0.200 F 
ATOM     73  C   UNL A   1      45.001  35.649  30.095  1.00  0.00     0.200 A 
ATOM     74  F   UNL A   1      45.860  34.820  32.133  1.00  0.00    -0.200 F 
ATOM     75  F   UNL A   1      45.372  36.893  30.429  1.00  0.00    -0.200 F 
ENDBRANCH  51  65
BRANCH  52  76
ATOM     76  C   UNL A   1      40.972  23.839  27.434  1.00  0.00     0.064 A 
ATOM     77  C   UNL A   1      41.596  22.712  27.989  1.00  0.00     0.173 A 
ATOM     78  C   UNL A   1      39.946  23.619  26.503  1.00  0.00     0.173 A 
ATOM     79  F   UNL A   1      42.610  22.865  28.854  1.00  0.00    -0.203 F 
ATOM     80  C   UNL A   1      41.229  21.421  27.607  1.00  0.00     0.198 A 
ATOM     81  C   UNL A   1      39.558  22.329  26.147  1.00  0.00     0.198 A 
ATOM     82  F   UNL A   1      39.325  24.660  25.930  1.00  0.00    -0.203 F 
ATOM     83  F   UNL A   1      41.888  20.365  28.104  1.00  0.00    -0.200 F 
ATOM     84  C   UNL A   1      40.207  21.231  26.690  1.00  0.00     0.200 A 
ATOM     85  F   UNL A   1      38.565  22.149  25.265  1.00  0.00    -0.200 F 
ATOM     86  F   UNL A   1      39.858  19.992  26.320  1.00  0.00    -0.200 F 
ENDBRANCH  52  76
BRANCH  64  87
ATOM     87  C   UNL A   1      46.946  27.205  26.166  1.00  0.00     0.064 A 
ATOM     88  C   UNL A   1      47.924  26.485  26.865  1.00  0.00     0.173 A 
ATOM     89  C   UNL A   1      47.178  27.477  24.808  1.00  0.00     0.173 A 
ATOM     90  F   UNL A   1      47.758  26.207  28.167  1.00  0.00    -0.203 F 
ATOM     91  C   UNL A   1      49.096  26.072  26.234  1.00  0.00     0.198 A 
ATOM     92  C   UNL A   1      48.336  27.036  24.174  1.00  0.00     0.198 A 
ATOM     93  F   UNL A   1      46.270  28.154  24.089  1.00  0.00    -0.203 F 
ATOM     94  F   UNL A   1      50.037  25.420  26.933  1.00  0.00    -0.200 F 
ATOM     95  C   UNL A   1      49.297  26.339  24.889  1.00  0.00     0.200 A 
ATOM     96  F   UNL A   1      48.519  27.282  22.869  1.00  0.00    -0.200 F 
ATOM     97  F   UNL A   1      50.419  25.929  24.282  1.00  0.00    -0.200 F 
ENDBRANCH  64  87
ENDBRANCH  38  39
ENDBRANCH  31  33
ENDBRANCH  30  31
ENDBRANCH  29  30
ENDBRANCH  28  29
ENDBRANCH  27  28
ENDBRANCH   1  27
TORSDOF 20
ENDMDL
MODEL 2
REMARK VINA RESULT:     -12.8      3.437      9.230
REMARK SMILES C[C@@](COc1ccccc1)(NC(=O)CN1CSCC1=O)C(=O)OCCOCCOC(=O)c1ccc(-c2c3nc(c(-c4c(F)c(F)c(F)c(F)c4F)c4ccc([nH]4)c(-c4c(F)c(F)c(F)c(F)c4F)c4nc(c(-c5c(F)c(F)c(F)c(F)c5F)c5ccc2[nH]5)C=C4)C=C3)cc1
REMARK SMILES IDX 25 1 24 2 23 3 21 4 22 5 2 6 1 7 3 8 4 9 5 10 6 11 10 12
REMARK SMILES IDX 7 13 9 14 8 15 11 16 12 17 13 19 14 20 15 21 16 22 19 23
REMARK SMILES IDX 17 24 18 25 20 26 26 27 27 28 28 29 29 30 30 31 31 32 32 33
REMARK SMILES IDX 33 34 94 35 34 36 93 37 35 38 36 39 37 40 87 41 38 42 92 43
REMARK SMILES IDX 86 44 88 45 39 46 91 47 85 48 84 49 40 51 72 52 52 53 71 54
REMARK SMILES IDX 53 55 56 56 70 57 89 58 54 59 55 60 69 62 90 63 57 64 41 65
REMARK SMILES IDX 42 66 50 67 43 68 44 69 48 70 51 71 45 72 46 73 49 74 47 75
REMARK SMILES IDX 73 76 74 77 82 78 75 79 76 80 80 81 83 82 77 83 78 84 81 85
REMARK SMILES IDX 79 86 58 87 59 88 67 89 60 90 61 91 65 92 68 93 62 94 63 95
REMARK SMILES IDX 66 96 64 97
REMARK H PARENT 11 18 88 50 56 61
REMARK Flexibility Score: inf
ROOT
ATOM      1  C   UNL A   1      36.885  22.804  23.884  1.00  0.00     0.202 C 
ENDROOT
BRANCH   1   2
ATOM      2  C   UNL A   1      35.470  23.130  23.200  1.00  0.00     0.261 C 
BRANCH   2   3
ATOM      3  O   UNL A   1      34.299  22.918  24.028  1.00  0.00    -0.461 OA
BRANCH   3   4
ATOM      4  C   UNL A   1      34.227  23.130  25.365  1.00  0.00     0.335 C 
ATOM      5  O   UNL A   1      34.570  24.167  25.911  1.00  0.00    -0.249 OA
BRANCH   4   6
ATOM      6  C   UNL A   1      33.334  22.019  26.019  1.00  0.00     0.169 C 
ATOM      7  C   UNL A   1      34.229  21.390  27.127  1.00  0.00     0.051 C 
BRANCH   6   8
ATOM      8  C   UNL A   1      33.019  20.848  25.036  1.00  0.00     0.269 C 
BRANCH   8   9
ATOM      9  O   UNL A   1      34.151  19.916  24.965  1.00  0.00    -0.491 OA
BRANCH   9  10
ATOM     10  C   UNL A   1      33.818  18.589  24.867  1.00  0.00     0.119 A 
ATOM     11  C   UNL A   1      34.363  17.779  23.877  1.00  0.00     0.046 A 
ATOM     12  C   UNL A   1      32.870  18.058  25.751  1.00  0.00     0.046 A 
ATOM     13  C   UNL A   1      34.030  16.421  23.826  1.00  0.00     0.004 A 
ATOM     14  C   UNL A   1      32.571  16.693  25.728  1.00  0.00     0.004 A 
ATOM     15  C   UNL A   1      33.157  15.872  24.768  1.00  0.00     0.000 A 
ENDBRANCH   9  10
ENDBRANCH   8   9
ENDBRANCH   6   8
BRANCH   6  16
ATOM     16  N   UNL A   1      31.961  22.439  26.529  1.00  0.00    -0.336 N 
ATOM     17  C   UNL A   1      30.928  23.284  26.291  1.00  0.00     0.240 C 
ATOM     18  H   UNL A   1      31.745  21.898  27.322  1.00  0.00     0.164 HD
ATOM     19  O   UNL A   1      30.166  23.458  27.251  1.00  0.00    -0.273 OA
BRANCH  17  20
ATOM     20  C   UNL A   1      30.662  24.010  24.976  1.00  0.00     0.220 C 
BRANCH  20  21
ATOM     21  N   UNL A   1      31.488  25.215  24.903  1.00  0.00    -0.323 N 
ATOM     22  C   UNL A   1      31.758  26.291  26.454  1.00  0.00     0.190 C 
ATOM     23  C   UNL A   1      32.406  25.735  23.410  1.00  0.00     0.233 C 
ATOM     24  S   UNL A   1      32.963  28.221  25.879  1.00  0.00    -0.130 SA
ATOM     25  C   UNL A   1      33.317  27.488  23.659  1.00  0.00     0.171 C 
ATOM     26  O   UNL A   1      32.555  25.082  22.393  1.00  0.00    -0.274 OA
ENDBRANCH  20  21
ENDBRANCH  17  20
ENDBRANCH   6  16
ENDBRANCH   4   6
ENDBRANCH   3   4
ENDBRANCH   2   3
ENDBRANCH   1   2
BRANCH   1  27
ATOM     27  O   UNL A   1      37.215  21.580  24.911  1.00  0.00    -0.374 OA
BRANCH  27  28
ATOM     28  C   UNL A   1      38.054  19.764  25.002  1.00  0.00     0.202 C 
BRANCH  28  29
ATOM     29  C   UNL A   1      39.492  19.187  25.750  1.00  0.00     0.261 C 
BRANCH  29  30
ATOM     30  O   UNL A   1      40.673  20.025  25.814  1.00  0.00    -0.460 OA
BRANCH  30  31
ATOM     31  C   UNL A   1      41.321  20.183  27.003  1.00  0.00     0.338 C 
ATOM     32  O   UNL A   1      41.963  19.325  27.586  1.00  0.00    -0.246 OA
BRANCH  31  33
ATOM     33  C   UNL A   1      41.234  21.609  27.482  1.00  0.00     0.060 A 
ATOM     34  C   UNL A   1      40.327  22.522  26.908  1.00  0.00     0.016 A 
ATOM     35  C   UNL A   1      42.127  22.089  28.439  1.00  0.00     0.016 A 
ATOM     36  C   UNL A   1      40.304  23.879  27.253  1.00  0.00     0.010 A 
ATOM     37  C   UNL A   1      42.144  23.464  28.752  1.00  0.00     0.010 A 
ATOM     38  C   UNL A   1      41.265  24.376  28.129  1.00  0.00    -0.014 A 
BRANCH  38  39
ATOM     39  C   UNL A   1      41.584  25.834  28.134  1.00  0.00     0.031 A 
ATOM     40  C   UNL A   1      42.911  26.246  27.545  1.00  0.00     0.074 A 
ATOM     41  C   UNL A   1      40.761  26.783  28.615  1.00  0.00     0.049 A 
ATOM     42  N   UNL A   1      43.546  27.388  27.623  1.00  0.00    -0.248 NA
ATOM     43  C   UNL A   1      43.622  25.214  26.770  1.00  0.00     0.031 C 
ATOM     44  C   UNL A   1      39.401  26.574  29.100  1.00  0.00     0.029 A 
ATOM     45  N   UNL A   1      40.978  28.132  28.796  1.00  0.00    -0.354 N 
ATOM     46  C   UNL A   1      44.743  27.198  26.945  1.00  0.00     0.074 A 
ATOM     47  C   UNL A   1      44.754  25.832  26.470  1.00  0.00     0.031 C 
ATOM     48  C   UNL A   1      38.919  27.744  29.562  1.00  0.00     0.029 A 
ATOM     49  C   UNL A   1      39.953  28.774  29.451  1.00  0.00     0.049 A 
ATOM     50  H   UNL A   1      41.791  28.594  28.486  1.00  0.00     0.167 HD
ATOM     51  C   UNL A   1      45.751  28.078  26.738  1.00  0.00     0.037 A 
ATOM     52  C   UNL A   1      39.880  30.030  29.943  1.00  0.00     0.037 A 
ATOM     53  C   UNL A   1      45.747  29.441  27.194  1.00  0.00     0.049 A 
ATOM     54  C   UNL A   1      41.061  30.967  29.797  1.00  0.00     0.074 A 
ATOM     55  C   UNL A   1      46.731  30.402  27.050  1.00  0.00     0.029 A 
ATOM     56  N   UNL A   1      44.700  30.039  27.877  1.00  0.00    -0.354 N 
ATOM     57  N   UNL A   1      42.209  30.771  29.198  1.00  0.00    -0.248 NA
ATOM     58  C   UNL A   1      40.933  32.299  30.410  1.00  0.00     0.031 C 
ATOM     59  C   UNL A   1      46.299  31.570  27.685  1.00  0.00     0.029 A 
ATOM     60  C   UNL A   1      45.021  31.353  28.173  1.00  0.00     0.049 A 
ATOM     61  H   UNL A   1      43.854  29.595  28.117  1.00  0.00     0.167 HD
ATOM     62  C   UNL A   1      42.916  31.964  29.320  1.00  0.00     0.074 A 
ATOM     63  C   UNL A   1      42.069  32.881  30.049  1.00  0.00     0.031 C 
ATOM     64  C   UNL A   1      44.155  32.272  28.864  1.00  0.00     0.037 A 
BRANCH  51  65
ATOM     65  C   UNL A   1      46.967  27.580  26.013  1.00  0.00     0.064 A 
ATOM     66  C   UNL A   1      48.045  26.995  26.695  1.00  0.00     0.173 A 
ATOM     67  C   UNL A   1      47.037  27.657  24.615  1.00  0.00     0.173 A 
ATOM     68  F   UNL A   1      48.032  26.913  28.034  1.00  0.00    -0.203 F 
ATOM     69  C   UNL A   1      49.157  26.525  26.002  1.00  0.00     0.198 A 
ATOM     70  C   UNL A   1      48.136  27.157  23.923  1.00  0.00     0.198 A 
ATOM     71  F   UNL A   1      46.031  28.204  23.916  1.00  0.00    -0.203 F 
ATOM     72  F   UNL A   1      50.194  26.009  26.675  1.00  0.00    -0.200 F 
ATOM     73  C   UNL A   1      49.198  26.597  24.618  1.00  0.00     0.200 A 
ATOM     74  F   UNL A   1      48.167  27.214  22.585  1.00  0.00    -0.200 F 
ATOM     75  F   UNL A   1      50.263  26.132  23.952  1.00  0.00    -0.200 F 
ENDBRANCH  51  65
BRANCH  52  76
ATOM     76  C   UNL A   1      38.661  30.491  30.668  1.00  0.00     0.064 A 
ATOM     77  C   UNL A   1      37.584  31.065  29.977  1.00  0.00     0.173 A 
ATOM     78  C   UNL A   1      38.577  30.435  32.067  1.00  0.00     0.173 A 
ATOM     79  F   UNL A   1      37.630  31.181  28.642  1.00  0.00    -0.203 F 
ATOM     80  C   UNL A   1      36.484  31.587  30.658  1.00  0.00     0.198 A 
ATOM     81  C   UNL A   1      37.463  30.926  32.744  1.00  0.00     0.198 A 
ATOM     82  F   UNL A   1      39.585  29.910  32.780  1.00  0.00    -0.203 F 
ATOM     83  F   UNL A   1      35.500  32.190  29.976  1.00  0.00    -0.200 F 
ATOM     84  C   UNL A   1      36.422  31.513  32.041  1.00  0.00     0.200 A 
ATOM     85  F   UNL A   1      37.404  30.847  34.081  1.00  0.00    -0.200 F 
ATOM     86  F   UNL A   1      35.368  32.019  32.695  1.00  0.00    -0.200 F 
ENDBRANCH  52  76
BRANCH  64  87
ATOM     87  C   UNL A   1      44.652  33.677  29.061  1.00  0.00     0.064 A 
ATOM     88  C   UNL A   1      44.306  34.719  28.189  1.00  0.00     0.173 A 
ATOM     89  C   UNL A   1      45.436  33.994  30.182  1.00  0.00     0.173 A 
ATOM     90  F   UNL A   1      43.568  34.470  27.097  1.00  0.00    -0.203 F 
ATOM     91  C   UNL A   1      44.745  36.022  28.420  1.00  0.00     0.198 A 
ATOM     92  C   UNL A   1      45.847  35.302  30.426  1.00  0.00     0.198 A 
ATOM     93  F   UNL A   1      45.787  33.038  31.054  1.00  0.00    -0.203 F 
ATOM     94  F   UNL A   1      44.437  36.994  27.551  1.00  0.00    -0.200 F 
ATOM     95  C   UNL A   1      45.506  36.314  29.542  1.00  0.00     0.200 A 
ATOM     96  F   UNL A   1      46.569  35.584  31.520  1.00  0.00    -0.200 F 
ATOM     97  F   UNL A   1      45.916  37.570  29.768  1.00  0.00    -0.200 F 
ENDBRANCH  64  87
ENDBRANCH  38  39
ENDBRANCH  31  33
ENDBRANCH  30  31
ENDBRANCH  29  30
ENDBRANCH  28  29
ENDBRANCH  27  28
ENDBRANCH   1  27
TORSDOF 20
ENDMDL
MODEL 3
REMARK VINA RESULT:     -12.6      4.536      6.565
REMARK SMILES C[C@@](COc1ccccc1)(NC(=O)CN1CSCC1=O)C(=O)OCCOCCOC(=O)c1ccc(-c2c3nc(c(-c4c(F)c(F)c(F)c(F)c4F)c4ccc([nH]4)c(-c4c(F)c(F)c(F)c(F)c4F)c4nc(c(-c5c(F)c(F)c(F)c(F)c5F)c5ccc2[nH]5)C=C4)C=C3)cc1
REMARK SMILES IDX 25 1 24 2 23 3 21 4 22 5 2 6 1 7 3 8 4 9 5 10 6 11 10 12
REMARK SMILES IDX 7 13 9 14 8 15 11 16 12 17 13 19 14 20 15 21 16 22 19 23
REMARK SMILES IDX 17 24 18 25 20 26 26 27 27 28 28 29 29 30 30 31 31 32 32 33
REMARK SMILES IDX 33 34 94 35 34 36 93 37 35 38 36 39 37 40 87 41 38 42 92 43
REMARK SMILES IDX 86 44 88 45 39 46 91 47 85 48 84 49 40 51 72 52 52 53 71 54
REMARK SMILES IDX 53 55 56 56 70 57 89 58 54 59 55 60 69 62 90 63 57 64 41 65
REMARK SMILES IDX 42 66 50 67 43 68 44 69 48 70 51 71 45 72 46 73 49 74 47 75
REMARK SMILES IDX 73 76 74 77 82 78 75 79 76 80 80 81 83 82 77 83 78 84 81 85
REMARK SMILES IDX 79 86 58 87 59 88 67 89 60 90 61 91 65 92 68 93 62 94 63 95
REMARK SMILES IDX 66 96 64 97
REMARK H PARENT 11 18 88 50 56 61
REMARK Flexibility Score: inf
ROOT
ATOM      1  C   UNL A   1      33.125  29.239  25.261  1.00  0.00     0.202 C 
ENDROOT
BRANCH   1   2
ATOM      2  C   UNL A   1      33.718  27.931  24.543  1.00  0.00     0.261 C 
BRANCH   2   3
ATOM      3  O   UNL A   1      32.955  26.711  24.712  1.00  0.00    -0.461 OA
BRANCH   3   4
ATOM      4  C   UNL A   1      32.333  26.023  23.723  1.00  0.00     0.335 C 
ATOM      5  O   UNL A   1      32.851  25.750  22.651  1.00  0.00    -0.249 OA
BRANCH   4   6
ATOM      6  C   UNL A   1      31.037  25.351  24.294  1.00  0.00     0.169 C 
ATOM      7  C   UNL A   1      30.592  24.341  23.195  1.00  0.00     0.051 C 
BRANCH   6   8
ATOM      8  C   UNL A   1      29.849  26.356  24.428  1.00  0.00     0.269 C 
BRANCH   8   9
ATOM      9  O   UNL A   1      29.591  27.022  23.146  1.00  0.00    -0.491 OA
BRANCH   9  10
ATOM     10  C   UNL A   1      29.091  28.296  23.232  1.00  0.00     0.119 A 
ATOM     11  C   UNL A   1      29.921  29.382  23.491  1.00  0.00     0.046 A 
ATOM     12  C   UNL A   1      27.710  28.495  23.108  1.00  0.00     0.046 A 
ATOM     13  C   UNL A   1      29.385  30.673  23.538  1.00  0.00     0.004 A 
ATOM     14  C   UNL A   1      27.180  29.789  23.111  1.00  0.00     0.004 A 
ATOM     15  C   UNL A   1      28.021  30.879  23.320  1.00  0.00     0.000 A 
ENDBRANCH   9  10
ENDBRANCH   8   9
ENDBRANCH   6   8
BRANCH   6  16
ATOM     16  N   UNL A   1      31.130  24.720  25.678  1.00  0.00    -0.336 N 
ATOM     17  C   UNL A   1      31.333  23.546  26.324  1.00  0.00     0.240 C 
ATOM     18  H   UNL A   1      30.994  25.426  26.352  1.00  0.00     0.164 HD
ATOM     19  O   UNL A   1      30.957  23.527  27.503  1.00  0.00    -0.273 OA
BRANCH  17  20
ATOM     20  C   UNL A   1      31.959  22.296  25.712  1.00  0.00     0.220 C 
BRANCH  20  21
ATOM     21  N   UNL A   1      33.351  22.568  25.352  1.00  0.00    -0.323 N 
ATOM     22  C   UNL A   1      34.686  22.705  26.705  1.00  0.00     0.190 C 
ATOM     23  C   UNL A   1      33.955  22.684  23.630  1.00  0.00     0.233 C 
ATOM     24  S   UNL A   1      36.728  23.343  25.742  1.00  0.00    -0.130 SA
ATOM     25  C   UNL A   1      35.880  23.186  23.540  1.00  0.00     0.171 C 
ATOM     26  O   UNL A   1      33.325  22.407  22.625  1.00  0.00    -0.274 OA
ENDBRANCH  20  21
ENDBRANCH  17  20
ENDBRANCH   6  16
ENDBRANCH   4   6
ENDBRANCH   3   4
ENDBRANCH   2   3
ENDBRANCH   1   2
BRANCH   1  27
ATOM     27  O   UNL A   1      33.731  29.991  26.576  1.00  0.00    -0.374 OA
BRANCH  27  28
ATOM     28  C   UNL A   1      33.603  31.683  27.640  1.00  0.00     0.202 C 
BRANCH  28  29
ATOM     29  C   UNL A   1      32.411  32.921  27.710  1.00  0.00     0.261 C 
BRANCH  29  30
ATOM     30  O   UNL A   1      32.777  34.307  27.497  1.00  0.00    -0.460 OA
BRANCH  30  31
ATOM     31  C   UNL A   1      32.964  35.125  28.571  1.00  0.00     0.338 C 
ATOM     32  O   UNL A   1      32.234  36.045  28.903  1.00  0.00    -0.246 OA
BRANCH  31  33
ATOM     33  C   UNL A   1      34.157  34.692  29.382  1.00  0.00     0.060 A 
ATOM     34  C   UNL A   1      35.436  34.577  28.802  1.00  0.00     0.016 A 
ATOM     35  C   UNL A   1      34.005  34.292  30.708  1.00  0.00     0.016 A 
ATOM     36  C   UNL A   1      36.538  34.068  29.500  1.00  0.00     0.010 A 
ATOM     37  C   UNL A   1      35.097  33.730  31.401  1.00  0.00     0.010 A 
ATOM     38  C   UNL A   1      36.358  33.571  30.788  1.00  0.00    -0.014 A 
BRANCH  38  39
ATOM     39  C   UNL A   1      37.341  32.602  31.356  1.00  0.00     0.031 A 
ATOM     40  C   UNL A   1      37.837  32.872  32.755  1.00  0.00     0.074 A 
ATOM     41  C   UNL A   1      37.789  31.515  30.703  1.00  0.00     0.049 A 
ATOM     42  N   UNL A   1      38.845  32.346  33.405  1.00  0.00    -0.248 NA
ATOM     43  C   UNL A   1      37.092  33.887  33.520  1.00  0.00     0.031 C 
ATOM     44  C   UNL A   1      37.323  31.040  29.404  1.00  0.00     0.029 A 
ATOM     45  N   UNL A   1      38.777  30.618  31.053  1.00  0.00    -0.354 N 
ATOM     46  C   UNL A   1      38.878  32.996  34.633  1.00  0.00     0.074 A 
ATOM     47  C   UNL A   1      37.799  33.958  34.637  1.00  0.00     0.031 C 
ATOM     48  C   UNL A   1      38.051  29.964  29.047  1.00  0.00     0.029 A 
ATOM     49  C   UNL A   1      39.067  29.704  30.067  1.00  0.00     0.049 A 
ATOM     50  H   UNL A   1      39.232  30.631  31.926  1.00  0.00     0.167 HD
ATOM     51  C   UNL A   1      39.733  32.814  35.666  1.00  0.00     0.037 A 
ATOM     52  C   UNL A   1      40.066  28.798  29.982  1.00  0.00     0.037 A 
ATOM     53  C   UNL A   1      40.802  31.852  35.678  1.00  0.00     0.049 A 
ATOM     54  C   UNL A   1      41.078  28.684  31.101  1.00  0.00     0.074 A 
ATOM     55  C   UNL A   1      41.733  31.610  36.672  1.00  0.00     0.029 A 
ATOM     56  N   UNL A   1      41.076  30.968  34.647  1.00  0.00    -0.354 N 
ATOM     57  N   UNL A   1      41.137  29.330  32.240  1.00  0.00    -0.248 NA
ATOM     58  C   UNL A   1      42.173  27.717  30.913  1.00  0.00     0.031 C 
ATOM     59  C   UNL A   1      42.600  30.608  36.225  1.00  0.00     0.029 A 
ATOM     60  C   UNL A   1      42.171  30.187  34.976  1.00  0.00     0.049 A 
ATOM     61  H   UNL A   1      40.568  30.905  33.806  1.00  0.00     0.167 HD
ATOM     62  C   UNL A   1      42.238  28.816  32.919  1.00  0.00     0.074 A 
ATOM     63  C   UNL A   1      42.821  27.804  32.067  1.00  0.00     0.031 C 
ATOM     64  C   UNL A   1      42.721  29.152  34.140  1.00  0.00     0.037 A 
BRANCH  51  65
ATOM     65  C   UNL A   1      39.571  33.704  36.863  1.00  0.00     0.064 A 
ATOM     66  C   UNL A   1      38.762  33.340  37.949  1.00  0.00     0.173 A 
ATOM     67  C   UNL A   1      40.265  34.921  36.938  1.00  0.00     0.173 A 
ATOM     68  F   UNL A   1      38.066  32.193  37.918  1.00  0.00    -0.203 F 
ATOM     69  C   UNL A   1      38.638  34.173  39.058  1.00  0.00     0.198 A 
ATOM     70  C   UNL A   1      40.163  35.736  38.061  1.00  0.00     0.198 A 
ATOM     71  F   UNL A   1      41.055  35.313  35.927  1.00  0.00    -0.203 F 
ATOM     72  F   UNL A   1      37.826  33.826  40.067  1.00  0.00    -0.200 F 
ATOM     73  C   UNL A   1      39.345  35.364  39.118  1.00  0.00     0.200 A 
ATOM     74  F   UNL A   1      40.859  36.879  38.123  1.00  0.00    -0.200 F 
ATOM     75  F   UNL A   1      39.235  36.158  40.191  1.00  0.00    -0.200 F 
ENDBRANCH  51  65
BRANCH  52  76
ATOM     76  C   UNL A   1      40.205  27.935  28.774  1.00  0.00     0.064 A 
ATOM     77  C   UNL A   1      39.650  26.647  28.738  1.00  0.00     0.173 A 
ATOM     78  C   UNL A   1      40.955  28.348  27.662  1.00  0.00     0.173 A 
ATOM     79  F   UNL A   1      38.958  26.186  29.790  1.00  0.00    -0.203 F 
ATOM     80  C   UNL A   1      39.861  25.800  27.649  1.00  0.00     0.198 A 
ATOM     81  C   UNL A   1      41.137  27.513  26.562  1.00  0.00     0.198 A 
ATOM     82  F   UNL A   1      41.522  29.564  27.649  1.00  0.00    -0.203 F 
ATOM     83  F   UNL A   1      39.374  24.551  27.672  1.00  0.00    -0.200 F 
ATOM     84  C   UNL A   1      40.600  26.235  26.561  1.00  0.00     0.200 A 
ATOM     85  F   UNL A   1      41.847  27.940  25.508  1.00  0.00    -0.200 F 
ATOM     86  F   UNL A   1      40.806  25.419  25.519  1.00  0.00    -0.200 F 
ENDBRANCH  52  76
BRANCH  64  87
ATOM     87  C   UNL A   1      43.888  28.373  34.679  1.00  0.00     0.064 A 
ATOM     88  C   UNL A   1      43.719  27.216  35.452  1.00  0.00     0.173 A 
ATOM     89  C   UNL A   1      45.199  28.759  34.356  1.00  0.00     0.173 A 
ATOM     90  F   UNL A   1      42.488  26.808  35.798  1.00  0.00    -0.203 F 
ATOM     91  C   UNL A   1      44.818  26.488  35.902  1.00  0.00     0.198 A 
ATOM     92  C   UNL A   1      46.294  28.012  34.781  1.00  0.00     0.198 A 
ATOM     93  F   UNL A   1      45.418  29.852  33.610  1.00  0.00    -0.203 F 
ATOM     94  F   UNL A   1      44.634  25.408  36.675  1.00  0.00    -0.200 F 
ATOM     95  C   UNL A   1      46.103  26.880  35.559  1.00  0.00     0.200 A 
ATOM     96  F   UNL A   1      47.534  28.385  34.435  1.00  0.00    -0.200 F 
ATOM     97  F   UNL A   1      47.159  26.171  35.982  1.00  0.00    -0.200 F 
ENDBRANCH  64  87
ENDBRANCH  38  39
ENDBRANCH  31  33
ENDBRANCH  30  31
ENDBRANCH  29  30
ENDBRANCH  28  29
ENDBRANCH  27  28
ENDBRANCH   1  27
TORSDOF 20
ENDMDL
