MODEL 1
REMARK VINA RESULT:     -10.8      0.000      0.000
REMARK SMILES C=CC[N@@H+](CC(=O)OCCOCCOC(=O)c1ccc(-c2c3nc(c(-c4c(F)c(F)c(F)c(F)c4F)c4ccc([nH]4)c(-c4c(F)c(F)c(F)c(F)c4F)c4nc(c(-c5c(F)c(F)c(F)c(F)c5F)c5ccc2[nH]5)C=C4)C=C3)cc1)C[C@H]1CCC[C@H](C)C1
REMARK SMILES IDX 10 1 9 2 8 3 6 4 7 5 5 6 4 7 3 9 2 10 1 11 80 12 81 13 82 14
REMARK SMILES IDX 87 15 83 16 85 17 84 18 86 19 11 20 12 21 13 22 14 23 15 24
REMARK SMILES IDX 16 25 17 26 18 27 79 28 19 29 78 30 20 31 21 32 22 33 72 34
REMARK SMILES IDX 23 35 77 36 71 37 73 38 24 39 76 40 70 41 69 42 25 44 57 45
REMARK SMILES IDX 37 46 56 47 38 48 41 49 55 50 74 51 39 52 40 53 54 55 75 56
REMARK SMILES IDX 42 57 26 58 27 59 35 60 28 61 29 62 33 63 36 64 30 65 31 66
REMARK SMILES IDX 34 67 32 68 58 69 59 70 67 71 60 72 61 73 65 74 68 75 62 76
REMARK SMILES IDX 63 77 66 78 64 79 43 80 44 81 52 82 45 83 46 84 50 85 53 86
REMARK SMILES IDX 47 87 48 88 51 89 49 90
REMARK H PARENT 4 8 73 43 41 54
REMARK Flexibility Score: inf
ROOT
ATOM      1  C   UNL A   1      34.760  29.378  27.101  1.00  0.00     0.202 C 
ENDROOT
BRANCH   1   2
ATOM      2  C   UNL A   1      33.831  28.308  26.405  1.00  0.00     0.261 C 
BRANCH   2   3
ATOM      3  O   UNL A   1      33.170  28.549  25.121  1.00  0.00    -0.459 OA
BRANCH   3   4
ATOM      4  C   UNL A   1      31.954  29.146  25.059  1.00  0.00     0.361 C 
ATOM      5  O   UNL A   1      31.736  30.243  25.564  1.00  0.00    -0.245 OA
BRANCH   4   6
ATOM      6  C   UNL A   1      30.854  28.309  24.338  1.00  0.00     0.386 C 
BRANCH   6   7
ATOM      7  N   UNL A   1      30.762  28.225  22.844  1.00  0.00    -0.322 N 
ATOM      8  H   UNL A   1      31.627  28.700  22.586  1.00  0.00     0.348 HD
BRANCH   7   9
ATOM      9  C   UNL A   1      29.731  29.065  22.245  1.00  0.00     0.290 C 
BRANCH   9  10
ATOM     10  C   UNL A   1      28.468  29.195  23.056  1.00  0.00     0.025 C 
ATOM     11  C   UNL A   1      27.662  30.266  23.054  1.00  0.00     0.010 C 
ENDBRANCH   9  10
ENDBRANCH   7   9
BRANCH   7  12
ATOM     12  C   UNL A   1      31.260  27.041  22.115  1.00  0.00     0.266 C 
BRANCH  12  13
ATOM     13  C   UNL A   1      31.816  26.000  23.071  1.00  0.00     0.044 C 
ATOM     14  C   UNL A   1      30.522  24.591  23.423  1.00  0.00     0.009 C 
ATOM     15  C   UNL A   1      33.697  25.602  23.192  1.00  0.00     0.012 C 
ATOM     16  C   UNL A   1      31.066  23.068  24.507  1.00  0.00     0.001 C 
ATOM     17  C   UNL A   1      34.279  24.077  24.238  1.00  0.00    -0.014 C 
ATOM     18  C   UNL A   1      32.980  22.723  24.759  1.00  0.00     0.003 C 
ATOM     19  C   UNL A   1      35.178  24.508  25.409  1.00  0.00     0.007 C 
ENDBRANCH  12  13
ENDBRANCH   7  12
ENDBRANCH   6   7
ENDBRANCH   4   6
ENDBRANCH   3   4
ENDBRANCH   2   3
ENDBRANCH   1   2
BRANCH   1  20
ATOM     20  O   UNL A   1      34.255  30.340  28.068  1.00  0.00    -0.374 OA
BRANCH  20  21
ATOM     21  C   UNL A   1      34.197  31.764  27.594  1.00  0.00     0.202 C 
BRANCH  21  22
ATOM     22  C   UNL A   1      32.725  33.259  27.724  1.00  0.00     0.261 C 
BRANCH  22  23
ATOM     23  O   UNL A   1      32.920  34.781  27.898  1.00  0.00    -0.460 OA
BRANCH  23  24
ATOM     24  C   UNL A   1      33.097  35.445  29.060  1.00  0.00     0.338 C 
ATOM     25  O   UNL A   1      32.353  36.239  29.604  1.00  0.00    -0.246 OA
BRANCH  24  26
ATOM     26  C   UNL A   1      34.235  34.733  29.694  1.00  0.00     0.060 A 
ATOM     27  C   UNL A   1      33.941  33.825  30.724  1.00  0.00     0.016 A 
ATOM     28  C   UNL A   1      35.510  34.758  29.117  1.00  0.00     0.016 A 
ATOM     29  C   UNL A   1      34.921  32.941  31.175  1.00  0.00     0.010 A 
ATOM     30  C   UNL A   1      36.506  33.904  29.602  1.00  0.00     0.010 A 
ATOM     31  C   UNL A   1      36.221  33.013  30.653  1.00  0.00    -0.014 A 
BRANCH  31  32
ATOM     32  C   UNL A   1      37.324  32.432  31.456  1.00  0.00     0.031 A 
ATOM     33  C   UNL A   1      38.086  31.308  30.807  1.00  0.00     0.074 A 
ATOM     34  C   UNL A   1      37.684  32.899  32.664  1.00  0.00     0.049 A 
ATOM     35  N   UNL A   1      39.129  30.645  31.231  1.00  0.00    -0.248 NA
ATOM     36  C   UNL A   1      37.594  30.875  29.485  1.00  0.00     0.031 C 
ATOM     37  C   UNL A   1      37.044  33.998  33.380  1.00  0.00     0.029 A 
ATOM     38  N   UNL A   1      38.698  32.497  33.500  1.00  0.00    -0.354 N 
ATOM     39  C   UNL A   1      39.420  29.733  30.223  1.00  0.00     0.074 A 
ATOM     40  C   UNL A   1      38.428  29.895  29.189  1.00  0.00     0.031 C 
ATOM     41  C   UNL A   1      37.679  34.183  34.553  1.00  0.00     0.029 A 
ATOM     42  C   UNL A   1      38.762  33.208  34.675  1.00  0.00     0.049 A 
ATOM     43  H   UNL A   1      39.321  31.768  33.279  1.00  0.00     0.167 HD
ATOM     44  C   UNL A   1      40.433  28.841  30.159  1.00  0.00     0.037 A 
ATOM     45  C   UNL A   1      39.604  33.076  35.720  1.00  0.00     0.037 A 
ATOM     46  C   UNL A   1      41.403  28.662  31.201  1.00  0.00     0.049 A 
ATOM     47  C   UNL A   1      40.700  32.037  35.651  1.00  0.00     0.074 A 
ATOM     48  C   UNL A   1      42.463  27.776  31.253  1.00  0.00     0.029 A 
ATOM     49  N   UNL A   1      41.417  29.382  32.387  1.00  0.00    -0.354 N 
ATOM     50  N   UNL A   1      40.987  31.196  34.685  1.00  0.00    -0.248 NA
ATOM     51  C   UNL A   1      41.595  31.937  36.813  1.00  0.00     0.031 C 
ATOM     52  C   UNL A   1      43.093  27.931  32.493  1.00  0.00     0.029 A 
ATOM     53  C   UNL A   1      42.457  28.948  33.189  1.00  0.00     0.049 A 
ATOM     54  H   UNL A   1      40.780  30.095  32.622  1.00  0.00     0.167 HD
ATOM     55  C   UNL A   1      42.102  30.485  35.111  1.00  0.00     0.074 A 
ATOM     56  C   UNL A   1      42.453  31.007  36.416  1.00  0.00     0.031 C 
ATOM     57  C   UNL A   1      42.778  29.488  34.485  1.00  0.00     0.037 A 
BRANCH  44  58
ATOM     58  C   UNL A   1      40.495  27.975  28.938  1.00  0.00     0.064 A 
ATOM     59  C   UNL A   1      41.252  28.339  27.813  1.00  0.00     0.173 A 
ATOM     60  C   UNL A   1      39.753  26.787  28.874  1.00  0.00     0.173 A 
ATOM     61  F   UNL A   1      41.952  29.484  27.811  1.00  0.00    -0.203 F 
ATOM     62  C   UNL A   1      41.238  27.562  26.657  1.00  0.00     0.198 A 
ATOM     63  C   UNL A   1      39.765  25.996  27.729  1.00  0.00     0.198 A 
ATOM     64  F   UNL A   1      39.004  26.402  29.918  1.00  0.00    -0.203 F 
ATOM     65  F   UNL A   1      41.915  27.962  25.573  1.00  0.00    -0.200 F 
ATOM     66  C   UNL A   1      40.498  26.389  26.619  1.00  0.00     0.200 A 
ATOM     67  F   UNL A   1      39.051  24.863  27.693  1.00  0.00    -0.200 F 
ATOM     68  F   UNL A   1      40.480  25.643  25.505  1.00  0.00    -0.200 F 
ENDBRANCH  44  58
BRANCH  45  69
ATOM     69  C   UNL A   1      39.454  33.945  36.920  1.00  0.00     0.064 A 
ATOM     70  C   UNL A   1      40.047  35.214  36.982  1.00  0.00     0.173 A 
ATOM     71  C   UNL A   1      38.729  33.515  38.042  1.00  0.00     0.173 A 
ATOM     72  F   UNL A   1      40.779  35.663  35.951  1.00  0.00    -0.203 F 
ATOM     73  C   UNL A   1      39.929  36.014  38.119  1.00  0.00     0.198 A 
ATOM     74  C   UNL A   1      38.589  34.325  39.168  1.00  0.00     0.198 A 
ATOM     75  F   UNL A   1      38.150  32.305  38.042  1.00  0.00    -0.203 F 
ATOM     76  F   UNL A   1      40.543  37.205  38.166  1.00  0.00    -0.200 F 
ATOM     77  C   UNL A   1      39.194  35.571  39.208  1.00  0.00     0.200 A 
ATOM     78  F   UNL A   1      37.872  33.894  40.215  1.00  0.00    -0.200 F 
ATOM     79  F   UNL A   1      39.076  36.341  40.298  1.00  0.00    -0.200 F 
ENDBRANCH  45  69
BRANCH  57  80
ATOM     80  C   UNL A   1      43.971  28.916  35.194  1.00  0.00     0.064 A 
ATOM     81  C   UNL A   1      45.254  29.456  35.026  1.00  0.00     0.173 A 
ATOM     82  C   UNL A   1      43.818  27.845  36.087  1.00  0.00     0.173 A 
ATOM     83  F   UNL A   1      45.451  30.476  34.177  1.00  0.00    -0.203 F 
ATOM     84  C   UNL A   1      46.347  28.922  35.701  1.00  0.00     0.198 A 
ATOM     85  C   UNL A   1      44.909  27.333  36.783  1.00  0.00     0.198 A 
ATOM     86  F   UNL A   1      42.608  27.302  36.293  1.00  0.00    -0.203 F 
ATOM     87  F   UNL A   1      47.573  29.421  35.488  1.00  0.00    -0.200 F 
ATOM     88  C   UNL A   1      46.173  27.865  36.584  1.00  0.00     0.200 A 
ATOM     89  F   UNL A   1      44.736  26.323  37.647  1.00  0.00    -0.200 F 
ATOM     90  F   UNL A   1      47.226  27.355  37.236  1.00  0.00    -0.200 F 
ENDBRANCH  57  80
ENDBRANCH  31  32
ENDBRANCH  24  26
ENDBRANCH  23  24
ENDBRANCH  22  23
ENDBRANCH  21  22
ENDBRANCH  20  21
ENDBRANCH   1  20
TORSDOF 19
ENDMDL
MODEL 2
REMARK VINA RESULT:     -10.8      5.756     11.211
REMARK SMILES C=CC[N@@H+](CC(=O)OCCOCCOC(=O)c1ccc(-c2c3nc(c(-c4c(F)c(F)c(F)c(F)c4F)c4ccc([nH]4)c(-c4c(F)c(F)c(F)c(F)c4F)c4nc(c(-c5c(F)c(F)c(F)c(F)c5F)c5ccc2[nH]5)C=C4)C=C3)cc1)C[C@H]1CCC[C@H](C)C1
REMARK SMILES IDX 10 1 9 2 8 3 6 4 7 5 5 6 4 7 3 9 2 10 1 11 80 12 81 13 82 14
REMARK SMILES IDX 87 15 83 16 85 17 84 18 86 19 11 20 12 21 13 22 14 23 15 24
REMARK SMILES IDX 16 25 17 26 18 27 79 28 19 29 78 30 20 31 21 32 22 33 72 34
REMARK SMILES IDX 23 35 77 36 71 37 73 38 24 39 76 40 70 41 69 42 25 44 57 45
REMARK SMILES IDX 37 46 56 47 38 48 41 49 55 50 74 51 39 52 40 53 54 55 75 56
REMARK SMILES IDX 42 57 26 58 27 59 35 60 28 61 29 62 33 63 36 64 30 65 31 66
REMARK SMILES IDX 34 67 32 68 58 69 59 70 67 71 60 72 61 73 65 74 68 75 62 76
REMARK SMILES IDX 63 77 66 78 64 79 43 80 44 81 52 82 45 83 46 84 50 85 53 86
REMARK SMILES IDX 47 87 48 88 51 89 49 90
REMARK H PARENT 4 8 73 43 41 54
REMARK Flexibility Score: inf
ROOT
ATOM      1  C   UNL A   1      37.959  23.774  26.117  1.00  0.00     0.202 C 
ENDROOT
BRANCH   1   2
ATOM      2  C   UNL A   1      36.458  23.474  25.726  1.00  0.00     0.261 C 
BRANCH   2   3
ATOM      3  O   UNL A   1      35.777  24.152  24.622  1.00  0.00    -0.459 OA
BRANCH   3   4
ATOM      4  C   UNL A   1      34.430  24.309  24.618  1.00  0.00     0.361 C 
ATOM      5  O   UNL A   1      33.769  24.274  23.585  1.00  0.00    -0.245 OA
BRANCH   4   6
ATOM      6  C   UNL A   1      33.803  24.580  26.019  1.00  0.00     0.386 C 
BRANCH   6   7
ATOM      7  N   UNL A   1      32.452  24.060  26.407  1.00  0.00    -0.322 N 
ATOM      8  H   UNL A   1      32.404  24.391  27.370  1.00  0.00     0.348 HD
BRANCH   7   9
ATOM      9  C   UNL A   1      32.370  22.610  26.550  1.00  0.00     0.290 C 
BRANCH   9  10
ATOM     10  C   UNL A   1      31.694  21.897  25.409  1.00  0.00     0.025 C 
ATOM     11  C   UNL A   1      32.326  21.180  24.470  1.00  0.00     0.010 C 
ENDBRANCH   9  10
ENDBRANCH   7   9
BRANCH   7  12
ATOM     12  C   UNL A   1      31.228  24.842  26.136  1.00  0.00     0.266 C 
BRANCH  12  13
ATOM     13  C   UNL A   1      31.555  26.301  25.873  1.00  0.00     0.044 C 
ATOM     14  C   UNL A   1      30.793  26.911  24.191  1.00  0.00     0.009 C 
ATOM     15  C   UNL A   1      31.841  27.573  27.293  1.00  0.00     0.012 C 
ATOM     16  C   UNL A   1      30.957  28.792  23.715  1.00  0.00     0.001 C 
ATOM     17  C   UNL A   1      31.981  29.458  26.864  1.00  0.00    -0.014 C 
ATOM     18  C   UNL A   1      31.385  30.089  25.121  1.00  0.00     0.003 C 
ATOM     19  C   UNL A   1      33.359  30.021  27.253  1.00  0.00     0.007 C 
ENDBRANCH  12  13
ENDBRANCH   7  12
ENDBRANCH   6   7
ENDBRANCH   4   6
ENDBRANCH   3   4
ENDBRANCH   2   3
ENDBRANCH   1   2
BRANCH   1  20
ATOM     20  O   UNL A   1      38.935  22.718  26.336  1.00  0.00    -0.374 OA
BRANCH  20  21
ATOM     21  C   UNL A   1      38.667  21.429  25.613  1.00  0.00     0.202 C 
BRANCH  21  22
ATOM     22  C   UNL A   1      39.509  19.508  25.750  1.00  0.00     0.261 C 
BRANCH  22  23
ATOM     23  O   UNL A   1      40.741  19.059  26.565  1.00  0.00    -0.460 OA
BRANCH  23  24
ATOM     24  C   UNL A   1      42.031  19.107  26.172  1.00  0.00     0.338 C 
ATOM     25  O   UNL A   1      42.654  18.304  25.504  1.00  0.00    -0.246 OA
BRANCH  24  26
ATOM     26  C   UNL A   1      42.421  20.515  26.438  1.00  0.00     0.060 A 
ATOM     27  C   UNL A   1      42.625  21.354  25.331  1.00  0.00     0.016 A 
ATOM     28  C   UNL A   1      42.326  21.056  27.726  1.00  0.00     0.016 A 
ATOM     29  C   UNL A   1      42.732  22.733  25.511  1.00  0.00     0.010 A 
ATOM     30  C   UNL A   1      42.481  22.433  27.912  1.00  0.00     0.010 A 
ATOM     31  C   UNL A   1      42.713  23.272  26.806  1.00  0.00    -0.014 A 
BRANCH  31  32
ATOM     32  C   UNL A   1      43.299  24.620  27.005  1.00  0.00     0.031 A 
ATOM     33  C   UNL A   1      42.374  25.660  27.577  1.00  0.00     0.074 A 
ATOM     34  C   UNL A   1      44.588  24.909  26.757  1.00  0.00     0.049 A 
ATOM     35  N   UNL A   1      42.609  26.899  27.916  1.00  0.00    -0.248 NA
ATOM     36  C   UNL A   1      40.980  25.229  27.800  1.00  0.00     0.031 C 
ATOM     37  C   UNL A   1      45.585  23.982  26.231  1.00  0.00     0.029 A 
ATOM     38  N   UNL A   1      45.279  26.085  26.928  1.00  0.00    -0.354 N 
ATOM     39  C   UNL A   1      41.400  27.385  28.400  1.00  0.00     0.074 A 
ATOM     40  C   UNL A   1      40.426  26.328  28.277  1.00  0.00     0.031 C 
ATOM     41  C   UNL A   1      46.763  24.626  26.119  1.00  0.00     0.029 A 
ATOM     42  C   UNL A   1      46.599  26.012  26.554  1.00  0.00     0.049 A 
ATOM     43  H   UNL A   1      44.867  26.904  27.285  1.00  0.00     0.167 HD
ATOM     44  C   UNL A   1      41.125  28.604  28.913  1.00  0.00     0.037 A 
ATOM     45  C   UNL A   1      47.555  26.964  26.566  1.00  0.00     0.037 A 
ATOM     46  C   UNL A   1      42.088  29.663  29.009  1.00  0.00     0.049 A 
ATOM     47  C   UNL A   1      47.214  28.338  27.096  1.00  0.00     0.074 A 
ATOM     48  C   UNL A   1      41.918  30.946  29.495  1.00  0.00     0.029 A 
ATOM     49  N   UNL A   1      43.408  29.558  28.594  1.00  0.00    -0.354 N 
ATOM     50  N   UNL A   1      46.077  28.782  27.578  1.00  0.00    -0.248 NA
ATOM     51  C   UNL A   1      48.292  29.337  27.094  1.00  0.00     0.031 C 
ATOM     52  C   UNL A   1      43.127  31.632  29.332  1.00  0.00     0.029 A 
ATOM     53  C   UNL A   1      44.061  30.761  28.793  1.00  0.00     0.049 A 
ATOM     54  H   UNL A   1      43.817  28.748  28.212  1.00  0.00     0.167 HD
ATOM     55  C   UNL A   1      46.307  30.100  27.953  1.00  0.00     0.074 A 
ATOM     56  C   UNL A   1      47.698  30.378  27.662  1.00  0.00     0.031 C 
ATOM     57  C   UNL A   1      45.448  31.004  28.490  1.00  0.00     0.037 A 
BRANCH  44  58
ATOM     58  C   UNL A   1      39.715  28.848  29.358  1.00  0.00     0.064 A 
ATOM     59  C   UNL A   1      38.748  29.379  28.489  1.00  0.00     0.173 A 
ATOM     60  C   UNL A   1      39.335  28.587  30.681  1.00  0.00     0.173 A 
ATOM     61  F   UNL A   1      39.072  29.678  27.221  1.00  0.00    -0.203 F 
ATOM     62  C   UNL A   1      37.463  29.670  28.939  1.00  0.00     0.198 A 
ATOM     63  C   UNL A   1      38.041  28.851  31.121  1.00  0.00     0.198 A 
ATOM     64  F   UNL A   1      40.225  28.091  31.555  1.00  0.00    -0.203 F 
ATOM     65  F   UNL A   1      36.577  30.239  28.110  1.00  0.00    -0.200 F 
ATOM     66  C   UNL A   1      37.110  29.401  30.253  1.00  0.00     0.200 A 
ATOM     67  F   UNL A   1      37.700  28.589  32.390  1.00  0.00    -0.200 F 
ATOM     68  F   UNL A   1      35.874  29.687  30.687  1.00  0.00    -0.200 F 
ENDBRANCH  44  58
BRANCH  45  69
ATOM     69  C   UNL A   1      48.925  26.660  26.067  1.00  0.00     0.064 A 
ATOM     70  C   UNL A   1      49.886  26.055  26.891  1.00  0.00     0.173 A 
ATOM     71  C   UNL A   1      49.308  26.985  24.757  1.00  0.00     0.173 A 
ATOM     72  F   UNL A   1      49.582  25.752  28.162  1.00  0.00    -0.203 F 
ATOM     73  C   UNL A   1      51.177  25.798  26.429  1.00  0.00     0.198 A 
ATOM     74  C   UNL A   1      50.591  26.704  24.288  1.00  0.00     0.198 A 
ATOM     75  F   UNL A   1      48.434  27.574  23.929  1.00  0.00    -0.203 F 
ATOM     76  F   UNL A   1      52.087  25.259  27.252  1.00  0.00    -0.200 F 
ATOM     77  C   UNL A   1      51.526  26.117  25.126  1.00  0.00     0.200 A 
ATOM     78  F   UNL A   1      50.921  27.008  23.025  1.00  0.00    -0.200 F 
ATOM     79  F   UNL A   1      52.764  25.864  24.680  1.00  0.00    -0.200 F 
ENDBRANCH  45  69
BRANCH  57  80
ATOM     80  C   UNL A   1      45.995  32.364  28.813  1.00  0.00     0.064 A 
ATOM     81  C   UNL A   1      45.945  33.416  27.887  1.00  0.00     0.173 A 
ATOM     82  C   UNL A   1      46.534  32.628  30.081  1.00  0.00     0.173 A 
ATOM     83  F   UNL A   1      45.447  33.210  26.658  1.00  0.00    -0.203 F 
ATOM     84  C   UNL A   1      46.446  34.674  28.208  1.00  0.00     0.198 A 
ATOM     85  C   UNL A   1      47.005  33.896  30.409  1.00  0.00     0.198 A 
ATOM     86  F   UNL A   1      46.592  31.659  31.008  1.00  0.00    -0.203 F 
ATOM     87  F   UNL A   1      46.434  35.651  27.291  1.00  0.00    -0.200 F 
ATOM     88  C   UNL A   1      46.969  34.915  29.470  1.00  0.00     0.200 A 
ATOM     89  F   UNL A   1      47.496  34.131  31.634  1.00  0.00    -0.200 F 
ATOM     90  F   UNL A   1      47.446  36.128  29.778  1.00  0.00    -0.200 F 
ENDBRANCH  57  80
ENDBRANCH  31  32
ENDBRANCH  24  26
ENDBRANCH  23  24
ENDBRANCH  22  23
ENDBRANCH  21  22
ENDBRANCH  20  21
ENDBRANCH   1  20
TORSDOF 19
ENDMDL
MODEL 3
REMARK VINA RESULT:     -10.7      1.768      7.648
REMARK SMILES C=CC[N@@H+](CC(=O)OCCOCCOC(=O)c1ccc(-c2c3nc(c(-c4c(F)c(F)c(F)c(F)c4F)c4ccc([nH]4)c(-c4c(F)c(F)c(F)c(F)c4F)c4nc(c(-c5c(F)c(F)c(F)c(F)c5F)c5ccc2[nH]5)C=C4)C=C3)cc1)C[C@H]1CCC[C@H](C)C1
REMARK SMILES IDX 10 1 9 2 8 3 6 4 7 5 5 6 4 7 3 9 2 10 1 11 80 12 81 13 82 14
REMARK SMILES IDX 87 15 83 16 85 17 84 18 86 19 11 20 12 21 13 22 14 23 15 24
REMARK SMILES IDX 16 25 17 26 18 27 79 28 19 29 78 30 20 31 21 32 22 33 72 34
REMARK SMILES IDX 23 35 77 36 71 37 73 38 24 39 76 40 70 41 69 42 25 44 57 45
REMARK SMILES IDX 37 46 56 47 38 48 41 49 55 50 74 51 39 52 40 53 54 55 75 56
REMARK SMILES IDX 42 57 26 58 27 59 35 60 28 61 29 62 33 63 36 64 30 65 31 66
REMARK SMILES IDX 34 67 32 68 58 69 59 70 67 71 60 72 61 73 65 74 68 75 62 76
REMARK SMILES IDX 63 77 66 78 64 79 43 80 44 81 52 82 45 83 46 84 50 85 53 86
REMARK SMILES IDX 47 87 48 88 51 89 49 90
REMARK H PARENT 4 8 73 43 41 54
REMARK Flexibility Score: inf
ROOT
ATOM      1  C   UNL A   1      32.571  29.535  26.379  1.00  0.00     0.202 C 
ENDROOT
BRANCH   1   2
ATOM      2  C   UNL A   1      32.386  28.205  27.210  1.00  0.00     0.261 C 
BRANCH   2   3
ATOM      3  O   UNL A   1      31.135  27.444  27.219  1.00  0.00    -0.459 OA
BRANCH   3   4
ATOM      4  C   UNL A   1      30.999  26.309  26.489  1.00  0.00     0.361 C 
ATOM      5  O   UNL A   1      31.424  25.225  26.877  1.00  0.00    -0.245 OA
BRANCH   4   6
ATOM      6  C   UNL A   1      30.302  26.504  25.109  1.00  0.00     0.386 C 
BRANCH   6   7
ATOM      7  N   UNL A   1      31.002  27.127  23.938  1.00  0.00    -0.322 N 
ATOM      8  H   UNL A   1      31.180  28.059  24.313  1.00  0.00     0.348 HD
BRANCH   7   9
ATOM      9  C   UNL A   1      30.150  27.390  22.784  1.00  0.00     0.290 C 
BRANCH   9  10
ATOM     10  C   UNL A   1      29.529  28.762  22.753  1.00  0.00     0.025 C 
ATOM     11  C   UNL A   1      30.006  29.804  22.057  1.00  0.00     0.010 C 
ENDBRANCH   9  10
ENDBRANCH   7   9
BRANCH   7  12
ATOM     12  C   UNL A   1      32.461  26.983  23.757  1.00  0.00     0.266 C 
BRANCH  12  13
ATOM     13  C   UNL A   1      32.872  25.521  23.752  1.00  0.00     0.044 C 
ATOM     14  C   UNL A   1      34.370  25.197  24.951  1.00  0.00     0.009 C 
ATOM     15  C   UNL A   1      31.628  24.094  23.394  1.00  0.00     0.012 C 
ATOM     16  C   UNL A   1      34.976  23.367  25.221  1.00  0.00     0.001 C 
ATOM     17  C   UNL A   1      32.182  22.257  23.678  1.00  0.00    -0.014 C 
ATOM     18  C   UNL A   1      33.778  21.893  24.733  1.00  0.00     0.003 C 
ATOM     19  C   UNL A   1      32.148  21.452  22.368  1.00  0.00     0.007 C 
ENDBRANCH  12  13
ENDBRANCH   7  12
ENDBRANCH   6   7
ENDBRANCH   4   6
ENDBRANCH   3   4
ENDBRANCH   2   3
ENDBRANCH   1   2
BRANCH   1  20
ATOM     20  O   UNL A   1      31.544  30.047  25.486  1.00  0.00    -0.374 OA
BRANCH  20  21
ATOM     21  C   UNL A   1      31.032  31.421  25.809  1.00  0.00     0.202 C 
BRANCH  21  22
ATOM     22  C   UNL A   1      31.853  33.045  26.862  1.00  0.00     0.261 C 
BRANCH  22  23
ATOM     23  O   UNL A   1      32.894  33.018  28.001  1.00  0.00    -0.460 OA
BRANCH  23  24
ATOM     24  C   UNL A   1      33.749  34.008  28.337  1.00  0.00     0.338 C 
ATOM     25  O   UNL A   1      33.518  35.190  28.501  1.00  0.00    -0.246 OA
BRANCH  24  26
ATOM     26  C   UNL A   1      34.957  33.278  28.799  1.00  0.00     0.060 A 
ATOM     27  C   UNL A   1      34.788  31.955  29.240  1.00  0.00     0.016 A 
ATOM     28  C   UNL A   1      36.240  33.783  28.556  1.00  0.00     0.016 A 
ATOM     29  C   UNL A   1      35.902  31.138  29.435  1.00  0.00     0.010 A 
ATOM     30  C   UNL A   1      37.358  32.979  28.796  1.00  0.00     0.010 A 
ATOM     31  C   UNL A   1      37.192  31.663  29.265  1.00  0.00    -0.014 A 
BRANCH  31  32
ATOM     32  C   UNL A   1      38.319  30.961  29.926  1.00  0.00     0.031 A 
ATOM     33  C   UNL A   1      38.540  31.296  31.376  1.00  0.00     0.074 A 
ATOM     34  C   UNL A   1      39.074  30.034  29.312  1.00  0.00     0.049 A 
ATOM     35  N   UNL A   1      39.399  30.807  32.230  1.00  0.00    -0.248 NA
ATOM     36  C   UNL A   1      37.656  32.334  31.939  1.00  0.00     0.031 C 
ATOM     37  C   UNL A   1      38.937  29.604  27.923  1.00  0.00     0.029 A 
ATOM     38  N   UNL A   1      40.113  29.277  29.798  1.00  0.00    -0.354 N 
ATOM     39  C   UNL A   1      39.148  31.469  33.426  1.00  0.00     0.074 A 
ATOM     40  C   UNL A   1      38.089  32.418  33.183  1.00  0.00     0.031 C 
ATOM     41  C   UNL A   1      39.862  28.659  27.666  1.00  0.00     0.029 A 
ATOM     42  C   UNL A   1      40.662  28.426  28.868  1.00  0.00     0.049 A 
ATOM     43  H   UNL A   1      40.435  29.337  30.725  1.00  0.00     0.167 HD
ATOM     44  C   UNL A   1      39.741  31.295  34.628  1.00  0.00     0.037 A 
ATOM     45  C   UNL A   1      41.693  27.565  28.987  1.00  0.00     0.037 A 
ATOM     46  C   UNL A   1      40.812  30.370  34.860  1.00  0.00     0.049 A 
ATOM     47  C   UNL A   1      42.377  27.422  30.327  1.00  0.00     0.074 A 
ATOM     48  C   UNL A   1      41.501  30.122  36.032  1.00  0.00     0.029 A 
ATOM     49  N   UNL A   1      41.358  29.547  33.886  1.00  0.00    -0.354 N 
ATOM     50  N   UNL A   1      42.117  28.030  31.460  1.00  0.00    -0.248 NA
ATOM     51  C   UNL A   1      43.491  26.466  30.406  1.00  0.00     0.031 C 
ATOM     52  C   UNL A   1      42.497  29.177  35.755  1.00  0.00     0.029 A 
ATOM     53  C   UNL A   1      42.392  28.802  34.424  1.00  0.00     0.049 A 
ATOM     54  H   UNL A   1      41.056  29.502  32.950  1.00  0.00     0.167 HD
ATOM     55  C   UNL A   1      43.016  27.518  32.388  1.00  0.00     0.074 A 
ATOM     56  C   UNL A   1      43.816  26.533  31.689  1.00  0.00     0.031 C 
ATOM     57  C   UNL A   1      43.171  27.831  33.700  1.00  0.00     0.037 A 
BRANCH  44  58
ATOM     58  C   UNL A   1      39.259  32.163  35.751  1.00  0.00     0.064 A 
ATOM     59  C   UNL A   1      39.775  33.452  35.960  1.00  0.00     0.173 A 
ATOM     60  C   UNL A   1      38.301  31.685  36.654  1.00  0.00     0.173 A 
ATOM     61  F   UNL A   1      40.719  33.943  35.142  1.00  0.00    -0.203 F 
ATOM     62  C   UNL A   1      39.373  34.216  37.052  1.00  0.00     0.198 A 
ATOM     63  C   UNL A   1      37.878  32.463  37.728  1.00  0.00     0.198 A 
ATOM     64  F   UNL A   1      37.786  30.455  36.506  1.00  0.00    -0.203 F 
ATOM     65  F   UNL A   1      39.927  35.417  37.270  1.00  0.00    -0.200 F 
ATOM     66  C   UNL A   1      38.421  33.722  37.932  1.00  0.00     0.200 A 
ATOM     67  F   UNL A   1      36.957  31.986  38.577  1.00  0.00    -0.200 F 
ATOM     68  F   UNL A   1      38.038  34.456  38.986  1.00  0.00    -0.200 F 
ENDBRANCH  44  58
BRANCH  45  69
ATOM     69  C   UNL A   1      42.144  26.766  27.813  1.00  0.00     0.064 A 
ATOM     70  C   UNL A   1      43.120  27.252  26.931  1.00  0.00     0.173 A 
ATOM     71  C   UNL A   1      41.593  25.505  27.539  1.00  0.00     0.173 A 
ATOM     72  F   UNL A   1      43.658  28.465  27.129  1.00  0.00    -0.203 F 
ATOM     73  C   UNL A   1      43.519  26.513  25.816  1.00  0.00     0.198 A 
ATOM     74  C   UNL A   1      42.011  24.757  26.439  1.00  0.00     0.198 A 
ATOM     75  F   UNL A   1      40.649  24.996  28.342  1.00  0.00    -0.203 F 
ATOM     76  F   UNL A   1      44.423  27.022  24.966  1.00  0.00    -0.200 F 
ATOM     77  C   UNL A   1      42.970  25.264  25.576  1.00  0.00     0.200 A 
ATOM     78  F   UNL A   1      41.482  23.546  26.215  1.00  0.00    -0.200 F 
ATOM     79  F   UNL A   1      43.358  24.552  24.508  1.00  0.00    -0.200 F 
ENDBRANCH  45  69
BRANCH  57  80
ATOM     80  C   UNL A   1      44.228  27.087  34.463  1.00  0.00     0.064 A 
ATOM     81  C   UNL A   1      45.522  27.604  34.620  1.00  0.00     0.173 A 
ATOM     82  C   UNL A   1      43.927  25.865  35.083  1.00  0.00     0.173 A 
ATOM     83  F   UNL A   1      45.860  28.766  34.039  1.00  0.00    -0.203 F 
ATOM     84  C   UNL A   1      46.486  26.908  35.343  1.00  0.00     0.198 A 
ATOM     85  C   UNL A   1      44.884  25.187  35.830  1.00  0.00     0.198 A 
ATOM     86  F   UNL A   1      42.699  25.335  34.974  1.00  0.00    -0.203 F 
ATOM     87  F   UNL A   1      47.730  27.395  35.439  1.00  0.00    -0.200 F 
ATOM     88  C   UNL A   1      46.165  25.703  35.952  1.00  0.00     0.200 A 
ATOM     89  F   UNL A   1      44.568  24.031  36.431  1.00  0.00    -0.200 F 
ATOM     90  F   UNL A   1      47.094  25.036  36.651  1.00  0.00    -0.200 F 
ENDBRANCH  57  80
ENDBRANCH  31  32
ENDBRANCH  24  26
ENDBRANCH  23  24
ENDBRANCH  22  23
ENDBRANCH  21  22
ENDBRANCH  20  21
ENDBRANCH   1  20
TORSDOF 19
ENDMDL
