MODEL 1
REMARK VINA RESULT:     -10.9      0.000      0.000
REMARK SMILES C[C@H]1OCC[C@H]1C(=O)N1CCCC[C@@H]1CC(=O)OCCOCCOC(=O)c1ccc(-c2c3nc(c(-c4c(F)c(F)c(F)c(F)c4F)c4ccc([nH]4)c(-c4c(F)c(F)c(F)c(F)c4F)c4nc(c(-c5c(F)c(F)c(F)c(F)c5F)c5ccc2[nH]5)C=C4)C=C3)cc1
REMARK SMILES IDX 20 1 19 2 18 3 16 4 17 5 15 6 14 7 9 8 10 9 11 10 13 11
REMARK SMILES IDX 12 12 7 13 8 14 6 15 1 16 2 17 3 18 4 19 5 20 21 21 22 22
REMARK SMILES IDX 23 23 24 24 25 25 26 26 27 27 28 28 89 29 29 30 88 31 30 32
REMARK SMILES IDX 31 33 32 34 82 35 33 36 87 37 81 38 83 39 34 40 86 41 80 42
REMARK SMILES IDX 79 43 35 45 67 46 47 47 66 48 48 49 51 50 65 51 84 52 49 53
REMARK SMILES IDX 50 54 64 56 85 57 52 58 36 59 37 60 45 61 38 62 39 63 43 64
REMARK SMILES IDX 46 65 40 66 41 67 44 68 42 69 68 70 69 71 77 72 70 73 71 74
REMARK SMILES IDX 75 75 78 76 72 77 73 78 76 79 74 80 53 81 54 82 62 83 55 84
REMARK SMILES IDX 56 85 60 86 63 87 57 88 58 89 61 90 59 91
REMARK H PARENT 83 44 51 55
REMARK Flexibility Score: inf
ROOT
ATOM      1  C   UNL A   1      31.058  29.032  22.795  1.00  0.00     0.202 C 
ENDROOT
BRANCH   1   2
ATOM      2  C   UNL A   1      31.607  27.642  22.464  1.00  0.00     0.261 C 
BRANCH   2   3
ATOM      3  O   UNL A   1      32.995  27.501  22.812  1.00  0.00    -0.463 OA
BRANCH   3   4
ATOM      4  C   UNL A   1      33.473  26.244  22.656  1.00  0.00     0.307 C 
ATOM      5  O   UNL A   1      33.679  25.706  21.572  1.00  0.00    -0.252 OA
BRANCH   4   6
ATOM      6  C   UNL A   1      33.800  25.525  23.930  1.00  0.00     0.147 C 
BRANCH   6   7
ATOM      7  C   UNL A   1      32.762  25.157  24.994  1.00  0.00     0.096 C 
ATOM      8  N   UNL A   1      33.314  24.176  25.984  1.00  0.00    -0.339 N 
ATOM      9  C   UNL A   1      32.361  23.584  26.922  1.00  0.00     0.120 C 
ATOM     10  C   UNL A   1      31.129  23.031  26.211  1.00  0.00     0.022 C 
ATOM     11  C   UNL A   1      31.463  24.655  24.345  1.00  0.00     0.026 C 
ATOM     12  C   UNL A   1      30.472  24.120  25.375  1.00  0.00     0.004 C 
BRANCH   8  13
ATOM     13  C   UNL A   1      34.448  23.420  25.700  1.00  0.00     0.228 C 
ATOM     14  O   UNL A   1      35.412  23.413  26.465  1.00  0.00    -0.274 OA
BRANCH  13  15
ATOM     15  C   UNL A   1      34.428  22.532  24.436  1.00  0.00     0.109 C 
ATOM     16  C   UNL A   1      36.800  23.378  23.648  1.00  0.00     0.039 C 
ATOM     17  C   UNL A   1      35.793  22.247  23.805  1.00  0.00     0.127 C 
ATOM     18  O   UNL A   1      36.335  21.141  24.556  1.00  0.00    -0.378 OA
ATOM     19  C   UNL A   1      35.228  20.364  25.037  1.00  0.00     0.161 C 
ATOM     20  C   UNL A   1      33.957  21.102  24.649  1.00  0.00     0.044 C 
ENDBRANCH  13  15
ENDBRANCH   8  13
ENDBRANCH   6   7
ENDBRANCH   4   6
ENDBRANCH   3   4
ENDBRANCH   2   3
ENDBRANCH   1   2
BRANCH   1  21
ATOM     21  O   UNL A   1      30.487  29.216  24.085  1.00  0.00    -0.374 OA
BRANCH  21  22
ATOM     22  C   UNL A   1      31.062  30.201  24.944  1.00  0.00     0.202 C 
BRANCH  22  23
ATOM     23  C   UNL A   1      32.452  29.900  25.526  1.00  0.00     0.261 C 
BRANCH  23  24
ATOM     24  O   UNL A   1      32.548  30.216  26.931  1.00  0.00    -0.460 OA
BRANCH  24  25
ATOM     25  C   UNL A   1      33.226  31.359  27.212  1.00  0.00     0.338 C 
ATOM     26  O   UNL A   1      32.788  32.496  27.230  1.00  0.00    -0.246 OA
BRANCH  25  27
ATOM     27  C   UNL A   1      34.584  31.043  27.689  1.00  0.00     0.060 A 
ATOM     28  C   UNL A   1      34.873  29.710  28.009  1.00  0.00     0.016 A 
ATOM     29  C   UNL A   1      35.511  32.052  27.951  1.00  0.00     0.016 A 
ATOM     30  C   UNL A   1      36.080  29.384  28.625  1.00  0.00     0.010 A 
ATOM     31  C   UNL A   1      36.716  31.726  28.584  1.00  0.00     0.010 A 
ATOM     32  C   UNL A   1      36.991  30.396  28.955  1.00  0.00    -0.014 A 
BRANCH  32  33
ATOM     33  C   UNL A   1      38.150  30.076  29.826  1.00  0.00     0.031 A 
ATOM     34  C   UNL A   1      39.220  29.155  29.305  1.00  0.00     0.074 A 
ATOM     35  C   UNL A   1      38.276  30.638  31.041  1.00  0.00     0.049 A 
ATOM     36  N   UNL A   1      40.298  28.710  29.900  1.00  0.00    -0.248 NA
ATOM     37  C   UNL A   1      39.057  28.676  27.923  1.00  0.00     0.031 C 
ATOM     38  C   UNL A   1      37.342  31.594  31.629  1.00  0.00     0.029 A 
ATOM     39  N   UNL A   1      39.248  30.481  31.998  1.00  0.00    -0.354 N 
ATOM     40  C   UNL A   1      40.941  27.906  28.967  1.00  0.00     0.074 A 
ATOM     41  C   UNL A   1      40.117  27.895  27.778  1.00  0.00     0.031 C 
ATOM     42  C   UNL A   1      37.782  31.935  32.854  1.00  0.00     0.029 A 
ATOM     43  C   UNL A   1      39.007  31.195  33.147  1.00  0.00     0.049 A 
ATOM     44  H   UNL A   1      40.042  29.913  31.873  1.00  0.00     0.167 HD
ATOM     45  C   UNL A   1      42.118  27.248  29.088  1.00  0.00     0.037 A 
ATOM     46  C   UNL A   1      39.689  31.223  34.308  1.00  0.00     0.037 A 
ATOM     47  C   UNL A   1      42.935  27.254  30.274  1.00  0.00     0.049 A 
ATOM     48  C   UNL A   1      40.941  30.395  34.451  1.00  0.00     0.074 A 
ATOM     49  C   UNL A   1      44.135  26.602  30.500  1.00  0.00     0.029 A 
ATOM     50  N   UNL A   1      42.632  27.949  31.435  1.00  0.00    -0.354 N 
ATOM     51  N   UNL A   1      41.542  29.638  33.566  1.00  0.00    -0.248 NA
ATOM     52  C   UNL A   1      41.609  30.425  35.761  1.00  0.00     0.031 C 
ATOM     53  C   UNL A   1      44.536  26.867  31.813  1.00  0.00     0.029 A 
ATOM     54  C   UNL A   1      43.613  27.726  32.387  1.00  0.00     0.049 A 
ATOM     55  H   UNL A   1      41.837  28.516  31.564  1.00  0.00     0.167 HD
ATOM     56  C   UNL A   1      42.674  29.136  34.196  1.00  0.00     0.074 A 
ATOM     57  C   UNL A   1      42.683  29.681  35.536  1.00  0.00     0.031 C 
ATOM     58  C   UNL A   1      43.621  28.296  33.709  1.00  0.00     0.037 A 
BRANCH  45  59
ATOM     59  C   UNL A   1      42.594  26.451  27.909  1.00  0.00     0.064 A 
ATOM     60  C   UNL A   1      42.176  25.128  27.701  1.00  0.00     0.173 A 
ATOM     61  C   UNL A   1      43.436  27.033  26.949  1.00  0.00     0.173 A 
ATOM     62  F   UNL A   1      41.383  24.523  28.597  1.00  0.00    -0.203 F 
ATOM     63  C   UNL A   1      42.595  24.413  26.582  1.00  0.00     0.198 A 
ATOM     64  C   UNL A   1      43.832  26.323  25.818  1.00  0.00     0.198 A 
ATOM     65  F   UNL A   1      43.862  28.296  27.099  1.00  0.00    -0.203 F 
ATOM     66  F   UNL A   1      42.212  23.138  26.423  1.00  0.00    -0.200 F 
ATOM     67  C   UNL A   1      43.416  25.013  25.639  1.00  0.00     0.200 A 
ATOM     68  F   UNL A   1      44.614  26.908  24.901  1.00  0.00    -0.200 F 
ATOM     69  F   UNL A   1      43.808  24.326  24.557  1.00  0.00    -0.200 F 
ENDBRANCH  45  59
BRANCH  46  70
ATOM     70  C   UNL A   1      39.200  32.046  35.448  1.00  0.00     0.064 A 
ATOM     71  C   UNL A   1      39.581  33.389  35.588  1.00  0.00     0.173 A 
ATOM     72  C   UNL A   1      38.390  31.491  36.450  1.00  0.00     0.173 A 
ATOM     73  F   UNL A   1      40.379  33.957  34.671  1.00  0.00    -0.203 F 
ATOM     74  C   UNL A   1      39.195  34.135  36.700  1.00  0.00     0.198 A 
ATOM     75  C   UNL A   1      37.978  32.248  37.546  1.00  0.00     0.198 A 
ATOM     76  F   UNL A   1      38.003  30.210  36.368  1.00  0.00    -0.203 F 
ATOM     77  F   UNL A   1      39.626  35.396  36.840  1.00  0.00    -0.200 F 
ATOM     78  C   UNL A   1      38.391  33.565  37.676  1.00  0.00     0.200 A 
ATOM     79  F   UNL A   1      37.196  31.695  38.482  1.00  0.00    -0.200 F 
ATOM     80  F   UNL A   1      38.028  34.279  38.750  1.00  0.00    -0.200 F 
ENDBRANCH  46  70
BRANCH  58  81
ATOM     81  C   UNL A   1      44.775  27.959  34.609  1.00  0.00     0.064 A 
ATOM     82  C   UNL A   1      45.921  28.767  34.673  1.00  0.00     0.173 A 
ATOM     83  C   UNL A   1      44.715  26.835  35.446  1.00  0.00     0.173 A 
ATOM     84  F   UNL A   1      46.033  29.844  33.882  1.00  0.00    -0.203 F 
ATOM     85  C   UNL A   1      46.974  28.445  35.525  1.00  0.00     0.198 A 
ATOM     86  C   UNL A   1      45.757  26.534  36.319  1.00  0.00     0.198 A 
ATOM     87  F   UNL A   1      43.638  26.035  35.429  1.00  0.00    -0.203 F 
ATOM     88  F   UNL A   1      48.079  29.203  35.535  1.00  0.00    -0.200 F 
ATOM     89  C   UNL A   1      46.889  27.334  36.352  1.00  0.00     0.200 A 
ATOM     90  F   UNL A   1      45.666  25.469  37.128  1.00  0.00    -0.200 F 
ATOM     91  F   UNL A   1      47.901  27.031  37.176  1.00  0.00    -0.200 F 
ENDBRANCH  58  81
ENDBRANCH  32  33
ENDBRANCH  25  27
ENDBRANCH  24  25
ENDBRANCH  23  24
ENDBRANCH  22  23
ENDBRANCH  21  22
ENDBRANCH   1  21
TORSDOF 17
ENDMDL
MODEL 2
REMARK VINA RESULT:     -10.9      1.201      2.536
REMARK SMILES C[C@H]1OCC[C@H]1C(=O)N1CCCC[C@@H]1CC(=O)OCCOCCOC(=O)c1ccc(-c2c3nc(c(-c4c(F)c(F)c(F)c(F)c4F)c4ccc([nH]4)c(-c4c(F)c(F)c(F)c(F)c4F)c4nc(c(-c5c(F)c(F)c(F)c(F)c5F)c5ccc2[nH]5)C=C4)C=C3)cc1
REMARK SMILES IDX 20 1 19 2 18 3 16 4 17 5 15 6 14 7 9 8 10 9 11 10 13 11
REMARK SMILES IDX 12 12 7 13 8 14 6 15 1 16 2 17 3 18 4 19 5 20 21 21 22 22
REMARK SMILES IDX 23 23 24 24 25 25 26 26 27 27 28 28 89 29 29 30 88 31 30 32
REMARK SMILES IDX 31 33 32 34 82 35 33 36 87 37 81 38 83 39 34 40 86 41 80 42
REMARK SMILES IDX 79 43 35 45 67 46 47 47 66 48 48 49 51 50 65 51 84 52 49 53
REMARK SMILES IDX 50 54 64 56 85 57 52 58 36 59 37 60 45 61 38 62 39 63 43 64
REMARK SMILES IDX 46 65 40 66 41 67 44 68 42 69 68 70 69 71 77 72 70 73 71 74
REMARK SMILES IDX 75 75 78 76 72 77 73 78 76 79 74 80 53 81 54 82 62 83 55 84
REMARK SMILES IDX 56 85 60 86 63 87 57 88 58 89 61 90 59 91
REMARK H PARENT 83 44 51 55
REMARK Flexibility Score: inf
ROOT
ATOM      1  C   UNL A   1      32.297  28.279  25.869  1.00  0.00     0.202 C 
ENDROOT
BRANCH   1   2
ATOM      2  C   UNL A   1      31.809  26.838  26.026  1.00  0.00     0.261 C 
BRANCH   2   3
ATOM      3  O   UNL A   1      31.972  26.067  24.824  1.00  0.00    -0.463 OA
BRANCH   3   4
ATOM      4  C   UNL A   1      33.262  25.895  24.454  1.00  0.00     0.307 C 
ATOM      5  O   UNL A   1      33.863  26.617  23.662  1.00  0.00    -0.252 OA
BRANCH   4   6
ATOM      6  C   UNL A   1      33.972  24.757  25.125  1.00  0.00     0.147 C 
BRANCH   6   7
ATOM      7  C   UNL A   1      35.364  24.264  24.723  1.00  0.00     0.096 C 
ATOM      8  N   UNL A   1      35.288  22.998  23.923  1.00  0.00    -0.339 N 
ATOM      9  C   UNL A   1      36.552  22.311  23.662  1.00  0.00     0.120 C 
ATOM     10  C   UNL A   1      37.373  22.122  24.933  1.00  0.00     0.022 C 
ATOM     11  C   UNL A   1      36.272  24.116  25.954  1.00  0.00     0.026 C 
ATOM     12  C   UNL A   1      37.609  23.465  25.611  1.00  0.00     0.004 C 
BRANCH   8  13
ATOM     13  C   UNL A   1      34.146  22.202  23.932  1.00  0.00     0.228 C 
ATOM     14  O   UNL A   1      33.339  22.242  23.002  1.00  0.00    -0.274 OA
BRANCH  13  15
ATOM     15  C   UNL A   1      33.960  21.214  25.105  1.00  0.00     0.109 C 
ATOM     16  C   UNL A   1      31.604  22.215  25.745  1.00  0.00     0.039 C 
ATOM     17  C   UNL A   1      32.520  21.010  25.578  1.00  0.00     0.127 C 
ATOM     18  O   UNL A   1      31.961  20.028  24.681  1.00  0.00    -0.378 OA
ATOM     19  C   UNL A   1      33.039  19.191  24.234  1.00  0.00     0.161 C 
ATOM     20  C   UNL A   1      34.324  19.769  24.805  1.00  0.00     0.044 C 
ENDBRANCH  13  15
ENDBRANCH   8  13
ENDBRANCH   6   7
ENDBRANCH   4   6
ENDBRANCH   3   4
ENDBRANCH   2   3
ENDBRANCH   1   2
BRANCH   1  21
ATOM     21  O   UNL A   1      31.458  29.310  26.378  1.00  0.00    -0.374 OA
BRANCH  21  22
ATOM     22  C   UNL A   1      31.404  30.549  25.671  1.00  0.00     0.202 C 
BRANCH  22  23
ATOM     23  C   UNL A   1      31.666  31.830  26.480  1.00  0.00     0.261 C 
BRANCH  23  24
ATOM     24  O   UNL A   1      32.648  31.639  27.522  1.00  0.00    -0.460 OA
BRANCH  24  25
ATOM     25  C   UNL A   1      33.575  32.626  27.615  1.00  0.00     0.338 C 
ATOM     26  O   UNL A   1      33.393  33.827  27.520  1.00  0.00    -0.246 OA
BRANCH  25  27
ATOM     27  C   UNL A   1      34.872  32.070  28.041  1.00  0.00     0.060 A 
ATOM     28  C   UNL A   1      34.910  30.727  28.439  1.00  0.00     0.016 A 
ATOM     29  C   UNL A   1      35.996  32.884  28.182  1.00  0.00     0.016 A 
ATOM     30  C   UNL A   1      36.066  30.200  29.013  1.00  0.00     0.010 A 
ATOM     31  C   UNL A   1      37.151  32.357  28.772  1.00  0.00     0.010 A 
ATOM     32  C   UNL A   1      37.180  31.023  29.221  1.00  0.00    -0.014 A 
BRANCH  32  33
ATOM     33  C   UNL A   1      38.306  30.526  30.050  1.00  0.00     0.031 A 
ATOM     34  C   UNL A   1      39.268  29.534  29.453  1.00  0.00     0.074 A 
ATOM     35  C   UNL A   1      38.503  30.990  31.297  1.00  0.00     0.049 A 
ATOM     36  N   UNL A   1      40.298  28.940  30.001  1.00  0.00    -0.248 NA
ATOM     37  C   UNL A   1      39.042  29.168  28.046  1.00  0.00     0.031 C 
ATOM     38  C   UNL A   1      37.680  31.997  31.962  1.00  0.00     0.029 A 
ATOM     39  N   UNL A   1      39.462  30.669  32.226  1.00  0.00    -0.354 N 
ATOM     40  C   UNL A   1      40.843  28.137  29.007  1.00  0.00     0.074 A 
ATOM     41  C   UNL A   1      40.012  28.291  27.833  1.00  0.00     0.031 C 
ATOM     42  C   UNL A   1      38.166  32.209  33.198  1.00  0.00     0.029 A 
ATOM     43  C   UNL A   1      39.309  31.326  33.423  1.00  0.00     0.049 A 
ATOM     44  H   UNL A   1      40.190  30.030  32.051  1.00  0.00     0.167 HD
ATOM     45  C   UNL A   1      41.946  27.352  29.065  1.00  0.00     0.037 A 
ATOM     46  C   UNL A   1      40.000  31.206  34.572  1.00  0.00     0.037 A 
ATOM     47  C   UNL A   1      42.770  27.194  30.235  1.00  0.00     0.049 A 
ATOM     48  C   UNL A   1      41.159  30.242  34.641  1.00  0.00     0.074 A 
ATOM     49  C   UNL A   1      43.896  26.406  30.399  1.00  0.00     0.029 A 
ATOM     50  N   UNL A   1      42.553  27.838  31.444  1.00  0.00    -0.354 N 
ATOM     51  N   UNL A   1      41.668  29.487  33.698  1.00  0.00    -0.248 NA
ATOM     52  C   UNL A   1      41.839  30.116  35.938  1.00  0.00     0.031 C 
ATOM     53  C   UNL A   1      44.335  26.539  31.719  1.00  0.00     0.029 A 
ATOM     54  C   UNL A   1      43.514  27.451  32.363  1.00  0.00     0.049 A 
ATOM     55  H   UNL A   1      41.824  28.475  31.623  1.00  0.00     0.167 HD
ATOM     56  C   UNL A   1      42.747  28.828  34.275  1.00  0.00     0.074 A 
ATOM     57  C   UNL A   1      42.826  29.280  35.648  1.00  0.00     0.031 C 
ATOM     58  C   UNL A   1      43.595  27.928  33.720  1.00  0.00     0.037 A 
BRANCH  45  59
ATOM     59  C   UNL A   1      42.323  26.590  27.829  1.00  0.00     0.064 A 
ATOM     60  C   UNL A   1      43.293  27.072  26.938  1.00  0.00     0.173 A 
ATOM     61  C   UNL A   1      41.747  25.340  27.559  1.00  0.00     0.173 A 
ATOM     62  F   UNL A   1      43.864  28.268  27.144  1.00  0.00    -0.203 F 
ATOM     63  C   UNL A   1      43.662  26.337  25.815  1.00  0.00     0.198 A 
ATOM     64  C   UNL A   1      42.137  24.595  26.449  1.00  0.00     0.198 A 
ATOM     65  F   UNL A   1      40.816  24.833  28.382  1.00  0.00    -0.203 F 
ATOM     66  F   UNL A   1      44.565  26.834  24.957  1.00  0.00    -0.200 F 
ATOM     67  C   UNL A   1      43.089  25.097  25.575  1.00  0.00     0.200 A 
ATOM     68  F   UNL A   1      41.592  23.391  26.227  1.00  0.00    -0.200 F 
ATOM     69  F   UNL A   1      43.454  24.385  24.500  1.00  0.00    -0.200 F 
ENDBRANCH  45  59
BRANCH  46  70
ATOM     70  C   UNL A   1      39.612  31.998  35.770  1.00  0.00     0.064 A 
ATOM     71  C   UNL A   1      38.583  31.568  36.621  1.00  0.00     0.173 A 
ATOM     72  C   UNL A   1      40.222  33.229  36.056  1.00  0.00     0.173 A 
ATOM     73  F   UNL A   1      37.949  30.412  36.372  1.00  0.00    -0.203 F 
ATOM     74  C   UNL A   1      38.160  32.352  37.693  1.00  0.00     0.198 A 
ATOM     75  C   UNL A   1      39.819  33.997  37.148  1.00  0.00     0.198 A 
ATOM     76  F   UNL A   1      41.206  33.690  35.272  1.00  0.00    -0.203 F 
ATOM     77  F   UNL A   1      37.132  31.946  38.450  1.00  0.00    -0.200 F 
ATOM     78  C   UNL A   1      38.780  33.564  37.957  1.00  0.00     0.200 A 
ATOM     79  F   UNL A   1      40.427  35.163  37.403  1.00  0.00    -0.200 F 
ATOM     80  F   UNL A   1      38.367  34.321  38.982  1.00  0.00    -0.200 F 
ENDBRANCH  46  70
BRANCH  58  81
ATOM     81  C   UNL A   1      44.715  27.412  34.576  1.00  0.00     0.064 A 
ATOM     82  C   UNL A   1      45.952  28.071  34.647  1.00  0.00     0.173 A 
ATOM     83  C   UNL A   1      44.533  26.269  35.367  1.00  0.00     0.173 A 
ATOM     84  F   UNL A   1      46.182  29.160  33.899  1.00  0.00    -0.203 F 
ATOM     85  C   UNL A   1      46.974  27.585  35.459  1.00  0.00     0.198 A 
ATOM     86  C   UNL A   1      45.546  25.804  36.201  1.00  0.00     0.198 A 
ATOM     87  F   UNL A   1      43.365  25.607  35.343  1.00  0.00    -0.203 F 
ATOM     88  F   UNL A   1      48.164  28.201  35.474  1.00  0.00    -0.200 F 
ATOM     89  C   UNL A   1      46.768  26.457  36.240  1.00  0.00     0.200 A 
ATOM     90  F   UNL A   1      45.339  24.723  36.967  1.00  0.00    -0.200 F 
ATOM     91  F   UNL A   1      47.750  25.997  37.027  1.00  0.00    -0.200 F 
ENDBRANCH  58  81
ENDBRANCH  32  33
ENDBRANCH  25  27
ENDBRANCH  24  25
ENDBRANCH  23  24
ENDBRANCH  22  23
ENDBRANCH  21  22
ENDBRANCH   1  21
TORSDOF 17
ENDMDL
MODEL 3
REMARK VINA RESULT:     -10.7      4.326      7.988
REMARK SMILES C[C@H]1OCC[C@H]1C(=O)N1CCCC[C@@H]1CC(=O)OCCOCCOC(=O)c1ccc(-c2c3nc(c(-c4c(F)c(F)c(F)c(F)c4F)c4ccc([nH]4)c(-c4c(F)c(F)c(F)c(F)c4F)c4nc(c(-c5c(F)c(F)c(F)c(F)c5F)c5ccc2[nH]5)C=C4)C=C3)cc1
REMARK SMILES IDX 20 1 19 2 18 3 16 4 17 5 15 6 14 7 9 8 10 9 11 10 13 11
REMARK SMILES IDX 12 12 7 13 8 14 6 15 1 16 2 17 3 18 4 19 5 20 21 21 22 22
REMARK SMILES IDX 23 23 24 24 25 25 26 26 27 27 28 28 89 29 29 30 88 31 30 32
REMARK SMILES IDX 31 33 32 34 82 35 33 36 87 37 81 38 83 39 34 40 86 41 80 42
REMARK SMILES IDX 79 43 35 45 67 46 47 47 66 48 48 49 51 50 65 51 84 52 49 53
REMARK SMILES IDX 50 54 64 56 85 57 52 58 36 59 37 60 45 61 38 62 39 63 43 64
REMARK SMILES IDX 46 65 40 66 41 67 44 68 42 69 68 70 69 71 77 72 70 73 71 74
REMARK SMILES IDX 75 75 78 76 72 77 73 78 76 79 74 80 53 81 54 82 62 83 55 84
REMARK SMILES IDX 56 85 60 86 63 87 57 88 58 89 61 90 59 91
REMARK H PARENT 83 44 51 55
REMARK Flexibility Score: inf
ROOT
ATOM      1  C   UNL A   1      35.731  21.534  25.465  1.00  0.00     0.202 C 
ENDROOT
BRANCH   1   2
ATOM      2  C   UNL A   1      36.265  22.949  25.699  1.00  0.00     0.261 C 
BRANCH   2   3
ATOM      3  O   UNL A   1      36.431  23.684  24.475  1.00  0.00    -0.463 OA
BRANCH   3   4
ATOM      4  C   UNL A   1      35.281  23.868  23.786  1.00  0.00     0.307 C 
ATOM      5  O   UNL A   1      35.043  23.380  22.685  1.00  0.00    -0.252 OA
BRANCH   4   6
ATOM      6  C   UNL A   1      34.244  24.693  24.486  1.00  0.00     0.147 C 
BRANCH   6   7
ATOM      7  C   UNL A   1      32.826  24.203  24.791  1.00  0.00     0.096 C 
ATOM      8  N   UNL A   1      31.799  25.235  24.431  1.00  0.00    -0.339 N 
ATOM      9  C   UNL A   1      30.428  24.976  24.869  1.00  0.00     0.120 C 
ATOM     10  C   UNL A   1      30.360  24.611  26.349  1.00  0.00     0.022 C 
ATOM     11  C   UNL A   1      32.703  23.751  26.255  1.00  0.00     0.026 C 
ATOM     12  C   UNL A   1      31.263  23.418  26.637  1.00  0.00     0.004 C 
BRANCH   8  13
ATOM     13  C   UNL A   1      32.146  26.571  24.253  1.00  0.00     0.228 C 
ATOM     14  O   UNL A   1      32.640  27.225  25.172  1.00  0.00    -0.274 OA
BRANCH  13  15
ATOM     15  C   UNL A   1      31.962  27.186  22.848  1.00  0.00     0.109 C 
ATOM     16  C   UNL A   1      34.235  28.520  22.994  1.00  0.00     0.039 C 
ATOM     17  C   UNL A   1      33.237  27.706  22.180  1.00  0.00     0.127 C 
ATOM     18  O   UNL A   1      33.850  26.548  21.578  1.00  0.00    -0.378 OA
ATOM     19  C   UNL A   1      32.798  25.631  21.240  1.00  0.00     0.161 C 
ATOM     20  C   UNL A   1      31.500  26.222  21.768  1.00  0.00     0.044 C 
ENDBRANCH  13  15
ENDBRANCH   8  13
ENDBRANCH   6   7
ENDBRANCH   4   6
ENDBRANCH   3   4
ENDBRANCH   2   3
ENDBRANCH   1   2
BRANCH   1  21
ATOM     21  O   UNL A   1      36.682  20.523  25.152  1.00  0.00    -0.374 OA
BRANCH  21  22
ATOM     22  C   UNL A   1      38.069  20.844  25.253  1.00  0.00     0.202 C 
BRANCH  22  23
ATOM     23  C   UNL A   1      39.058  19.669  25.325  1.00  0.00     0.261 C 
BRANCH  23  24
ATOM     24  O   UNL A   1      39.934  19.748  26.470  1.00  0.00    -0.460 OA
BRANCH  24  25
ATOM     25  C   UNL A   1      41.252  19.576  26.190  1.00  0.00     0.338 C 
ATOM     26  O   UNL A   1      41.781  18.605  25.679  1.00  0.00    -0.246 OA
BRANCH  25  27
ATOM     27  C   UNL A   1      41.991  20.829  26.423  1.00  0.00     0.060 A 
ATOM     28  C   UNL A   1      42.256  21.196  27.750  1.00  0.00     0.016 A 
ATOM     29  C   UNL A   1      42.295  21.696  25.373  1.00  0.00     0.016 A 
ATOM     30  C   UNL A   1      42.795  22.450  28.034  1.00  0.00     0.010 A 
ATOM     31  C   UNL A   1      42.822  22.960  25.662  1.00  0.00     0.010 A 
ATOM     32  C   UNL A   1      43.043  23.355  26.995  1.00  0.00    -0.014 A 
BRANCH  32  33
ATOM     33  C   UNL A   1      43.379  24.764  27.322  1.00  0.00     0.031 A 
ATOM     34  C   UNL A   1      44.782  25.253  27.080  1.00  0.00     0.074 A 
ATOM     35  C   UNL A   1      42.438  25.611  27.776  1.00  0.00     0.049 A 
ATOM     36  N   UNL A   1      45.308  26.426  27.324  1.00  0.00    -0.248 NA
ATOM     37  C   UNL A   1      45.716  24.290  26.475  1.00  0.00     0.031 C 
ATOM     38  C   UNL A   1      41.033  25.275  27.990  1.00  0.00     0.029 A 
ATOM     39  N   UNL A   1      42.530  26.931  28.141  1.00  0.00    -0.354 N 
ATOM     40  C   UNL A   1      46.628  26.344  26.899  1.00  0.00     0.074 A 
ATOM     41  C   UNL A   1      46.835  24.997  26.414  1.00  0.00     0.031 C 
ATOM     42  C   UNL A   1      40.392  26.361  28.456  1.00  0.00     0.029 A 
ATOM     43  C   UNL A   1      41.349  27.455  28.607  1.00  0.00     0.049 A 
ATOM     44  H   UNL A   1      43.362  27.453  28.074  1.00  0.00     0.167 HD
ATOM     45  C   UNL A   1      47.578  27.310  26.901  1.00  0.00     0.037 A 
ATOM     46  C   UNL A   1      41.083  28.672  29.120  1.00  0.00     0.037 A 
ATOM     47  C   UNL A   1      47.374  28.649  27.389  1.00  0.00     0.049 A 
ATOM     48  C   UNL A   1      42.189  29.695  29.209  1.00  0.00     0.074 A 
ATOM     49  C   UNL A   1      48.281  29.693  27.452  1.00  0.00     0.029 A 
ATOM     50  N   UNL A   1      46.177  29.127  27.900  1.00  0.00    -0.354 N 
ATOM     51  N   UNL A   1      43.433  29.609  28.806  1.00  0.00    -0.248 NA
ATOM     52  C   UNL A   1      41.850  30.984  29.829  1.00  0.00     0.031 C 
ATOM     53  C   UNL A   1      47.645  30.790  28.041  1.00  0.00     0.029 A 
ATOM     54  C   UNL A   1      46.328  30.446  28.297  1.00  0.00     0.049 A 
ATOM     55  H   UNL A   1      45.344  28.607  27.971  1.00  0.00     0.167 HD
ATOM     56  C   UNL A   1      44.012  30.841  29.086  1.00  0.00     0.074 A 
ATOM     57  C   UNL A   1      42.980  31.661  29.684  1.00  0.00     0.031 C 
ATOM     58  C   UNL A   1      45.284  31.257  28.869  1.00  0.00     0.037 A 
BRANCH  45  59
ATOM     59  C   UNL A   1      48.935  26.953  26.369  1.00  0.00     0.064 A 
ATOM     60  C   UNL A   1      49.923  26.397  27.194  1.00  0.00     0.173 A 
ATOM     61  C   UNL A   1      49.233  27.120  25.008  1.00  0.00     0.173 A 
ATOM     62  F   UNL A   1      49.692  26.230  28.505  1.00  0.00    -0.203 F 
ATOM     63  C   UNL A   1      51.165  26.035  26.680  1.00  0.00     0.198 A 
ATOM     64  C   UNL A   1      50.467  26.732  24.492  1.00  0.00     0.198 A 
ATOM     65  F   UNL A   1      48.321  27.645  24.176  1.00  0.00    -0.203 F 
ATOM     66  F   UNL A   1      52.107  25.538  27.494  1.00  0.00    -0.200 F 
ATOM     67  C   UNL A   1      51.433  26.196  25.328  1.00  0.00     0.200 A 
ATOM     68  F   UNL A   1      50.719  26.876  23.184  1.00  0.00    -0.200 F 
ATOM     69  F   UNL A   1      52.624  25.836  24.833  1.00  0.00    -0.200 F 
ENDBRANCH  45  59
BRANCH  46  70
ATOM     70  C   UNL A   1      39.718  28.999  29.614  1.00  0.00     0.064 A 
ATOM     71  C   UNL A   1      39.357  28.769  30.950  1.00  0.00     0.173 A 
ATOM     72  C   UNL A   1      38.731  29.492  28.748  1.00  0.00     0.173 A 
ATOM     73  F   UNL A   1      40.258  28.270  31.810  1.00  0.00    -0.203 F 
ATOM     74  C   UNL A   1      38.054  28.992  31.392  1.00  0.00     0.198 A 
ATOM     75  C   UNL A   1      37.436  29.745  29.200  1.00  0.00     0.198 A 
ATOM     76  F   UNL A   1      39.021  29.723  27.460  1.00  0.00    -0.203 F 
ATOM     77  F   UNL A   1      37.721  28.703  32.658  1.00  0.00    -0.200 F 
ATOM     78  C   UNL A   1      37.096  29.483  30.518  1.00  0.00     0.200 A 
ATOM     79  F   UNL A   1      36.517  30.227  28.353  1.00  0.00    -0.200 F 
ATOM     80  F   UNL A   1      35.842  29.688  30.942  1.00  0.00    -0.200 F 
ENDBRANCH  46  70
BRANCH  58  81
ATOM     81  C   UNL A   1      45.620  32.676  29.228  1.00  0.00     0.064 A 
ATOM     82  C   UNL A   1      46.145  33.014  30.484  1.00  0.00     0.173 A 
ATOM     83  C   UNL A   1      45.452  33.702  28.287  1.00  0.00     0.173 A 
ATOM     84  F   UNL A   1      46.311  32.072  31.423  1.00  0.00    -0.203 F 
ATOM     85  C   UNL A   1      46.465  34.335  30.792  1.00  0.00     0.198 A 
ATOM     86  C   UNL A   1      45.802  35.016  28.588  1.00  0.00     0.198 A 
ATOM     87  F   UNL A   1      44.962  33.430  27.068  1.00  0.00    -0.203 F 
ATOM     88  F   UNL A   1      46.919  34.643  32.015  1.00  0.00    -0.200 F 
ATOM     89  C   UNL A   1      46.300  35.332  29.843  1.00  0.00     0.200 A 
ATOM     90  F   UNL A   1      45.656  35.976  27.664  1.00  0.00    -0.200 F 
ATOM     91  F   UNL A   1      46.616  36.600  30.139  1.00  0.00    -0.200 F 
ENDBRANCH  58  81
ENDBRANCH  32  33
ENDBRANCH  25  27
ENDBRANCH  24  25
ENDBRANCH  23  24
ENDBRANCH  22  23
ENDBRANCH  21  22
ENDBRANCH   1  21
TORSDOF 17
ENDMDL
