MODEL 1
REMARK VINA RESULT:     -11.3      0.000      0.000
REMARK SMILES CNC(=O)CCn1c(SCC(=O)OCCOCCOC(=O)c2ccc(-c3c4nc(c(-c5c(F)c(F)c(F)c(F)c5F)c5ccc([nH]5)c(-c5c(F)c(F)c(F)c(F)c5F)c5nc(c(-c6c(F)c(F)c(F)c(F)c6F)c6ccc3[nH]6)C=C5)C=C4)cc2)nc2ccc(C)cc21
REMARK SMILES IDX 14 1 13 2 11 3 12 4 10 5 9 6 8 7 7 8 92 9 85 10 86 11 91 12
REMARK SMILES IDX 87 13 89 14 88 15 90 16 6 17 5 18 3 19 1 20 2 21 4 23 15 24
REMARK SMILES IDX 16 25 17 26 18 27 19 28 20 29 21 30 22 31 23 32 84 33 24 34
REMARK SMILES IDX 83 35 25 36 26 37 27 38 77 39 28 40 82 41 76 42 78 43 29 44
REMARK SMILES IDX 81 45 75 46 74 47 30 49 62 50 42 51 61 52 43 53 46 54 60 55
REMARK SMILES IDX 79 56 44 57 45 58 59 60 80 61 47 62 31 63 32 64 40 65 33 66
REMARK SMILES IDX 34 67 38 68 41 69 35 70 36 71 39 72 37 73 63 74 64 75 72 76
REMARK SMILES IDX 65 77 66 78 70 79 73 80 67 81 68 82 71 83 69 84 48 85 49 86
REMARK SMILES IDX 57 87 50 88 51 89 55 90 58 91 52 92 53 93 56 94 54 95
REMARK H PARENT 2 22 78 48 46 59
REMARK Flexibility Score: inf
ROOT
ATOM      1  C   UNL A   1      40.342  20.592  26.629  1.00  0.00     0.261 C 
ENDROOT
BRANCH   1   2
ATOM      2  O   UNL A   1      39.616  21.727  26.126  1.00  0.00    -0.463 OA
BRANCH   2   3
ATOM      3  C   UNL A   1      38.434  21.452  25.510  1.00  0.00     0.316 C 
ATOM      4  O   UNL A   1      38.129  20.354  25.054  1.00  0.00    -0.251 OA
BRANCH   3   5
ATOM      5  C   UNL A   1      37.554  22.662  25.330  1.00  0.00     0.200 C 
BRANCH   5   6
ATOM      6  S   UNL A   1      36.421  22.617  23.925  1.00  0.00    -0.076 SA
BRANCH   6   7
ATOM      7  C   UNL A   1      35.086  23.644  24.349  1.00  0.00     0.169 A 
ATOM      8  N   UNL A   1      34.061  23.935  23.487  1.00  0.00    -0.318 N 
ATOM      9  C   UNL A   1      33.637  25.219  23.790  1.00  0.00     0.069 A 
ATOM     10  N   UNL A   1      34.989  24.396  25.423  1.00  0.00    -0.222 NA
ATOM     11  C   UNL A   1      34.143  25.425  25.067  1.00  0.00     0.090 A 
ATOM     12  C   UNL A   1      32.885  26.185  23.103  1.00  0.00     0.032 A 
ATOM     13  C   UNL A   1      33.826  26.613  25.746  1.00  0.00     0.031 A 
ATOM     14  C   UNL A   1      32.674  27.420  23.746  1.00  0.00    -0.049 A 
ATOM     15  C   UNL A   1      33.107  27.607  25.066  1.00  0.00     0.006 A 
ATOM     16  C   UNL A   1      32.003  28.546  23.005  1.00  0.00     0.044 C 
BRANCH   8  17
ATOM     17  C   UNL A   1      33.381  23.085  22.541  1.00  0.00     0.135 C 
BRANCH  17  18
ATOM     18  C   UNL A   1      32.342  22.086  23.011  1.00  0.00     0.122 C 
BRANCH  18  19
ATOM     19  C   UNL A   1      32.354  21.319  24.325  1.00  0.00     0.221 C 
ATOM     20  C   UNL A   1      30.834  22.604  25.992  1.00  0.00     0.142 C 
ATOM     21  N   UNL A   1      31.792  21.637  25.504  1.00  0.00    -0.359 N 
ATOM     22  H   UNL A   1      32.119  21.056  26.228  1.00  0.00     0.163 HD
ATOM     23  O   UNL A   1      33.044  20.286  24.357  1.00  0.00    -0.275 OA
ENDBRANCH  18  19
ENDBRANCH  17  18
ENDBRANCH   8  17
ENDBRANCH   6   7
ENDBRANCH   5   6
ENDBRANCH   3   5
ENDBRANCH   2   3
ENDBRANCH   1   2
BRANCH   1  24
ATOM     24  C   UNL A   1      41.788  20.539  26.120  1.00  0.00     0.202 C 
BRANCH  24  25
ATOM     25  O   UNL A   1      42.193  19.414  25.349  1.00  0.00    -0.374 OA
BRANCH  25  26
ATOM     26  C   UNL A   1      43.355  18.707  25.801  1.00  0.00     0.202 C 
BRANCH  26  27
ATOM     27  C   UNL A   1      44.641  18.857  24.967  1.00  0.00     0.261 C 
BRANCH  27  28
ATOM     28  O   UNL A   1      45.220  20.152  25.176  1.00  0.00    -0.460 OA
BRANCH  28  29
ATOM     29  C   UNL A   1      44.993  21.032  24.177  1.00  0.00     0.338 C 
ATOM     30  O   UNL A   1      44.622  20.796  23.034  1.00  0.00    -0.246 OA
BRANCH  29  31
ATOM     31  C   UNL A   1      44.793  22.301  24.885  1.00  0.00     0.060 A 
ATOM     32  C   UNL A   1      45.377  22.520  26.134  1.00  0.00     0.016 A 
ATOM     33  C   UNL A   1      43.727  23.088  24.420  1.00  0.00     0.016 A 
ATOM     34  C   UNL A   1      44.848  23.519  26.940  1.00  0.00     0.010 A 
ATOM     35  C   UNL A   1      43.179  24.062  25.244  1.00  0.00     0.010 A 
ATOM     36  C   UNL A   1      43.732  24.270  26.508  1.00  0.00    -0.014 A 
BRANCH  36  37
ATOM     37  C   UNL A   1      43.414  25.486  27.258  1.00  0.00     0.031 A 
ATOM     38  C   UNL A   1      44.384  26.569  26.935  1.00  0.00     0.074 A 
ATOM     39  C   UNL A   1      42.333  25.749  28.021  1.00  0.00     0.049 A 
ATOM     40  N   UNL A   1      45.218  27.138  27.739  1.00  0.00    -0.248 NA
ATOM     41  C   UNL A   1      44.560  26.936  25.519  1.00  0.00     0.031 C 
ATOM     42  C   UNL A   1      41.142  24.929  28.230  1.00  0.00     0.029 A 
ATOM     43  N   UNL A   1      42.041  26.892  28.715  1.00  0.00    -0.354 N 
ATOM     44  C   UNL A   1      45.914  28.058  26.965  1.00  0.00     0.074 A 
ATOM     45  C   UNL A   1      45.589  27.778  25.591  1.00  0.00     0.031 C 
ATOM     46  C   UNL A   1      40.177  25.684  28.811  1.00  0.00     0.029 A 
ATOM     47  C   UNL A   1      40.713  27.001  29.119  1.00  0.00     0.049 A 
ATOM     48  H   UNL A   1      42.716  27.581  28.914  1.00  0.00     0.167 HD
ATOM     49  C   UNL A   1      46.503  29.141  27.536  1.00  0.00     0.037 A 
ATOM     50  C   UNL A   1      40.098  28.111  29.612  1.00  0.00     0.037 A 
ATOM     51  C   UNL A   1      46.737  28.932  28.941  1.00  0.00     0.049 A 
ATOM     52  C   UNL A   1      41.157  29.013  30.128  1.00  0.00     0.074 A 
ATOM     53  C   UNL A   1      47.418  27.980  29.677  1.00  0.00     0.029 A 
ATOM     54  N   UNL A   1      45.926  29.579  29.839  1.00  0.00    -0.354 N 
ATOM     55  N   UNL A   1      41.871  28.771  31.190  1.00  0.00    -0.248 NA
ATOM     56  C   UNL A   1      41.702  30.008  29.216  1.00  0.00     0.031 C 
ATOM     57  C   UNL A   1      46.622  27.774  30.840  1.00  0.00     0.029 A 
ATOM     58  C   UNL A   1      45.544  28.654  30.772  1.00  0.00     0.049 A 
ATOM     59  H   UNL A   1      45.668  30.529  29.817  1.00  0.00     0.167 HD
ATOM     60  C   UNL A   1      43.137  29.224  30.861  1.00  0.00     0.074 A 
ATOM     61  C   UNL A   1      42.953  30.058  29.677  1.00  0.00     0.031 C 
ATOM     62  C   UNL A   1      44.247  28.649  31.403  1.00  0.00     0.037 A 
BRANCH  49  63
ATOM     63  C   UNL A   1      46.471  30.513  26.912  1.00  0.00     0.064 A 
ATOM     64  C   UNL A   1      47.647  31.288  26.916  1.00  0.00     0.173 A 
ATOM     65  C   UNL A   1      45.280  31.213  26.617  1.00  0.00     0.173 A 
ATOM     66  F   UNL A   1      48.831  30.729  27.210  1.00  0.00    -0.203 F 
ATOM     67  C   UNL A   1      47.616  32.671  26.732  1.00  0.00     0.198 A 
ATOM     68  C   UNL A   1      45.261  32.583  26.375  1.00  0.00     0.198 A 
ATOM     69  F   UNL A   1      44.074  30.634  26.671  1.00  0.00    -0.203 F 
ATOM     70  F   UNL A   1      48.737  33.387  26.890  1.00  0.00    -0.200 F 
ATOM     71  C   UNL A   1      46.422  33.318  26.468  1.00  0.00     0.200 A 
ATOM     72  F   UNL A   1      44.090  33.194  26.146  1.00  0.00    -0.200 F 
ATOM     73  F   UNL A   1      46.379  34.652  26.360  1.00  0.00    -0.200 F 
ENDBRANCH  49  63
BRANCH  50  74
ATOM     74  C   UNL A   1      38.700  28.594  29.436  1.00  0.00     0.064 A 
ATOM     75  C   UNL A   1      37.876  28.851  30.551  1.00  0.00     0.173 A 
ATOM     76  C   UNL A   1      38.244  29.104  28.207  1.00  0.00     0.173 A 
ATOM     77  F   UNL A   1      38.241  28.438  31.774  1.00  0.00    -0.203 F 
ATOM     78  C   UNL A   1      36.704  29.610  30.449  1.00  0.00     0.198 A 
ATOM     79  C   UNL A   1      37.068  29.852  28.103  1.00  0.00     0.198 A 
ATOM     80  F   UNL A   1      38.977  28.975  27.092  1.00  0.00    -0.203 F 
ATOM     81  F   UNL A   1      35.994  29.898  31.549  1.00  0.00    -0.200 F 
ATOM     82  C   UNL A   1      36.308  30.122  29.226  1.00  0.00     0.200 A 
ATOM     83  F   UNL A   1      36.713  30.371  26.919  1.00  0.00    -0.200 F 
ATOM     84  F   UNL A   1      35.226  30.908  29.136  1.00  0.00    -0.200 F 
ENDBRANCH  50  74
BRANCH  62  85
ATOM     85  C   UNL A   1      44.086  27.739  32.584  1.00  0.00     0.064 A 
ATOM     86  C   UNL A   1      43.974  26.341  32.494  1.00  0.00     0.173 A 
ATOM     87  C   UNL A   1      44.253  28.297  33.860  1.00  0.00     0.173 A 
ATOM     88  F   UNL A   1      43.899  25.725  31.307  1.00  0.00    -0.203 F 
ATOM     89  C   UNL A   1      44.017  25.545  33.638  1.00  0.00     0.198 A 
ATOM     90  C   UNL A   1      44.334  27.496  34.993  1.00  0.00     0.198 A 
ATOM     91  F   UNL A   1      44.408  29.624  33.997  1.00  0.00    -0.203 F 
ATOM     92  F   UNL A   1      43.918  24.211  33.531  1.00  0.00    -0.200 F 
ATOM     93  C   UNL A   1      44.212  26.121  34.883  1.00  0.00     0.200 A 
ATOM     94  F   UNL A   1      44.571  28.056  36.187  1.00  0.00    -0.200 F 
ATOM     95  F   UNL A   1      44.318  25.350  35.974  1.00  0.00    -0.200 F 
ENDBRANCH  62  85
ENDBRANCH  36  37
ENDBRANCH  29  31
ENDBRANCH  28  29
ENDBRANCH  27  28
ENDBRANCH  26  27
ENDBRANCH  25  26
ENDBRANCH  24  25
ENDBRANCH   1  24
TORSDOF 19
ENDMDL
MODEL 2
REMARK VINA RESULT:     -10.9      1.119      2.246
REMARK SMILES CNC(=O)CCn1c(SCC(=O)OCCOCCOC(=O)c2ccc(-c3c4nc(c(-c5c(F)c(F)c(F)c(F)c5F)c5ccc([nH]5)c(-c5c(F)c(F)c(F)c(F)c5F)c5nc(c(-c6c(F)c(F)c(F)c(F)c6F)c6ccc3[nH]6)C=C5)C=C4)cc2)nc2ccc(C)cc21
REMARK SMILES IDX 14 1 13 2 11 3 12 4 10 5 9 6 8 7 7 8 92 9 85 10 86 11 91 12
REMARK SMILES IDX 87 13 89 14 88 15 90 16 6 17 5 18 3 19 1 20 2 21 4 23 15 24
REMARK SMILES IDX 16 25 17 26 18 27 19 28 20 29 21 30 22 31 23 32 84 33 24 34
REMARK SMILES IDX 83 35 25 36 26 37 27 38 77 39 28 40 82 41 76 42 78 43 29 44
REMARK SMILES IDX 81 45 75 46 74 47 30 49 62 50 42 51 61 52 43 53 46 54 60 55
REMARK SMILES IDX 79 56 44 57 45 58 59 60 80 61 47 62 31 63 32 64 40 65 33 66
REMARK SMILES IDX 34 67 38 68 41 69 35 70 36 71 39 72 37 73 63 74 64 75 72 76
REMARK SMILES IDX 65 77 66 78 70 79 73 80 67 81 68 82 71 83 69 84 48 85 49 86
REMARK SMILES IDX 57 87 50 88 51 89 55 90 58 91 52 92 53 93 56 94 54 95
REMARK H PARENT 2 22 78 48 46 59
REMARK Flexibility Score: inf
ROOT
ATOM      1  C   UNL A   1      42.173  20.519  26.359  1.00  0.00     0.261 C 
ENDROOT
BRANCH   1   2
ATOM      2  O   UNL A   1      41.150  21.311  25.730  1.00  0.00    -0.463 OA
BRANCH   2   3
ATOM      3  C   UNL A   1      40.064  21.600  26.498  1.00  0.00     0.316 C 
ATOM      4  O   UNL A   1      40.098  21.757  27.715  1.00  0.00    -0.251 OA
BRANCH   3   5
ATOM      5  C   UNL A   1      38.768  21.604  25.730  1.00  0.00     0.200 C 
BRANCH   5   6
ATOM      6  S   UNL A   1      37.733  23.070  25.926  1.00  0.00    -0.076 SA
BRANCH   6   7
ATOM      7  C   UNL A   1      36.194  22.671  25.227  1.00  0.00     0.169 A 
ATOM      8  N   UNL A   1      35.137  23.542  25.197  1.00  0.00    -0.318 N 
ATOM      9  C   UNL A   1      33.986  22.775  25.289  1.00  0.00     0.069 A 
ATOM     10  N   UNL A   1      35.799  21.479  24.836  1.00  0.00    -0.222 NA
ATOM     11  C   UNL A   1      34.423  21.504  24.937  1.00  0.00     0.090 A 
ATOM     12  C   UNL A   1      32.652  23.055  25.627  1.00  0.00     0.032 A 
ATOM     13  C   UNL A   1      33.488  20.463  24.830  1.00  0.00     0.031 A 
ATOM     14  C   UNL A   1      31.745  21.978  25.631  1.00  0.00    -0.049 A 
ATOM     15  C   UNL A   1      32.157  20.710  25.198  1.00  0.00     0.006 A 
ATOM     16  C   UNL A   1      30.338  22.185  26.126  1.00  0.00     0.044 C 
BRANCH   8  17
ATOM     17  C   UNL A   1      35.117  24.963  24.951  1.00  0.00     0.135 C 
BRANCH  17  18
ATOM     18  C   UNL A   1      34.183  25.552  23.912  1.00  0.00     0.122 C 
BRANCH  18  19
ATOM     19  C   UNL A   1      33.109  26.602  24.154  1.00  0.00     0.221 C 
ATOM     20  C   UNL A   1      33.876  28.784  22.973  1.00  0.00     0.142 C 
ATOM     21  N   UNL A   1      33.098  27.904  23.817  1.00  0.00    -0.359 N 
ATOM     22  H   UNL A   1      32.366  28.386  24.263  1.00  0.00     0.163 HD
ATOM     23  O   UNL A   1      32.127  26.247  24.826  1.00  0.00    -0.275 OA
ENDBRANCH  18  19
ENDBRANCH  17  18
ENDBRANCH   8  17
ENDBRANCH   6   7
ENDBRANCH   5   6
ENDBRANCH   3   5
ENDBRANCH   2   3
ENDBRANCH   1   2
BRANCH   1  24
ATOM     24  C   UNL A   1      42.016  19.019  26.081  1.00  0.00     0.202 C 
BRANCH  24  25
ATOM     25  O   UNL A   1      43.069  18.343  25.403  1.00  0.00    -0.374 OA
BRANCH  25  26
ATOM     26  C   UNL A   1      44.383  18.471  25.961  1.00  0.00     0.202 C 
BRANCH  26  27
ATOM     27  C   UNL A   1      45.522  18.860  25.000  1.00  0.00     0.261 C 
BRANCH  27  28
ATOM     28  O   UNL A   1      45.806  20.261  25.108  1.00  0.00    -0.460 OA
BRANCH  28  29
ATOM     29  C   UNL A   1      45.190  21.027  24.181  1.00  0.00     0.338 C 
ATOM     30  O   UNL A   1      44.582  20.661  23.183  1.00  0.00    -0.246 OA
BRANCH  29  31
ATOM     31  C   UNL A   1      44.974  22.296  24.884  1.00  0.00     0.060 A 
ATOM     32  C   UNL A   1      45.560  22.531  26.129  1.00  0.00     0.016 A 
ATOM     33  C   UNL A   1      43.893  23.065  24.420  1.00  0.00     0.016 A 
ATOM     34  C   UNL A   1      45.019  23.526  26.933  1.00  0.00     0.010 A 
ATOM     35  C   UNL A   1      43.335  24.034  25.242  1.00  0.00     0.010 A 
ATOM     36  C   UNL A   1      43.890  24.257  26.502  1.00  0.00    -0.014 A 
BRANCH  36  37
ATOM     37  C   UNL A   1      43.556  25.472  27.247  1.00  0.00     0.031 A 
ATOM     38  C   UNL A   1      44.519  26.563  26.929  1.00  0.00     0.074 A 
ATOM     39  C   UNL A   1      42.468  25.727  28.001  1.00  0.00     0.049 A 
ATOM     40  N   UNL A   1      45.343  27.140  27.737  1.00  0.00    -0.248 NA
ATOM     41  C   UNL A   1      44.702  26.928  25.513  1.00  0.00     0.031 C 
ATOM     42  C   UNL A   1      41.282  24.898  28.204  1.00  0.00     0.029 A 
ATOM     43  N   UNL A   1      42.161  26.869  28.692  1.00  0.00    -0.354 N 
ATOM     44  C   UNL A   1      46.037  28.064  26.966  1.00  0.00     0.074 A 
ATOM     45  C   UNL A   1      45.724  27.778  25.591  1.00  0.00     0.031 C 
ATOM     46  C   UNL A   1      40.307  25.645  28.777  1.00  0.00     0.029 A 
ATOM     47  C   UNL A   1      40.830  26.968  29.086  1.00  0.00     0.049 A 
ATOM     48  H   UNL A   1      42.829  27.564  28.894  1.00  0.00     0.167 HD
ATOM     49  C   UNL A   1      46.612  29.153  27.539  1.00  0.00     0.037 A 
ATOM     50  C   UNL A   1      40.202  28.073  29.573  1.00  0.00     0.037 A 
ATOM     51  C   UNL A   1      46.839  28.949  28.946  1.00  0.00     0.049 A 
ATOM     52  C   UNL A   1      41.250  28.985  30.094  1.00  0.00     0.074 A 
ATOM     53  C   UNL A   1      47.522  28.004  29.689  1.00  0.00     0.029 A 
ATOM     54  N   UNL A   1      46.016  29.590  29.837  1.00  0.00    -0.354 N 
ATOM     55  N   UNL A   1      41.959  28.751  31.162  1.00  0.00    -0.248 NA
ATOM     56  C   UNL A   1      41.793  29.983  29.184  1.00  0.00     0.031 C 
ATOM     57  C   UNL A   1      46.720  27.793  30.847  1.00  0.00     0.029 A 
ATOM     58  C   UNL A   1      45.635  28.664  30.770  1.00  0.00     0.049 A 
ATOM     59  H   UNL A   1      45.750  30.538  29.811  1.00  0.00     0.167 HD
ATOM     60  C   UNL A   1      43.222  29.214  30.840  1.00  0.00     0.074 A 
ATOM     61  C   UNL A   1      43.040  30.044  29.653  1.00  0.00     0.031 C 
ATOM     62  C   UNL A   1      44.334  28.650  31.391  1.00  0.00     0.037 A 
BRANCH  49  63
ATOM     63  C   UNL A   1      46.573  30.523  26.912  1.00  0.00     0.064 A 
ATOM     64  C   UNL A   1      47.738  31.314  26.937  1.00  0.00     0.173 A 
ATOM     65  C   UNL A   1      45.378  31.207  26.594  1.00  0.00     0.173 A 
ATOM     66  F   UNL A   1      48.924  30.773  27.254  1.00  0.00    -0.203 F 
ATOM     67  C   UNL A   1      47.692  32.697  26.750  1.00  0.00     0.198 A 
ATOM     68  C   UNL A   1      45.345  32.576  26.349  1.00  0.00     0.198 A 
ATOM     69  F   UNL A   1      44.180  30.611  26.626  1.00  0.00    -0.203 F 
ATOM     70  F   UNL A   1      48.800  33.428  26.928  1.00  0.00    -0.200 F 
ATOM     71  C   UNL A   1      46.494  33.327  26.463  1.00  0.00     0.200 A 
ATOM     72  F   UNL A   1      44.170  33.170  26.097  1.00  0.00    -0.200 F 
ATOM     73  F   UNL A   1      46.435  34.660  26.352  1.00  0.00    -0.200 F 
ENDBRANCH  49  63
BRANCH  50  74
ATOM     74  C   UNL A   1      38.801  28.545  29.386  1.00  0.00     0.064 A 
ATOM     75  C   UNL A   1      37.952  28.749  30.493  1.00  0.00     0.173 A 
ATOM     76  C   UNL A   1      38.363  29.094  28.167  1.00  0.00     0.173 A 
ATOM     77  F   UNL A   1      38.298  28.295  31.707  1.00  0.00    -0.203 F 
ATOM     78  C   UNL A   1      36.771  29.495  30.394  1.00  0.00     0.198 A 
ATOM     79  C   UNL A   1      37.179  29.830  28.068  1.00  0.00     0.198 A 
ATOM     80  F   UNL A   1      39.120  29.016  27.064  1.00  0.00    -0.203 F 
ATOM     81  F   UNL A   1      36.036  29.734  31.489  1.00  0.00    -0.200 F 
ATOM     82  C   UNL A   1      36.393  30.048  29.183  1.00  0.00     0.200 A 
ATOM     83  F   UNL A   1      36.841  30.387  26.896  1.00  0.00    -0.200 F 
ATOM     84  F   UNL A   1      35.303  30.822  29.101  1.00  0.00    -0.200 F 
ENDBRANCH  50  74
BRANCH  62  85
ATOM     85  C   UNL A   1      44.172  27.740  32.573  1.00  0.00     0.064 A 
ATOM     86  C   UNL A   1      44.004  26.348  32.481  1.00  0.00     0.173 A 
ATOM     87  C   UNL A   1      44.398  28.286  33.845  1.00  0.00     0.173 A 
ATOM     88  F   UNL A   1      43.871  25.742  31.294  1.00  0.00    -0.203 F 
ATOM     89  C   UNL A   1      44.050  25.545  33.620  1.00  0.00     0.198 A 
ATOM     90  C   UNL A   1      44.481  27.476  34.973  1.00  0.00     0.198 A 
ATOM     91  F   UNL A   1      44.607  29.605  33.983  1.00  0.00    -0.203 F 
ATOM     92  F   UNL A   1      43.896  24.217  33.511  1.00  0.00    -0.200 F 
ATOM     93  C   UNL A   1      44.303  26.108  34.861  1.00  0.00     0.200 A 
ATOM     94  F   UNL A   1      44.773  28.021  36.162  1.00  0.00    -0.200 F 
ATOM     95  F   UNL A   1      44.411  25.328  35.945  1.00  0.00    -0.200 F 
ENDBRANCH  62  85
ENDBRANCH  36  37
ENDBRANCH  29  31
ENDBRANCH  28  29
ENDBRANCH  27  28
ENDBRANCH  26  27
ENDBRANCH  25  26
ENDBRANCH  24  25
ENDBRANCH   1  24
TORSDOF 19
ENDMDL
MODEL 3
REMARK VINA RESULT:     -10.9      4.145      8.781
REMARK SMILES CNC(=O)CCn1c(SCC(=O)OCCOCCOC(=O)c2ccc(-c3c4nc(c(-c5c(F)c(F)c(F)c(F)c5F)c5ccc([nH]5)c(-c5c(F)c(F)c(F)c(F)c5F)c5nc(c(-c6c(F)c(F)c(F)c(F)c6F)c6ccc3[nH]6)C=C5)C=C4)cc2)nc2ccc(C)cc21
REMARK SMILES IDX 14 1 13 2 11 3 12 4 10 5 9 6 8 7 7 8 92 9 85 10 86 11 91 12
REMARK SMILES IDX 87 13 89 14 88 15 90 16 6 17 5 18 3 19 1 20 2 21 4 23 15 24
REMARK SMILES IDX 16 25 17 26 18 27 19 28 20 29 21 30 22 31 23 32 84 33 24 34
REMARK SMILES IDX 83 35 25 36 26 37 27 38 77 39 28 40 82 41 76 42 78 43 29 44
REMARK SMILES IDX 81 45 75 46 74 47 30 49 62 50 42 51 61 52 43 53 46 54 60 55
REMARK SMILES IDX 79 56 44 57 45 58 59 60 80 61 47 62 31 63 32 64 40 65 33 66
REMARK SMILES IDX 34 67 38 68 41 69 35 70 36 71 39 72 37 73 63 74 64 75 72 76
REMARK SMILES IDX 65 77 66 78 70 79 73 80 67 81 68 82 71 83 69 84 48 85 49 86
REMARK SMILES IDX 57 87 50 88 51 89 55 90 58 91 52 92 53 93 56 94 54 95
REMARK H PARENT 2 22 78 48 46 59
REMARK Flexibility Score: inf
ROOT
ATOM      1  C   UNL A   1      33.665  28.940  25.535  1.00  0.00     0.261 C 
ENDROOT
BRANCH   1   2
ATOM      2  O   UNL A   1      32.510  29.322  24.768  1.00  0.00    -0.463 OA
BRANCH   2   3
ATOM      3  C   UNL A   1      32.474  28.875  23.483  1.00  0.00     0.316 C 
ATOM      4  O   UNL A   1      31.775  29.360  22.598  1.00  0.00    -0.251 OA
BRANCH   3   5
ATOM      5  C   UNL A   1      33.301  27.635  23.254  1.00  0.00     0.200 C 
BRANCH   5   6
ATOM      6  S   UNL A   1      32.379  26.108  22.975  1.00  0.00    -0.076 SA
BRANCH   6   7
ATOM      7  C   UNL A   1      33.380  24.824  23.580  1.00  0.00     0.169 A 
ATOM      8  N   UNL A   1      33.788  24.743  24.885  1.00  0.00    -0.318 N 
ATOM      9  C   UNL A   1      35.038  24.145  24.876  1.00  0.00     0.069 A 
ATOM     10  N   UNL A   1      34.006  23.917  22.862  1.00  0.00    -0.222 NA
ATOM     11  C   UNL A   1      35.087  23.535  23.629  1.00  0.00     0.090 A 
ATOM     12  C   UNL A   1      36.092  24.074  25.801  1.00  0.00     0.032 A 
ATOM     13  C   UNL A   1      36.196  22.740  23.298  1.00  0.00     0.031 A 
ATOM     14  C   UNL A   1      37.249  23.372  25.412  1.00  0.00    -0.049 A 
ATOM     15  C   UNL A   1      37.276  22.683  24.191  1.00  0.00     0.006 A 
ATOM     16  C   UNL A   1      38.466  23.384  26.298  1.00  0.00     0.044 C 
BRANCH   8  17
ATOM     17  C   UNL A   1      33.066  25.037  26.099  1.00  0.00     0.135 C 
BRANCH  17  18
ATOM     18  C   UNL A   1      31.801  24.276  26.446  1.00  0.00     0.122 C 
BRANCH  18  19
ATOM     19  C   UNL A   1      31.613  22.767  26.405  1.00  0.00     0.221 C 
ATOM     20  C   UNL A   1      33.752  21.690  27.409  1.00  0.00     0.142 C 
ATOM     21  N   UNL A   1      32.478  21.791  26.731  1.00  0.00    -0.359 N 
ATOM     22  H   UNL A   1      32.160  20.910  26.428  1.00  0.00     0.163 HD
ATOM     23  O   UNL A   1      30.542  22.354  25.931  1.00  0.00    -0.275 OA
ENDBRANCH  18  19
ENDBRANCH  17  18
ENDBRANCH   8  17
ENDBRANCH   6   7
ENDBRANCH   5   6
ENDBRANCH   3   5
ENDBRANCH   2   3
ENDBRANCH   1   2
BRANCH   1  24
ATOM     24  C   UNL A   1      33.426  29.018  27.047  1.00  0.00     0.202 C 
BRANCH  24  25
ATOM     25  O   UNL A   1      33.282  30.301  27.644  1.00  0.00    -0.374 OA
BRANCH  25  26
ATOM     26  C   UNL A   1      34.364  31.223  27.463  1.00  0.00     0.202 C 
BRANCH  26  27
ATOM     27  C   UNL A   1      35.143  31.651  28.721  1.00  0.00     0.261 C 
BRANCH  27  28
ATOM     28  O   UNL A   1      36.309  30.833  28.885  1.00  0.00    -0.460 OA
BRANCH  28  29
ATOM     29  C   UNL A   1      37.479  31.499  28.766  1.00  0.00     0.338 C 
ATOM     30  O   UNL A   1      37.677  32.702  28.878  1.00  0.00    -0.246 OA
BRANCH  29  31
ATOM     31  C   UNL A   1      38.484  30.454  28.980  1.00  0.00     0.060 A 
ATOM     32  C   UNL A   1      39.739  30.768  29.507  1.00  0.00     0.016 A 
ATOM     33  C   UNL A   1      38.250  29.244  28.306  1.00  0.00     0.016 A 
ATOM     34  C   UNL A   1      40.778  29.868  29.311  1.00  0.00     0.010 A 
ATOM     35  C   UNL A   1      39.300  28.364  28.083  1.00  0.00     0.010 A 
ATOM     36  C   UNL A   1      40.567  28.681  28.575  1.00  0.00    -0.014 A 
BRANCH  36  37
ATOM     37  C   UNL A   1      41.602  27.650  28.658  1.00  0.00     0.031 A 
ATOM     38  C   UNL A   1      42.232  27.648  30.008  1.00  0.00     0.074 A 
ATOM     39  C   UNL A   1      41.903  26.683  27.767  1.00  0.00     0.049 A 
ATOM     40  N   UNL A   1      43.462  27.909  30.297  1.00  0.00    -0.248 NA
ATOM     41  C   UNL A   1      41.349  27.508  31.179  1.00  0.00     0.031 C 
ATOM     42  C   UNL A   1      41.218  26.343  26.522  1.00  0.00     0.029 A 
ATOM     43  N   UNL A   1      42.871  25.719  27.855  1.00  0.00    -0.354 N 
ATOM     44  C   UNL A   1      43.551  27.801  31.680  1.00  0.00     0.074 A 
ATOM     45  C   UNL A   1      42.204  27.718  32.178  1.00  0.00     0.031 C 
ATOM     46  C   UNL A   1      41.650  25.132  26.092  1.00  0.00     0.029 A 
ATOM     47  C   UNL A   1      42.719  24.663  26.961  1.00  0.00     0.049 A 
ATOM     48  H   UNL A   1      43.615  25.769  28.499  1.00  0.00     0.167 HD
ATOM     49  C   UNL A   1      44.739  27.532  32.280  1.00  0.00     0.037 A 
ATOM     50  C   UNL A   1      43.385  23.475  26.979  1.00  0.00     0.037 A 
ATOM     51  C   UNL A   1      45.848  27.874  31.427  1.00  0.00     0.049 A 
ATOM     52  C   UNL A   1      44.630  23.677  27.759  1.00  0.00     0.074 A 
ATOM     53  C   UNL A   1      46.256  29.030  30.788  1.00  0.00     0.029 A 
ATOM     54  N   UNL A   1      46.542  26.856  30.822  1.00  0.00    -0.354 N 
ATOM     55  N   UNL A   1      45.641  24.392  27.353  1.00  0.00    -0.248 NA
ATOM     56  C   UNL A   1      44.586  23.404  29.188  1.00  0.00     0.031 C 
ATOM     57  C   UNL A   1      46.769  28.595  29.531  1.00  0.00     0.029 A 
ATOM     58  C   UNL A   1      46.700  27.204  29.509  1.00  0.00     0.049 A 
ATOM     59  H   UNL A   1      46.865  26.031  31.253  1.00  0.00     0.167 HD
ATOM     60  C   UNL A   1      46.088  25.029  28.497  1.00  0.00     0.074 A 
ATOM     61  C   UNL A   1      45.466  24.314  29.608  1.00  0.00     0.031 C 
ATOM     62  C   UNL A   1      46.688  26.251  28.427  1.00  0.00     0.037 A 
BRANCH  49  63
ATOM     63  C   UNL A   1      44.871  26.584  33.444  1.00  0.00     0.064 A 
ATOM     64  C   UNL A   1      45.604  26.995  34.574  1.00  0.00     0.173 A 
ATOM     65  C   UNL A   1      44.600  25.200  33.363  1.00  0.00     0.173 A 
ATOM     66  F   UNL A   1      45.941  28.283  34.738  1.00  0.00    -0.203 F 
ATOM     67  C   UNL A   1      46.103  26.077  35.500  1.00  0.00     0.198 A 
ATOM     68  C   UNL A   1      45.049  24.295  34.319  1.00  0.00     0.198 A 
ATOM     69  F   UNL A   1      43.999  24.647  32.302  1.00  0.00    -0.203 F 
ATOM     70  F   UNL A   1      46.918  26.497  36.477  1.00  0.00    -0.200 F 
ATOM     71  C   UNL A   1      45.831  24.728  35.368  1.00  0.00     0.200 A 
ATOM     72  F   UNL A   1      44.794  22.988  34.159  1.00  0.00    -0.200 F 
ATOM     73  F   UNL A   1      46.367  23.838  36.214  1.00  0.00    -0.200 F 
ENDBRANCH  49  63
BRANCH  50  74
ATOM     74  C   UNL A   1      42.920  22.107  26.619  1.00  0.00     0.064 A 
ATOM     75  C   UNL A   1      43.596  21.344  25.644  1.00  0.00     0.173 A 
ATOM     76  C   UNL A   1      42.007  21.401  27.424  1.00  0.00     0.173 A 
ATOM     77  F   UNL A   1      44.514  21.918  24.851  1.00  0.00    -0.203 F 
ATOM     78  C   UNL A   1      43.408  19.963  25.520  1.00  0.00     0.198 A 
ATOM     79  C   UNL A   1      41.811  20.023  27.292  1.00  0.00     0.198 A 
ATOM     80  F   UNL A   1      41.355  22.011  28.424  1.00  0.00    -0.203 F 
ATOM     81  F   UNL A   1      44.132  19.264  24.635  1.00  0.00    -0.200 F 
ATOM     82  C   UNL A   1      42.525  19.300  26.355  1.00  0.00     0.200 A 
ATOM     83  F   UNL A   1      40.977  19.389  28.129  1.00  0.00    -0.200 F 
ATOM     84  F   UNL A   1      42.395  17.968  26.288  1.00  0.00    -0.200 F 
ENDBRANCH  50  74
BRANCH  62  85
ATOM     85  C   UNL A   1      47.136  26.760  27.089  1.00  0.00     0.064 A 
ATOM     86  C   UNL A   1      48.405  26.518  26.536  1.00  0.00     0.173 A 
ATOM     87  C   UNL A   1      46.167  27.343  26.260  1.00  0.00     0.173 A 
ATOM     88  F   UNL A   1      49.357  25.886  27.235  1.00  0.00    -0.203 F 
ATOM     89  C   UNL A   1      48.687  26.858  25.214  1.00  0.00     0.198 A 
ATOM     90  C   UNL A   1      46.441  27.645  24.930  1.00  0.00     0.198 A 
ATOM     91  F   UNL A   1      44.925  27.557  26.726  1.00  0.00    -0.203 F 
ATOM     92  F   UNL A   1      49.902  26.611  24.702  1.00  0.00    -0.200 F 
ATOM     93  C   UNL A   1      47.701  27.407  24.409  1.00  0.00     0.200 A 
ATOM     94  F   UNL A   1      45.470  28.131  24.145  1.00  0.00    -0.200 F 
ATOM     95  F   UNL A   1      47.955  27.674  23.121  1.00  0.00    -0.200 F 
ENDBRANCH  62  85
ENDBRANCH  36  37
ENDBRANCH  29  31
ENDBRANCH  28  29
ENDBRANCH  27  28
ENDBRANCH  26  27
ENDBRANCH  25  26
ENDBRANCH  24  25
ENDBRANCH   1  24
TORSDOF 19
ENDMDL
