MODEL 1
REMARK VINA RESULT:     -12.3      0.000      0.000
REMARK SMILES O=C(OCCOCCOC(=O)[C@H]1[C@@H](C(=O)NN2CCOCC2)[C@H]2C=C[C@@H]1CC2)c1ccc(-c2c3nc(c(-c4c(F)c(F)c(F)c(F)c4F)c4ccc([nH]4)c(-c4c(F)c(F)c(F)c(F)c4F)c4nc(c(-c5c(F)c(F)c(F)c(F)c5F)c5ccc2[nH]5)C=C4)C=C3)cc1
REMARK SMILES IDX 6 1 5 2 4 3 3 4 2 5 1 6 29 7 30 8 91 9 31 10 90 11 32 12
REMARK SMILES IDX 33 13 34 14 84 15 35 16 89 17 83 18 85 19 36 20 88 21 82 22
REMARK SMILES IDX 81 23 37 25 69 26 49 27 68 28 50 29 53 30 67 31 86 32 51 33
REMARK SMILES IDX 52 34 66 36 87 37 54 38 38 39 39 40 47 41 40 42 41 43 45 44
REMARK SMILES IDX 48 45 42 46 43 47 46 48 44 49 70 50 71 51 79 52 72 53 73 54
REMARK SMILES IDX 77 55 80 56 74 57 75 58 78 59 76 60 55 61 56 62 64 63 57 64
REMARK SMILES IDX 58 65 62 66 65 67 59 68 60 69 63 70 61 71 7 72 8 73 9 74
REMARK SMILES IDX 10 75 11 76 12 77 13 78 26 79 23 80 25 81 27 82 24 83 28 84
REMARK SMILES IDX 14 85 15 86 16 87 17 89 18 90 22 91 19 92 21 93 20 94
REMARK H PARENT 85 24 53 35 16 88
REMARK Flexibility Score: inf
ROOT
ATOM      1  O   UNL A   1      31.847  30.794  26.784  1.00  0.00    -0.374 OA
ENDROOT
BRANCH   1   2
ATOM      2  C   UNL A   1      31.462  32.166  26.855  1.00  0.00     0.202 C 
BRANCH   2   3
ATOM      3  C   UNL A   1      32.604  33.155  27.107  1.00  0.00     0.261 C 
BRANCH   3   4
ATOM      4  O   UNL A   1      32.188  34.196  28.002  1.00  0.00    -0.460 OA
BRANCH   4   5
ATOM      5  C   UNL A   1      32.947  34.922  28.853  1.00  0.00     0.338 C 
ATOM      6  O   UNL A   1      32.688  36.119  28.973  1.00  0.00    -0.246 OA
BRANCH   5   7
ATOM      7  C   UNL A   1      34.111  34.381  29.627  1.00  0.00     0.060 A 
ATOM      8  C   UNL A   1      34.028  33.600  30.781  1.00  0.00     0.016 A 
ATOM      9  C   UNL A   1      35.386  34.578  29.068  1.00  0.00     0.016 A 
ATOM     10  C   UNL A   1      35.134  32.983  31.335  1.00  0.00     0.010 A 
ATOM     11  C   UNL A   1      36.517  33.979  29.628  1.00  0.00     0.010 A 
ATOM     12  C   UNL A   1      36.379  33.166  30.754  1.00  0.00    -0.014 A 
BRANCH  12  13
ATOM     13  C   UNL A   1      37.523  32.543  31.422  1.00  0.00     0.031 A 
ATOM     14  C   UNL A   1      38.258  31.471  30.693  1.00  0.00     0.074 A 
ATOM     15  C   UNL A   1      37.945  33.046  32.595  1.00  0.00     0.049 A 
ATOM     16  N   UNL A   1      39.247  30.728  31.100  1.00  0.00    -0.248 NA
ATOM     17  C   UNL A   1      37.832  31.212  29.306  1.00  0.00     0.031 C 
ATOM     18  C   UNL A   1      37.355  34.201  33.276  1.00  0.00     0.029 A 
ATOM     19  N   UNL A   1      38.975  32.666  33.409  1.00  0.00    -0.354 N 
ATOM     20  C   UNL A   1      39.538  29.888  30.036  1.00  0.00     0.074 A 
ATOM     21  C   UNL A   1      38.644  30.227  28.954  1.00  0.00     0.031 C 
ATOM     22  C   UNL A   1      38.024  34.423  34.419  1.00  0.00     0.029 A 
ATOM     23  C   UNL A   1      39.040  33.388  34.575  1.00  0.00     0.049 A 
ATOM     24  H   UNL A   1      39.606  31.944  33.183  1.00  0.00     0.167 HD
ATOM     25  C   UNL A   1      40.462  28.904  29.998  1.00  0.00     0.037 A 
ATOM     26  C   UNL A   1      39.804  33.181  35.663  1.00  0.00     0.037 A 
ATOM     27  C   UNL A   1      41.328  28.604  31.105  1.00  0.00     0.049 A 
ATOM     28  C   UNL A   1      40.753  32.010  35.630  1.00  0.00     0.074 A 
ATOM     29  C   UNL A   1      42.284  27.615  31.214  1.00  0.00     0.029 A 
ATOM     30  N   UNL A   1      41.326  29.305  32.305  1.00  0.00    -0.354 N 
ATOM     31  N   UNL A   1      41.002  31.179  34.645  1.00  0.00    -0.248 NA
ATOM     32  C   UNL A   1      41.501  31.727  36.860  1.00  0.00     0.031 C 
ATOM     33  C   UNL A   1      42.827  27.686  32.501  1.00  0.00     0.029 A 
ATOM     34  C   UNL A   1      42.239  28.746  33.178  1.00  0.00     0.049 A 
ATOM     35  H   UNL A   1      40.759  30.086  32.503  1.00  0.00     0.167 HD
ATOM     36  C   UNL A   1      41.932  30.274  35.133  1.00  0.00     0.074 A 
ATOM     37  C   UNL A   1      42.227  30.679  36.494  1.00  0.00     0.031 C 
ATOM     38  C   UNL A   1      42.487  29.197  34.526  1.00  0.00     0.037 A 
BRANCH  25  39
ATOM     39  C   UNL A   1      40.500  28.043  28.776  1.00  0.00     0.064 A 
ATOM     40  C   UNL A   1      39.774  26.848  28.678  1.00  0.00     0.173 A 
ATOM     41  C   UNL A   1      41.303  28.417  27.688  1.00  0.00     0.173 A 
ATOM     42  F   UNL A   1      39.020  26.429  29.705  1.00  0.00    -0.203 F 
ATOM     43  C   UNL A   1      39.861  26.052  27.538  1.00  0.00     0.198 A 
ATOM     44  C   UNL A   1      41.372  27.630  26.543  1.00  0.00     0.198 A 
ATOM     45  F   UNL A   1      42.032  29.543  27.741  1.00  0.00    -0.203 F 
ATOM     46  F   UNL A   1      39.193  24.891  27.481  1.00  0.00    -0.200 F 
ATOM     47  C   UNL A   1      40.654  26.445  26.471  1.00  0.00     0.200 A 
ATOM     48  F   UNL A   1      42.142  28.010  25.514  1.00  0.00    -0.200 F 
ATOM     49  F   UNL A   1      40.740  25.676  25.376  1.00  0.00    -0.200 F 
ENDBRANCH  25  39
BRANCH  26  50
ATOM     50  C   UNL A   1      39.634  34.019  36.879  1.00  0.00     0.064 A 
ATOM     51  C   UNL A   1      38.809  33.617  37.939  1.00  0.00     0.173 A 
ATOM     52  C   UNL A   1      40.276  35.264  36.997  1.00  0.00     0.173 A 
ATOM     53  F   UNL A   1      38.153  32.449  37.869  1.00  0.00    -0.203 F 
ATOM     54  C   UNL A   1      38.618  34.432  39.054  1.00  0.00     0.198 A 
ATOM     55  C   UNL A   1      40.110  36.063  38.126  1.00  0.00     0.198 A 
ATOM     56  F   UNL A   1      41.072  35.706  36.012  1.00  0.00    -0.203 F 
ATOM     57  F   UNL A   1      37.781  34.045  40.028  1.00  0.00    -0.200 F 
ATOM     58  C   UNL A   1      39.273  35.650  39.150  1.00  0.00     0.200 A 
ATOM     59  F   UNL A   1      40.755  37.234  38.217  1.00  0.00    -0.200 F 
ATOM     60  F   UNL A   1      39.085  36.434  40.221  1.00  0.00    -0.200 F 
ENDBRANCH  26  50
BRANCH  38  61
ATOM     61  C   UNL A   1      43.456  28.393  35.335  1.00  0.00     0.064 A 
ATOM     62  C   UNL A   1      43.021  27.324  36.129  1.00  0.00     0.173 A 
ATOM     63  C   UNL A   1      44.832  28.647  35.254  1.00  0.00     0.173 A 
ATOM     64  F   UNL A   1      41.711  27.058  36.247  1.00  0.00    -0.203 F 
ATOM     65  C   UNL A   1      43.934  26.540  36.825  1.00  0.00     0.198 A 
ATOM     66  C   UNL A   1      45.743  27.843  35.928  1.00  0.00     0.198 A 
ATOM     67  F   UNL A   1      45.290  29.657  34.498  1.00  0.00    -0.203 F 
ATOM     68  F   UNL A   1      43.499  25.540  37.604  1.00  0.00    -0.200 F 
ATOM     69  C   UNL A   1      45.294  26.793  36.716  1.00  0.00     0.200 A 
ATOM     70  F   UNL A   1      47.057  28.080  35.811  1.00  0.00    -0.200 F 
ATOM     71  F   UNL A   1      46.174  26.024  37.372  1.00  0.00    -0.200 F 
ENDBRANCH  38  61
ENDBRANCH  12  13
ENDBRANCH   5   7
ENDBRANCH   4   5
ENDBRANCH   3   4
ENDBRANCH   2   3
ENDBRANCH   1   2
BRANCH   1  72
ATOM     72  C   UNL A   1      33.155  30.468  27.269  1.00  0.00     0.202 C 
BRANCH  72  73
ATOM     73  C   UNL A   1      33.765  29.391  26.374  1.00  0.00     0.261 C 
BRANCH  73  74
ATOM     74  O   UNL A   1      33.240  29.611  25.061  1.00  0.00    -0.463 OA
BRANCH  74  75
ATOM     75  C   UNL A   1      32.867  28.508  24.375  1.00  0.00     0.310 C 
ATOM     76  O   UNL A   1      33.575  27.934  23.560  1.00  0.00    -0.252 OA
BRANCH  75  77
ATOM     77  C   UNL A   1      31.547  27.929  24.889  1.00  0.00     0.119 C 
ATOM     78  C   UNL A   1      30.246  27.941  24.000  1.00  0.00     0.101 C 
ATOM     79  C   UNL A   1      31.822  26.487  25.406  1.00  0.00     0.026 C 
ATOM     80  C   UNL A   1      29.832  26.466  23.732  1.00  0.00     0.025 C 
ATOM     81  C   UNL A   1      32.054  25.632  24.184  1.00  0.00    -0.027 C 
ATOM     82  C   UNL A   1      30.546  25.981  26.114  1.00  0.00     0.009 C 
ATOM     83  C   UNL A   1      31.043  25.654  23.302  1.00  0.00    -0.027 C 
ATOM     84  C   UNL A   1      29.388  25.871  25.095  1.00  0.00     0.009 C 
BRANCH  78  85
ATOM     85  C   UNL A   1      30.292  28.749  22.703  1.00  0.00     0.238 C 
ATOM     86  O   UNL A   1      30.652  28.275  21.626  1.00  0.00    -0.273 OA
ATOM     87  N   UNL A   1      30.033  30.113  22.785  1.00  0.00    -0.288 N 
ATOM     88  H   UNL A   1      30.734  30.760  22.544  1.00  0.00     0.185 HD
BRANCH  87  89
ATOM     89  N   UNL A   1      28.752  30.580  23.218  1.00  0.00    -0.217 NA
ATOM     90  C   UNL A   1      27.802  30.592  22.069  1.00  0.00     0.136 C 
ATOM     91  C   UNL A   1      28.770  31.952  23.781  1.00  0.00     0.136 C 
ATOM     92  C   UNL A   1      28.053  31.735  21.066  1.00  0.00     0.177 C 
ATOM     93  C   UNL A   1      29.007  33.068  22.752  1.00  0.00     0.177 C 
ATOM     94  O   UNL A   1      28.023  33.011  21.713  1.00  0.00    -0.379 OA
ENDBRANCH  87  89
ENDBRANCH  78  85
ENDBRANCH  75  77
ENDBRANCH  74  75
ENDBRANCH  73  74
ENDBRANCH  72  73
ENDBRANCH   1  72
TORSDOF 16
ENDMDL
MODEL 2
REMARK VINA RESULT:     -12.3      4.564      9.823
REMARK SMILES O=C(OCCOCCOC(=O)[C@H]1[C@@H](C(=O)NN2CCOCC2)[C@H]2C=C[C@@H]1CC2)c1ccc(-c2c3nc(c(-c4c(F)c(F)c(F)c(F)c4F)c4ccc([nH]4)c(-c4c(F)c(F)c(F)c(F)c4F)c4nc(c(-c5c(F)c(F)c(F)c(F)c5F)c5ccc2[nH]5)C=C4)C=C3)cc1
REMARK SMILES IDX 6 1 5 2 4 3 3 4 2 5 1 6 29 7 30 8 91 9 31 10 90 11 32 12
REMARK SMILES IDX 33 13 34 14 84 15 35 16 89 17 83 18 85 19 36 20 88 21 82 22
REMARK SMILES IDX 81 23 37 25 69 26 49 27 68 28 50 29 53 30 67 31 86 32 51 33
REMARK SMILES IDX 52 34 66 36 87 37 54 38 38 39 39 40 47 41 40 42 41 43 45 44
REMARK SMILES IDX 48 45 42 46 43 47 46 48 44 49 70 50 71 51 79 52 72 53 73 54
REMARK SMILES IDX 77 55 80 56 74 57 75 58 78 59 76 60 55 61 56 62 64 63 57 64
REMARK SMILES IDX 58 65 62 66 65 67 59 68 60 69 63 70 61 71 7 72 8 73 9 74
REMARK SMILES IDX 10 75 11 76 12 77 13 78 26 79 23 80 25 81 27 82 24 83 28 84
REMARK SMILES IDX 14 85 15 86 16 87 17 89 18 90 22 91 19 92 21 93 20 94
REMARK H PARENT 85 24 53 35 16 88
REMARK Flexibility Score: inf
ROOT
ATOM      1  O   UNL A   1      40.375  21.292  26.517  1.00  0.00    -0.374 OA
ENDROOT
BRANCH   1   2
ATOM      2  C   UNL A   1      41.516  20.447  26.383  1.00  0.00     0.202 C 
BRANCH   2   3
ATOM      3  C   UNL A   1      42.798  21.146  25.918  1.00  0.00     0.261 C 
BRANCH   3   4
ATOM      4  O   UNL A   1      42.491  22.328  25.168  1.00  0.00    -0.460 OA
BRANCH   4   5
ATOM      5  C   UNL A   1      42.990  23.575  25.326  1.00  0.00     0.338 C 
ATOM      6  O   UNL A   1      43.943  23.904  24.620  1.00  0.00    -0.246 OA
BRANCH   5   7
ATOM      7  C   UNL A   1      42.493  24.568  26.332  1.00  0.00     0.060 A 
ATOM      8  C   UNL A   1      41.601  24.297  27.371  1.00  0.00     0.016 A 
ATOM      9  C   UNL A   1      43.074  25.848  26.295  1.00  0.00     0.016 A 
ATOM     10  C   UNL A   1      41.330  25.214  28.369  1.00  0.00     0.010 A 
ATOM     11  C   UNL A   1      42.795  26.794  27.284  1.00  0.00     0.010 A 
ATOM     12  C   UNL A   1      41.934  26.461  28.331  1.00  0.00    -0.014 A 
BRANCH  12  13
ATOM     13  C   UNL A   1      41.560  27.414  29.378  1.00  0.00     0.031 A 
ATOM     14  C   UNL A   1      42.414  27.483  30.596  1.00  0.00     0.074 A 
ATOM     15  C   UNL A   1      40.553  28.273  29.145  1.00  0.00     0.049 A 
ATOM     16  N   UNL A   1      42.249  28.186  31.679  1.00  0.00    -0.248 NA
ATOM     17  C   UNL A   1      43.636  26.658  30.588  1.00  0.00     0.031 C 
ATOM     18  C   UNL A   1      39.784  28.353  27.900  1.00  0.00     0.029 A 
ATOM     19  N   UNL A   1      40.017  29.252  29.934  1.00  0.00    -0.354 N 
ATOM     20  C   UNL A   1      43.321  27.863  32.496  1.00  0.00     0.074 A 
ATOM     21  C   UNL A   1      44.149  26.922  31.779  1.00  0.00     0.031 C 
ATOM     22  C   UNL A   1      38.860  29.320  28.019  1.00  0.00     0.029 A 
ATOM     23  C   UNL A   1      38.933  29.874  29.365  1.00  0.00     0.049 A 
ATOM     24  H   UNL A   1      40.371  29.486  30.822  1.00  0.00     0.167 HD
ATOM     25  C   UNL A   1      43.559  28.306  33.749  1.00  0.00     0.037 A 
ATOM     26  C   UNL A   1      38.071  30.750  29.913  1.00  0.00     0.037 A 
ATOM     27  C   UNL A   1      42.701  29.243  34.421  1.00  0.00     0.049 A 
ATOM     28  C   UNL A   1      38.304  31.147  31.348  1.00  0.00     0.074 A 
ATOM     29  C   UNL A   1      42.806  29.750  35.701  1.00  0.00     0.029 A 
ATOM     30  N   UNL A   1      41.567  29.806  33.850  1.00  0.00    -0.354 N 
ATOM     31  N   UNL A   1      39.290  30.809  32.147  1.00  0.00    -0.248 NA
ATOM     32  C   UNL A   1      37.298  32.016  31.969  1.00  0.00     0.031 C 
ATOM     33  C   UNL A   1      41.704  30.583  35.921  1.00  0.00     0.029 A 
ATOM     34  C   UNL A   1      40.938  30.628  34.764  1.00  0.00     0.049 A 
ATOM     35  H   UNL A   1      41.258  29.644  32.929  1.00  0.00     0.167 HD
ATOM     36  C   UNL A   1      39.025  31.420  33.363  1.00  0.00     0.074 A 
ATOM     37  C   UNL A   1      37.800  32.176  33.186  1.00  0.00     0.031 C 
ATOM     38  C   UNL A   1      39.715  31.357  34.527  1.00  0.00     0.037 A 
BRANCH  25  39
ATOM     39  C   UNL A   1      44.719  27.710  34.481  1.00  0.00     0.064 A 
ATOM     40  C   UNL A   1      45.999  28.283  34.450  1.00  0.00     0.173 A 
ATOM     41  C   UNL A   1      44.546  26.525  35.211  1.00  0.00     0.173 A 
ATOM     42  F   UNL A   1      46.223  29.396  33.737  1.00  0.00    -0.203 F 
ATOM     43  C   UNL A   1      47.065  27.682  35.115  1.00  0.00     0.198 A 
ATOM     44  C   UNL A   1      45.609  25.938  35.890  1.00  0.00     0.198 A 
ATOM     45  F   UNL A   1      43.344  25.928  35.256  1.00  0.00    -0.203 F 
ATOM     46  F   UNL A   1      48.290  28.220  35.037  1.00  0.00    -0.200 F 
ATOM     47  C   UNL A   1      46.869  26.514  35.837  1.00  0.00     0.200 A 
ATOM     48  F   UNL A   1      45.417  24.808  36.585  1.00  0.00    -0.200 F 
ATOM     49  F   UNL A   1      47.897  25.935  36.472  1.00  0.00    -0.200 F 
ENDBRANCH  25  39
BRANCH  26  50
ATOM     50  C   UNL A   1      36.882  31.219  29.153  1.00  0.00     0.064 A 
ATOM     51  C   UNL A   1      36.779  32.539  28.692  1.00  0.00     0.173 A 
ATOM     52  C   UNL A   1      35.802  30.358  28.892  1.00  0.00     0.173 A 
ATOM     53  F   UNL A   1      37.769  33.411  28.933  1.00  0.00    -0.203 F 
ATOM     54  C   UNL A   1      35.638  32.982  28.022  1.00  0.00     0.198 A 
ATOM     55  C   UNL A   1      34.678  30.793  28.195  1.00  0.00     0.198 A 
ATOM     56  F   UNL A   1      35.840  29.085  29.315  1.00  0.00    -0.203 F 
ATOM     57  F   UNL A   1      35.545  34.264  27.640  1.00  0.00    -0.200 F 
ATOM     58  C   UNL A   1      34.592  32.108  27.769  1.00  0.00     0.200 A 
ATOM     59  F   UNL A   1      33.676  29.939  27.943  1.00  0.00    -0.200 F 
ATOM     60  F   UNL A   1      33.496  32.536  27.128  1.00  0.00    -0.200 F 
ENDBRANCH  26  50
BRANCH  38  61
ATOM     61  C   UNL A   1      39.153  32.120  35.685  1.00  0.00     0.064 A 
ATOM     62  C   UNL A   1      38.316  31.500  36.621  1.00  0.00     0.173 A 
ATOM     63  C   UNL A   1      39.517  33.457  35.898  1.00  0.00     0.173 A 
ATOM     64  F   UNL A   1      37.931  30.226  36.446  1.00  0.00    -0.203 F 
ATOM     65  C   UNL A   1      37.853  32.198  37.731  1.00  0.00     0.198 A 
ATOM     66  C   UNL A   1      39.074  34.143  37.023  1.00  0.00     0.198 A 
ATOM     67  F   UNL A   1      40.323  34.086  35.028  1.00  0.00    -0.203 F 
ATOM     68  F   UNL A   1      37.028  31.598  38.601  1.00  0.00    -0.200 F 
ATOM     69  C   UNL A   1      38.240  33.515  37.936  1.00  0.00     0.200 A 
ATOM     70  F   UNL A   1      39.460  35.409  37.228  1.00  0.00    -0.200 F 
ATOM     71  F   UNL A   1      37.807  34.180  39.016  1.00  0.00    -0.200 F 
ENDBRANCH  38  61
ENDBRANCH  12  13
ENDBRANCH   5   7
ENDBRANCH   4   5
ENDBRANCH   3   4
ENDBRANCH   2   3
ENDBRANCH   1   2
BRANCH   1  72
ATOM     72  C   UNL A   1      39.220  20.939  25.746  1.00  0.00     0.202 C 
BRANCH  72  73
ATOM     73  C   UNL A   1      38.259  22.126  25.714  1.00  0.00     0.261 C 
BRANCH  73  74
ATOM     74  O   UNL A   1      37.006  21.619  25.247  1.00  0.00    -0.463 OA
BRANCH  74  75
ATOM     75  C   UNL A   1      35.950  22.457  25.343  1.00  0.00     0.310 C 
ATOM     76  O   UNL A   1      35.890  23.401  26.117  1.00  0.00    -0.252 OA
BRANCH  75  77
ATOM     77  C   UNL A   1      34.929  22.227  24.227  1.00  0.00     0.119 C 
ATOM     78  C   UNL A   1      33.648  21.337  24.457  1.00  0.00     0.101 C 
ATOM     79  C   UNL A   1      34.515  23.615  23.658  1.00  0.00     0.026 C 
ATOM     80  C   UNL A   1      32.395  22.244  24.285  1.00  0.00     0.025 C 
ATOM     81  C   UNL A   1      33.648  24.265  24.710  1.00  0.00    -0.027 C 
ATOM     82  C   UNL A   1      33.652  23.379  22.400  1.00  0.00     0.009 C 
ATOM     83  C   UNL A   1      32.577  23.538  25.061  1.00  0.00    -0.027 C 
ATOM     84  C   UNL A   1      32.343  22.653  22.789  1.00  0.00     0.009 C 
BRANCH  78  85
ATOM     85  C   UNL A   1      33.578  20.536  25.757  1.00  0.00     0.238 C 
ATOM     86  O   UNL A   1      33.574  21.057  26.872  1.00  0.00    -0.273 OA
ATOM     87  N   UNL A   1      33.650  19.150  25.663  1.00  0.00    -0.288 N 
ATOM     88  H   UNL A   1      34.404  18.669  26.075  1.00  0.00     0.185 HD
BRANCH  87  89
ATOM     89  N   UNL A   1      32.634  18.420  24.970  1.00  0.00    -0.217 NA
ATOM     90  C   UNL A   1      32.377  17.125  25.663  1.00  0.00     0.136 C 
ATOM     91  C   UNL A   1      32.976  18.099  23.562  1.00  0.00     0.136 C 
ATOM     92  C   UNL A   1      33.490  16.078  25.456  1.00  0.00     0.177 C 
ATOM     93  C   UNL A   1      34.077  17.040  23.393  1.00  0.00     0.177 C 
ATOM     94  O   UNL A   1      33.717  15.828  24.066  1.00  0.00    -0.379 OA
ENDBRANCH  87  89
ENDBRANCH  78  85
ENDBRANCH  75  77
ENDBRANCH  74  75
ENDBRANCH  73  74
ENDBRANCH  72  73
ENDBRANCH   1  72
TORSDOF 16
ENDMDL
MODEL 3
REMARK VINA RESULT:     -12.1      0.248      1.593
REMARK SMILES O=C(OCCOCCOC(=O)[C@H]1[C@@H](C(=O)NN2CCOCC2)[C@H]2C=C[C@@H]1CC2)c1ccc(-c2c3nc(c(-c4c(F)c(F)c(F)c(F)c4F)c4ccc([nH]4)c(-c4c(F)c(F)c(F)c(F)c4F)c4nc(c(-c5c(F)c(F)c(F)c(F)c5F)c5ccc2[nH]5)C=C4)C=C3)cc1
REMARK SMILES IDX 6 1 5 2 4 3 3 4 2 5 1 6 29 7 30 8 91 9 31 10 90 11 32 12
REMARK SMILES IDX 33 13 34 14 84 15 35 16 89 17 83 18 85 19 36 20 88 21 82 22
REMARK SMILES IDX 81 23 37 25 69 26 49 27 68 28 50 29 53 30 67 31 86 32 51 33
REMARK SMILES IDX 52 34 66 36 87 37 54 38 38 39 39 40 47 41 40 42 41 43 45 44
REMARK SMILES IDX 48 45 42 46 43 47 46 48 44 49 70 50 71 51 79 52 72 53 73 54
REMARK SMILES IDX 77 55 80 56 74 57 75 58 78 59 76 60 55 61 56 62 64 63 57 64
REMARK SMILES IDX 58 65 62 66 65 67 59 68 60 69 63 70 61 71 7 72 8 73 9 74
REMARK SMILES IDX 10 75 11 76 12 77 13 78 26 79 23 80 25 81 27 82 24 83 28 84
REMARK SMILES IDX 14 85 15 86 16 87 17 89 18 90 22 91 19 92 21 93 20 94
REMARK H PARENT 85 24 53 35 16 88
REMARK Flexibility Score: inf
ROOT
ATOM      1  O   UNL A   1      31.767  30.830  26.848  1.00  0.00    -0.374 OA
ENDROOT
BRANCH   1   2
ATOM      2  C   UNL A   1      31.511  32.233  26.859  1.00  0.00     0.202 C 
BRANCH   2   3
ATOM      3  C   UNL A   1      32.710  33.115  27.222  1.00  0.00     0.261 C 
BRANCH   3   4
ATOM      4  O   UNL A   1      32.285  34.289  27.927  1.00  0.00    -0.460 OA
BRANCH   4   5
ATOM      5  C   UNL A   1      32.939  34.967  28.897  1.00  0.00     0.338 C 
ATOM      6  O   UNL A   1      32.565  36.113  29.146  1.00  0.00    -0.246 OA
BRANCH   5   7
ATOM      7  C   UNL A   1      34.116  34.438  29.658  1.00  0.00     0.060 A 
ATOM      8  C   UNL A   1      34.053  33.675  30.826  1.00  0.00     0.016 A 
ATOM      9  C   UNL A   1      35.381  34.627  29.075  1.00  0.00     0.016 A 
ATOM     10  C   UNL A   1      35.169  33.067  31.371  1.00  0.00     0.010 A 
ATOM     11  C   UNL A   1      36.522  34.037  29.625  1.00  0.00     0.010 A 
ATOM     12  C   UNL A   1      36.404  33.241  30.766  1.00  0.00    -0.014 A 
BRANCH  12  13
ATOM     13  C   UNL A   1      37.559  32.629  31.423  1.00  0.00     0.031 A 
ATOM     14  C   UNL A   1      38.283  31.547  30.698  1.00  0.00     0.074 A 
ATOM     15  C   UNL A   1      38.001  33.150  32.581  1.00  0.00     0.049 A 
ATOM     16  N   UNL A   1      39.279  30.810  31.098  1.00  0.00    -0.248 NA
ATOM     17  C   UNL A   1      37.834  31.267  29.322  1.00  0.00     0.031 C 
ATOM     18  C   UNL A   1      37.421  34.314  33.255  1.00  0.00     0.029 A 
ATOM     19  N   UNL A   1      39.044  32.782  33.383  1.00  0.00    -0.354 N 
ATOM     20  C   UNL A   1      39.553  29.955  30.043  1.00  0.00     0.074 A 
ATOM     21  C   UNL A   1      38.640  30.277  28.971  1.00  0.00     0.031 C 
ATOM     22  C   UNL A   1      38.109  34.553  34.383  1.00  0.00     0.029 A 
ATOM     23  C   UNL A   1      39.128  33.522  34.537  1.00  0.00     0.049 A 
ATOM     24  H   UNL A   1      39.672  32.058  33.157  1.00  0.00     0.167 HD
ATOM     25  C   UNL A   1      40.476  28.971  30.004  1.00  0.00     0.037 A 
ATOM     26  C   UNL A   1      39.911  33.331  35.614  1.00  0.00     0.037 A 
ATOM     27  C   UNL A   1      41.361  28.688  31.100  1.00  0.00     0.049 A 
ATOM     28  C   UNL A   1      40.860  32.160  35.583  1.00  0.00     0.074 A 
ATOM     29  C   UNL A   1      42.320  27.701  31.208  1.00  0.00     0.029 A 
ATOM     30  N   UNL A   1      41.379  29.407  32.289  1.00  0.00    -0.354 N 
ATOM     31  N   UNL A   1      41.093  31.314  34.607  1.00  0.00    -0.248 NA
ATOM     32  C   UNL A   1      41.629  31.896  36.804  1.00  0.00     0.031 C 
ATOM     33  C   UNL A   1      42.884  27.791  32.484  1.00  0.00     0.029 A 
ATOM     34  C   UNL A   1      42.307  28.861  33.155  1.00  0.00     0.049 A 
ATOM     35  H   UNL A   1      40.815  30.190  32.485  1.00  0.00     0.167 HD
ATOM     36  C   UNL A   1      42.032  30.418  35.092  1.00  0.00     0.074 A 
ATOM     37  C   UNL A   1      42.349  30.843  36.442  1.00  0.00     0.031 C 
ATOM     38  C   UNL A   1      42.578  29.332  34.491  1.00  0.00     0.037 A 
BRANCH  25  39
ATOM     39  C   UNL A   1      40.495  28.092  28.793  1.00  0.00     0.064 A 
ATOM     40  C   UNL A   1      39.779  26.888  28.731  1.00  0.00     0.173 A 
ATOM     41  C   UNL A   1      41.268  28.457  27.682  1.00  0.00     0.173 A 
ATOM     42  F   UNL A   1      39.054  26.478  29.782  1.00  0.00    -0.203 F 
ATOM     43  C   UNL A   1      39.846  26.076  27.601  1.00  0.00     0.198 A 
ATOM     44  C   UNL A   1      41.317  27.653  26.547  1.00  0.00     0.198 A 
ATOM     45  F   UNL A   1      41.986  29.591  27.700  1.00  0.00    -0.203 F 
ATOM     46  F   UNL A   1      39.190  24.907  27.577  1.00  0.00    -0.200 F 
ATOM     47  C   UNL A   1      40.611  26.461  26.509  1.00  0.00     0.200 A 
ATOM     48  F   UNL A   1      42.060  28.026  25.495  1.00  0.00    -0.200 F 
ATOM     49  F   UNL A   1      40.678  25.676  25.425  1.00  0.00    -0.200 F 
ENDBRANCH  25  39
BRANCH  26  50
ATOM     50  C   UNL A   1      39.761  34.187  36.821  1.00  0.00     0.064 A 
ATOM     51  C   UNL A   1      40.476  35.383  36.966  1.00  0.00     0.173 A 
ATOM     52  C   UNL A   1      38.913  33.809  37.876  1.00  0.00     0.173 A 
ATOM     53  F   UNL A   1      41.319  35.780  36.001  1.00  0.00    -0.203 F 
ATOM     54  C   UNL A   1      40.365  36.155  38.123  1.00  0.00     0.198 A 
ATOM     55  C   UNL A   1      38.778  34.597  39.017  1.00  0.00     0.198 A 
ATOM     56  F   UNL A   1      38.208  32.671  37.798  1.00  0.00    -0.203 F 
ATOM     57  F   UNL A   1      41.103  37.267  38.257  1.00  0.00    -0.200 F 
ATOM     58  C   UNL A   1      39.512  35.765  39.144  1.00  0.00     0.200 A 
ATOM     59  F   UNL A   1      37.943  34.220  39.995  1.00  0.00    -0.200 F 
ATOM     60  F   UNL A   1      39.409  36.505  40.257  1.00  0.00    -0.200 F 
ENDBRANCH  26  50
BRANCH  38  61
ATOM     61  C   UNL A   1      43.561  28.541  35.296  1.00  0.00     0.064 A 
ATOM     62  C   UNL A   1      44.934  28.806  35.222  1.00  0.00     0.173 A 
ATOM     63  C   UNL A   1      43.117  27.566  36.200  1.00  0.00     0.173 A 
ATOM     64  F   UNL A   1      45.401  29.720  34.358  1.00  0.00    -0.203 F 
ATOM     65  C   UNL A   1      45.835  28.113  36.023  1.00  0.00     0.198 A 
ATOM     66  C   UNL A   1      44.017  26.895  37.019  1.00  0.00     0.198 A 
ATOM     67  F   UNL A   1      41.809  27.288  36.307  1.00  0.00    -0.203 F 
ATOM     68  F   UNL A   1      47.148  28.358  35.918  1.00  0.00    -0.200 F 
ATOM     69  C   UNL A   1      45.375  27.166  36.928  1.00  0.00     0.200 A 
ATOM     70  F   UNL A   1      43.572  25.992  37.902  1.00  0.00    -0.200 F 
ATOM     71  F   UNL A   1      46.243  26.512  37.712  1.00  0.00    -0.200 F 
ENDBRANCH  38  61
ENDBRANCH  12  13
ENDBRANCH   5   7
ENDBRANCH   4   5
ENDBRANCH   3   4
ENDBRANCH   2   3
ENDBRANCH   1   2
BRANCH   1  72
ATOM     72  C   UNL A   1      33.138  30.425  26.945  1.00  0.00     0.202 C 
BRANCH  72  73
ATOM     73  C   UNL A   1      33.260  28.966  26.510  1.00  0.00     0.261 C 
BRANCH  73  74
ATOM     74  O   UNL A   1      33.700  28.985  25.149  1.00  0.00    -0.463 OA
BRANCH  74  75
ATOM     75  C   UNL A   1      33.031  28.181  24.294  1.00  0.00     0.310 C 
ATOM     76  O   UNL A   1      33.491  27.765  23.240  1.00  0.00    -0.252 OA
BRANCH  75  77
ATOM     77  C   UNL A   1      31.719  27.669  24.892  1.00  0.00     0.119 C 
ATOM     78  C   UNL A   1      30.362  27.764  24.095  1.00  0.00     0.101 C 
ATOM     79  C   UNL A   1      31.947  26.208  25.377  1.00  0.00     0.026 C 
ATOM     80  C   UNL A   1      29.849  26.317  23.844  1.00  0.00     0.025 C 
ATOM     81  C   UNL A   1      32.047  25.357  24.134  1.00  0.00    -0.027 C 
ATOM     82  C   UNL A   1      30.696  25.764  26.167  1.00  0.00     0.009 C 
ATOM     83  C   UNL A   1      30.981  25.445  23.324  1.00  0.00    -0.027 C 
ATOM     84  C   UNL A   1      29.467  25.732  25.228  1.00  0.00     0.009 C 
BRANCH  78  85
ATOM     85  C   UNL A   1      30.365  28.584  22.805  1.00  0.00     0.238 C 
ATOM     86  O   UNL A   1      30.690  28.120  21.712  1.00  0.00    -0.273 OA
ATOM     87  N   UNL A   1      30.108  29.947  22.908  1.00  0.00    -0.288 N 
ATOM     88  H   UNL A   1      30.800  30.598  22.650  1.00  0.00     0.185 HD
BRANCH  87  89
ATOM     89  N   UNL A   1      28.842  30.408  23.387  1.00  0.00    -0.217 NA
ATOM     90  C   UNL A   1      27.817  30.286  22.311  1.00  0.00     0.136 C 
ATOM     91  C   UNL A   1      28.844  31.826  23.826  1.00  0.00     0.136 C 
ATOM     92  C   UNL A   1      27.956  31.342  21.197  1.00  0.00     0.177 C 
ATOM     93  C   UNL A   1      28.967  32.851  22.689  1.00  0.00     0.177 C 
ATOM     94  O   UNL A   1      27.919  32.669  21.731  1.00  0.00    -0.379 OA
ENDBRANCH  87  89
ENDBRANCH  78  85
ENDBRANCH  75  77
ENDBRANCH  74  75
ENDBRANCH  73  74
ENDBRANCH  72  73
ENDBRANCH   1  72
TORSDOF 16
ENDMDL
