MODEL 1
REMARK VINA RESULT:     -11.7      0.000      0.000
REMARK SMILES Cc1nn([C@H]2CCS(=O)(=O)C2)c(C)c1[C@@H]([NH3+])C(=O)OCCOCCOC(=O)c1ccc(-c2c3nc(c(-c4c(F)c(F)c(F)c(F)c4F)c4ccc([nH]4)c(-c4c(F)c(F)c(F)c(F)c4F)c4nc(c(-c5c(F)c(F)c(F)c(F)c5F)c5ccc2[nH]5)C=C4)C=C3)cc1
REMARK SMILES IDX 22 1 21 2 20 3 19 4 17 5 18 6 15 7 14 8 1 9 2 10 3 11 4 12
REMARK SMILES IDX 12 13 13 14 5 15 6 16 11 17 7 18 8 19 9 20 10 21 16 22 23 26
REMARK SMILES IDX 24 27 25 28 26 29 27 30 28 31 29 32 90 33 30 34 89 35 31 36
REMARK SMILES IDX 32 37 33 38 83 39 34 40 88 41 82 42 84 43 35 44 87 45 81 46
REMARK SMILES IDX 80 47 36 49 68 50 48 51 67 52 49 53 52 54 66 55 85 56 50 57
REMARK SMILES IDX 51 58 65 60 86 61 53 62 37 63 38 64 46 65 39 66 40 67 44 68
REMARK SMILES IDX 47 69 41 70 42 71 45 72 43 73 69 74 70 75 78 76 71 77 72 78
REMARK SMILES IDX 76 79 79 80 73 81 74 82 77 83 75 84 54 85 55 86 63 87 56 88
REMARK SMILES IDX 57 89 61 90 64 91 58 92 59 93 62 94 60 95
REMARK H PARENT 16 23 16 24 16 25 84 48 52 59
REMARK Flexibility Score: inf
ROOT
ATOM      1  O   UNL A   1      41.580  20.536  25.953  1.00  0.00    -0.374 OA
ENDROOT
BRANCH   1   2
ATOM      2  C   UNL A   1      40.464  21.055  26.680  1.00  0.00     0.202 C 
BRANCH   2   3
ATOM      3  C   UNL A   1      39.575  22.012  25.890  1.00  0.00     0.261 C 
BRANCH   3   4
ATOM      4  O   UNL A   1      38.199  21.819  26.261  1.00  0.00    -0.459 OA
BRANCH   4   5
ATOM      5  C   UNL A   1      37.467  20.971  25.491  1.00  0.00     0.369 C 
ATOM      6  O   UNL A   1      37.948  20.194  24.668  1.00  0.00    -0.245 OA
BRANCH   5   7
ATOM      7  C   UNL A   1      35.945  21.047  25.735  1.00  0.00     0.326 C 
BRANCH   7   8
ATOM      8  C   UNL A   1      35.245  22.345  25.431  1.00  0.00     0.065 A 
ATOM      9  C   UNL A   1      36.431  23.024  23.197  1.00  0.00     0.069 C 
ATOM     10  C   UNL A   1      35.478  23.206  24.322  1.00  0.00     0.069 A 
ATOM     11  N   UNL A   1      34.753  24.325  24.401  1.00  0.00    -0.177 NA
ATOM     12  N   UNL A   1      34.102  24.238  25.576  1.00  0.00    -0.265 N 
ATOM     13  C   UNL A   1      34.306  23.024  26.200  1.00  0.00     0.046 A 
ATOM     14  C   UNL A   1      33.683  22.568  27.472  1.00  0.00     0.067 C 
BRANCH  12  15
ATOM     15  C   UNL A   1      33.433  25.447  26.058  1.00  0.00     0.123 C 
ATOM     16  C   UNL A   1      33.979  26.750  25.432  1.00  0.00     0.044 C 
ATOM     17  C   UNL A   1      31.937  25.447  25.820  1.00  0.00     0.164 C 
ATOM     18  C   UNL A   1      32.984  27.877  25.707  1.00  0.00     0.139 C 
ATOM     19  S   UNL A   1      31.397  27.104  25.960  1.00  0.00     0.152 S 
ATOM     20  O   UNL A   1      30.976  27.342  27.322  1.00  0.00    -0.229 OA
ATOM     21  O   UNL A   1      30.520  27.337  24.835  1.00  0.00    -0.229 OA
ENDBRANCH  12  15
ENDBRANCH   7   8
BRANCH   7  22
ATOM     22  N   UNL A   1      35.275  19.993  24.948  1.00  0.00    -0.342 N 
ATOM     23  H   UNL A   1      34.263  20.113  25.010  1.00  0.00     0.345 HD
ATOM     24  H   UNL A   1      35.532  19.077  25.317  1.00  0.00     0.345 HD
ATOM     25  H   UNL A   1      35.565  20.061  23.973  1.00  0.00     0.345 HD
ENDBRANCH   7  22
ENDBRANCH   5   7
ENDBRANCH   4   5
ENDBRANCH   3   4
ENDBRANCH   2   3
ENDBRANCH   1   2
BRANCH   1  26
ATOM     26  C   UNL A   1      42.320  19.474  26.547  1.00  0.00     0.202 C 
BRANCH  26  27
ATOM     27  C   UNL A   1      43.288  18.735  25.635  1.00  0.00     0.261 C 
BRANCH  27  28
ATOM     28  O   UNL A   1      44.523  19.426  25.469  1.00  0.00    -0.460 OA
BRANCH  28  29
ATOM     29  C   UNL A   1      44.640  20.156  24.326  1.00  0.00     0.338 C 
ATOM     30  O   UNL A   1      44.812  19.749  23.205  1.00  0.00    -0.246 OA
BRANCH  29  31
ATOM     31  C   UNL A   1      44.769  21.568  24.742  1.00  0.00     0.060 A 
ATOM     32  C   UNL A   1      45.576  21.852  25.847  1.00  0.00     0.016 A 
ATOM     33  C   UNL A   1      43.917  22.535  24.214  1.00  0.00     0.016 A 
ATOM     34  C   UNL A   1      45.350  23.021  26.565  1.00  0.00     0.010 A 
ATOM     35  C   UNL A   1      43.707  23.687  24.937  1.00  0.00     0.010 A 
ATOM     36  C   UNL A   1      44.327  23.878  26.164  1.00  0.00    -0.014 A 
BRANCH  36  37
ATOM     37  C   UNL A   1      44.032  25.102  26.897  1.00  0.00     0.031 A 
ATOM     38  C   UNL A   1      45.015  26.161  26.589  1.00  0.00     0.074 A 
ATOM     39  C   UNL A   1      42.890  25.374  27.566  1.00  0.00     0.049 A 
ATOM     40  N   UNL A   1      46.150  26.387  27.164  1.00  0.00    -0.248 NA
ATOM     41  C   UNL A   1      44.840  26.894  25.335  1.00  0.00     0.031 C 
ATOM     42  C   UNL A   1      41.664  24.576  27.643  1.00  0.00     0.029 A 
ATOM     43  N   UNL A   1      42.572  26.490  28.295  1.00  0.00    -0.354 N 
ATOM     44  C   UNL A   1      46.662  27.487  26.479  1.00  0.00     0.074 A 
ATOM     45  C   UNL A   1      46.030  27.480  25.194  1.00  0.00     0.031 C 
ATOM     46  C   UNL A   1      40.686  25.301  28.242  1.00  0.00     0.029 A 
ATOM     47  C   UNL A   1      41.240  26.566  28.702  1.00  0.00     0.049 A 
ATOM     48  H   UNL A   1      43.233  27.186  28.513  1.00  0.00     0.167 HD
ATOM     49  C   UNL A   1      47.140  28.558  27.170  1.00  0.00     0.037 A 
ATOM     50  C   UNL A   1      40.650  27.598  29.363  1.00  0.00     0.037 A 
ATOM     51  C   UNL A   1      47.283  28.216  28.566  1.00  0.00     0.049 A 
ATOM     52  C   UNL A   1      41.732  28.379  30.007  1.00  0.00     0.074 A 
ATOM     53  C   UNL A   1      48.002  27.299  29.303  1.00  0.00     0.029 A 
ATOM     54  N   UNL A   1      46.228  28.617  29.341  1.00  0.00    -0.354 N 
ATOM     55  N   UNL A   1      42.429  27.951  31.020  1.00  0.00    -0.248 NA
ATOM     56  C   UNL A   1      42.281  29.542  29.320  1.00  0.00     0.031 C 
ATOM     57  C   UNL A   1      47.201  26.999  30.445  1.00  0.00     0.029 A 
ATOM     58  C   UNL A   1      46.051  27.787  30.409  1.00  0.00     0.049 A 
ATOM     59  H   UNL A   1      45.667  29.404  29.150  1.00  0.00     0.167 HD
ATOM     60  C   UNL A   1      43.691  28.466  30.803  1.00  0.00     0.074 A 
ATOM     61  C   UNL A   1      43.492  29.577  29.881  1.00  0.00     0.031 C 
ATOM     62  C   UNL A   1      44.791  27.723  31.116  1.00  0.00     0.037 A 
BRANCH  49  63
ATOM     63  C   UNL A   1      46.955  30.018  26.762  1.00  0.00     0.064 A 
ATOM     64  C   UNL A   1      48.073  30.871  26.865  1.00  0.00     0.173 A 
ATOM     65  C   UNL A   1      45.714  30.678  26.602  1.00  0.00     0.173 A 
ATOM     66  F   UNL A   1      49.302  30.363  27.046  1.00  0.00    -0.203 F 
ATOM     67  C   UNL A   1      47.946  32.263  26.896  1.00  0.00     0.198 A 
ATOM     68  C   UNL A   1      45.598  32.068  26.576  1.00  0.00     0.198 A 
ATOM     69  F   UNL A   1      44.541  30.039  26.587  1.00  0.00    -0.203 F 
ATOM     70  F   UNL A   1      49.021  33.024  27.141  1.00  0.00    -0.200 F 
ATOM     71  C   UNL A   1      46.708  32.861  26.759  1.00  0.00     0.200 A 
ATOM     72  F   UNL A   1      44.381  32.623  26.473  1.00  0.00    -0.200 F 
ATOM     73  F   UNL A   1      46.573  34.189  26.858  1.00  0.00    -0.200 F 
ENDBRANCH  49  63
BRANCH  50  74
ATOM     74  C   UNL A   1      39.247  28.085  29.408  1.00  0.00     0.064 A 
ATOM     75  C   UNL A   1      38.541  28.163  30.627  1.00  0.00     0.173 A 
ATOM     76  C   UNL A   1      38.681  28.774  28.322  1.00  0.00     0.173 A 
ATOM     77  F   UNL A   1      39.017  27.559  31.727  1.00  0.00    -0.203 F 
ATOM     78  C   UNL A   1      37.380  28.932  30.764  1.00  0.00     0.198 A 
ATOM     79  C   UNL A   1      37.517  29.536  28.458  1.00  0.00     0.198 A 
ATOM     80  F   UNL A   1      39.304  28.807  27.136  1.00  0.00    -0.203 F 
ATOM     81  F   UNL A   1      36.791  29.048  31.963  1.00  0.00    -0.200 F 
ATOM     82  C   UNL A   1      36.878  29.632  29.682  1.00  0.00     0.200 A 
ATOM     83  F   UNL A   1      37.058  30.237  27.412  1.00  0.00    -0.200 F 
ATOM     84  F   UNL A   1      35.813  30.433  29.828  1.00  0.00    -0.200 F 
ENDBRANCH  50  74
BRANCH  62  85
ATOM     85  C   UNL A   1      44.629  26.671  32.174  1.00  0.00     0.064 A 
ATOM     86  C   UNL A   1      44.595  26.911  33.557  1.00  0.00     0.173 A 
ATOM     87  C   UNL A   1      44.445  25.349  31.740  1.00  0.00     0.173 A 
ATOM     88  F   UNL A   1      44.671  28.155  34.049  1.00  0.00    -0.203 F 
ATOM     89  C   UNL A   1      44.445  25.862  34.463  1.00  0.00     0.198 A 
ATOM     90  C   UNL A   1      44.247  24.312  32.645  1.00  0.00     0.198 A 
ATOM     91  F   UNL A   1      44.429  25.066  30.429  1.00  0.00    -0.203 F 
ATOM     92  F   UNL A   1      44.454  26.107  35.782  1.00  0.00    -0.200 F 
ATOM     93  C   UNL A   1      44.264  24.566  34.006  1.00  0.00     0.200 A 
ATOM     94  F   UNL A   1      44.026  23.070  32.194  1.00  0.00    -0.200 F 
ATOM     95  F   UNL A   1      44.089  23.563  34.877  1.00  0.00    -0.200 F 
ENDBRANCH  62  85
ENDBRANCH  36  37
ENDBRANCH  29  31
ENDBRANCH  28  29
ENDBRANCH  27  28
ENDBRANCH  26  27
ENDBRANCH   1  26
TORSDOF 17
ENDMDL
MODEL 2
REMARK VINA RESULT:     -11.7      4.754     10.571
REMARK SMILES Cc1nn([C@H]2CCS(=O)(=O)C2)c(C)c1[C@@H]([NH3+])C(=O)OCCOCCOC(=O)c1ccc(-c2c3nc(c(-c4c(F)c(F)c(F)c(F)c4F)c4ccc([nH]4)c(-c4c(F)c(F)c(F)c(F)c4F)c4nc(c(-c5c(F)c(F)c(F)c(F)c5F)c5ccc2[nH]5)C=C4)C=C3)cc1
REMARK SMILES IDX 22 1 21 2 20 3 19 4 17 5 18 6 15 7 14 8 1 9 2 10 3 11 4 12
REMARK SMILES IDX 12 13 13 14 5 15 6 16 11 17 7 18 8 19 9 20 10 21 16 22 23 26
REMARK SMILES IDX 24 27 25 28 26 29 27 30 28 31 29 32 90 33 30 34 89 35 31 36
REMARK SMILES IDX 32 37 33 38 83 39 34 40 88 41 82 42 84 43 35 44 87 45 81 46
REMARK SMILES IDX 80 47 36 49 68 50 48 51 67 52 49 53 52 54 66 55 85 56 50 57
REMARK SMILES IDX 51 58 65 60 86 61 53 62 37 63 38 64 46 65 39 66 40 67 44 68
REMARK SMILES IDX 47 69 41 70 42 71 45 72 43 73 69 74 70 75 78 76 71 77 72 78
REMARK SMILES IDX 76 79 79 80 73 81 74 82 77 83 75 84 54 85 55 86 63 87 56 88
REMARK SMILES IDX 57 89 61 90 64 91 58 92 59 93 62 94 60 95
REMARK H PARENT 16 23 16 24 16 25 84 48 52 59
REMARK Flexibility Score: inf
ROOT
ATOM      1  O   UNL A   1      32.963  34.239  28.794  1.00  0.00    -0.374 OA
ENDROOT
BRANCH   1   2
ATOM      2  C   UNL A   1      34.056  33.329  28.942  1.00  0.00     0.202 C 
BRANCH   2   3
ATOM      3  C   UNL A   1      34.305  32.427  27.735  1.00  0.00     0.261 C 
BRANCH   3   4
ATOM      4  O   UNL A   1      33.415  31.298  27.777  1.00  0.00    -0.459 OA
BRANCH   4   5
ATOM      5  C   UNL A   1      33.786  30.196  27.074  1.00  0.00     0.369 C 
ATOM      6  O   UNL A   1      34.618  29.376  27.460  1.00  0.00    -0.245 OA
BRANCH   5   7
ATOM      7  C   UNL A   1      33.063  30.034  25.720  1.00  0.00     0.326 C 
BRANCH   7   8
ATOM      8  C   UNL A   1      32.848  28.638  25.198  1.00  0.00     0.065 A 
ATOM      9  C   UNL A   1      31.449  27.599  27.153  1.00  0.00     0.069 C 
ATOM     10  C   UNL A   1      32.150  27.578  25.843  1.00  0.00     0.069 A 
ATOM     11  N   UNL A   1      32.224  26.440  25.150  1.00  0.00    -0.177 NA
ATOM     12  N   UNL A   1      33.016  26.721  24.098  1.00  0.00    -0.265 N 
ATOM     13  C   UNL A   1      33.354  28.057  24.041  1.00  0.00     0.046 A 
ATOM     14  C   UNL A   1      34.153  28.722  22.974  1.00  0.00     0.067 C 
BRANCH  12  15
ATOM     15  C   UNL A   1      33.494  25.590  23.303  1.00  0.00     0.123 C 
ATOM     16  C   UNL A   1      34.471  24.665  24.063  1.00  0.00     0.044 C 
ATOM     17  C   UNL A   1      32.382  24.705  22.777  1.00  0.00     0.164 C 
ATOM     18  C   UNL A   1      34.599  23.352  23.292  1.00  0.00     0.139 C 
ATOM     19  S   UNL A   1      33.111  23.182  22.325  1.00  0.00     0.152 S 
ATOM     20  O   UNL A   1      33.460  23.232  20.923  1.00  0.00    -0.229 OA
ATOM     21  O   UNL A   1      32.254  22.151  22.865  1.00  0.00    -0.229 OA
ENDBRANCH  12  15
ENDBRANCH   7   8
BRANCH   7  22
ATOM     22  N   UNL A   1      31.739  30.682  25.797  1.00  0.00    -0.342 N 
ATOM     23  H   UNL A   1      31.128  30.294  25.078  1.00  0.00     0.345 HD
ATOM     24  H   UNL A   1      31.842  31.686  25.650  1.00  0.00     0.345 HD
ATOM     25  H   UNL A   1      31.331  30.513  26.717  1.00  0.00     0.345 HD
ENDBRANCH   7  22
ENDBRANCH   5   7
ENDBRANCH   4   5
ENDBRANCH   3   4
ENDBRANCH   2   3
ENDBRANCH   1   2
BRANCH   1  26
ATOM     26  C   UNL A   1      33.244  35.631  28.907  1.00  0.00     0.202 C 
BRANCH  26  27
ATOM     27  C   UNL A   1      32.949  36.270  30.256  1.00  0.00     0.261 C 
BRANCH  27  28
ATOM     28  O   UNL A   1      32.709  35.307  31.279  1.00  0.00    -0.460 OA
BRANCH  28  29
ATOM     29  C   UNL A   1      33.125  35.658  32.527  1.00  0.00     0.338 C 
ATOM     30  O   UNL A   1      32.763  36.597  33.189  1.00  0.00    -0.246 OA
BRANCH  29  31
ATOM     31  C   UNL A   1      34.298  34.812  32.830  1.00  0.00     0.060 A 
ATOM     32  C   UNL A   1      35.532  35.445  33.009  1.00  0.00     0.016 A 
ATOM     33  C   UNL A   1      34.221  33.428  32.684  1.00  0.00     0.016 A 
ATOM     34  C   UNL A   1      36.698  34.720  32.801  1.00  0.00     0.010 A 
ATOM     35  C   UNL A   1      35.387  32.726  32.482  1.00  0.00     0.010 A 
ATOM     36  C   UNL A   1      36.610  33.382  32.420  1.00  0.00    -0.014 A 
BRANCH  36  37
ATOM     37  C   UNL A   1      37.801  32.584  32.164  1.00  0.00     0.031 A 
ATOM     38  C   UNL A   1      38.546  32.318  33.412  1.00  0.00     0.074 A 
ATOM     39  C   UNL A   1      38.091  31.930  31.018  1.00  0.00     0.049 A 
ATOM     40  N   UNL A   1      39.457  33.047  33.967  1.00  0.00    -0.248 NA
ATOM     41  C   UNL A   1      38.043  31.251  34.278  1.00  0.00     0.031 C 
ATOM     42  C   UNL A   1      37.265  31.782  29.817  1.00  0.00     0.029 A 
ATOM     43  N   UNL A   1      39.206  31.194  30.712  1.00  0.00    -0.354 N 
ATOM     44  C   UNL A   1      39.807  32.334  35.112  1.00  0.00     0.074 A 
ATOM     45  C   UNL A   1      38.680  31.507  35.421  1.00  0.00     0.031 C 
ATOM     46  C   UNL A   1      37.837  30.880  28.980  1.00  0.00     0.029 A 
ATOM     47  C   UNL A   1      39.126  30.474  29.521  1.00  0.00     0.049 A 
ATOM     48  H   UNL A   1      40.002  31.176  31.290  1.00  0.00     0.167 HD
ATOM     49  C   UNL A   1      41.119  32.100  35.395  1.00  0.00     0.037 A 
ATOM     50  C   UNL A   1      40.054  29.610  29.030  1.00  0.00     0.037 A 
ATOM     51  C   UNL A   1      41.956  32.919  34.548  1.00  0.00     0.049 A 
ATOM     52  C   UNL A   1      41.342  29.934  29.687  1.00  0.00     0.074 A 
ATOM     53  C   UNL A   1      42.144  34.267  34.330  1.00  0.00     0.029 A 
ATOM     54  N   UNL A   1      42.428  32.262  33.444  1.00  0.00    -0.354 N 
ATOM     55  N   UNL A   1      42.025  31.015  29.446  1.00  0.00    -0.248 NA
ATOM     56  C   UNL A   1      41.742  29.197  30.881  1.00  0.00     0.031 C 
ATOM     57  C   UNL A   1      42.525  34.393  32.961  1.00  0.00     0.029 A 
ATOM     58  C   UNL A   1      42.626  33.120  32.401  1.00  0.00     0.049 A 
ATOM     59  H   UNL A   1      42.602  31.293  33.407  1.00  0.00     0.167 HD
ATOM     60  C   UNL A   1      42.585  31.339  30.665  1.00  0.00     0.074 A 
ATOM     61  C   UNL A   1      42.549  30.104  31.437  1.00  0.00     0.031 C 
ATOM     62  C   UNL A   1      42.698  32.647  31.037  1.00  0.00     0.037 A 
BRANCH  49  63
ATOM     63  C   UNL A   1      41.672  30.804  35.982  1.00  0.00     0.064 A 
ATOM     64  C   UNL A   1      42.675  30.910  36.967  1.00  0.00     0.173 A 
ATOM     65  C   UNL A   1      41.522  29.514  35.419  1.00  0.00     0.173 A 
ATOM     66  F   UNL A   1      42.928  32.089  37.556  1.00  0.00    -0.203 F 
ATOM     67  C   UNL A   1      43.513  29.839  37.293  1.00  0.00     0.198 A 
ATOM     68  C   UNL A   1      42.323  28.434  35.788  1.00  0.00     0.198 A 
ATOM     69  F   UNL A   1      40.694  29.250  34.406  1.00  0.00    -0.203 F 
ATOM     70  F   UNL A   1      44.542  30.031  38.129  1.00  0.00    -0.200 F 
ATOM     71  C   UNL A   1      43.341  28.604  36.699  1.00  0.00     0.200 A 
ATOM     72  F   UNL A   1      42.157  27.254  35.174  1.00  0.00    -0.200 F 
ATOM     73  F   UNL A   1      44.184  27.596  36.955  1.00  0.00    -0.200 F 
ENDBRANCH  49  63
BRANCH  50  74
ATOM     74  C   UNL A   1      39.946  28.425  28.139  1.00  0.00     0.064 A 
ATOM     75  C   UNL A   1      40.701  28.336  26.950  1.00  0.00     0.173 A 
ATOM     76  C   UNL A   1      39.352  27.232  28.584  1.00  0.00     0.173 A 
ATOM     77  F   UNL A   1      41.327  29.417  26.461  1.00  0.00    -0.203 F 
ATOM     78  C   UNL A   1      40.898  27.120  26.287  1.00  0.00     0.198 A 
ATOM     79  C   UNL A   1      39.544  26.019  27.916  1.00  0.00     0.198 A 
ATOM     80  F   UNL A   1      38.661  27.201  29.732  1.00  0.00    -0.203 F 
ATOM     81  F   UNL A   1      41.695  27.067  25.210  1.00  0.00    -0.200 F 
ATOM     82  C   UNL A   1      40.333  25.959  26.781  1.00  0.00     0.200 A 
ATOM     83  F   UNL A   1      39.019  24.894  28.422  1.00  0.00    -0.200 F 
ATOM     84  F   UNL A   1      40.585  24.780  26.195  1.00  0.00    -0.200 F 
ENDBRANCH  50  74
BRANCH  62  85
ATOM     85  C   UNL A   1      42.754  33.668  29.939  1.00  0.00     0.064 A 
ATOM     86  C   UNL A   1      41.661  34.414  29.470  1.00  0.00     0.173 A 
ATOM     87  C   UNL A   1      44.010  33.934  29.373  1.00  0.00     0.173 A 
ATOM     88  F   UNL A   1      40.445  34.287  30.019  1.00  0.00    -0.203 F 
ATOM     89  C   UNL A   1      41.814  35.339  28.437  1.00  0.00     0.198 A 
ATOM     90  C   UNL A   1      44.168  34.891  28.378  1.00  0.00     0.198 A 
ATOM     91  F   UNL A   1      45.098  33.280  29.810  1.00  0.00    -0.203 F 
ATOM     92  F   UNL A   1      40.750  36.013  27.976  1.00  0.00    -0.200 F 
ATOM     93  C   UNL A   1      43.068  35.581  27.898  1.00  0.00     0.200 A 
ATOM     94  F   UNL A   1      45.390  35.153  27.896  1.00  0.00    -0.200 F 
ATOM     95  F   UNL A   1      43.219  36.492  26.928  1.00  0.00    -0.200 F 
ENDBRANCH  62  85
ENDBRANCH  36  37
ENDBRANCH  29  31
ENDBRANCH  28  29
ENDBRANCH  27  28
ENDBRANCH  26  27
ENDBRANCH   1  26
TORSDOF 17
ENDMDL
MODEL 3
REMARK VINA RESULT:     -11.2      2.121      3.278
REMARK SMILES Cc1nn([C@H]2CCS(=O)(=O)C2)c(C)c1[C@@H]([NH3+])C(=O)OCCOCCOC(=O)c1ccc(-c2c3nc(c(-c4c(F)c(F)c(F)c(F)c4F)c4ccc([nH]4)c(-c4c(F)c(F)c(F)c(F)c4F)c4nc(c(-c5c(F)c(F)c(F)c(F)c5F)c5ccc2[nH]5)C=C4)C=C3)cc1
REMARK SMILES IDX 22 1 21 2 20 3 19 4 17 5 18 6 15 7 14 8 1 9 2 10 3 11 4 12
REMARK SMILES IDX 12 13 13 14 5 15 6 16 11 17 7 18 8 19 9 20 10 21 16 22 23 26
REMARK SMILES IDX 24 27 25 28 26 29 27 30 28 31 29 32 90 33 30 34 89 35 31 36
REMARK SMILES IDX 32 37 33 38 83 39 34 40 88 41 82 42 84 43 35 44 87 45 81 46
REMARK SMILES IDX 80 47 36 49 68 50 48 51 67 52 49 53 52 54 66 55 85 56 50 57
REMARK SMILES IDX 51 58 65 60 86 61 53 62 37 63 38 64 46 65 39 66 40 67 44 68
REMARK SMILES IDX 47 69 41 70 42 71 45 72 43 73 69 74 70 75 78 76 71 77 72 78
REMARK SMILES IDX 76 79 79 80 73 81 74 82 77 83 75 84 54 85 55 86 63 87 56 88
REMARK SMILES IDX 57 89 61 90 64 91 58 92 59 93 62 94 60 95
REMARK H PARENT 16 23 16 24 16 25 84 48 52 59
REMARK Flexibility Score: inf
ROOT
ATOM      1  O   UNL A   1      40.558  20.893  25.777  1.00  0.00    -0.374 OA
ENDROOT
BRANCH   1   2
ATOM      2  C   UNL A   1      39.581  21.668  26.476  1.00  0.00     0.202 C 
BRANCH   2   3
ATOM      3  C   UNL A   1      38.639  22.468  25.580  1.00  0.00     0.261 C 
BRANCH   3   4
ATOM      4  O   UNL A   1      37.324  22.505  26.163  1.00  0.00    -0.459 OA
BRANCH   4   5
ATOM      5  C   UNL A   1      36.305  22.904  25.358  1.00  0.00     0.369 C 
ATOM      6  O   UNL A   1      36.452  23.323  24.211  1.00  0.00    -0.245 OA
BRANCH   5   7
ATOM      7  C   UNL A   1      34.906  22.781  25.998  1.00  0.00     0.326 C 
BRANCH   7   8
ATOM      8  C   UNL A   1      33.986  21.707  25.481  1.00  0.00     0.065 A 
ATOM      9  C   UNL A   1      31.662  22.880  25.765  1.00  0.00     0.069 C 
ATOM     10  C   UNL A   1      32.566  21.760  25.397  1.00  0.00     0.069 A 
ATOM     11  N   UNL A   1      32.049  20.602  24.980  1.00  0.00    -0.177 NA
ATOM     12  N   UNL A   1      33.102  19.772  24.855  1.00  0.00    -0.265 N 
ATOM     13  C   UNL A   1      34.303  20.416  25.071  1.00  0.00     0.046 A 
ATOM     14  C   UNL A   1      35.662  19.820  24.943  1.00  0.00     0.067 C 
BRANCH  12  15
ATOM     15  C   UNL A   1      32.812  18.350  24.667  1.00  0.00     0.123 C 
ATOM     16  C   UNL A   1      33.338  17.781  23.331  1.00  0.00     0.044 C 
ATOM     17  C   UNL A   1      33.372  17.468  25.763  1.00  0.00     0.164 C 
ATOM     18  C   UNL A   1      33.319  16.255  23.410  1.00  0.00     0.139 C 
ATOM     19  S   UNL A   1      33.399  15.834  25.141  1.00  0.00     0.152 S 
ATOM     20  O   UNL A   1      32.169  15.174  25.516  1.00  0.00    -0.229 OA
ATOM     21  O   UNL A   1      34.695  15.295  25.486  1.00  0.00    -0.229 OA
ENDBRANCH  12  15
ENDBRANCH   7   8
BRANCH   7  22
ATOM     22  N   UNL A   1      35.055  22.568  27.451  1.00  0.00    -0.342 N 
ATOM     23  H   UNL A   1      35.774  23.195  27.815  1.00  0.00     0.345 HD
ATOM     24  H   UNL A   1      35.327  21.601  27.628  1.00  0.00     0.345 HD
ATOM     25  H   UNL A   1      34.168  22.763  27.916  1.00  0.00     0.345 HD
ENDBRANCH   7  22
ENDBRANCH   5   7
ENDBRANCH   4   5
ENDBRANCH   3   4
ENDBRANCH   2   3
ENDBRANCH   1   2
BRANCH   1  26
ATOM     26  C   UNL A   1      41.472  20.125  26.554  1.00  0.00     0.202 C 
BRANCH  26  27
ATOM     27  C   UNL A   1      42.464  19.272  25.777  1.00  0.00     0.261 C 
BRANCH  27  28
ATOM     28  O   UNL A   1      43.792  19.785  25.833  1.00  0.00    -0.460 OA
BRANCH  28  29
ATOM     29  C   UNL A   1      44.223  20.426  24.711  1.00  0.00     0.338 C 
ATOM     30  O   UNL A   1      44.625  19.933  23.688  1.00  0.00    -0.246 OA
BRANCH  29  31
ATOM     31  C   UNL A   1      44.345  21.855  25.067  1.00  0.00     0.060 A 
ATOM     32  C   UNL A   1      45.203  22.196  26.117  1.00  0.00     0.016 A 
ATOM     33  C   UNL A   1      43.447  22.786  24.548  1.00  0.00     0.016 A 
ATOM     34  C   UNL A   1      44.992  23.387  26.800  1.00  0.00     0.010 A 
ATOM     35  C   UNL A   1      43.253  23.961  25.237  1.00  0.00     0.010 A 
ATOM     36  C   UNL A   1      43.932  24.210  26.422  1.00  0.00    -0.014 A 
BRANCH  36  37
ATOM     37  C   UNL A   1      43.651  25.456  27.123  1.00  0.00     0.031 A 
ATOM     38  C   UNL A   1      44.628  26.505  26.764  1.00  0.00     0.074 A 
ATOM     39  C   UNL A   1      42.522  25.749  27.805  1.00  0.00     0.049 A 
ATOM     40  N   UNL A   1      45.773  26.747  27.309  1.00  0.00    -0.248 NA
ATOM     41  C   UNL A   1      44.429  27.199  25.491  1.00  0.00     0.031 C 
ATOM     42  C   UNL A   1      41.298  24.954  27.930  1.00  0.00     0.029 A 
ATOM     43  N   UNL A   1      42.218  26.887  28.506  1.00  0.00    -0.354 N 
ATOM     44  C   UNL A   1      46.272  27.826  26.581  1.00  0.00     0.074 A 
ATOM     45  C   UNL A   1      45.615  27.780  25.310  1.00  0.00     0.031 C 
ATOM     46  C   UNL A   1      40.332  25.697  28.526  1.00  0.00     0.029 A 
ATOM     47  C   UNL A   1      40.895  26.975  28.936  1.00  0.00     0.049 A 
ATOM     48  H   UNL A   1      42.883  27.588  28.690  1.00  0.00     0.167 HD
ATOM     49  C   UNL A   1      46.763  28.917  27.230  1.00  0.00     0.037 A 
ATOM     50  C   UNL A   1      40.318  28.027  29.577  1.00  0.00     0.037 A 
ATOM     51  C   UNL A   1      46.934  28.618  28.633  1.00  0.00     0.049 A 
ATOM     52  C   UNL A   1      41.412  28.828  30.176  1.00  0.00     0.074 A 
ATOM     53  C   UNL A   1      47.667  27.723  29.383  1.00  0.00     0.029 A 
ATOM     54  N   UNL A   1      45.894  29.042  29.415  1.00  0.00    -0.354 N 
ATOM     55  N   UNL A   1      42.128  28.430  31.187  1.00  0.00    -0.248 NA
ATOM     56  C   UNL A   1      41.947  29.969  29.442  1.00  0.00     0.031 C 
ATOM     57  C   UNL A   1      46.888  27.458  30.549  1.00  0.00     0.029 A 
ATOM     58  C   UNL A   1      45.737  28.245  30.512  1.00  0.00     0.049 A 
ATOM     59  H   UNL A   1      45.329  29.824  29.212  1.00  0.00     0.167 HD
ATOM     60  C   UNL A   1      43.385  28.938  30.930  1.00  0.00     0.074 A 
ATOM     61  C   UNL A   1      43.168  30.020  29.979  1.00  0.00     0.031 C 
ATOM     62  C   UNL A   1      44.492  28.204  31.245  1.00  0.00     0.037 A 
BRANCH  49  63
ATOM     63  C   UNL A   1      46.570  30.364  26.781  1.00  0.00     0.064 A 
ATOM     64  C   UNL A   1      47.700  31.208  26.796  1.00  0.00     0.173 A 
ATOM     65  C   UNL A   1      45.329  31.032  26.663  1.00  0.00     0.173 A 
ATOM     66  F   UNL A   1      48.932  30.693  26.930  1.00  0.00    -0.203 F 
ATOM     67  C   UNL A   1      47.588  32.602  26.785  1.00  0.00     0.198 A 
ATOM     68  C   UNL A   1      45.224  32.421  26.595  1.00  0.00     0.198 A 
ATOM     69  F   UNL A   1      44.152  30.406  26.732  1.00  0.00    -0.203 F 
ATOM     70  F   UNL A   1      48.681  33.358  26.946  1.00  0.00    -0.200 F 
ATOM     71  C   UNL A   1      46.350  33.207  26.692  1.00  0.00     0.200 A 
ATOM     72  F   UNL A   1      44.009  32.986  26.537  1.00  0.00    -0.200 F 
ATOM     73  F   UNL A   1      46.232  34.539  26.751  1.00  0.00    -0.200 F 
ENDBRANCH  49  63
BRANCH  50  74
ATOM     74  C   UNL A   1      38.915  28.517  29.634  1.00  0.00     0.064 A 
ATOM     75  C   UNL A   1      38.232  28.628  30.863  1.00  0.00     0.173 A 
ATOM     76  C   UNL A   1      38.330  29.176  28.540  1.00  0.00     0.173 A 
ATOM     77  F   UNL A   1      38.728  28.054  31.970  1.00  0.00    -0.203 F 
ATOM     78  C   UNL A   1      37.074  29.402  31.000  1.00  0.00     0.198 A 
ATOM     79  C   UNL A   1      37.168  29.942  28.676  1.00  0.00     0.198 A 
ATOM     80  F   UNL A   1      38.931  29.176  27.342  1.00  0.00    -0.203 F 
ATOM     81  F   UNL A   1      36.507  29.550  32.206  1.00  0.00    -0.200 F 
ATOM     82  C   UNL A   1      36.553  30.072  29.909  1.00  0.00     0.200 A 
ATOM     83  F   UNL A   1      36.690  30.615  27.620  1.00  0.00    -0.200 F 
ATOM     84  F   UNL A   1      35.490  30.877  30.052  1.00  0.00    -0.200 F 
ENDBRANCH  50  74
BRANCH  62  85
ATOM     85  C   UNL A   1      44.350  27.185  32.337  1.00  0.00     0.064 A 
ATOM     86  C   UNL A   1      44.299  27.471  33.710  1.00  0.00     0.173 A 
ATOM     87  C   UNL A   1      44.205  25.844  31.948  1.00  0.00     0.173 A 
ATOM     88  F   UNL A   1      44.338  28.733  34.160  1.00  0.00    -0.203 F 
ATOM     89  C   UNL A   1      44.171  26.450  34.651  1.00  0.00     0.198 A 
ATOM     90  C   UNL A   1      44.028  24.834  32.887  1.00  0.00     0.198 A 
ATOM     91  F   UNL A   1      44.206  25.516  30.647  1.00  0.00    -0.203 F 
ATOM     92  F   UNL A   1      44.164  26.740  35.961  1.00  0.00    -0.200 F 
ATOM     93  C   UNL A   1      44.029  25.135  34.238  1.00  0.00     0.200 A 
ATOM     94  F   UNL A   1      43.844  23.572  32.477  1.00  0.00    -0.200 F 
ATOM     95  F   UNL A   1      43.874  24.157  35.142  1.00  0.00    -0.200 F 
ENDBRANCH  62  85
ENDBRANCH  36  37
ENDBRANCH  29  31
ENDBRANCH  28  29
ENDBRANCH  27  28
ENDBRANCH  26  27
ENDBRANCH   1  26
TORSDOF 17
ENDMDL
