MODEL 1
REMARK VINA RESULT:     -11.6      0.000      0.000
REMARK SMILES C[C@@H](C(=O)OCCOCCOC(=O)c1ccc(-c2c3nc(c(-c4c(F)c(F)c(F)c(F)c4F)c4ccc([nH]4)c(-c4c(F)c(F)c(F)c(F)c4F)c4nc(c(-c5c(F)c(F)c(F)c(F)c5F)c5ccc2[nH]5)C=C4)C=C3)cc1)c1ccc(C[C@H]2CCCC2=O)cc1[N+](=O)[O-]
REMARK SMILES IDX 7 1 6 2 5 3 3 4 4 5 2 6 1 7 77 8 78 9 89 10 79 11 88 12
REMARK SMILES IDX 80 13 90 14 91 15 92 16 81 17 82 18 83 19 86 20 84 21 85 22
REMARK SMILES IDX 87 23 8 24 9 25 10 26 11 27 12 28 13 29 14 30 15 31 76 32
REMARK SMILES IDX 16 33 75 34 17 35 18 36 19 37 69 38 20 39 74 40 68 41 70 42
REMARK SMILES IDX 21 43 73 44 67 45 66 46 22 48 54 49 34 50 53 51 35 52 38 53
REMARK SMILES IDX 52 54 71 55 36 56 37 57 51 59 72 60 39 61 23 62 24 63 32 64
REMARK SMILES IDX 25 65 26 66 30 67 33 68 27 69 28 70 31 71 29 72 55 73 56 74
REMARK SMILES IDX 64 75 57 76 58 77 62 78 65 79 59 80 60 81 63 82 61 83 40 84
REMARK SMILES IDX 41 85 49 86 42 87 43 88 47 89 50 90 44 91 45 92 48 93 46 94
REMARK H PARENT 70 47 38 58
REMARK Flexibility Score: inf
ROOT
ATOM      1  C   UNL A   1      33.290  28.956  23.802  1.00  0.00     0.202 C 
ENDROOT
BRANCH   1   2
ATOM      2  C   UNL A   1      34.032  27.751  23.220  1.00  0.00     0.261 C 
BRANCH   2   3
ATOM      3  O   UNL A   1      33.905  26.605  24.086  1.00  0.00    -0.463 OA
BRANCH   3   4
ATOM      4  C   UNL A   1      32.987  25.679  23.701  1.00  0.00     0.313 C 
ATOM      5  O   UNL A   1      31.858  25.588  24.172  1.00  0.00    -0.252 OA
BRANCH   4   6
ATOM      6  C   UNL A   1      33.481  24.766  22.568  1.00  0.00     0.133 C 
ATOM      7  C   UNL A   1      32.762  24.964  21.224  1.00  0.00     0.025 C 
BRANCH   6   8
ATOM      8  C   UNL A   1      33.485  23.316  23.078  1.00  0.00     0.044 A 
ATOM      9  C   UNL A   1      32.287  22.572  23.070  1.00  0.00     0.012 A 
ATOM     10  C   UNL A   1      34.593  22.720  23.732  1.00  0.00     0.273 A 
ATOM     11  C   UNL A   1      32.180  21.332  23.714  1.00  0.00     0.004 A 
ATOM     12  C   UNL A   1      34.475  21.478  24.392  1.00  0.00     0.089 A 
ATOM     13  C   UNL A   1      33.260  20.787  24.410  1.00  0.00    -0.040 A 
BRANCH  10  14
ATOM     14  N   UNL A   1      35.925  23.345  23.769  1.00  0.00     0.063 N 
ATOM     15  O   UNL A   1      36.650  23.204  22.774  1.00  0.00    -0.258 OA
ATOM     16  O   UNL A   1      36.214  24.036  24.755  1.00  0.00    -0.258 OA
ENDBRANCH  10  14
BRANCH  13  17
ATOM     17  C   UNL A   1      33.128  19.477  25.153  1.00  0.00     0.047 C 
BRANCH  17  18
ATOM     18  C   UNL A   1      32.537  18.292  24.382  1.00  0.00     0.060 C 
ATOM     19  C   UNL A   1      33.046  18.077  22.952  1.00  0.00     0.012 C 
ATOM     20  C   UNL A   1      32.827  16.957  25.031  1.00  0.00     0.136 C 
ATOM     21  C   UNL A   1      34.066  16.947  23.030  1.00  0.00     0.009 C 
ATOM     22  C   UNL A   1      33.544  16.009  24.108  1.00  0.00     0.076 C 
ATOM     23  O   UNL A   1      32.494  16.668  26.174  1.00  0.00    -0.299 OA
ENDBRANCH  17  18
ENDBRANCH  13  17
ENDBRANCH   6   8
ENDBRANCH   4   6
ENDBRANCH   3   4
ENDBRANCH   2   3
ENDBRANCH   1   2
BRANCH   1  24
ATOM     24  O   UNL A   1      32.771  28.800  25.124  1.00  0.00    -0.374 OA
BRANCH  24  25
ATOM     25  C   UNL A   1      31.556  29.475  25.438  1.00  0.00     0.202 C 
BRANCH  25  26
ATOM     26  C   UNL A   1      31.689  30.861  26.082  1.00  0.00     0.261 C 
BRANCH  26  27
ATOM     27  O   UNL A   1      32.501  30.838  27.270  1.00  0.00    -0.460 OA
BRANCH  27  28
ATOM     28  C   UNL A   1      33.306  31.916  27.422  1.00  0.00     0.338 C 
ATOM     29  O   UNL A   1      32.990  33.097  27.339  1.00  0.00    -0.246 OA
BRANCH  28  30
ATOM     30  C   UNL A   1      34.641  31.503  27.889  1.00  0.00     0.060 A 
ATOM     31  C   UNL A   1      34.811  30.156  28.233  1.00  0.00     0.016 A 
ATOM     32  C   UNL A   1      35.678  32.420  28.075  1.00  0.00     0.016 A 
ATOM     33  C   UNL A   1      36.001  29.728  28.815  1.00  0.00     0.010 A 
ATOM     34  C   UNL A   1      36.871  31.990  28.671  1.00  0.00     0.010 A 
ATOM     35  C   UNL A   1      37.022  30.651  29.077  1.00  0.00    -0.014 A 
BRANCH  35  36
ATOM     36  C   UNL A   1      38.171  30.237  29.918  1.00  0.00     0.031 A 
ATOM     37  C   UNL A   1      39.177  29.270  29.354  1.00  0.00     0.074 A 
ATOM     38  C   UNL A   1      38.348  30.753  31.147  1.00  0.00     0.049 A 
ATOM     39  N   UNL A   1      40.254  28.774  29.906  1.00  0.00    -0.248 NA
ATOM     40  C   UNL A   1      38.934  28.802  27.981  1.00  0.00     0.031 C 
ATOM     41  C   UNL A   1      37.467  31.729  31.785  1.00  0.00     0.029 A 
ATOM     42  N   UNL A   1      39.330  30.524  32.078  1.00  0.00    -0.354 N 
ATOM     43  C   UNL A   1      40.815  27.936  28.953  1.00  0.00     0.074 A 
ATOM     44  C   UNL A   1      39.945  27.965  27.797  1.00  0.00     0.031 C 
ATOM     45  C   UNL A   1      37.947  32.013  33.009  1.00  0.00     0.029 A 
ATOM     46  C   UNL A   1      39.152  31.218  33.248  1.00  0.00     0.049 A 
ATOM     47  H   UNL A   1      40.092  29.919  31.920  1.00  0.00     0.167 HD
ATOM     48  C   UNL A   1      41.958  27.213  29.029  1.00  0.00     0.037 A 
ATOM     49  C   UNL A   1      39.870  31.199  34.387  1.00  0.00     0.037 A 
ATOM     50  C   UNL A   1      42.827  27.187  30.176  1.00  0.00     0.049 A 
ATOM     51  C   UNL A   1      41.100  30.332  34.472  1.00  0.00     0.074 A 
ATOM     52  C   UNL A   1      44.018  26.505  30.342  1.00  0.00     0.029 A 
ATOM     53  N   UNL A   1      42.590  27.872  31.359  1.00  0.00    -0.354 N 
ATOM     54  N   UNL A   1      41.638  29.564  33.555  1.00  0.00    -0.248 NA
ATOM     55  C   UNL A   1      41.824  30.333  35.752  1.00  0.00     0.031 C 
ATOM     56  C   UNL A   1      44.479  26.738  31.642  1.00  0.00     0.029 A 
ATOM     57  C   UNL A   1      43.600  27.605  32.270  1.00  0.00     0.049 A 
ATOM     58  H   UNL A   1      41.819  28.461  31.527  1.00  0.00     0.167 HD
ATOM     59  C   UNL A   1      42.775  29.015  34.135  1.00  0.00     0.074 A 
ATOM     60  C   UNL A   1      42.856  29.545  35.480  1.00  0.00     0.031 C 
ATOM     61  C   UNL A   1      43.671  28.149  33.601  1.00  0.00     0.037 A 
BRANCH  48  62
ATOM     62  C   UNL A   1      42.324  26.367  27.845  1.00  0.00     0.064 A 
ATOM     63  C   UNL A   1      43.201  26.829  26.853  1.00  0.00     0.173 A 
ATOM     64  C   UNL A   1      41.817  25.065  27.721  1.00  0.00     0.173 A 
ATOM     65  F   UNL A   1      43.701  28.071  26.918  1.00  0.00    -0.203 F 
ATOM     66  C   UNL A   1      43.540  26.024  25.768  1.00  0.00     0.198 A 
ATOM     67  C   UNL A   1      42.178  24.255  26.649  1.00  0.00     0.198 A 
ATOM     68  F   UNL A   1      40.977  24.575  28.645  1.00  0.00    -0.203 F 
ATOM     69  F   UNL A   1      44.346  26.500  24.809  1.00  0.00    -0.200 F 
ATOM     70  C   UNL A   1      43.034  24.736  25.669  1.00  0.00     0.200 A 
ATOM     71  F   UNL A   1      41.698  23.007  26.562  1.00  0.00    -0.200 F 
ATOM     72  F   UNL A   1      43.367  23.962  24.628  1.00  0.00    -0.200 F 
ENDBRANCH  48  62
BRANCH  49  73
ATOM     73  C   UNL A   1      39.443  32.021  35.549  1.00  0.00     0.064 A 
ATOM     74  C   UNL A   1      38.570  31.507  36.518  1.00  0.00     0.173 A 
ATOM     75  C   UNL A   1      39.883  33.344  35.702  1.00  0.00     0.173 A 
ATOM     76  F   UNL A   1      38.101  30.257  36.400  1.00  0.00    -0.203 F 
ATOM     77  C   UNL A   1      38.141  32.292  37.587  1.00  0.00     0.198 A 
ATOM     78  C   UNL A   1      39.475  34.118  36.786  1.00  0.00     0.198 A 
ATOM     79  F   UNL A   1      40.716  33.884  34.800  1.00  0.00    -0.203 F 
ATOM     80  F   UNL A   1      37.271  31.791  38.474  1.00  0.00    -0.200 F 
ATOM     81  C   UNL A   1      38.598  33.594  37.724  1.00  0.00     0.200 A 
ATOM     82  F   UNL A   1      39.927  35.373  36.919  1.00  0.00    -0.200 F 
ATOM     83  F   UNL A   1      38.186  34.347  38.752  1.00  0.00    -0.200 F 
ENDBRANCH  49  73
BRANCH  61  84
ATOM     84  C   UNL A   1      44.837  27.747  34.457  1.00  0.00     0.064 A 
ATOM     85  C   UNL A   1      46.019  28.500  34.491  1.00  0.00     0.173 A 
ATOM     86  C   UNL A   1      44.753  26.616  35.284  1.00  0.00     0.173 A 
ATOM     87  F   UNL A   1      46.154  29.581  33.707  1.00  0.00    -0.203 F 
ATOM     88  C   UNL A   1      47.083  28.124  35.307  1.00  0.00     0.198 A 
ATOM     89  C   UNL A   1      45.808  26.260  36.120  1.00  0.00     0.198 A 
ATOM     90  F   UNL A   1      43.641  25.867  35.294  1.00  0.00    -0.203 F 
ATOM     91  F   UNL A   1      48.220  28.834  35.292  1.00  0.00    -0.200 F 
ATOM     92  C   UNL A   1      46.975  27.010  36.125  1.00  0.00     0.200 A 
ATOM     93  F   UNL A   1      45.695  25.191  36.919  1.00  0.00    -0.200 F 
ATOM     94  F   UNL A   1      47.997  26.655  36.915  1.00  0.00    -0.200 F 
ENDBRANCH  61  84
ENDBRANCH  35  36
ENDBRANCH  28  30
ENDBRANCH  27  28
ENDBRANCH  26  27
ENDBRANCH  25  26
ENDBRANCH  24  25
ENDBRANCH   1  24
TORSDOF 18
ENDMDL
MODEL 2
REMARK VINA RESULT:     -11.3      4.801     10.494
REMARK SMILES C[C@@H](C(=O)OCCOCCOC(=O)c1ccc(-c2c3nc(c(-c4c(F)c(F)c(F)c(F)c4F)c4ccc([nH]4)c(-c4c(F)c(F)c(F)c(F)c4F)c4nc(c(-c5c(F)c(F)c(F)c(F)c5F)c5ccc2[nH]5)C=C4)C=C3)cc1)c1ccc(C[C@H]2CCCC2=O)cc1[N+](=O)[O-]
REMARK SMILES IDX 7 1 6 2 5 3 3 4 4 5 2 6 1 7 77 8 78 9 89 10 79 11 88 12
REMARK SMILES IDX 80 13 90 14 91 15 92 16 81 17 82 18 83 19 86 20 84 21 85 22
REMARK SMILES IDX 87 23 8 24 9 25 10 26 11 27 12 28 13 29 14 30 15 31 76 32
REMARK SMILES IDX 16 33 75 34 17 35 18 36 19 37 69 38 20 39 74 40 68 41 70 42
REMARK SMILES IDX 21 43 73 44 67 45 66 46 22 48 54 49 34 50 53 51 35 52 38 53
REMARK SMILES IDX 52 54 71 55 36 56 37 57 51 59 72 60 39 61 23 62 24 63 32 64
REMARK SMILES IDX 25 65 26 66 30 67 33 68 27 69 28 70 31 71 29 72 55 73 56 74
REMARK SMILES IDX 64 75 57 76 58 77 62 78 65 79 59 80 60 81 63 82 61 83 40 84
REMARK SMILES IDX 41 85 49 86 42 87 43 88 47 89 50 90 44 91 45 92 48 93 46 94
REMARK H PARENT 70 47 38 58
REMARK Flexibility Score: inf
ROOT
ATOM      1  C   UNL A   1      37.098  21.626  24.717  1.00  0.00     0.202 C 
ENDROOT
BRANCH   1   2
ATOM      2  C   UNL A   1      35.816  20.858  25.045  1.00  0.00     0.261 C 
BRANCH   2   3
ATOM      3  O   UNL A   1      34.655  21.684  24.830  1.00  0.00    -0.463 OA
BRANCH   3   4
ATOM      4  C   UNL A   1      33.457  21.054  24.960  1.00  0.00     0.313 C 
ATOM      5  O   UNL A   1      33.278  20.039  25.626  1.00  0.00    -0.252 OA
BRANCH   4   6
ATOM      6  C   UNL A   1      32.312  21.766  24.223  1.00  0.00     0.133 C 
ATOM      7  C   UNL A   1      32.153  21.367  22.747  1.00  0.00     0.025 C 
BRANCH   6   8
ATOM      8  C   UNL A   1      32.448  23.279  24.458  1.00  0.00     0.044 A 
ATOM      9  C   UNL A   1      33.059  24.086  23.475  1.00  0.00     0.012 A 
ATOM     10  C   UNL A   1      32.156  23.908  25.696  1.00  0.00     0.273 A 
ATOM     11  C   UNL A   1      33.403  25.422  23.720  1.00  0.00     0.004 A 
ATOM     12  C   UNL A   1      32.517  25.249  25.941  1.00  0.00     0.089 A 
ATOM     13  C   UNL A   1      33.168  26.009  24.964  1.00  0.00    -0.040 A 
BRANCH  10  14
ATOM     14  N   UNL A   1      31.463  23.216  26.794  1.00  0.00     0.063 N 
ATOM     15  O   UNL A   1      32.153  22.818  27.744  1.00  0.00    -0.258 OA
ATOM     16  O   UNL A   1      30.228  23.140  26.745  1.00  0.00    -0.258 OA
ENDBRANCH  10  14
BRANCH  13  17
ATOM     17  C   UNL A   1      33.590  27.432  25.248  1.00  0.00     0.047 C 
BRANCH  17  18
ATOM     18  C   UNL A   1      32.840  28.177  26.358  1.00  0.00     0.060 C 
ATOM     19  C   UNL A   1      33.695  28.834  27.447  1.00  0.00     0.012 C 
ATOM     20  C   UNL A   1      32.022  29.341  25.844  1.00  0.00     0.136 C 
ATOM     21  C   UNL A   1      33.756  30.317  27.102  1.00  0.00     0.009 C 
ATOM     22  C   UNL A   1      32.399  30.644  26.496  1.00  0.00     0.076 C 
ATOM     23  O   UNL A   1      31.134  29.234  25.007  1.00  0.00    -0.299 OA
ENDBRANCH  17  18
ENDBRANCH  13  17
ENDBRANCH   6   8
ENDBRANCH   4   6
ENDBRANCH   3   4
ENDBRANCH   2   3
ENDBRANCH   1   2
BRANCH   1  24
ATOM     24  O   UNL A   1      37.768  22.237  25.822  1.00  0.00    -0.374 OA
BRANCH  24  25
ATOM     25  C   UNL A   1      39.096  21.805  26.105  1.00  0.00     0.202 C 
BRANCH  25  26
ATOM     26  C   UNL A   1      39.435  20.352  25.748  1.00  0.00     0.261 C 
BRANCH  26  27
ATOM     27  O   UNL A   1      40.282  19.728  26.730  1.00  0.00    -0.460 OA
BRANCH  27  28
ATOM     28  C   UNL A   1      41.556  19.517  26.322  1.00  0.00     0.338 C 
ATOM     29  O   UNL A   1      41.998  18.527  25.751  1.00  0.00    -0.246 OA
BRANCH  28  30
ATOM     30  C   UNL A   1      42.363  20.736  26.495  1.00  0.00     0.060 A 
ATOM     31  C   UNL A   1      42.450  21.270  27.787  1.00  0.00     0.016 A 
ATOM     32  C   UNL A   1      42.949  21.398  25.413  1.00  0.00     0.016 A 
ATOM     33  C   UNL A   1      43.076  22.496  27.997  1.00  0.00     0.010 A 
ATOM     34  C   UNL A   1      43.569  22.636  25.624  1.00  0.00     0.010 A 
ATOM     35  C   UNL A   1      43.602  23.207  26.910  1.00  0.00    -0.014 A 
BRANCH  35  36
ATOM     36  C   UNL A   1      44.036  24.611  27.108  1.00  0.00     0.031 A 
ATOM     37  C   UNL A   1      43.027  25.629  27.564  1.00  0.00     0.074 A 
ATOM     38  C   UNL A   1      45.322  24.966  26.936  1.00  0.00     0.049 A 
ATOM     39  N   UNL A   1      43.183  26.906  27.802  1.00  0.00    -0.248 NA
ATOM     40  C   UNL A   1      41.657  25.139  27.782  1.00  0.00     0.031 C 
ATOM     41  C   UNL A   1      46.399  24.063  26.539  1.00  0.00     0.029 A 
ATOM     42  N   UNL A   1      45.936  26.186  27.073  1.00  0.00    -0.354 N 
ATOM     43  C   UNL A   1      41.935  27.372  28.194  1.00  0.00     0.074 A 
ATOM     44  C   UNL A   1      41.025  26.249  28.134  1.00  0.00     0.031 C 
ATOM     45  C   UNL A   1      47.545  24.761  26.459  1.00  0.00     0.029 A 
ATOM     46  C   UNL A   1      47.274  26.164  26.773  1.00  0.00     0.049 A 
ATOM     47  H   UNL A   1      45.461  26.999  27.362  1.00  0.00     0.167 HD
ATOM     48  C   UNL A   1      41.581  28.621  28.579  1.00  0.00     0.037 A 
ATOM     49  C   UNL A   1      48.174  27.167  26.740  1.00  0.00     0.037 A 
ATOM     50  C   UNL A   1      42.487  29.737  28.644  1.00  0.00     0.049 A 
ATOM     51  C   UNL A   1      47.738  28.563  27.105  1.00  0.00     0.074 A 
ATOM     52  C   UNL A   1      42.230  31.036  29.044  1.00  0.00     0.029 A 
ATOM     53  N   UNL A   1      43.828  29.685  28.293  1.00  0.00    -0.354 N 
ATOM     54  N   UNL A   1      46.564  28.988  27.502  1.00  0.00    -0.248 NA
ATOM     55  C   UNL A   1      48.759  29.618  27.021  1.00  0.00     0.031 C 
ATOM     56  C   UNL A   1      43.403  31.783  28.888  1.00  0.00     0.029 A 
ATOM     57  C   UNL A   1      44.404  30.937  28.439  1.00  0.00     0.049 A 
ATOM     58  H   UNL A   1      44.301  28.879  27.984  1.00  0.00     0.167 HD
ATOM     59  C   UNL A   1      46.709  30.349  27.740  1.00  0.00     0.074 A 
ATOM     60  C   UNL A   1      48.089  30.678  27.454  1.00  0.00     0.031 C 
ATOM     61  C   UNL A   1      45.782  31.245  28.159  1.00  0.00     0.037 A 
BRANCH  48  62
ATOM     62  C   UNL A   1      40.143  28.856  28.937  1.00  0.00     0.064 A 
ATOM     63  C   UNL A   1      39.187  29.186  27.966  1.00  0.00     0.173 A 
ATOM     64  C   UNL A   1      39.712  28.715  30.264  1.00  0.00     0.173 A 
ATOM     65  F   UNL A   1      39.552  29.346  26.685  1.00  0.00    -0.203 F 
ATOM     66  C   UNL A   1      37.853  29.387  28.314  1.00  0.00     0.198 A 
ATOM     67  C   UNL A   1      38.373  28.892  30.605  1.00  0.00     0.198 A 
ATOM     68  F   UNL A   1      40.586  28.398  31.230  1.00  0.00    -0.203 F 
ATOM     69  F   UNL A   1      36.964  29.742  27.377  1.00  0.00    -0.200 F 
ATOM     70  C   UNL A   1      37.446  29.233  29.631  1.00  0.00     0.200 A 
ATOM     71  F   UNL A   1      37.980  28.731  31.876  1.00  0.00    -0.200 F 
ATOM     72  F   UNL A   1      36.162  29.421  29.963  1.00  0.00    -0.200 F 
ENDBRANCH  48  62
BRANCH  49  73
ATOM     73  C   UNL A   1      49.577  26.894  26.336  1.00  0.00     0.064 A 
ATOM     74  C   UNL A   1      50.559  26.592  27.289  1.00  0.00     0.173 A 
ATOM     75  C   UNL A   1      49.969  26.949  24.990  1.00  0.00     0.173 A 
ATOM     76  F   UNL A   1      50.240  26.553  28.591  1.00  0.00    -0.203 F 
ATOM     77  C   UNL A   1      51.883  26.372  26.912  1.00  0.00     0.198 A 
ATOM     78  C   UNL A   1      51.286  26.703  24.612  1.00  0.00     0.198 A 
ATOM     79  F   UNL A   1      49.067  27.238  24.040  1.00  0.00    -0.203 F 
ATOM     80  F   UNL A   1      52.811  26.130  27.848  1.00  0.00    -0.200 F 
ATOM     81  C   UNL A   1      52.245  26.421  25.574  1.00  0.00     0.200 A 
ATOM     82  F   UNL A   1      51.629  26.743  23.317  1.00  0.00    -0.200 F 
ATOM     83  F   UNL A   1      53.517  26.209  25.213  1.00  0.00    -0.200 F 
ENDBRANCH  49  73
BRANCH  61  84
ATOM     84  C   UNL A   1      46.236  32.661  28.369  1.00  0.00     0.064 A 
ATOM     85  C   UNL A   1      46.773  33.088  29.591  1.00  0.00     0.173 A 
ATOM     86  C   UNL A   1      46.171  33.590  27.318  1.00  0.00     0.173 A 
ATOM     87  F   UNL A   1      46.843  32.242  30.630  1.00  0.00    -0.203 F 
ATOM     88  C   UNL A   1      47.209  34.400  29.762  1.00  0.00     0.198 A 
ATOM     89  C   UNL A   1      46.634  34.892  27.484  1.00  0.00     0.198 A 
ATOM     90  F   UNL A   1      45.673  33.229  26.126  1.00  0.00    -0.203 F 
ATOM     91  F   UNL A   1      47.679  34.799  30.952  1.00  0.00    -0.200 F 
ATOM     92  C   UNL A   1      47.146  35.298  28.707  1.00  0.00     0.200 A 
ATOM     93  F   UNL A   1      46.584  35.754  26.459  1.00  0.00    -0.200 F 
ATOM     94  F   UNL A   1      47.573  36.557  28.871  1.00  0.00    -0.200 F 
ENDBRANCH  61  84
ENDBRANCH  35  36
ENDBRANCH  28  30
ENDBRANCH  27  28
ENDBRANCH  26  27
ENDBRANCH  25  26
ENDBRANCH  24  25
ENDBRANCH   1  24
TORSDOF 18
ENDMDL
MODEL 3
REMARK VINA RESULT:     -11.2      4.465      8.073
REMARK SMILES C[C@@H](C(=O)OCCOCCOC(=O)c1ccc(-c2c3nc(c(-c4c(F)c(F)c(F)c(F)c4F)c4ccc([nH]4)c(-c4c(F)c(F)c(F)c(F)c4F)c4nc(c(-c5c(F)c(F)c(F)c(F)c5F)c5ccc2[nH]5)C=C4)C=C3)cc1)c1ccc(C[C@H]2CCCC2=O)cc1[N+](=O)[O-]
REMARK SMILES IDX 7 1 6 2 5 3 3 4 4 5 2 6 1 7 77 8 78 9 89 10 79 11 88 12
REMARK SMILES IDX 80 13 90 14 91 15 92 16 81 17 82 18 83 19 86 20 84 21 85 22
REMARK SMILES IDX 87 23 8 24 9 25 10 26 11 27 12 28 13 29 14 30 15 31 76 32
REMARK SMILES IDX 16 33 75 34 17 35 18 36 19 37 69 38 20 39 74 40 68 41 70 42
REMARK SMILES IDX 21 43 73 44 67 45 66 46 22 48 54 49 34 50 53 51 35 52 38 53
REMARK SMILES IDX 52 54 71 55 36 56 37 57 51 59 72 60 39 61 23 62 24 63 32 64
REMARK SMILES IDX 25 65 26 66 30 67 33 68 27 69 28 70 31 71 29 72 55 73 56 74
REMARK SMILES IDX 64 75 57 76 58 77 62 78 65 79 59 80 60 81 63 82 61 83 40 84
REMARK SMILES IDX 41 85 49 86 42 87 43 88 47 89 50 90 44 91 45 92 48 93 46 94
REMARK H PARENT 70 47 38 58
REMARK Flexibility Score: inf
ROOT
ATOM      1  C   UNL A   1      36.707  22.213  25.056  1.00  0.00     0.202 C 
ENDROOT
BRANCH   1   2
ATOM      2  C   UNL A   1      36.347  23.377  24.130  1.00  0.00     0.261 C 
BRANCH   2   3
ATOM      3  O   UNL A   1      34.973  23.288  23.706  1.00  0.00    -0.463 OA
BRANCH   3   4
ATOM      4  C   UNL A   1      34.064  23.853  24.546  1.00  0.00     0.313 C 
ATOM      5  O   UNL A   1      34.215  24.937  25.100  1.00  0.00    -0.252 OA
BRANCH   4   6
ATOM      6  C   UNL A   1      32.784  23.017  24.708  1.00  0.00     0.133 C 
ATOM      7  C   UNL A   1      32.776  21.697  23.920  1.00  0.00     0.025 C 
BRANCH   6   8
ATOM      8  C   UNL A   1      31.573  23.925  24.437  1.00  0.00     0.044 A 
ATOM      9  C   UNL A   1      31.356  24.428  23.138  1.00  0.00     0.012 A 
ATOM     10  C   UNL A   1      30.742  24.445  25.461  1.00  0.00     0.273 A 
ATOM     11  C   UNL A   1      30.404  25.422  22.877  1.00  0.00     0.004 A 
ATOM     12  C   UNL A   1      29.794  25.456  25.195  1.00  0.00     0.089 A 
ATOM     13  C   UNL A   1      29.637  25.972  23.905  1.00  0.00    -0.040 A 
BRANCH  10  14
ATOM     14  N   UNL A   1      30.805  23.972  26.854  1.00  0.00     0.063 N 
ATOM     15  O   UNL A   1      29.875  23.261  27.260  1.00  0.00    -0.258 OA
ATOM     16  O   UNL A   1      31.817  24.247  27.513  1.00  0.00    -0.258 OA
ENDBRANCH  10  14
BRANCH  13  17
ATOM     17  C   UNL A   1      28.650  27.084  23.634  1.00  0.00     0.047 C 
BRANCH  17  18
ATOM     18  C   UNL A   1      29.159  28.522  23.782  1.00  0.00     0.060 C 
ATOM     19  C   UNL A   1      30.639  28.766  23.463  1.00  0.00     0.012 C 
ATOM     20  C   UNL A   1      28.466  29.496  22.855  1.00  0.00     0.136 C 
ATOM     21  C   UNL A   1      30.678  29.366  22.063  1.00  0.00     0.009 C 
ATOM     22  C   UNL A   1      29.429  30.228  21.960  1.00  0.00     0.076 C 
ATOM     23  O   UNL A   1      27.255  29.687  22.848  1.00  0.00    -0.299 OA
ENDBRANCH  17  18
ENDBRANCH  13  17
ENDBRANCH   6   8
ENDBRANCH   4   6
ENDBRANCH   3   4
ENDBRANCH   2   3
ENDBRANCH   1   2
BRANCH   1  24
ATOM     24  O   UNL A   1      37.855  21.445  24.686  1.00  0.00    -0.374 OA
BRANCH  24  25
ATOM     25  C   UNL A   1      37.865  20.065  25.044  1.00  0.00     0.202 C 
BRANCH  25  26
ATOM     26  C   UNL A   1      39.196  19.500  25.556  1.00  0.00     0.261 C 
BRANCH  26  27
ATOM     27  O   UNL A   1      40.183  20.525  25.766  1.00  0.00    -0.460 OA
BRANCH  27  28
ATOM     28  C   UNL A   1      40.753  20.515  26.994  1.00  0.00     0.338 C 
ATOM     29  O   UNL A   1      41.178  19.543  27.607  1.00  0.00    -0.246 OA
BRANCH  28  30
ATOM     30  C   UNL A   1      40.974  21.890  27.473  1.00  0.00     0.060 A 
ATOM     31  C   UNL A   1      40.290  22.918  26.812  1.00  0.00     0.016 A 
ATOM     32  C   UNL A   1      41.894  22.184  28.482  1.00  0.00     0.016 A 
ATOM     33  C   UNL A   1      40.561  24.249  27.119  1.00  0.00     0.010 A 
ATOM     34  C   UNL A   1      42.173  23.524  28.783  1.00  0.00     0.010 A 
ATOM     35  C   UNL A   1      41.535  24.560  28.076  1.00  0.00    -0.014 A 
BRANCH  35  36
ATOM     36  C   UNL A   1      41.990  25.965  28.211  1.00  0.00     0.031 A 
ATOM     37  C   UNL A   1      43.320  26.361  27.628  1.00  0.00     0.074 A 
ATOM     38  C   UNL A   1      41.210  26.890  28.799  1.00  0.00     0.049 A 
ATOM     39  N   UNL A   1      43.914  27.526  27.626  1.00  0.00    -0.248 NA
ATOM     40  C   UNL A   1      44.080  25.297  26.955  1.00  0.00     0.031 C 
ATOM     41  C   UNL A   1      39.886  26.639  29.362  1.00  0.00     0.029 A 
ATOM     42  N   UNL A   1      41.423  28.228  29.018  1.00  0.00    -0.354 N 
ATOM     43  C   UNL A   1      45.116  27.336  26.957  1.00  0.00     0.074 A 
ATOM     44  C   UNL A   1      45.182  25.938  26.592  1.00  0.00     0.031 C 
ATOM     45  C   UNL A   1      39.404  27.787  29.869  1.00  0.00     0.029 A 
ATOM     46  C   UNL A   1      40.398  28.845  29.688  1.00  0.00     0.049 A 
ATOM     47  H   UNL A   1      42.235  28.700  28.720  1.00  0.00     0.167 HD
ATOM     48  C   UNL A   1      46.074  28.248  26.664  1.00  0.00     0.037 A 
ATOM     49  C   UNL A   1      40.285  30.115  30.122  1.00  0.00     0.037 A 
ATOM     50  C   UNL A   1      46.006  29.640  27.022  1.00  0.00     0.049 A 
ATOM     51  C   UNL A   1      41.397  31.094  29.845  1.00  0.00     0.074 A 
ATOM     52  C   UNL A   1      46.915  30.647  26.751  1.00  0.00     0.029 A 
ATOM     53  N   UNL A   1      44.969  30.220  27.739  1.00  0.00    -0.354 N 
ATOM     54  N   UNL A   1      42.516  30.913  29.186  1.00  0.00    -0.248 NA
ATOM     55  C   UNL A   1      41.226  32.457  30.369  1.00  0.00     0.031 C 
ATOM     56  C   UNL A   1      46.453  31.826  27.344  1.00  0.00     0.029 A 
ATOM     57  C   UNL A   1      45.230  31.565  27.943  1.00  0.00     0.049 A 
ATOM     58  H   UNL A   1      44.167  29.746  28.055  1.00  0.00     0.167 HD
ATOM     59  C   UNL A   1      43.168  32.139  29.193  1.00  0.00     0.074 A 
ATOM     60  C   UNL A   1      42.314  33.061  29.912  1.00  0.00     0.031 C 
ATOM     61  C   UNL A   1      44.366  32.472  28.652  1.00  0.00     0.037 A 
BRANCH  48  62
ATOM     62  C   UNL A   1      47.295  27.762  25.940  1.00  0.00     0.064 A 
ATOM     63  C   UNL A   1      48.432  27.318  26.629  1.00  0.00     0.173 A 
ATOM     64  C   UNL A   1      47.312  27.711  24.538  1.00  0.00     0.173 A 
ATOM     65  F   UNL A   1      48.470  27.360  27.969  1.00  0.00    -0.203 F 
ATOM     66  C   UNL A   1      49.551  26.858  25.939  1.00  0.00     0.198 A 
ATOM     67  C   UNL A   1      48.423  27.226  23.853  1.00  0.00     0.198 A 
ATOM     68  F   UNL A   1      46.249  28.122  23.833  1.00  0.00    -0.203 F 
ATOM     69  F   UNL A   1      50.643  26.476  26.617  1.00  0.00    -0.200 F 
ATOM     70  C   UNL A   1      49.544  26.806  24.553  1.00  0.00     0.200 A 
ATOM     71  F   UNL A   1      48.409  27.167  22.514  1.00  0.00    -0.200 F 
ATOM     72  F   UNL A   1      50.619  26.357  23.892  1.00  0.00    -0.200 F 
ENDBRANCH  48  62
BRANCH  49  73
ATOM     73  C   UNL A   1      39.076  30.538  30.875  1.00  0.00     0.064 A 
ATOM     74  C   UNL A   1      39.025  30.452  32.272  1.00  0.00     0.173 A 
ATOM     75  C   UNL A   1      37.938  31.019  30.208  1.00  0.00     0.173 A 
ATOM     76  F   UNL A   1      40.077  29.974  32.952  1.00  0.00    -0.203 F 
ATOM     77  C   UNL A   1      37.877  30.815  32.974  1.00  0.00     0.198 A 
ATOM     78  C   UNL A   1      36.800  31.406  30.913  1.00  0.00     0.198 A 
ATOM     79  F   UNL A   1      37.934  31.116  28.871  1.00  0.00    -0.203 F 
ATOM     80  F   UNL A   1      37.839  30.679  34.307  1.00  0.00    -0.200 F 
ATOM     81  C   UNL A   1      36.768  31.297  32.295  1.00  0.00     0.200 A 
ATOM     82  F   UNL A   1      35.735  31.880  30.253  1.00  0.00    -0.200 F 
ATOM     83  F   UNL A   1      35.665  31.646  32.970  1.00  0.00    -0.200 F 
ENDBRANCH  49  73
BRANCH  61  84
ATOM     84  C   UNL A   1      44.810  33.900  28.784  1.00  0.00     0.064 A 
ATOM     85  C   UNL A   1      44.438  34.876  27.849  1.00  0.00     0.173 A 
ATOM     86  C   UNL A   1      45.583  34.303  29.884  1.00  0.00     0.173 A 
ATOM     87  F   UNL A   1      43.712  34.537  26.772  1.00  0.00    -0.203 F 
ATOM     88  C   UNL A   1      44.842  36.200  27.997  1.00  0.00     0.198 A 
ATOM     89  C   UNL A   1      45.961  35.633  30.044  1.00  0.00     0.198 A 
ATOM     90  F   UNL A   1      45.959  33.410  30.811  1.00  0.00    -0.203 F 
ATOM     91  F   UNL A   1      44.512  37.108  27.068  1.00  0.00    -0.200 F 
ATOM     92  C   UNL A   1      45.597  36.579  29.098  1.00  0.00     0.200 A 
ATOM     93  F   UNL A   1      46.678  36.000  31.115  1.00  0.00    -0.200 F 
ATOM     94  F   UNL A   1      45.977  37.855  29.243  1.00  0.00    -0.200 F 
ENDBRANCH  61  84
ENDBRANCH  35  36
ENDBRANCH  28  30
ENDBRANCH  27  28
ENDBRANCH  26  27
ENDBRANCH  25  26
ENDBRANCH  24  25
ENDBRANCH   1  24
TORSDOF 18
ENDMDL
