MODEL 1
REMARK VINA RESULT:     -13.1      0.000      0.000
REMARK SMILES O=C(OCCOCCOC(=O)c1cc(N2C(=O)[C@H]3[C@@H]4C=C[C@@H]([C@@H]5C[C@H]45)[C@@H]3C2=O)ccc1Cl)c1ccc(-c2c3nc(c(-c4c(F)c(F)c(F)c(F)c4F)c4ccc([nH]4)c(-c4c(F)c(F)c(F)c(F)c4F)c4nc(c(-c5c(F)c(F)c(F)c(F)c5F)c5ccc2[nH]5)C=C4)C=C3)cc1
REMARK SMILES IDX 5 1 4 2 3 3 2 4 1 5 33 6 34 7 95 8 35 9 94 10 36 11 37 12
REMARK SMILES IDX 38 13 88 14 39 15 93 16 87 17 89 18 40 19 92 20 86 21 85 22
REMARK SMILES IDX 41 24 73 25 53 26 72 27 54 28 57 29 71 30 90 31 55 32 56 33
REMARK SMILES IDX 70 35 91 36 58 37 42 38 43 39 51 40 44 41 45 42 49 43 52 44
REMARK SMILES IDX 46 45 47 46 50 47 48 48 74 49 75 50 83 51 76 52 77 53 81 54
REMARK SMILES IDX 84 55 78 56 79 57 82 58 80 59 59 60 60 61 68 62 61 63 62 64
REMARK SMILES IDX 66 65 69 66 63 67 64 68 67 69 65 70 6 71 7 72 8 73 9 74
REMARK SMILES IDX 10 75 11 76 12 77 13 78 31 79 14 80 30 81 32 82 29 83 15 84
REMARK SMILES IDX 16 85 27 86 17 87 18 88 26 89 28 90 19 91 22 92 20 93 25 94
REMARK SMILES IDX 21 95 23 96 24 97
REMARK H PARENT 89 23 57 34
REMARK Flexibility Score: inf
ROOT
ATOM      1  C   UNL A   1      40.646  20.814  26.739  1.00  0.00     0.202 C 
ENDROOT
BRANCH   1   2
ATOM      2  C   UNL A   1      42.035  21.195  26.218  1.00  0.00     0.261 C 
BRANCH   2   3
ATOM      3  O   UNL A   1      41.951  22.357  25.375  1.00  0.00    -0.460 OA
BRANCH   3   4
ATOM      4  C   UNL A   1      42.640  23.515  25.464  1.00  0.00     0.338 C 
ATOM      5  O   UNL A   1      43.569  23.708  24.681  1.00  0.00    -0.246 OA
BRANCH   4   6
ATOM      6  C   UNL A   1      42.340  24.593  26.455  1.00  0.00     0.060 A 
ATOM      7  C   UNL A   1      42.908  25.870  26.460  1.00  0.00     0.016 A 
ATOM      8  C   UNL A   1      41.324  24.321  27.386  1.00  0.00     0.016 A 
ATOM      9  C   UNL A   1      42.513  26.842  27.366  1.00  0.00     0.010 A 
ATOM     10  C   UNL A   1      40.907  25.295  28.294  1.00  0.00     0.010 A 
ATOM     11  C   UNL A   1      41.514  26.555  28.285  1.00  0.00    -0.014 A 
BRANCH  11  12
ATOM     12  C   UNL A   1      41.209  27.551  29.319  1.00  0.00     0.031 A 
ATOM     13  C   UNL A   1      42.063  27.566  30.541  1.00  0.00     0.074 A 
ATOM     14  C   UNL A   1      40.235  28.451  29.113  1.00  0.00     0.049 A 
ATOM     15  N   UNL A   1      41.917  28.237  31.649  1.00  0.00    -0.248 NA
ATOM     16  C   UNL A   1      43.255  26.701  30.506  1.00  0.00     0.031 C 
ATOM     17  C   UNL A   1      39.452  28.575  27.883  1.00  0.00     0.029 A 
ATOM     18  N   UNL A   1      39.739  29.427  29.931  1.00  0.00    -0.354 N 
ATOM     19  C   UNL A   1      42.972  27.845  32.459  1.00  0.00     0.074 A 
ATOM     20  C   UNL A   1      43.756  26.884  31.716  1.00  0.00     0.031 C 
ATOM     21  C   UNL A   1      38.556  29.562  28.036  1.00  0.00     0.029 A 
ATOM     22  C   UNL A   1      38.659  30.083  29.395  1.00  0.00     0.049 A 
ATOM     23  H   UNL A   1      40.118  29.639  30.814  1.00  0.00     0.167 HD
ATOM     24  C   UNL A   1      43.233  28.246  33.724  1.00  0.00     0.037 A 
ATOM     25  C   UNL A   1      37.819  30.961  29.974  1.00  0.00     0.037 A 
ATOM     26  C   UNL A   1      42.411  29.194  34.424  1.00  0.00     0.049 A 
ATOM     27  C   UNL A   1      38.074  31.332  31.410  1.00  0.00     0.074 A 
ATOM     28  C   UNL A   1      42.525  29.653  35.720  1.00  0.00     0.029 A 
ATOM     29  N   UNL A   1      41.302  29.823  33.866  1.00  0.00    -0.354 N 
ATOM     30  N   UNL A   1      39.031  30.919  32.209  1.00  0.00    -0.248 NA
ATOM     31  C   UNL A   1      37.136  32.272  32.032  1.00  0.00     0.031 C 
ATOM     32  C   UNL A   1      41.452  30.520  35.963  1.00  0.00     0.029 A 
ATOM     33  C   UNL A   1      40.707  30.651  34.798  1.00  0.00     0.049 A 
ATOM     34  H   UNL A   1      40.988  29.696  32.941  1.00  0.00     0.167 HD
ATOM     35  C   UNL A   1      38.828  31.562  33.420  1.00  0.00     0.074 A 
ATOM     36  C   UNL A   1      37.653  32.397  33.248  1.00  0.00     0.031 C 
ATOM     37  C   UNL A   1      39.545  31.476  34.569  1.00  0.00     0.037 A 
BRANCH  24  38
ATOM     38  C   UNL A   1      44.377  27.571  34.424  1.00  0.00     0.064 A 
ATOM     39  C   UNL A   1      44.227  26.348  35.097  1.00  0.00     0.173 A 
ATOM     40  C   UNL A   1      45.627  28.205  34.492  1.00  0.00     0.173 A 
ATOM     41  F   UNL A   1      43.044  25.714  35.090  1.00  0.00    -0.203 F 
ATOM     42  C   UNL A   1      45.268  25.814  35.855  1.00  0.00     0.198 A 
ATOM     43  C   UNL A   1      46.675  27.652  35.223  1.00  0.00     0.198 A 
ATOM     44  F   UNL A   1      45.825  29.378  33.873  1.00  0.00    -0.203 F 
ATOM     45  F   UNL A   1      45.073  24.692  36.561  1.00  0.00    -0.200 F 
ATOM     46  C   UNL A   1      46.490  26.467  35.918  1.00  0.00     0.200 A 
ATOM     47  F   UNL A   1      47.856  28.283  35.279  1.00  0.00    -0.200 F 
ATOM     48  F   UNL A   1      47.482  25.964  36.666  1.00  0.00    -0.200 F 
ENDBRANCH  24  38
BRANCH  25  49
ATOM     49  C   UNL A   1      36.656  31.478  29.208  1.00  0.00     0.064 A 
ATOM     50  C   UNL A   1      35.543  30.672  28.937  1.00  0.00     0.173 A 
ATOM     51  C   UNL A   1      36.612  32.813  28.774  1.00  0.00     0.173 A 
ATOM     52  F   UNL A   1      35.541  29.386  29.313  1.00  0.00    -0.203 F 
ATOM     53  C   UNL A   1      34.431  31.182  28.267  1.00  0.00     0.198 A 
ATOM     54  C   UNL A   1      35.490  33.329  28.128  1.00  0.00     0.198 A 
ATOM     55  F   UNL A   1      37.650  33.630  29.006  1.00  0.00    -0.203 F 
ATOM     56  F   UNL A   1      33.387  30.384  28.001  1.00  0.00    -0.200 F 
ATOM     57  C   UNL A   1      34.400  32.511  27.873  1.00  0.00     0.200 A 
ATOM     58  F   UNL A   1      35.460  34.619  27.766  1.00  0.00    -0.200 F 
ATOM     59  F   UNL A   1      33.323  33.005  27.246  1.00  0.00    -0.200 F 
ENDBRANCH  25  49
BRANCH  37  60
ATOM     60  C   UNL A   1      39.109  32.340  35.713  1.00  0.00     0.064 A 
ATOM     61  C   UNL A   1      38.291  31.846  36.737  1.00  0.00     0.173 A 
ATOM     62  C   UNL A   1      39.611  33.645  35.832  1.00  0.00     0.173 A 
ATOM     63  F   UNL A   1      37.778  30.609  36.657  1.00  0.00    -0.203 F 
ATOM     64  C   UNL A   1      37.989  32.632  37.845  1.00  0.00     0.198 A 
ATOM     65  C   UNL A   1      39.330  34.416  36.954  1.00  0.00     0.198 A 
ATOM     66  F   UNL A   1      40.404  34.154  34.877  1.00  0.00    -0.203 F 
ATOM     67  F   UNL A   1      37.189  32.152  38.807  1.00  0.00    -0.200 F 
ATOM     68  C   UNL A   1      38.520  33.910  37.958  1.00  0.00     0.200 A 
ATOM     69  F   UNL A   1      39.858  35.642  37.070  1.00  0.00    -0.200 F 
ATOM     70  F   UNL A   1      38.251  34.655  39.040  1.00  0.00    -0.200 F 
ENDBRANCH  37  60
ENDBRANCH  11  12
ENDBRANCH   4   6
ENDBRANCH   3   4
ENDBRANCH   2   3
ENDBRANCH   1   2
BRANCH   1  71
ATOM     71  O   UNL A   1      39.660  20.641  25.718  1.00  0.00    -0.374 OA
BRANCH  71  72
ATOM     72  C   UNL A   1      38.566  21.569  25.751  1.00  0.00     0.202 C 
BRANCH  72  73
ATOM     73  C   UNL A   1      37.367  20.968  25.023  1.00  0.00     0.261 C 
BRANCH  73  74
ATOM     74  O   UNL A   1      36.316  21.942  25.045  1.00  0.00    -0.460 OA
BRANCH  74  75
ATOM     75  C   UNL A   1      35.224  21.607  25.775  1.00  0.00     0.339 C 
ATOM     76  O   UNL A   1      35.154  21.453  26.979  1.00  0.00    -0.246 OA
BRANCH  75  77
ATOM     77  C   UNL A   1      34.041  21.730  24.901  1.00  0.00     0.080 A 
ATOM     78  C   UNL A   1      33.567  23.039  24.683  1.00  0.00     0.044 A 
ATOM     79  C   UNL A   1      33.453  20.644  24.244  1.00  0.00     0.055 A 
ATOM     80  C   UNL A   1      32.532  23.254  23.778  1.00  0.00     0.053 A 
ATOM     81  C   UNL A   1      32.411  20.870  23.343  1.00  0.00     0.023 A 
ATOM     82  Cl  UNL A   1      33.922  19.002  24.505  1.00  0.00    -0.083 Cl
ATOM     83  C   UNL A   1      31.955  22.167  23.109  1.00  0.00     0.028 A 
BRANCH  80  84
ATOM     84  N   UNL A   1      32.091  24.555  23.468  1.00  0.00    -0.250 N 
ATOM     85  C   UNL A   1      31.284  25.274  24.372  1.00  0.00     0.238 C 
ATOM     86  C   UNL A   1      32.900  25.412  22.695  1.00  0.00     0.238 C 
ATOM     87  O   UNL A   1      30.649  24.872  25.331  1.00  0.00    -0.274 OA
ATOM     88  C   UNL A   1      31.362  26.683  23.872  1.00  0.00     0.100 C 
ATOM     89  C   UNL A   1      32.840  26.683  23.471  1.00  0.00     0.100 C 
ATOM     90  O   UNL A   1      33.654  25.149  21.779  1.00  0.00    -0.274 OA
ATOM     91  C   UNL A   1      31.023  28.020  24.554  1.00  0.00     0.028 C 
ATOM     92  C   UNL A   1      33.313  28.115  23.273  1.00  0.00     0.028 C 
ATOM     93  C   UNL A   1      31.030  28.957  23.319  1.00  0.00    -0.026 C 
ATOM     94  C   UNL A   1      32.114  28.600  25.471  1.00  0.00     0.001 C 
ATOM     95  C   UNL A   1      32.197  28.953  22.632  1.00  0.00    -0.026 C 
ATOM     96  C   UNL A   1      33.462  28.672  24.737  1.00  0.00     0.001 C 
ATOM     97  C   UNL A   1      33.307  27.898  26.047  1.00  0.00     0.009 C 
ENDBRANCH  80  84
ENDBRANCH  75  77
ENDBRANCH  74  75
ENDBRANCH  73  74
ENDBRANCH  72  73
ENDBRANCH  71  72
ENDBRANCH   1  71
TORSDOF 15
ENDMDL
MODEL 2
REMARK VINA RESULT:     -12.9      2.192      3.484
REMARK SMILES O=C(OCCOCCOC(=O)c1cc(N2C(=O)[C@H]3[C@@H]4C=C[C@@H]([C@@H]5C[C@H]45)[C@@H]3C2=O)ccc1Cl)c1ccc(-c2c3nc(c(-c4c(F)c(F)c(F)c(F)c4F)c4ccc([nH]4)c(-c4c(F)c(F)c(F)c(F)c4F)c4nc(c(-c5c(F)c(F)c(F)c(F)c5F)c5ccc2[nH]5)C=C4)C=C3)cc1
REMARK SMILES IDX 5 1 4 2 3 3 2 4 1 5 33 6 34 7 95 8 35 9 94 10 36 11 37 12
REMARK SMILES IDX 38 13 88 14 39 15 93 16 87 17 89 18 40 19 92 20 86 21 85 22
REMARK SMILES IDX 41 24 73 25 53 26 72 27 54 28 57 29 71 30 90 31 55 32 56 33
REMARK SMILES IDX 70 35 91 36 58 37 42 38 43 39 51 40 44 41 45 42 49 43 52 44
REMARK SMILES IDX 46 45 47 46 50 47 48 48 74 49 75 50 83 51 76 52 77 53 81 54
REMARK SMILES IDX 84 55 78 56 79 57 82 58 80 59 59 60 60 61 68 62 61 63 62 64
REMARK SMILES IDX 66 65 69 66 63 67 64 68 67 69 65 70 6 71 7 72 8 73 9 74
REMARK SMILES IDX 10 75 11 76 12 77 13 78 31 79 14 80 30 81 32 82 29 83 15 84
REMARK SMILES IDX 16 85 27 86 17 87 18 88 26 89 28 90 19 91 22 92 20 93 25 94
REMARK SMILES IDX 21 95 23 96 24 97
REMARK H PARENT 89 23 57 34
REMARK Flexibility Score: inf
ROOT
ATOM      1  C   UNL A   1      44.980  21.876  25.131  1.00  0.00     0.202 C 
ENDROOT
BRANCH   1   2
ATOM      2  C   UNL A   1      45.103  22.904  24.002  1.00  0.00     0.261 C 
BRANCH   2   3
ATOM      3  O   UNL A   1      44.569  24.171  24.420  1.00  0.00    -0.460 OA
BRANCH   3   4
ATOM      4  C   UNL A   1      45.217  25.220  24.973  1.00  0.00     0.338 C 
ATOM      5  O   UNL A   1      46.373  25.448  24.620  1.00  0.00    -0.246 OA
BRANCH   4   6
ATOM      6  C   UNL A   1      44.614  26.134  25.989  1.00  0.00     0.060 A 
ATOM      7  C   UNL A   1      44.591  27.529  25.912  1.00  0.00     0.016 A 
ATOM      8  C   UNL A   1      43.924  25.522  27.050  1.00  0.00     0.016 A 
ATOM      9  C   UNL A   1      43.937  28.303  26.859  1.00  0.00     0.010 A 
ATOM     10  C   UNL A   1      43.250  26.288  28.001  1.00  0.00     0.010 A 
ATOM     11  C   UNL A   1      43.267  27.684  27.905  1.00  0.00    -0.014 A 
BRANCH  11  12
ATOM     12  C   UNL A   1      42.700  28.524  28.966  1.00  0.00     0.031 A 
ATOM     13  C   UNL A   1      43.530  28.763  30.181  1.00  0.00     0.074 A 
ATOM     14  C   UNL A   1      41.502  29.103  28.789  1.00  0.00     0.049 A 
ATOM     15  N   UNL A   1      43.210  29.338  31.306  1.00  0.00    -0.248 NA
ATOM     16  C   UNL A   1      44.922  28.286  30.115  1.00  0.00     0.031 C 
ATOM     17  C   UNL A   1      40.699  29.018  27.568  1.00  0.00     0.029 A 
ATOM     18  N   UNL A   1      40.753  29.873  29.635  1.00  0.00    -0.354 N 
ATOM     19  C   UNL A   1      44.346  29.255  32.098  1.00  0.00     0.074 A 
ATOM     20  C   UNL A   1      45.365  28.582  31.325  1.00  0.00     0.031 C 
ATOM     21  C   UNL A   1      39.555  29.696  27.753  1.00  0.00     0.029 A 
ATOM     22  C   UNL A   1      39.521  30.195  29.124  1.00  0.00     0.049 A 
ATOM     23  H   UNL A   1      41.067  30.168  30.520  1.00  0.00     0.167 HD
ATOM     24  C   UNL A   1      44.497  29.687  33.370  1.00  0.00     0.037 A 
ATOM     25  C   UNL A   1      38.470  30.776  29.731  1.00  0.00     0.037 A 
ATOM     26  C   UNL A   1      43.444  30.338  34.099  1.00  0.00     0.049 A 
ATOM     27  C   UNL A   1      38.625  31.175  31.174  1.00  0.00     0.074 A 
ATOM     28  C   UNL A   1      43.437  30.782  35.406  1.00  0.00     0.029 A 
ATOM     29  N   UNL A   1      42.190  30.626  33.566  1.00  0.00    -0.354 N 
ATOM     30  N   UNL A   1      39.674  31.043  31.955  1.00  0.00    -0.248 NA
ATOM     31  C   UNL A   1      37.464  31.785  31.826  1.00  0.00     0.031 C 
ATOM     32  C   UNL A   1      42.161  31.291  35.678  1.00  0.00     0.029 A 
ATOM     33  C   UNL A   1      41.393  31.223  34.523  1.00  0.00     0.049 A 
ATOM     34  H   UNL A   1      41.913  30.432  32.641  1.00  0.00     0.167 HD
ATOM     35  C   UNL A   1      39.309  31.572  33.183  1.00  0.00     0.074 A 
ATOM     36  C   UNL A   1      37.939  32.030  33.041  1.00  0.00     0.031 C 
ATOM     37  C   UNL A   1      40.037  31.676  34.324  1.00  0.00     0.037 A 
BRANCH  24  38
ATOM     38  C   UNL A   1      45.798  29.363  34.044  1.00  0.00     0.064 A 
ATOM     39  C   UNL A   1      45.997  28.167  34.752  1.00  0.00     0.173 A 
ATOM     40  C   UNL A   1      46.837  30.306  34.050  1.00  0.00     0.173 A 
ATOM     41  F   UNL A   1      45.025  27.244  34.805  1.00  0.00    -0.203 F 
ATOM     42  C   UNL A   1      47.164  27.954  35.485  1.00  0.00     0.198 A 
ATOM     43  C   UNL A   1      48.015  30.075  34.755  1.00  0.00     0.198 A 
ATOM     44  F   UNL A   1      46.699  31.468  33.395  1.00  0.00    -0.203 F 
ATOM     45  F   UNL A   1      47.293  26.844  36.226  1.00  0.00    -0.200 F 
ATOM     46  C   UNL A   1      48.170  28.907  35.486  1.00  0.00     0.200 A 
ATOM     47  F   UNL A   1      48.987  30.996  34.752  1.00  0.00    -0.200 F 
ATOM     48  F   UNL A   1      49.281  28.710  36.209  1.00  0.00    -0.200 F 
ENDBRANCH  24  38
BRANCH  25  49
ATOM     49  C   UNL A   1      37.195  30.945  28.987  1.00  0.00     0.064 A 
ATOM     50  C   UNL A   1      36.352  29.858  28.725  1.00  0.00     0.173 A 
ATOM     51  C   UNL A   1      36.766  32.216  28.567  1.00  0.00     0.173 A 
ATOM     52  F   UNL A   1      36.721  28.622  29.089  1.00  0.00    -0.203 F 
ATOM     53  C   UNL A   1      35.129  30.035  28.076  1.00  0.00     0.198 A 
ATOM     54  C   UNL A   1      35.534  32.395  27.943  1.00  0.00     0.198 A 
ATOM     55  F   UNL A   1      37.534  33.292  28.791  1.00  0.00    -0.203 F 
ATOM     56  F   UNL A   1      34.351  28.975  27.818  1.00  0.00    -0.200 F 
ATOM     57  C   UNL A   1      34.717  31.303  27.696  1.00  0.00     0.200 A 
ATOM     58  F   UNL A   1      35.133  33.625  27.593  1.00  0.00    -0.200 F 
ATOM     59  F   UNL A   1      33.533  31.474  27.090  1.00  0.00    -0.200 F 
ENDBRANCH  25  49
BRANCH  37  60
ATOM     60  C   UNL A   1      39.384  32.350  35.492  1.00  0.00     0.064 A 
ATOM     61  C   UNL A   1      38.607  31.635  36.412  1.00  0.00     0.173 A 
ATOM     62  C   UNL A   1      39.636  33.707  35.744  1.00  0.00     0.173 A 
ATOM     63  F   UNL A   1      38.330  30.339  36.203  1.00  0.00    -0.203 F 
ATOM     64  C   UNL A   1      38.101  32.259  37.549  1.00  0.00     0.198 A 
ATOM     65  C   UNL A   1      39.153  34.318  36.896  1.00  0.00     0.198 A 
ATOM     66  F   UNL A   1      40.382  34.426  34.892  1.00  0.00    -0.203 F 
ATOM     67  F   UNL A   1      37.343  31.567  38.410  1.00  0.00    -0.200 F 
ATOM     68  C   UNL A   1      38.387  33.595  37.796  1.00  0.00     0.200 A 
ATOM     69  F   UNL A   1      39.444  35.603  37.141  1.00  0.00    -0.200 F 
ATOM     70  F   UNL A   1      37.923  34.186  38.906  1.00  0.00    -0.200 F 
ENDBRANCH  37  60
ENDBRANCH  11  12
ENDBRANCH   4   6
ENDBRANCH   3   4
ENDBRANCH   2   3
ENDBRANCH   1   2
BRANCH   1  71
ATOM     71  O   UNL A   1      43.701  21.239  25.211  1.00  0.00    -0.374 OA
BRANCH  71  72
ATOM     72  C   UNL A   1      43.727  19.805  25.250  1.00  0.00     0.202 C 
BRANCH  72  73
ATOM     73  C   UNL A   1      42.424  19.291  25.857  1.00  0.00     0.261 C 
BRANCH  73  74
ATOM     74  O   UNL A   1      41.446  20.330  25.723  1.00  0.00    -0.460 OA
BRANCH  74  75
ATOM     75  C   UNL A   1      40.646  20.521  26.801  1.00  0.00     0.339 C 
ATOM     76  O   UNL A   1      40.757  20.028  27.906  1.00  0.00    -0.246 OA
BRANCH  75  77
ATOM     77  C   UNL A   1      39.756  21.662  26.506  1.00  0.00     0.080 A 
ATOM     78  C   UNL A   1      38.629  21.377  25.710  1.00  0.00     0.044 A 
ATOM     79  C   UNL A   1      39.944  22.942  27.039  1.00  0.00     0.055 A 
ATOM     80  C   UNL A   1      37.679  22.367  25.484  1.00  0.00     0.053 A 
ATOM     81  C   UNL A   1      38.988  23.931  26.800  1.00  0.00     0.023 A 
ATOM     82  Cl  UNL A   1      41.330  23.398  27.964  1.00  0.00    -0.083 Cl
ATOM     83  C   UNL A   1      37.860  23.645  26.031  1.00  0.00     0.028 A 
BRANCH  80  84
ATOM     84  N   UNL A   1      36.497  22.097  24.768  1.00  0.00    -0.250 N 
ATOM     85  C   UNL A   1      35.307  21.764  25.445  1.00  0.00     0.238 C 
ATOM     86  C   UNL A   1      36.237  22.761  23.552  1.00  0.00     0.238 C 
ATOM     87  O   UNL A   1      35.148  21.404  26.599  1.00  0.00    -0.274 OA
ATOM     88  C   UNL A   1      34.247  21.935  24.402  1.00  0.00     0.100 C 
ATOM     89  C   UNL A   1      34.819  23.184  23.724  1.00  0.00     0.100 C 
ATOM     90  O   UNL A   1      37.009  23.123  22.686  1.00  0.00    -0.274 OA
ATOM     91  C   UNL A   1      32.720  22.081  24.525  1.00  0.00     0.028 C 
ATOM     92  C   UNL A   1      33.749  23.823  22.851  1.00  0.00     0.028 C 
ATOM     93  C   UNL A   1      32.313  21.867  23.045  1.00  0.00    -0.026 C 
ATOM     94  C   UNL A   1      32.206  23.493  24.854  1.00  0.00     0.001 C 
ATOM     95  C   UNL A   1      32.896  22.734  22.183  1.00  0.00    -0.026 C 
ATOM     96  C   UNL A   1      32.790  24.528  23.879  1.00  0.00     0.001 C 
ATOM     97  C   UNL A   1      32.982  24.658  25.392  1.00  0.00     0.009 C 
ENDBRANCH  80  84
ENDBRANCH  75  77
ENDBRANCH  74  75
ENDBRANCH  73  74
ENDBRANCH  72  73
ENDBRANCH  71  72
ENDBRANCH   1  71
TORSDOF 15
ENDMDL
MODEL 3
REMARK VINA RESULT:     -12.8      4.677      9.031
REMARK SMILES O=C(OCCOCCOC(=O)c1cc(N2C(=O)[C@H]3[C@@H]4C=C[C@@H]([C@@H]5C[C@H]45)[C@@H]3C2=O)ccc1Cl)c1ccc(-c2c3nc(c(-c4c(F)c(F)c(F)c(F)c4F)c4ccc([nH]4)c(-c4c(F)c(F)c(F)c(F)c4F)c4nc(c(-c5c(F)c(F)c(F)c(F)c5F)c5ccc2[nH]5)C=C4)C=C3)cc1
REMARK SMILES IDX 5 1 4 2 3 3 2 4 1 5 33 6 34 7 95 8 35 9 94 10 36 11 37 12
REMARK SMILES IDX 38 13 88 14 39 15 93 16 87 17 89 18 40 19 92 20 86 21 85 22
REMARK SMILES IDX 41 24 73 25 53 26 72 27 54 28 57 29 71 30 90 31 55 32 56 33
REMARK SMILES IDX 70 35 91 36 58 37 42 38 43 39 51 40 44 41 45 42 49 43 52 44
REMARK SMILES IDX 46 45 47 46 50 47 48 48 74 49 75 50 83 51 76 52 77 53 81 54
REMARK SMILES IDX 84 55 78 56 79 57 82 58 80 59 59 60 60 61 68 62 61 63 62 64
REMARK SMILES IDX 66 65 69 66 63 67 64 68 67 69 65 70 6 71 7 72 8 73 9 74
REMARK SMILES IDX 10 75 11 76 12 77 13 78 31 79 14 80 30 81 32 82 29 83 15 84
REMARK SMILES IDX 16 85 27 86 17 87 18 88 26 89 28 90 19 91 22 92 20 93 25 94
REMARK SMILES IDX 21 95 23 96 24 97
REMARK H PARENT 89 23 57 34
REMARK Flexibility Score: inf
ROOT
ATOM      1  C   UNL A   1      38.107  19.995  24.908  1.00  0.00     0.202 C 
ENDROOT
BRANCH   1   2
ATOM      2  C   UNL A   1      39.207  20.306  25.927  1.00  0.00     0.261 C 
BRANCH   2   3
ATOM      3  O   UNL A   1      40.332  19.432  25.732  1.00  0.00    -0.460 OA
BRANCH   3   4
ATOM      4  C   UNL A   1      41.644  19.689  25.924  1.00  0.00     0.338 C 
ATOM      5  O   UNL A   1      42.459  18.804  25.667  1.00  0.00    -0.246 OA
BRANCH   4   6
ATOM      6  C   UNL A   1      42.177  20.992  26.424  1.00  0.00     0.060 A 
ATOM      7  C   UNL A   1      42.340  21.338  27.768  1.00  0.00     0.016 A 
ATOM      8  C   UNL A   1      42.647  21.890  25.451  1.00  0.00     0.016 A 
ATOM      9  C   UNL A   1      42.920  22.538  28.148  1.00  0.00     0.010 A 
ATOM     10  C   UNL A   1      43.246  23.095  25.820  1.00  0.00     0.010 A 
ATOM     11  C   UNL A   1      43.372  23.419  27.176  1.00  0.00    -0.014 A 
BRANCH  11  12
ATOM     12  C   UNL A   1      43.857  24.738  27.597  1.00  0.00     0.031 A 
ATOM     13  C   UNL A   1      42.846  25.740  28.041  1.00  0.00     0.074 A 
ATOM     14  C   UNL A   1      45.176  24.982  27.642  1.00  0.00     0.049 A 
ATOM     15  N   UNL A   1      42.996  27.004  28.320  1.00  0.00    -0.248 NA
ATOM     16  C   UNL A   1      41.468  25.242  28.193  1.00  0.00     0.031 C 
ATOM     17  C   UNL A   1      46.222  24.000  27.350  1.00  0.00     0.029 A 
ATOM     18  N   UNL A   1      45.860  26.126  27.946  1.00  0.00    -0.354 N 
ATOM     19  C   UNL A   1      41.727  27.464  28.639  1.00  0.00     0.074 A 
ATOM     20  C   UNL A   1      40.819  26.344  28.528  1.00  0.00     0.031 C 
ATOM     21  C   UNL A   1      47.420  24.593  27.470  1.00  0.00     0.029 A 
ATOM     22  C   UNL A   1      47.216  26.005  27.776  1.00  0.00     0.049 A 
ATOM     23  H   UNL A   1      45.423  26.951  28.257  1.00  0.00     0.167 HD
ATOM     24  C   UNL A   1      41.366  28.724  28.970  1.00  0.00     0.037 A 
ATOM     25  C   UNL A   1      48.168  26.956  27.806  1.00  0.00     0.037 A 
ATOM     26  C   UNL A   1      42.308  29.806  29.051  1.00  0.00     0.049 A 
ATOM     27  C   UNL A   1      47.738  28.370  28.092  1.00  0.00     0.074 A 
ATOM     28  C   UNL A   1      42.079  31.139  29.324  1.00  0.00     0.029 A 
ATOM     29  N   UNL A   1      43.677  29.663  28.844  1.00  0.00    -0.354 N 
ATOM     30  N   UNL A   1      46.531  28.830  28.332  1.00  0.00    -0.248 NA
ATOM     31  C   UNL A   1      48.785  29.397  28.099  1.00  0.00     0.031 C 
ATOM     32  C   UNL A   1      43.304  31.812  29.229  1.00  0.00     0.029 A 
ATOM     33  C   UNL A   1      44.305  30.888  28.960  1.00  0.00     0.049 A 
ATOM     34  H   UNL A   1      44.131  28.813  28.643  1.00  0.00     0.167 HD
ATOM     35  C   UNL A   1      46.672  30.193  28.541  1.00  0.00     0.074 A 
ATOM     36  C   UNL A   1      48.087  30.485  28.400  1.00  0.00     0.031 C 
ATOM     37  C   UNL A   1      45.724  31.121  28.826  1.00  0.00     0.037 A 
BRANCH  24  38
ATOM     38  C   UNL A   1      39.898  28.981  29.151  1.00  0.00     0.064 A 
ATOM     39  C   UNL A   1      39.254  28.806  30.386  1.00  0.00     0.173 A 
ATOM     40  C   UNL A   1      39.108  29.329  28.045  1.00  0.00     0.173 A 
ATOM     41  F   UNL A   1      39.956  28.444  31.469  1.00  0.00    -0.203 F 
ATOM     42  C   UNL A   1      37.867  28.916  30.492  1.00  0.00     0.198 A 
ATOM     43  C   UNL A   1      37.728  29.471  28.162  1.00  0.00     0.198 A 
ATOM     44  F   UNL A   1      39.670  29.503  26.839  1.00  0.00    -0.203 F 
ATOM     45  F   UNL A   1      37.265  28.656  31.662  1.00  0.00    -0.200 F 
ATOM     46  C   UNL A   1      37.107  29.247  29.381  1.00  0.00     0.200 A 
ATOM     47  F   UNL A   1      36.996  29.794  27.088  1.00  0.00    -0.200 F 
ATOM     48  F   UNL A   1      35.773  29.330  29.481  1.00  0.00    -0.200 F 
ENDBRANCH  24  38
BRANCH  25  49
ATOM     49  C   UNL A   1      49.577  26.594  27.502  1.00  0.00     0.064 A 
ATOM     50  C   UNL A   1      50.030  26.467  26.183  1.00  0.00     0.173 A 
ATOM     51  C   UNL A   1      50.516  26.418  28.532  1.00  0.00     0.173 A 
ATOM     52  F   UNL A   1      49.172  26.607  25.164  1.00  0.00    -0.203 F 
ATOM     53  C   UNL A   1      51.368  26.183  25.906  1.00  0.00     0.198 A 
ATOM     54  C   UNL A   1      51.857  26.161  28.254  1.00  0.00     0.198 A 
ATOM     55  F   UNL A   1      50.137  26.528  29.814  1.00  0.00    -0.203 F 
ATOM     56  F   UNL A   1      51.772  26.044  24.636  1.00  0.00    -0.200 F 
ATOM     57  C   UNL A   1      52.281  26.041  26.940  1.00  0.00     0.200 A 
ATOM     58  F   UNL A   1      52.737  26.042  29.257  1.00  0.00    -0.200 F 
ATOM     59  F   UNL A   1      53.570  25.787  26.671  1.00  0.00    -0.200 F 
ENDBRANCH  25  49
BRANCH  37  60
ATOM     60  C   UNL A   1      46.189  32.527  29.052  1.00  0.00     0.064 A 
ATOM     61  C   UNL A   1      46.618  32.965  30.311  1.00  0.00     0.173 A 
ATOM     62  C   UNL A   1      46.306  33.406  27.965  1.00  0.00     0.173 A 
ATOM     63  F   UNL A   1      46.511  32.162  31.381  1.00  0.00    -0.203 F 
ATOM     64  C   UNL A   1      47.150  34.241  30.476  1.00  0.00     0.198 A 
ATOM     65  C   UNL A   1      46.864  34.669  28.128  1.00  0.00     0.198 A 
ATOM     66  F   UNL A   1      45.914  33.024  26.741  1.00  0.00    -0.203 F 
ATOM     67  F   UNL A   1      47.537  34.652  31.690  1.00  0.00    -0.200 F 
ATOM     68  C   UNL A   1      47.285  35.085  29.382  1.00  0.00     0.200 A 
ATOM     69  F   UNL A   1      47.010  35.476  27.068  1.00  0.00    -0.200 F 
ATOM     70  F   UNL A   1      47.824  36.303  29.537  1.00  0.00    -0.200 F 
ENDBRANCH  37  60
ENDBRANCH  11  12
ENDBRANCH   4   6
ENDBRANCH   3   4
ENDBRANCH   2   3
ENDBRANCH   1   2
BRANCH   1  71
ATOM     71  O   UNL A   1      37.395  21.144  24.441  1.00  0.00    -0.374 OA
BRANCH  71  72
ATOM     72  C   UNL A   1      36.113  21.365  25.047  1.00  0.00     0.202 C 
BRANCH  72  73
ATOM     73  C   UNL A   1      35.257  20.109  24.899  1.00  0.00     0.261 C 
BRANCH  73  74
ATOM     74  O   UNL A   1      34.111  20.267  25.744  1.00  0.00    -0.460 OA
BRANCH  74  75
ATOM     75  C   UNL A   1      32.910  20.095  25.138  1.00  0.00     0.339 C 
ATOM     76  O   UNL A   1      32.159  19.145  25.234  1.00  0.00    -0.246 OA
BRANCH  75  77
ATOM     77  C   UNL A   1      32.515  21.389  24.546  1.00  0.00     0.080 A 
ATOM     78  C   UNL A   1      32.596  22.509  25.398  1.00  0.00     0.044 A 
ATOM     79  C   UNL A   1      32.160  21.543  23.201  1.00  0.00     0.055 A 
ATOM     80  C   UNL A   1      32.357  23.780  24.886  1.00  0.00     0.053 A 
ATOM     81  C   UNL A   1      31.915  22.823  22.700  1.00  0.00     0.023 A 
ATOM     82  Cl  UNL A   1      31.968  20.221  22.106  1.00  0.00    -0.083 Cl
ATOM     83  C   UNL A   1      32.017  23.935  23.536  1.00  0.00     0.028 A 
BRANCH  80  84
ATOM     84  N   UNL A   1      32.514  24.930  25.683  1.00  0.00    -0.250 N 
ATOM     85  C   UNL A   1      33.692  25.700  25.609  1.00  0.00     0.238 C 
ATOM     86  C   UNL A   1      31.395  25.719  26.017  1.00  0.00     0.238 C 
ATOM     87  O   UNL A   1      34.776  25.412  25.133  1.00  0.00    -0.274 OA
ATOM     88  C   UNL A   1      33.316  26.984  26.280  1.00  0.00     0.100 C 
ATOM     89  C   UNL A   1      31.889  27.097  25.738  1.00  0.00     0.100 C 
ATOM     90  O   UNL A   1      30.248  25.383  26.238  1.00  0.00    -0.274 OA
ATOM     91  C   UNL A   1      33.979  28.373  26.250  1.00  0.00     0.028 C 
ATOM     92  C   UNL A   1      31.374  28.513  25.949  1.00  0.00     0.028 C 
ATOM     93  C   UNL A   1      33.231  29.049  27.428  1.00  0.00    -0.026 C 
ATOM     94  C   UNL A   1      33.637  29.254  25.035  1.00  0.00     0.001 C 
ATOM     95  C   UNL A   1      31.884  29.063  27.290  1.00  0.00    -0.026 C 
ATOM     96  C   UNL A   1      32.115  29.355  24.846  1.00  0.00     0.001 C 
ATOM     97  C   UNL A   1      33.025  28.834  23.732  1.00  0.00     0.009 C 
ENDBRANCH  80  84
ENDBRANCH  75  77
ENDBRANCH  74  75
ENDBRANCH  73  74
ENDBRANCH  72  73
ENDBRANCH  71  72
ENDBRANCH   1  71
TORSDOF 15
ENDMDL
