MODEL 1
REMARK VINA RESULT:     -11.2      0.000      0.000
REMARK SMILES CCOC(=O)C1=NN(c2ccc(C)cc2Cl)[C@@](C)(C(=O)OCCOCCOC(=O)c2ccc(-c3c4nc(c(-c5c(F)c(F)c(F)c(F)c5F)c5ccc([nH]5)c(-c5c(F)c(F)c(F)c(F)c5F)c5nc(c(-c6c(F)c(F)c(F)c(F)c6F)c6ccc3[nH]6)C=C5)C=C4)cc2)C1
REMARK SMILES IDX 23 1 22 2 21 3 19 4 20 5 17 6 6 7 7 8 93 9 8 10 18 11 4 12
REMARK SMILES IDX 5 13 3 14 2 15 1 16 9 17 10 18 15 19 11 20 14 21 16 22 12 23
REMARK SMILES IDX 13 24 24 25 25 26 26 27 27 28 28 29 29 30 30 31 31 32 92 33
REMARK SMILES IDX 32 34 91 35 33 36 34 37 35 38 85 39 36 40 90 41 84 42 86 43
REMARK SMILES IDX 37 44 89 45 83 46 82 47 38 49 70 50 50 51 69 52 51 53 54 54
REMARK SMILES IDX 68 55 87 56 52 57 53 58 67 60 88 61 55 62 39 63 40 64 48 65
REMARK SMILES IDX 41 66 42 67 46 68 49 69 43 70 44 71 47 72 45 73 71 74 72 75
REMARK SMILES IDX 80 76 73 77 74 78 78 79 81 80 75 81 76 82 79 83 77 84 56 85
REMARK SMILES IDX 57 86 65 87 58 88 59 89 63 90 66 91 60 92 61 93 64 94 62 95
REMARK H PARENT 86 48 54 59
REMARK Flexibility Score: inf
ROOT
ATOM      1  C   UNL A   1      32.213  28.055  22.886  1.00  0.00     0.202 C 
ENDROOT
BRANCH   1   2
ATOM      2  C   UNL A   1      32.908  26.815  22.309  1.00  0.00     0.261 C 
BRANCH   2   3
ATOM      3  O   UNL A   1      33.731  26.093  23.242  1.00  0.00    -0.461 OA
BRANCH   3   4
ATOM      4  C   UNL A   1      33.495  24.753  23.290  1.00  0.00     0.334 C 
ATOM      5  O   UNL A   1      33.415  24.042  22.286  1.00  0.00    -0.249 OA
BRANCH   4   6
ATOM      6  C   UNL A   1      33.272  24.165  24.695  1.00  0.00     0.163 C 
ATOM      7  C   UNL A   1      31.163  24.658  25.485  1.00  0.00     0.149 C 
ATOM      8  N   UNL A   1      31.071  23.413  25.146  1.00  0.00    -0.169 NA
ATOM      9  C   UNL A   1      32.525  25.241  25.513  1.00  0.00     0.108 C 
ATOM     10  N   UNL A   1      32.330  23.005  24.775  1.00  0.00    -0.246 N 
ATOM     11  C   UNL A   1      34.657  23.956  25.301  1.00  0.00     0.050 C 
BRANCH   7  12
ATOM     12  C   UNL A   1      29.985  25.517  25.830  1.00  0.00     0.354 C 
ATOM     13  O   UNL A   1      29.218  25.195  26.722  1.00  0.00    -0.245 OA
BRANCH  12  14
ATOM     14  O   UNL A   1      29.914  26.578  25.010  1.00  0.00    -0.461 OA
BRANCH  14  15
ATOM     15  C   UNL A   1      29.142  26.367  23.818  1.00  0.00     0.230 C 
ATOM     16  C   UNL A   1      28.301  27.592  23.510  1.00  0.00     0.049 C 
ENDBRANCH  14  15
ENDBRANCH  12  14
ENDBRANCH   7  12
BRANCH  10  17
ATOM     17  C   UNL A   1      32.539  21.650  24.495  1.00  0.00     0.079 A 
ATOM     18  C   UNL A   1      32.247  21.119  23.223  1.00  0.00     0.030 A 
ATOM     19  C   UNL A   1      33.124  20.726  25.399  1.00  0.00     0.066 A 
ATOM     20  C   UNL A   1      32.436  19.770  22.884  1.00  0.00     0.006 A 
ATOM     21  C   UNL A   1      33.304  19.365  25.066  1.00  0.00     0.026 A 
ATOM     22  Cl  UNL A   1      33.664  21.140  26.995  1.00  0.00    -0.082 Cl
ATOM     23  C   UNL A   1      32.956  18.876  23.809  1.00  0.00    -0.049 A 
ATOM     24  C   UNL A   1      33.111  17.422  23.480  1.00  0.00     0.044 C 
ENDBRANCH  10  17
ENDBRANCH   4   6
ENDBRANCH   3   4
ENDBRANCH   2   3
ENDBRANCH   1   2
BRANCH   1  25
ATOM     25  O   UNL A   1      33.027  28.982  23.594  1.00  0.00    -0.374 OA
BRANCH  25  26
ATOM     26  C   UNL A   1      32.916  28.989  25.022  1.00  0.00     0.202 C 
BRANCH  26  27
ATOM     27  C   UNL A   1      32.158  30.169  25.637  1.00  0.00     0.261 C 
BRANCH  27  28
ATOM     28  O   UNL A   1      32.540  30.345  27.015  1.00  0.00    -0.460 OA
BRANCH  28  29
ATOM     29  C   UNL A   1      33.267  31.449  27.275  1.00  0.00     0.338 C 
ATOM     30  O   UNL A   1      32.893  32.614  27.257  1.00  0.00    -0.246 OA
BRANCH  29  31
ATOM     31  C   UNL A   1      34.588  31.045  27.781  1.00  0.00     0.060 A 
ATOM     32  C   UNL A   1      34.707  29.784  28.376  1.00  0.00     0.016 A 
ATOM     33  C   UNL A   1      35.670  31.925  27.755  1.00  0.00     0.016 A 
ATOM     34  C   UNL A   1      35.907  29.411  28.982  1.00  0.00     0.010 A 
ATOM     35  C   UNL A   1      36.870  31.553  28.372  1.00  0.00     0.010 A 
ATOM     36  C   UNL A   1      36.986  30.305  29.012  1.00  0.00    -0.014 A 
BRANCH  36  37
ATOM     37  C   UNL A   1      38.201  29.976  29.798  1.00  0.00     0.031 A 
ATOM     38  C   UNL A   1      39.218  29.029  29.227  1.00  0.00     0.074 A 
ATOM     39  C   UNL A   1      38.403  30.532  31.006  1.00  0.00     0.049 A 
ATOM     40  N   UNL A   1      40.312  28.558  29.773  1.00  0.00    -0.248 NA
ATOM     41  C   UNL A   1      38.976  28.553  27.856  1.00  0.00     0.031 C 
ATOM     42  C   UNL A   1      37.519  31.503  31.646  1.00  0.00     0.029 A 
ATOM     43  N   UNL A   1      39.418  30.348  31.913  1.00  0.00    -0.354 N 
ATOM     44  C   UNL A   1      40.892  27.739  28.812  1.00  0.00     0.074 A 
ATOM     45  C   UNL A   1      40.018  27.755  27.658  1.00  0.00     0.031 C 
ATOM     46  C   UNL A   1      38.022  31.818  32.853  1.00  0.00     0.029 A 
ATOM     47  C   UNL A   1      39.240  31.044  33.083  1.00  0.00     0.049 A 
ATOM     48  H   UNL A   1      40.199  29.774  31.740  1.00  0.00     0.167 HD
ATOM     49  C   UNL A   1      42.052  27.045  28.884  1.00  0.00     0.037 A 
ATOM     50  C   UNL A   1      39.960  31.029  34.221  1.00  0.00     0.037 A 
ATOM     51  C   UNL A   1      42.920  27.020  30.032  1.00  0.00     0.049 A 
ATOM     52  C   UNL A   1      41.185  30.157  34.315  1.00  0.00     0.074 A 
ATOM     53  C   UNL A   1      44.122  26.352  30.192  1.00  0.00     0.029 A 
ATOM     54  N   UNL A   1      42.672  27.688  31.221  1.00  0.00    -0.354 N 
ATOM     55  N   UNL A   1      41.732  29.395  33.400  1.00  0.00    -0.248 NA
ATOM     56  C   UNL A   1      41.888  30.136  35.608  1.00  0.00     0.031 C 
ATOM     57  C   UNL A   1      44.581  26.583  31.494  1.00  0.00     0.029 A 
ATOM     58  C   UNL A   1      43.684  27.424  32.131  1.00  0.00     0.049 A 
ATOM     59  H   UNL A   1      41.894  28.266  31.394  1.00  0.00     0.167 HD
ATOM     60  C   UNL A   1      42.846  28.819  33.997  1.00  0.00     0.074 A 
ATOM     61  C   UNL A   1      42.909  29.331  35.349  1.00  0.00     0.031 C 
ATOM     62  C   UNL A   1      43.733  27.940  33.472  1.00  0.00     0.037 A 
BRANCH  49  63
ATOM     63  C   UNL A   1      42.457  26.239  27.688  1.00  0.00     0.064 A 
ATOM     64  C   UNL A   1      43.328  26.759  26.719  1.00  0.00     0.173 A 
ATOM     65  C   UNL A   1      42.029  24.911  27.547  1.00  0.00     0.173 A 
ATOM     66  F   UNL A   1      43.757  28.027  26.809  1.00  0.00    -0.203 F 
ATOM     67  C   UNL A   1      43.750  25.979  25.647  1.00  0.00     0.198 A 
ATOM     68  C   UNL A   1      42.468  24.128  26.483  1.00  0.00     0.198 A 
ATOM     69  F   UNL A   1      41.200  24.368  28.451  1.00  0.00    -0.203 F 
ATOM     70  F   UNL A   1      44.566  26.501  24.720  1.00  0.00    -0.200 F 
ATOM     71  C   UNL A   1      43.326  24.663  25.532  1.00  0.00     0.200 A 
ATOM     72  F   UNL A   1      42.067  22.854  26.380  1.00  0.00    -0.200 F 
ATOM     73  F   UNL A   1      43.746  23.909  24.507  1.00  0.00    -0.200 F 
ENDBRANCH  49  63
BRANCH  50  74
ATOM     74  C   UNL A   1      39.521  31.832  35.393  1.00  0.00     0.064 A 
ATOM     75  C   UNL A   1      38.565  31.338  36.290  1.00  0.00     0.173 A 
ATOM     76  C   UNL A   1      40.018  33.125  35.611  1.00  0.00     0.173 A 
ATOM     77  F   UNL A   1      38.038  30.120  36.104  1.00  0.00    -0.203 F 
ATOM     78  C   UNL A   1      38.108  32.117  37.353  1.00  0.00     0.198 A 
ATOM     79  C   UNL A   1      39.580  33.892  36.687  1.00  0.00     0.198 A 
ATOM     80  F   UNL A   1      40.928  33.645  34.775  1.00  0.00    -0.203 F 
ATOM     81  F   UNL A   1      37.156  31.643  38.167  1.00  0.00    -0.200 F 
ATOM     82  C   UNL A   1      38.619  33.391  37.553  1.00  0.00     0.200 A 
ATOM     83  F   UNL A   1      40.081  35.119  36.881  1.00  0.00    -0.200 F 
ATOM     84  F   UNL A   1      38.175  34.140  38.570  1.00  0.00    -0.200 F 
ENDBRANCH  50  74
BRANCH  62  85
ATOM     85  C   UNL A   1      44.855  27.484  34.357  1.00  0.00     0.064 A 
ATOM     86  C   UNL A   1      46.056  28.201  34.439  1.00  0.00     0.173 A 
ATOM     87  C   UNL A   1      44.710  26.344  35.163  1.00  0.00     0.173 A 
ATOM     88  F   UNL A   1      46.248  29.286  33.675  1.00  0.00    -0.203 F 
ATOM     89  C   UNL A   1      47.080  27.784  35.287  1.00  0.00     0.198 A 
ATOM     90  C   UNL A   1      45.726  25.944  36.027  1.00  0.00     0.198 A 
ATOM     91  F   UNL A   1      43.577  25.627  35.123  1.00  0.00    -0.203 F 
ATOM     92  F   UNL A   1      48.235  28.465  35.324  1.00  0.00    -0.200 F 
ATOM     93  C   UNL A   1      46.912  26.662  36.084  1.00  0.00     0.200 A 
ATOM     94  F   UNL A   1      45.559  24.865  36.803  1.00  0.00    -0.200 F 
ATOM     95  F   UNL A   1      47.896  26.268  36.904  1.00  0.00    -0.200 F 
ENDBRANCH  62  85
ENDBRANCH  36  37
ENDBRANCH  29  31
ENDBRANCH  28  29
ENDBRANCH  27  28
ENDBRANCH  26  27
ENDBRANCH  25  26
ENDBRANCH   1  25
TORSDOF 18
ENDMDL
MODEL 2
REMARK VINA RESULT:     -11.1      4.362      7.058
REMARK SMILES CCOC(=O)C1=NN(c2ccc(C)cc2Cl)[C@@](C)(C(=O)OCCOCCOC(=O)c2ccc(-c3c4nc(c(-c5c(F)c(F)c(F)c(F)c5F)c5ccc([nH]5)c(-c5c(F)c(F)c(F)c(F)c5F)c5nc(c(-c6c(F)c(F)c(F)c(F)c6F)c6ccc3[nH]6)C=C5)C=C4)cc2)C1
REMARK SMILES IDX 23 1 22 2 21 3 19 4 20 5 17 6 6 7 7 8 93 9 8 10 18 11 4 12
REMARK SMILES IDX 5 13 3 14 2 15 1 16 9 17 10 18 15 19 11 20 14 21 16 22 12 23
REMARK SMILES IDX 13 24 24 25 25 26 26 27 27 28 28 29 29 30 30 31 31 32 92 33
REMARK SMILES IDX 32 34 91 35 33 36 34 37 35 38 85 39 36 40 90 41 84 42 86 43
REMARK SMILES IDX 37 44 89 45 83 46 82 47 38 49 70 50 50 51 69 52 51 53 54 54
REMARK SMILES IDX 68 55 87 56 52 57 53 58 67 60 88 61 55 62 39 63 40 64 48 65
REMARK SMILES IDX 41 66 42 67 46 68 49 69 43 70 44 71 47 72 45 73 71 74 72 75
REMARK SMILES IDX 80 76 73 77 74 78 78 79 81 80 75 81 76 82 79 83 77 84 56 85
REMARK SMILES IDX 57 86 65 87 58 88 59 89 63 90 66 91 60 92 61 93 64 94 62 95
REMARK H PARENT 86 48 54 59
REMARK Flexibility Score: inf
ROOT
ATOM      1  C   UNL A   1      36.784  21.846  24.196  1.00  0.00     0.202 C 
ENDROOT
BRANCH   1   2
ATOM      2  C   UNL A   1      36.665  23.376  24.171  1.00  0.00     0.261 C 
BRANCH   2   3
ATOM      3  O   UNL A   1      35.725  23.926  25.110  1.00  0.00    -0.461 OA
BRANCH   3   4
ATOM      4  C   UNL A   1      34.419  23.680  24.817  1.00  0.00     0.334 C 
ATOM      5  O   UNL A   1      33.886  24.020  23.759  1.00  0.00    -0.249 OA
BRANCH   4   6
ATOM      6  C   UNL A   1      33.606  22.987  25.925  1.00  0.00     0.163 C 
ATOM      7  C   UNL A   1      31.452  23.806  26.020  1.00  0.00     0.149 C 
ATOM      8  N   UNL A   1      31.309  22.655  25.446  1.00  0.00    -0.169 NA
ATOM      9  C   UNL A   1      32.776  24.089  26.622  1.00  0.00     0.108 C 
ATOM     10  N   UNL A   1      32.540  22.045  25.461  1.00  0.00    -0.246 N 
ATOM     11  C   UNL A   1      34.619  22.428  26.921  1.00  0.00     0.050 C 
BRANCH   7  12
ATOM     12  C   UNL A   1      30.372  24.841  26.093  1.00  0.00     0.354 C 
ATOM     13  O   UNL A   1      29.411  24.690  26.829  1.00  0.00    -0.245 OA
BRANCH  12  14
ATOM     14  O   UNL A   1      30.615  25.843  25.232  1.00  0.00    -0.461 OA
BRANCH  14  15
ATOM     15  C   UNL A   1      29.982  25.703  23.952  1.00  0.00     0.230 C 
ATOM     16  C   UNL A   1      28.764  26.604  23.863  1.00  0.00     0.049 C 
ENDBRANCH  14  15
ENDBRANCH  12  14
ENDBRANCH   7  12
BRANCH  10  17
ATOM     17  C   UNL A   1      32.635  20.718  25.024  1.00  0.00     0.079 A 
ATOM     18  C   UNL A   1      32.851  19.668  25.937  1.00  0.00     0.030 A 
ATOM     19  C   UNL A   1      32.446  20.301  23.681  1.00  0.00     0.066 A 
ATOM     20  C   UNL A   1      32.955  18.320  25.558  1.00  0.00     0.006 A 
ATOM     21  C   UNL A   1      32.563  18.948  23.294  1.00  0.00     0.026 A 
ATOM     22  Cl  UNL A   1      32.072  21.380  22.374  1.00  0.00    -0.082 Cl
ATOM     23  C   UNL A   1      32.824  17.949  24.228  1.00  0.00    -0.049 A 
ATOM     24  C   UNL A   1      32.987  16.522  23.802  1.00  0.00     0.044 C 
ENDBRANCH  10  17
ENDBRANCH   4   6
ENDBRANCH   3   4
ENDBRANCH   2   3
ENDBRANCH   1   2
BRANCH   1  25
ATOM     25  O   UNL A   1      37.843  21.293  24.969  1.00  0.00    -0.374 OA
BRANCH  25  26
ATOM     26  C   UNL A   1      38.001  19.870  24.935  1.00  0.00     0.202 C 
BRANCH  26  27
ATOM     27  C   UNL A   1      39.313  19.320  25.501  1.00  0.00     0.261 C 
BRANCH  27  28
ATOM     28  O   UNL A   1      39.630  19.970  26.748  1.00  0.00    -0.460 OA
BRANCH  28  29
ATOM     29  C   UNL A   1      40.943  20.176  26.973  1.00  0.00     0.338 C 
ATOM     30  O   UNL A   1      41.866  19.395  26.790  1.00  0.00    -0.246 OA
BRANCH  29  31
ATOM     31  C   UNL A   1      41.153  21.592  27.315  1.00  0.00     0.060 A 
ATOM     32  C   UNL A   1      40.571  22.562  26.491  1.00  0.00     0.016 A 
ATOM     33  C   UNL A   1      41.983  21.961  28.374  1.00  0.00     0.016 A 
ATOM     34  C   UNL A   1      40.848  23.912  26.704  1.00  0.00     0.010 A 
ATOM     35  C   UNL A   1      42.268  23.316  28.579  1.00  0.00     0.010 A 
ATOM     36  C   UNL A   1      41.723  24.296  27.729  1.00  0.00    -0.014 A 
BRANCH  36  37
ATOM     37  C   UNL A   1      42.149  25.713  27.850  1.00  0.00     0.031 A 
ATOM     38  C   UNL A   1      43.479  26.136  27.292  1.00  0.00     0.074 A 
ATOM     39  C   UNL A   1      41.347  26.619  28.437  1.00  0.00     0.049 A 
ATOM     40  N   UNL A   1      44.069  27.304  27.350  1.00  0.00    -0.248 NA
ATOM     41  C   UNL A   1      44.246  25.109  26.568  1.00  0.00     0.031 C 
ATOM     42  C   UNL A   1      40.014  26.346  28.969  1.00  0.00     0.029 A 
ATOM     43  N   UNL A   1      41.546  27.954  28.690  1.00  0.00    -0.354 N 
ATOM     44  C   UNL A   1      45.268  27.156  26.665  1.00  0.00     0.074 A 
ATOM     45  C   UNL A   1      45.337  25.780  26.222  1.00  0.00     0.031 C 
ATOM     46  C   UNL A   1      39.520  27.477  29.504  1.00  0.00     0.029 A 
ATOM     47  C   UNL A   1      40.516  28.540  29.384  1.00  0.00     0.049 A 
ATOM     48  H   UNL A   1      42.350  28.444  28.402  1.00  0.00     0.167 HD
ATOM     49  C   UNL A   1      46.221  28.087  26.421  1.00  0.00     0.037 A 
ATOM     50  C   UNL A   1      40.406  29.783  29.891  1.00  0.00     0.037 A 
ATOM     51  C   UNL A   1      46.161  29.454  26.866  1.00  0.00     0.049 A 
ATOM     52  C   UNL A   1      41.533  30.765  29.704  1.00  0.00     0.074 A 
ATOM     53  C   UNL A   1      47.076  30.472  26.657  1.00  0.00     0.029 A 
ATOM     54  N   UNL A   1      45.129  29.993  27.620  1.00  0.00    -0.354 N 
ATOM     55  N   UNL A   1      42.657  30.621  29.047  1.00  0.00    -0.248 NA
ATOM     56  C   UNL A   1      41.378  32.083  30.341  1.00  0.00     0.031 C 
ATOM     57  C   UNL A   1      46.618  31.616  27.320  1.00  0.00     0.029 A 
ATOM     58  C   UNL A   1      45.400  31.321  27.910  1.00  0.00     0.049 A 
ATOM     59  H   UNL A   1      44.323  29.505  27.906  1.00  0.00     0.167 HD
ATOM     60  C   UNL A   1      43.333  31.827  29.176  1.00  0.00     0.074 A 
ATOM     61  C   UNL A   1      42.487  32.700  29.961  1.00  0.00     0.031 C 
ATOM     62  C   UNL A   1      44.549  32.177  28.692  1.00  0.00     0.037 A 
BRANCH  49  63
ATOM     63  C   UNL A   1      47.426  27.662  25.640  1.00  0.00     0.064 A 
ATOM     64  C   UNL A   1      47.453  27.741  24.239  1.00  0.00     0.173 A 
ATOM     65  C   UNL A   1      48.589  27.240  26.299  1.00  0.00     0.173 A 
ATOM     66  F   UNL A   1      46.361  28.132  23.565  1.00  0.00    -0.203 F 
ATOM     67  C   UNL A   1      48.601  27.406  23.527  1.00  0.00     0.198 A 
ATOM     68  C   UNL A   1      49.742  26.924  25.585  1.00  0.00     0.198 A 
ATOM     69  F   UNL A   1      48.614  27.154  27.638  1.00  0.00    -0.203 F 
ATOM     70  F   UNL A   1      48.599  27.469  22.188  1.00  0.00    -0.200 F 
ATOM     71  C   UNL A   1      49.746  27.005  24.199  1.00  0.00     0.200 A 
ATOM     72  F   UNL A   1      50.850  26.548  26.236  1.00  0.00    -0.200 F 
ATOM     73  F   UNL A   1      50.855  26.697  23.512  1.00  0.00    -0.200 F 
ENDBRANCH  49  63
BRANCH  50  74
ATOM     74  C   UNL A   1      39.201  30.165  30.673  1.00  0.00     0.064 A 
ATOM     75  C   UNL A   1      38.122  30.821  30.065  1.00  0.00     0.173 A 
ATOM     76  C   UNL A   1      39.125  29.919  32.051  1.00  0.00     0.173 A 
ATOM     77  F   UNL A   1      38.163  31.106  28.755  1.00  0.00    -0.203 F 
ATOM     78  C   UNL A   1      37.020  31.234  30.812  1.00  0.00     0.198 A 
ATOM     79  C   UNL A   1      38.012  30.310  32.791  1.00  0.00     0.198 A 
ATOM     80  F   UNL A   1      40.135  29.302  32.681  1.00  0.00    -0.203 F 
ATOM     81  F   UNL A   1      36.025  31.906  30.217  1.00  0.00    -0.200 F 
ATOM     82  C   UNL A   1      36.963  30.974  32.173  1.00  0.00     0.200 A 
ATOM     83  F   UNL A   1      37.958  30.050  34.105  1.00  0.00    -0.200 F 
ATOM     84  F   UNL A   1      35.907  31.377  32.891  1.00  0.00    -0.200 F 
ENDBRANCH  50  74
BRANCH  62  85
ATOM     85  C   UNL A   1      45.035  33.565  28.987  1.00  0.00     0.064 A 
ATOM     86  C   UNL A   1      45.847  33.832  30.098  1.00  0.00     0.173 A 
ATOM     87  C   UNL A   1      44.721  34.628  28.127  1.00  0.00     0.173 A 
ATOM     88  F   UNL A   1      46.158  32.852  30.958  1.00  0.00    -0.203 F 
ATOM     89  C   UNL A   1      46.317  35.120  30.345  1.00  0.00     0.198 A 
ATOM     90  C   UNL A   1      45.212  35.909  28.364  1.00  0.00     0.198 A 
ATOM     91  F   UNL A   1      43.951  34.422  27.048  1.00  0.00    -0.203 F 
ATOM     92  F   UNL A   1      47.063  35.361  31.433  1.00  0.00    -0.200 F 
ATOM     93  C   UNL A   1      46.005  36.155  29.477  1.00  0.00     0.200 A 
ATOM     94  F   UNL A   1      44.919  36.906  27.519  1.00  0.00    -0.200 F 
ATOM     95  F   UNL A   1      46.464  37.392  29.713  1.00  0.00    -0.200 F 
ENDBRANCH  62  85
ENDBRANCH  36  37
ENDBRANCH  29  31
ENDBRANCH  28  29
ENDBRANCH  27  28
ENDBRANCH  26  27
ENDBRANCH  25  26
ENDBRANCH   1  25
TORSDOF 18
ENDMDL
MODEL 3
REMARK VINA RESULT:     -11.1      4.534      7.843
REMARK SMILES CCOC(=O)C1=NN(c2ccc(C)cc2Cl)[C@@](C)(C(=O)OCCOCCOC(=O)c2ccc(-c3c4nc(c(-c5c(F)c(F)c(F)c(F)c5F)c5ccc([nH]5)c(-c5c(F)c(F)c(F)c(F)c5F)c5nc(c(-c6c(F)c(F)c(F)c(F)c6F)c6ccc3[nH]6)C=C5)C=C4)cc2)C1
REMARK SMILES IDX 23 1 22 2 21 3 19 4 20 5 17 6 6 7 7 8 93 9 8 10 18 11 4 12
REMARK SMILES IDX 5 13 3 14 2 15 1 16 9 17 10 18 15 19 11 20 14 21 16 22 12 23
REMARK SMILES IDX 13 24 24 25 25 26 26 27 27 28 28 29 29 30 30 31 31 32 92 33
REMARK SMILES IDX 32 34 91 35 33 36 34 37 35 38 85 39 36 40 90 41 84 42 86 43
REMARK SMILES IDX 37 44 89 45 83 46 82 47 38 49 70 50 50 51 69 52 51 53 54 54
REMARK SMILES IDX 68 55 87 56 52 57 53 58 67 60 88 61 55 62 39 63 40 64 48 65
REMARK SMILES IDX 41 66 42 67 46 68 49 69 43 70 44 71 47 72 45 73 71 74 72 75
REMARK SMILES IDX 80 76 73 77 74 78 78 79 81 80 75 81 76 82 79 83 77 84 56 85
REMARK SMILES IDX 57 86 65 87 58 88 59 89 63 90 66 91 60 92 61 93 64 94 62 95
REMARK H PARENT 86 48 54 59
REMARK Flexibility Score: inf
ROOT
ATOM      1  C   UNL A   1      37.645  22.401  25.296  1.00  0.00     0.202 C 
ENDROOT
BRANCH   1   2
ATOM      2  C   UNL A   1      36.838  23.410  26.125  1.00  0.00     0.261 C 
BRANCH   2   3
ATOM      3  O   UNL A   1      35.459  23.544  25.740  1.00  0.00    -0.461 OA
BRANCH   3   4
ATOM      4  C   UNL A   1      34.731  22.398  25.824  1.00  0.00     0.334 C 
ATOM      5  O   UNL A   1      34.721  21.673  26.820  1.00  0.00    -0.249 OA
BRANCH   4   6
ATOM      6  C   UNL A   1      33.943  22.014  24.559  1.00  0.00     0.163 C 
ATOM      7  C   UNL A   1      32.785  20.043  24.859  1.00  0.00     0.149 C 
ATOM      8  N   UNL A   1      31.862  20.947  24.940  1.00  0.00    -0.169 NA
ATOM      9  C   UNL A   1      34.113  20.490  24.375  1.00  0.00     0.108 C 
ATOM     10  N   UNL A   1      32.456  22.152  24.649  1.00  0.00    -0.246 N 
ATOM     11  C   UNL A   1      34.620  22.730  23.393  1.00  0.00     0.050 C 
BRANCH   7  12
ATOM     12  C   UNL A   1      32.580  18.606  25.231  1.00  0.00     0.354 C 
ATOM     13  O   UNL A   1      32.849  18.207  26.352  1.00  0.00    -0.245 OA
BRANCH  12  14
ATOM     14  O   UNL A   1      32.139  17.901  24.176  1.00  0.00    -0.461 OA
BRANCH  14  15
ATOM     15  C   UNL A   1      33.096  17.734  23.121  1.00  0.00     0.230 C 
ATOM     16  C   UNL A   1      34.032  16.581  23.433  1.00  0.00     0.049 C 
ENDBRANCH  14  15
ENDBRANCH  12  14
ENDBRANCH   7  12
BRANCH  10  17
ATOM     17  C   UNL A   1      31.644  23.286  24.528  1.00  0.00     0.079 A 
ATOM     18  C   UNL A   1      31.093  23.652  23.285  1.00  0.00     0.030 A 
ATOM     19  C   UNL A   1      31.239  24.101  25.616  1.00  0.00     0.066 A 
ATOM     20  C   UNL A   1      30.273  24.778  23.103  1.00  0.00     0.006 A 
ATOM     21  C   UNL A   1      30.425  25.241  25.435  1.00  0.00     0.026 A 
ATOM     22  Cl  UNL A   1      31.697  23.815  27.266  1.00  0.00    -0.082 Cl
ATOM     23  C   UNL A   1      29.941  25.591  24.177  1.00  0.00    -0.049 A 
ATOM     24  C   UNL A   1      29.113  26.825  23.987  1.00  0.00     0.044 C 
ENDBRANCH  10  17
ENDBRANCH   4   6
ENDBRANCH   3   4
ENDBRANCH   2   3
ENDBRANCH   1   2
BRANCH   1  25
ATOM     25  O   UNL A   1      38.074  21.217  25.959  1.00  0.00    -0.374 OA
BRANCH  25  26
ATOM     26  C   UNL A   1      38.446  20.106  25.134  1.00  0.00     0.202 C 
BRANCH  26  27
ATOM     27  C   UNL A   1      39.422  19.101  25.752  1.00  0.00     0.261 C 
BRANCH  27  28
ATOM     28  O   UNL A   1      40.780  19.461  25.431  1.00  0.00    -0.460 OA
BRANCH  28  29
ATOM     29  C   UNL A   1      41.595  19.640  26.489  1.00  0.00     0.338 C 
ATOM     30  O   UNL A   1      42.293  18.805  27.046  1.00  0.00    -0.246 OA
BRANCH  29  31
ATOM     31  C   UNL A   1      41.676  21.077  26.793  1.00  0.00     0.060 A 
ATOM     32  C   UNL A   1      41.440  21.984  25.754  1.00  0.00     0.016 A 
ATOM     33  C   UNL A   1      42.069  21.526  28.055  1.00  0.00     0.016 A 
ATOM     34  C   UNL A   1      41.632  23.350  25.965  1.00  0.00     0.010 A 
ATOM     35  C   UNL A   1      42.269  22.896  28.262  1.00  0.00     0.010 A 
ATOM     36  C   UNL A   1      42.077  23.812  27.211  1.00  0.00    -0.014 A 
BRANCH  36  37
ATOM     37  C   UNL A   1      42.440  25.240  27.387  1.00  0.00     0.031 A 
ATOM     38  C   UNL A   1      43.772  25.731  26.893  1.00  0.00     0.074 A 
ATOM     39  C   UNL A   1      41.581  26.096  27.968  1.00  0.00     0.049 A 
ATOM     40  N   UNL A   1      44.311  26.920  27.005  1.00  0.00    -0.248 NA
ATOM     41  C   UNL A   1      44.606  24.757  26.171  1.00  0.00     0.031 C 
ATOM     42  C   UNL A   1      40.241  25.756  28.441  1.00  0.00     0.029 A 
ATOM     43  N   UNL A   1      41.716  27.430  28.265  1.00  0.00    -0.354 N 
ATOM     44  C   UNL A   1      45.540  26.839  26.363  1.00  0.00     0.074 A 
ATOM     45  C   UNL A   1      45.681  25.480  25.885  1.00  0.00     0.031 C 
ATOM     46  C   UNL A   1      39.682  26.850  28.987  1.00  0.00     0.029 A 
ATOM     47  C   UNL A   1      40.638  27.954  28.935  1.00  0.00     0.049 A 
ATOM     48  H   UNL A   1      42.509  27.960  28.022  1.00  0.00     0.167 HD
ATOM     49  C   UNL A   1      46.463  27.814  26.181  1.00  0.00     0.037 A 
ATOM     50  C   UNL A   1      40.459  29.177  29.472  1.00  0.00     0.037 A 
ATOM     51  C   UNL A   1      46.331  29.164  26.662  1.00  0.00     0.049 A 
ATOM     52  C   UNL A   1      41.551  30.208  29.355  1.00  0.00     0.074 A 
ATOM     53  C   UNL A   1      47.211  30.222  26.516  1.00  0.00     0.029 A 
ATOM     54  N   UNL A   1      45.251  29.639  27.390  1.00  0.00    -0.354 N 
ATOM     55  N   UNL A   1      42.704  30.127  28.738  1.00  0.00    -0.248 NA
ATOM     56  C   UNL A   1      41.319  31.499  30.021  1.00  0.00     0.031 C 
ATOM     57  C   UNL A   1      46.682  31.328  27.192  1.00  0.00     0.029 A 
ATOM     58  C   UNL A   1      45.457  30.968  27.726  1.00  0.00     0.049 A 
ATOM     59  H   UNL A   1      44.455  29.112  27.631  1.00  0.00     0.167 HD
ATOM     60  C   UNL A   1      43.325  31.355  28.926  1.00  0.00     0.074 A 
ATOM     61  C   UNL A   1      42.416  32.171  29.702  1.00  0.00     0.031 C 
ATOM     62  C   UNL A   1      44.543  31.766  28.499  1.00  0.00     0.037 A 
BRANCH  49  63
ATOM     63  C   UNL A   1      47.713  27.459  25.436  1.00  0.00     0.064 A 
ATOM     64  C   UNL A   1      47.804  27.623  24.046  1.00  0.00     0.173 A 
ATOM     65  C   UNL A   1      48.852  27.020  26.125  1.00  0.00     0.173 A 
ATOM     66  F   UNL A   1      46.737  28.034  23.344  1.00  0.00    -0.203 F 
ATOM     67  C   UNL A   1      48.991  27.354  23.371  1.00  0.00     0.198 A 
ATOM     68  C   UNL A   1      50.044  26.769  25.449  1.00  0.00     0.198 A 
ATOM     69  F   UNL A   1      48.816  26.853  27.455  1.00  0.00    -0.203 F 
ATOM     70  F   UNL A   1      49.052  27.498  22.040  1.00  0.00    -0.200 F 
ATOM     71  C   UNL A   1      50.112  26.934  24.073  1.00  0.00     0.200 A 
ATOM     72  F   UNL A   1      51.128  26.376  26.130  1.00  0.00    -0.200 F 
ATOM     73  F   UNL A   1      51.258  26.689  23.424  1.00  0.00    -0.200 F 
ENDBRANCH  49  63
BRANCH  50  74
ATOM     74  C   UNL A   1      39.211  29.488  30.216  1.00  0.00     0.064 A 
ATOM     75  C   UNL A   1      38.108  30.065  29.572  1.00  0.00     0.173 A 
ATOM     76  C   UNL A   1      39.114  29.254  31.596  1.00  0.00     0.173 A 
ATOM     77  F   UNL A   1      38.166  30.337  28.260  1.00  0.00    -0.203 F 
ATOM     78  C   UNL A   1      36.962  30.414  30.285  1.00  0.00     0.198 A 
ATOM     79  C   UNL A   1      37.959  29.579  32.301  1.00  0.00     0.198 A 
ATOM     80  F   UNL A   1      40.145  28.712  32.260  1.00  0.00    -0.203 F 
ATOM     81  F   UNL A   1      35.941  31.012  29.656  1.00  0.00    -0.200 F 
ATOM     82  C   UNL A   1      36.886  30.166  31.647  1.00  0.00     0.200 A 
ATOM     83  F   UNL A   1      37.887  29.332  33.617  1.00  0.00    -0.200 F 
ATOM     84  F   UNL A   1      35.787  30.507  32.332  1.00  0.00    -0.200 F 
ENDBRANCH  50  74
BRANCH  62  85
ATOM     85  C   UNL A   1      44.960  33.164  28.850  1.00  0.00     0.064 A 
ATOM     86  C   UNL A   1      44.608  34.254  28.043  1.00  0.00     0.173 A 
ATOM     87  C   UNL A   1      45.680  33.418  30.027  1.00  0.00     0.173 A 
ATOM     88  F   UNL A   1      43.935  34.058  26.900  1.00  0.00    -0.203 F 
ATOM     89  C   UNL A   1      44.975  35.551  28.395  1.00  0.00     0.198 A 
ATOM     90  C   UNL A   1      46.025  34.719  30.388  1.00  0.00     0.198 A 
ATOM     91  F   UNL A   1      46.037  32.408  30.835  1.00  0.00    -0.203 F 
ATOM     92  F   UNL A   1      44.659  36.576  27.591  1.00  0.00    -0.200 F 
ATOM     93  C   UNL A   1      45.677  35.783  29.568  1.00  0.00     0.200 A 
ATOM     94  F   UNL A   1      46.694  34.942  31.527  1.00  0.00    -0.200 F 
ATOM     95  F   UNL A   1      46.022  37.033  29.908  1.00  0.00    -0.200 F 
ENDBRANCH  62  85
ENDBRANCH  36  37
ENDBRANCH  29  31
ENDBRANCH  28  29
ENDBRANCH  27  28
ENDBRANCH  26  27
ENDBRANCH  25  26
ENDBRANCH   1  25
TORSDOF 18
ENDMDL
