MODEL 1
REMARK VINA RESULT:     -10.3      0.000      0.000
REMARK SMILES C=CCCC[C@@]1(C(=O)OCCOCCOC(=O)c2ccc(-c3c4nc(c(-c5c(F)c(F)c(F)c(F)c5F)c5ccc([nH]5)c(-c5c(F)c(F)c(F)c(F)c5F)c5nc(c(-c6c(F)c(F)c(F)c(F)c6F)c6ccc3[nH]6)C=C5)C=C4)cc2)CCCN(C(=O)OC(C)(C)C)C1
REMARK SMILES IDX 11 1 10 2 9 3 7 4 8 5 6 6 81 7 92 8 82 9 84 10 83 11 5 12
REMARK SMILES IDX 4 13 3 14 2 15 1 16 85 17 86 18 87 19 88 20 89 21 90 22
REMARK SMILES IDX 91 23 12 24 13 25 14 26 15 27 16 28 17 29 18 30 19 31 80 32
REMARK SMILES IDX 20 33 79 34 21 35 22 36 23 37 73 38 24 39 78 40 72 41 74 42
REMARK SMILES IDX 25 43 77 44 71 45 70 46 26 48 58 49 38 50 57 51 39 52 42 53
REMARK SMILES IDX 56 54 75 55 40 56 41 57 55 59 76 60 43 61 27 62 28 63 36 64
REMARK SMILES IDX 29 65 30 66 34 67 37 68 31 69 32 70 35 71 33 72 59 73 60 74
REMARK SMILES IDX 68 75 61 76 62 77 66 78 69 79 63 80 64 81 67 82 65 83 44 84
REMARK SMILES IDX 45 85 53 86 46 87 47 88 51 89 54 90 48 91 49 92 52 93 50 94
REMARK H PARENT 74 47 42 58
REMARK Flexibility Score: inf
ROOT
ATOM      1  C   UNL A   1      36.949  22.826  24.532  1.00  0.00     0.202 C 
ENDROOT
BRANCH   1   2
ATOM      2  C   UNL A   1      35.696  22.861  23.643  1.00  0.00     0.261 C 
BRANCH   2   3
ATOM      3  O   UNL A   1      34.948  24.085  23.792  1.00  0.00    -0.463 OA
BRANCH   3   4
ATOM      4  C   UNL A   1      33.857  23.969  24.595  1.00  0.00     0.313 C 
ATOM      5  O   UNL A   1      33.944  24.035  25.816  1.00  0.00    -0.252 OA
BRANCH   4   6
ATOM      6  C   UNL A   1      32.506  23.819  23.835  1.00  0.00     0.086 C 
ATOM      7  C   UNL A   1      31.354  24.291  24.784  1.00  0.00     0.022 C 
ATOM      8  C   UNL A   1      32.292  22.315  23.602  1.00  0.00     0.141 C 
ATOM      9  C   UNL A   1      31.186  23.456  26.062  1.00  0.00     0.023 C 
ATOM     10  N   UNL A   1      32.286  21.583  24.861  1.00  0.00    -0.307 N 
ATOM     11  C   UNL A   1      31.231  21.946  25.805  1.00  0.00     0.123 C 
BRANCH   6  12
ATOM     12  C   UNL A   1      32.418  24.702  22.536  1.00  0.00     0.021 C 
BRANCH  12  13
ATOM     13  C   UNL A   1      31.794  26.111  22.598  1.00  0.00     0.005 C 
BRANCH  13  14
ATOM     14  C   UNL A   1      32.736  27.328  22.594  1.00  0.00     0.027 C 
BRANCH  14  15
ATOM     15  C   UNL A   1      33.698  27.418  23.745  1.00  0.00    -0.035 C 
ATOM     16  C   UNL A   1      33.317  27.642  25.011  1.00  0.00     0.004 C 
ENDBRANCH  14  15
ENDBRANCH  13  14
ENDBRANCH  12  13
ENDBRANCH   6  12
BRANCH  10  17
ATOM     17  C   UNL A   1      33.378  20.786  25.161  1.00  0.00     0.410 C 
ATOM     18  O   UNL A   1      33.964  20.849  26.238  1.00  0.00    -0.224 OA
BRANCH  17  19
ATOM     19  O   UNL A   1      33.702  19.930  24.161  1.00  0.00    -0.444 OA
BRANCH  19  20
ATOM     20  C   UNL A   1      33.482  18.507  24.332  1.00  0.00     0.106 C 
ATOM     21  C   UNL A   1      34.809  17.738  24.359  1.00  0.00     0.056 C 
ATOM     22  C   UNL A   1      32.624  18.215  25.571  1.00  0.00     0.056 C 
ATOM     23  C   UNL A   1      32.695  18.081  23.084  1.00  0.00     0.056 C 
ENDBRANCH  19  20
ENDBRANCH  17  19
ENDBRANCH  10  17
ENDBRANCH   4   6
ENDBRANCH   3   4
ENDBRANCH   2   3
ENDBRANCH   1   2
BRANCH   1  24
ATOM     24  O   UNL A   1      37.042  21.763  25.481  1.00  0.00    -0.374 OA
BRANCH  24  25
ATOM     25  C   UNL A   1      37.362  20.472  24.962  1.00  0.00     0.202 C 
BRANCH  25  26
ATOM     26  C   UNL A   1      38.687  19.875  25.437  1.00  0.00     0.261 C 
BRANCH  26  27
ATOM     27  O   UNL A   1      39.666  20.915  25.605  1.00  0.00    -0.460 OA
BRANCH  27  28
ATOM     28  C   UNL A   1      40.407  20.809  26.729  1.00  0.00     0.338 C 
ATOM     29  O   UNL A   1      40.931  19.801  27.183  1.00  0.00    -0.246 OA
BRANCH  28  30
ATOM     30  C   UNL A   1      40.676  22.152  27.274  1.00  0.00     0.060 A 
ATOM     31  C   UNL A   1      39.947  23.217  26.728  1.00  0.00     0.016 A 
ATOM     32  C   UNL A   1      41.636  22.380  28.264  1.00  0.00     0.016 A 
ATOM     33  C   UNL A   1      40.225  24.523  27.116  1.00  0.00     0.010 A 
ATOM     34  C   UNL A   1      41.921  23.694  28.646  1.00  0.00     0.010 A 
ATOM     35  C   UNL A   1      41.249  24.769  28.039  1.00  0.00    -0.014 A 
BRANCH  35  36
ATOM     36  C   UNL A   1      41.740  26.155  28.212  1.00  0.00     0.031 A 
ATOM     37  C   UNL A   1      43.094  26.507  27.666  1.00  0.00     0.074 A 
ATOM     38  C   UNL A   1      40.976  27.089  28.802  1.00  0.00     0.049 A 
ATOM     39  N   UNL A   1      43.740  27.645  27.708  1.00  0.00    -0.248 NA
ATOM     40  C   UNL A   1      43.823  25.429  26.977  1.00  0.00     0.031 C 
ATOM     41  C   UNL A   1      39.632  26.871  29.330  1.00  0.00     0.029 A 
ATOM     42  N   UNL A   1      41.231  28.412  29.057  1.00  0.00    -0.354 N 
ATOM     43  C   UNL A   1      44.946  27.416  27.060  1.00  0.00     0.074 A 
ATOM     44  C   UNL A   1      44.960  26.027  26.658  1.00  0.00     0.031 C 
ATOM     45  C   UNL A   1      39.182  28.021  29.861  1.00  0.00     0.029 A 
ATOM     46  C   UNL A   1      40.217  29.046  29.731  1.00  0.00     0.049 A 
ATOM     47  H   UNL A   1      42.061  28.866  28.783  1.00  0.00     0.167 HD
ATOM     48  C   UNL A   1      45.949  28.292  26.814  1.00  0.00     0.037 A 
ATOM     49  C   UNL A   1      40.146  30.305  30.205  1.00  0.00     0.037 A 
ATOM     50  C   UNL A   1      45.928  29.673  27.212  1.00  0.00     0.049 A 
ATOM     51  C   UNL A   1      41.302  31.243  29.971  1.00  0.00     0.074 A 
ATOM     52  C   UNL A   1      46.884  30.650  26.994  1.00  0.00     0.029 A 
ATOM     53  N   UNL A   1      44.895  30.273  27.918  1.00  0.00    -0.354 N 
ATOM     54  N   UNL A   1      42.428  31.030  29.337  1.00  0.00    -0.248 NA
ATOM     55  C   UNL A   1      41.173  32.602  30.517  1.00  0.00     0.031 C 
ATOM     56  C   UNL A   1      46.450  31.828  27.611  1.00  0.00     0.029 A 
ATOM     57  C   UNL A   1      45.202  31.600  28.168  1.00  0.00     0.049 A 
ATOM     58  H   UNL A   1      44.067  29.822  28.201  1.00  0.00     0.167 HD
ATOM     59  C   UNL A   1      43.130  32.227  29.383  1.00  0.00     0.074 A 
ATOM     60  C   UNL A   1      42.295  33.170  30.099  1.00  0.00     0.031 C 
ATOM     61  C   UNL A   1      44.353  32.523  28.877  1.00  0.00     0.037 A 
BRANCH  48  62
ATOM     62  C   UNL A   1      47.164  27.773  26.104  1.00  0.00     0.064 A 
ATOM     63  C   UNL A   1      48.278  27.285  26.806  1.00  0.00     0.173 A 
ATOM     64  C   UNL A   1      47.204  27.738  24.702  1.00  0.00     0.173 A 
ATOM     65  F   UNL A   1      48.295  27.313  28.146  1.00  0.00    -0.203 F 
ATOM     66  C   UNL A   1      49.394  26.802  26.129  1.00  0.00     0.198 A 
ATOM     67  C   UNL A   1      48.311  27.230  24.029  1.00  0.00     0.198 A 
ATOM     68  F   UNL A   1      46.166  28.194  23.985  1.00  0.00    -0.203 F 
ATOM     69  F   UNL A   1      50.464  26.381  26.819  1.00  0.00    -0.200 F 
ATOM     70  C   UNL A   1      49.408  26.768  24.743  1.00  0.00     0.200 A 
ATOM     71  F   UNL A   1      48.319  27.189  22.690  1.00  0.00    -0.200 F 
ATOM     72  F   UNL A   1      50.481  26.296  24.092  1.00  0.00    -0.200 F 
ENDBRANCH  48  62
BRANCH  49  73
ATOM     73  C   UNL A   1      38.945  30.746  30.958  1.00  0.00     0.064 A 
ATOM     74  C   UNL A   1      38.889  30.650  32.354  1.00  0.00     0.173 A 
ATOM     75  C   UNL A   1      37.823  31.264  30.294  1.00  0.00     0.173 A 
ATOM     76  F   UNL A   1      39.926  30.136  33.033  1.00  0.00    -0.203 F 
ATOM     77  C   UNL A   1      37.750  31.039  33.058  1.00  0.00     0.198 A 
ATOM     78  C   UNL A   1      36.695  31.678  31.000  1.00  0.00     0.198 A 
ATOM     79  F   UNL A   1      37.825  31.375  28.958  1.00  0.00    -0.203 F 
ATOM     80  F   UNL A   1      37.705  30.894  34.390  1.00  0.00    -0.200 F 
ATOM     81  C   UNL A   1      36.657  31.558  32.381  1.00  0.00     0.200 A 
ATOM     82  F   UNL A   1      35.646  32.189  30.342  1.00  0.00    -0.200 F 
ATOM     83  F   UNL A   1      35.563  31.936  33.057  1.00  0.00    -0.200 F 
ENDBRANCH  49  73
BRANCH  61  84
ATOM     84  C   UNL A   1      44.850  33.928  29.052  1.00  0.00     0.064 A 
ATOM     85  C   UNL A   1      45.641  34.298  30.150  1.00  0.00     0.173 A 
ATOM     86  C   UNL A   1      44.569  34.905  28.084  1.00  0.00     0.173 A 
ATOM     87  F   UNL A   1      45.926  33.403  31.108  1.00  0.00    -0.203 F 
ATOM     88  C   UNL A   1      46.115  35.599  30.283  1.00  0.00     0.198 A 
ATOM     89  C   UNL A   1      45.068  36.197  28.207  1.00  0.00     0.198 A 
ATOM     90  F   UNL A   1      43.823  34.599  27.012  1.00  0.00    -0.203 F 
ATOM     91  F   UNL A   1      46.833  35.942  31.360  1.00  0.00    -0.200 F 
ATOM     92  C   UNL A   1      45.835  36.546  29.308  1.00  0.00     0.200 A 
ATOM     93  F   UNL A   1      44.809  37.108  27.257  1.00  0.00    -0.200 F 
ATOM     94  F   UNL A   1      46.298  37.797  29.434  1.00  0.00    -0.200 F 
ENDBRANCH  61  84
ENDBRANCH  35  36
ENDBRANCH  28  30
ENDBRANCH  27  28
ENDBRANCH  26  27
ENDBRANCH  25  26
ENDBRANCH  24  25
ENDBRANCH   1  24
TORSDOF 21
ENDMDL
MODEL 2
REMARK VINA RESULT:     -10.2      1.866      8.267
REMARK SMILES C=CCCC[C@@]1(C(=O)OCCOCCOC(=O)c2ccc(-c3c4nc(c(-c5c(F)c(F)c(F)c(F)c5F)c5ccc([nH]5)c(-c5c(F)c(F)c(F)c(F)c5F)c5nc(c(-c6c(F)c(F)c(F)c(F)c6F)c6ccc3[nH]6)C=C5)C=C4)cc2)CCCN(C(=O)OC(C)(C)C)C1
REMARK SMILES IDX 11 1 10 2 9 3 7 4 8 5 6 6 81 7 92 8 82 9 84 10 83 11 5 12
REMARK SMILES IDX 4 13 3 14 2 15 1 16 85 17 86 18 87 19 88 20 89 21 90 22
REMARK SMILES IDX 91 23 12 24 13 25 14 26 15 27 16 28 17 29 18 30 19 31 80 32
REMARK SMILES IDX 20 33 79 34 21 35 22 36 23 37 73 38 24 39 78 40 72 41 74 42
REMARK SMILES IDX 25 43 77 44 71 45 70 46 26 48 58 49 38 50 57 51 39 52 42 53
REMARK SMILES IDX 56 54 75 55 40 56 41 57 55 59 76 60 43 61 27 62 28 63 36 64
REMARK SMILES IDX 29 65 30 66 34 67 37 68 31 69 32 70 35 71 33 72 59 73 60 74
REMARK SMILES IDX 68 75 61 76 62 77 66 78 69 79 63 80 64 81 67 82 65 83 44 84
REMARK SMILES IDX 45 85 53 86 46 87 47 88 51 89 54 90 48 91 49 92 52 93 50 94
REMARK H PARENT 74 47 42 58
REMARK Flexibility Score: inf
ROOT
ATOM      1  C   UNL A   1      37.617  23.044  25.774  1.00  0.00     0.202 C 
ENDROOT
BRANCH   1   2
ATOM      2  C   UNL A   1      36.153  22.662  26.037  1.00  0.00     0.261 C 
BRANCH   2   3
ATOM      3  O   UNL A   1      35.224  23.583  25.430  1.00  0.00    -0.463 OA
BRANCH   3   4
ATOM      4  C   UNL A   1      34.865  23.248  24.163  1.00  0.00     0.313 C 
ATOM      5  O   UNL A   1      35.617  23.422  23.210  1.00  0.00    -0.252 OA
BRANCH   4   6
ATOM      6  C   UNL A   1      33.467  22.573  24.043  1.00  0.00     0.086 C 
ATOM      7  C   UNL A   1      33.057  22.556  22.532  1.00  0.00     0.022 C 
ATOM      8  C   UNL A   1      32.466  23.494  24.758  1.00  0.00     0.141 C 
ATOM      9  C   UNL A   1      32.884  23.943  21.894  1.00  0.00     0.023 C 
ATOM     10  N   UNL A   1      32.470  24.828  24.175  1.00  0.00    -0.307 N 
ATOM     11  C   UNL A   1      32.082  24.912  22.769  1.00  0.00     0.123 C 
BRANCH   6  12
ATOM     12  C   UNL A   1      33.450  21.079  24.536  1.00  0.00     0.021 C 
BRANCH  12  13
ATOM     13  C   UNL A   1      32.454  20.072  23.924  1.00  0.00     0.005 C 
BRANCH  13  14
ATOM     14  C   UNL A   1      32.670  18.573  24.198  1.00  0.00     0.027 C 
BRANCH  14  15
ATOM     15  C   UNL A   1      33.173  17.760  23.038  1.00  0.00    -0.035 C 
ATOM     16  C   UNL A   1      34.011  16.722  23.172  1.00  0.00     0.004 C 
ENDBRANCH  14  15
ENDBRANCH  13  14
ENDBRANCH  12  13
ENDBRANCH   6  12
BRANCH  10  17
ATOM     17  C   UNL A   1      33.042  25.858  24.903  1.00  0.00     0.410 C 
ATOM     18  O   UNL A   1      33.111  25.840  26.129  1.00  0.00    -0.224 OA
BRANCH  17  19
ATOM     19  O   UNL A   1      33.531  26.853  24.123  1.00  0.00    -0.444 OA
BRANCH  19  20
ATOM     20  C   UNL A   1      32.905  28.161  24.148  1.00  0.00     0.106 C 
ATOM     21  C   UNL A   1      33.095  28.895  22.814  1.00  0.00     0.056 C 
ATOM     22  C   UNL A   1      31.425  28.069  24.546  1.00  0.00     0.056 C 
ATOM     23  C   UNL A   1      33.656  28.933  25.243  1.00  0.00     0.056 C 
ENDBRANCH  19  20
ENDBRANCH  17  19
ENDBRANCH  10  17
ENDBRANCH   4   6
ENDBRANCH   3   4
ENDBRANCH   2   3
ENDBRANCH   1   2
BRANCH   1  24
ATOM     24  O   UNL A   1      38.577  21.987  25.789  1.00  0.00    -0.374 OA
BRANCH  24  25
ATOM     25  C   UNL A   1      38.179  20.757  25.183  1.00  0.00     0.202 C 
BRANCH  25  26
ATOM     26  C   UNL A   1      39.143  19.584  25.368  1.00  0.00     0.261 C 
BRANCH  26  27
ATOM     27  O   UNL A   1      40.031  19.841  26.469  1.00  0.00    -0.460 OA
BRANCH  27  28
ATOM     28  C   UNL A   1      41.324  19.536  26.228  1.00  0.00     0.338 C 
ATOM     29  O   UNL A   1      41.771  18.486  25.787  1.00  0.00    -0.246 OA
BRANCH  28  30
ATOM     30  C   UNL A   1      42.157  20.741  26.395  1.00  0.00     0.060 A 
ATOM     31  C   UNL A   1      42.348  21.206  27.703  1.00  0.00     0.016 A 
ATOM     32  C   UNL A   1      42.710  21.425  25.309  1.00  0.00     0.016 A 
ATOM     33  C   UNL A   1      43.030  22.396  27.927  1.00  0.00     0.010 A 
ATOM     34  C   UNL A   1      43.387  22.627  25.534  1.00  0.00     0.010 A 
ATOM     35  C   UNL A   1      43.507  23.138  26.838  1.00  0.00    -0.014 A 
BRANCH  35  36
ATOM     36  C   UNL A   1      43.952  24.532  27.061  1.00  0.00     0.031 A 
ATOM     37  C   UNL A   1      42.949  25.531  27.563  1.00  0.00     0.074 A 
ATOM     38  C   UNL A   1      45.232  24.888  26.863  1.00  0.00     0.049 A 
ATOM     39  N   UNL A   1      43.098  26.806  27.818  1.00  0.00    -0.248 NA
ATOM     40  C   UNL A   1      41.589  25.024  27.813  1.00  0.00     0.031 C 
ATOM     41  C   UNL A   1      46.298  23.994  26.419  1.00  0.00     0.029 A 
ATOM     42  N   UNL A   1      45.848  26.104  27.011  1.00  0.00    -0.354 N 
ATOM     43  C   UNL A   1      41.856  27.250  28.250  1.00  0.00     0.074 A 
ATOM     44  C   UNL A   1      40.954  26.121  28.196  1.00  0.00     0.031 C 
ATOM     45  C   UNL A   1      47.440  24.697  26.316  1.00  0.00     0.029 A 
ATOM     46  C   UNL A   1      47.175  26.093  26.663  1.00  0.00     0.049 A 
ATOM     47  H   UNL A   1      45.383  26.910  27.335  1.00  0.00     0.167 HD
ATOM     48  C   UNL A   1      41.502  28.490  28.662  1.00  0.00     0.037 A 
ATOM     49  C   UNL A   1      48.067  27.102  26.613  1.00  0.00     0.037 A 
ATOM     50  C   UNL A   1      42.403  29.609  28.718  1.00  0.00     0.049 A 
ATOM     51  C   UNL A   1      47.632  28.486  27.020  1.00  0.00     0.074 A 
ATOM     52  C   UNL A   1      42.151  30.902  29.141  1.00  0.00     0.029 A 
ATOM     53  N   UNL A   1      43.736  29.565  28.331  1.00  0.00    -0.354 N 
ATOM     54  N   UNL A   1      46.464  28.895  27.451  1.00  0.00    -0.248 NA
ATOM     55  C   UNL A   1      48.644  29.549  26.939  1.00  0.00     0.031 C 
ATOM     56  C   UNL A   1      43.318  31.653  28.964  1.00  0.00     0.029 A 
ATOM     57  C   UNL A   1      44.311  30.816  28.480  1.00  0.00     0.049 A 
ATOM     58  H   UNL A   1      44.202  28.765  27.999  1.00  0.00     0.167 HD
ATOM     59  C   UNL A   1      46.604  30.251  27.716  1.00  0.00     0.074 A 
ATOM     60  C   UNL A   1      47.978  30.593  27.408  1.00  0.00     0.031 C 
ATOM     61  C   UNL A   1      45.682  31.134  28.174  1.00  0.00     0.037 A 
BRANCH  48  62
ATOM     62  C   UNL A   1      40.072  28.706  29.061  1.00  0.00     0.064 A 
ATOM     63  C   UNL A   1      39.095  29.087  28.129  1.00  0.00     0.173 A 
ATOM     64  C   UNL A   1      39.670  28.505  30.390  1.00  0.00     0.173 A 
ATOM     65  F   UNL A   1      39.433  29.308  26.850  1.00  0.00    -0.203 F 
ATOM     66  C   UNL A   1      37.771  29.277  28.517  1.00  0.00     0.198 A 
ATOM     67  C   UNL A   1      38.341  28.670  30.769  1.00  0.00     0.198 A 
ATOM     68  F   UNL A   1      40.565  28.141  31.320  1.00  0.00    -0.203 F 
ATOM     69  F   UNL A   1      36.863  29.682  27.618  1.00  0.00    -0.200 F 
ATOM     70  C   UNL A   1      37.394  29.062  29.834  1.00  0.00     0.200 A 
ATOM     71  F   UNL A   1      37.976  28.452  32.040  1.00  0.00    -0.200 F 
ATOM     72  F   UNL A   1      36.118  29.239  30.205  1.00  0.00    -0.200 F 
ENDBRANCH  48  62
BRANCH  49  73
ATOM     73  C   UNL A   1      49.453  26.843  26.148  1.00  0.00     0.064 A 
ATOM     74  C   UNL A   1      49.799  26.965  24.796  1.00  0.00     0.173 A 
ATOM     75  C   UNL A   1      50.459  26.457  27.046  1.00  0.00     0.173 A 
ATOM     76  F   UNL A   1      48.866  27.306  23.894  1.00  0.00    -0.203 F 
ATOM     77  C   UNL A   1      51.094  26.695  24.357  1.00  0.00     0.198 A 
ATOM     78  C   UNL A   1      51.759  26.213  26.611  1.00  0.00     0.198 A 
ATOM     79  F   UNL A   1      50.179  26.323  28.351  1.00  0.00    -0.203 F 
ATOM     80  F   UNL A   1      51.388  26.776  23.052  1.00  0.00    -0.200 F 
ATOM     81  C   UNL A   1      52.074  26.325  25.265  1.00  0.00     0.200 A 
ATOM     82  F   UNL A   1      52.705  25.866  27.495  1.00  0.00    -0.200 F 
ATOM     83  F   UNL A   1      53.321  26.069  24.844  1.00  0.00    -0.200 F 
ENDBRANCH  49  73
BRANCH  61  84
ATOM     84  C   UNL A   1      46.134  32.547  28.400  1.00  0.00     0.064 A 
ATOM     85  C   UNL A   1      46.012  33.527  27.404  1.00  0.00     0.173 A 
ATOM     86  C   UNL A   1      46.652  32.935  29.645  1.00  0.00     0.173 A 
ATOM     87  F   UNL A   1      45.535  33.203  26.193  1.00  0.00    -0.203 F 
ATOM     88  C   UNL A   1      46.412  34.839  27.640  1.00  0.00     0.198 A 
ATOM     89  C   UNL A   1      47.024  34.253  29.886  1.00  0.00     0.198 A 
ATOM     90  F   UNL A   1      46.782  32.036  30.633  1.00  0.00    -0.203 F 
ATOM     91  F   UNL A   1      46.327  35.750  26.661  1.00  0.00    -0.200 F 
ATOM     92  C   UNL A   1      46.911  35.203  28.883  1.00  0.00     0.200 A 
ATOM     93  F   UNL A   1      47.493  34.607  31.092  1.00  0.00    -0.200 F 
ATOM     94  F   UNL A   1      47.289  36.468  29.110  1.00  0.00    -0.200 F 
ENDBRANCH  61  84
ENDBRANCH  35  36
ENDBRANCH  28  30
ENDBRANCH  27  28
ENDBRANCH  26  27
ENDBRANCH  25  26
ENDBRANCH  24  25
ENDBRANCH   1  24
TORSDOF 21
ENDMDL
MODEL 3
REMARK VINA RESULT:     -10.1      4.537      7.831
REMARK SMILES C=CCCC[C@@]1(C(=O)OCCOCCOC(=O)c2ccc(-c3c4nc(c(-c5c(F)c(F)c(F)c(F)c5F)c5ccc([nH]5)c(-c5c(F)c(F)c(F)c(F)c5F)c5nc(c(-c6c(F)c(F)c(F)c(F)c6F)c6ccc3[nH]6)C=C5)C=C4)cc2)CCCN(C(=O)OC(C)(C)C)C1
REMARK SMILES IDX 11 1 10 2 9 3 7 4 8 5 6 6 81 7 92 8 82 9 84 10 83 11 5 12
REMARK SMILES IDX 4 13 3 14 2 15 1 16 85 17 86 18 87 19 88 20 89 21 90 22
REMARK SMILES IDX 91 23 12 24 13 25 14 26 15 27 16 28 17 29 18 30 19 31 80 32
REMARK SMILES IDX 20 33 79 34 21 35 22 36 23 37 73 38 24 39 78 40 72 41 74 42
REMARK SMILES IDX 25 43 77 44 71 45 70 46 26 48 58 49 38 50 57 51 39 52 42 53
REMARK SMILES IDX 56 54 75 55 40 56 41 57 55 59 76 60 43 61 27 62 28 63 36 64
REMARK SMILES IDX 29 65 30 66 34 67 37 68 31 69 32 70 35 71 33 72 59 73 60 74
REMARK SMILES IDX 68 75 61 76 62 77 66 78 69 79 63 80 64 81 67 82 65 83 44 84
REMARK SMILES IDX 45 85 53 86 46 87 47 88 51 89 54 90 48 91 49 92 52 93 50 94
REMARK H PARENT 74 47 42 58
REMARK Flexibility Score: inf
ROOT
ATOM      1  C   UNL A   1      33.000  29.334  25.960  1.00  0.00     0.202 C 
ENDROOT
BRANCH   1   2
ATOM      2  C   UNL A   1      32.843  29.213  24.437  1.00  0.00     0.261 C 
BRANCH   2   3
ATOM      3  O   UNL A   1      33.085  27.873  23.962  1.00  0.00    -0.463 OA
BRANCH   3   4
ATOM      4  C   UNL A   1      32.239  26.944  24.479  1.00  0.00     0.313 C 
ATOM      5  O   UNL A   1      32.482  26.363  25.532  1.00  0.00    -0.252 OA
BRANCH   4   6
ATOM      6  C   UNL A   1      30.926  26.739  23.667  1.00  0.00     0.086 C 
ATOM      7  C   UNL A   1      30.031  25.707  24.432  1.00  0.00     0.022 C 
ATOM      8  C   UNL A   1      31.324  26.074  22.340  1.00  0.00     0.141 C 
ATOM      9  C   UNL A   1      30.637  24.302  24.568  1.00  0.00     0.023 C 
ATOM     10  N   UNL A   1      32.016  24.814  22.570  1.00  0.00    -0.307 N 
ATOM     11  C   UNL A   1      31.250  23.782  23.264  1.00  0.00     0.123 C 
BRANCH   6  12
ATOM     12  C   UNL A   1      30.075  28.053  23.512  1.00  0.00     0.021 C 
BRANCH  12  13
ATOM     13  C   UNL A   1      28.584  27.970  23.127  1.00  0.00     0.005 C 
BRANCH  13  14
ATOM     14  C   UNL A   1      27.851  29.272  22.756  1.00  0.00     0.027 C 
BRANCH  14  15
ATOM     15  C   UNL A   1      28.303  30.509  23.479  1.00  0.00    -0.035 C 
ATOM     16  C   UNL A   1      27.653  31.680  23.418  1.00  0.00     0.004 C 
ENDBRANCH  14  15
ENDBRANCH  13  14
ENDBRANCH  12  13
ENDBRANCH   6  12
BRANCH  10  17
ATOM     17  C   UNL A   1      33.379  24.763  22.329  1.00  0.00     0.410 C 
ATOM     18  O   UNL A   1      34.030  25.755  22.013  1.00  0.00    -0.224 OA
BRANCH  17  19
ATOM     19  O   UNL A   1      33.904  23.526  22.504  1.00  0.00    -0.444 OA
BRANCH  19  20
ATOM     20  C   UNL A   1      34.806  23.277  23.612  1.00  0.00     0.106 C 
ATOM     21  C   UNL A   1      36.222  22.953  23.116  1.00  0.00     0.056 C 
ATOM     22  C   UNL A   1      34.802  24.440  24.614  1.00  0.00     0.056 C 
ATOM     23  C   UNL A   1      34.236  22.033  24.309  1.00  0.00     0.056 C 
ENDBRANCH  19  20
ENDBRANCH  17  19
ENDBRANCH  10  17
ENDBRANCH   4   6
ENDBRANCH   3   4
ENDBRANCH   2   3
ENDBRANCH   1   2
BRANCH   1  24
ATOM     24  O   UNL A   1      32.957  30.650  26.515  1.00  0.00    -0.374 OA
BRANCH  24  25
ATOM     25  C   UNL A   1      31.688  31.305  26.501  1.00  0.00     0.202 C 
BRANCH  25  26
ATOM     26  C   UNL A   1      31.697  32.777  26.917  1.00  0.00     0.261 C 
BRANCH  26  27
ATOM     27  O   UNL A   1      33.038  33.295  26.874  1.00  0.00    -0.460 OA
BRANCH  27  28
ATOM     28  C   UNL A   1      33.471  33.825  28.039  1.00  0.00     0.338 C 
ATOM     29  O   UNL A   1      32.897  34.646  28.741  1.00  0.00    -0.246 OA
BRANCH  28  30
ATOM     30  C   UNL A   1      34.693  33.126  28.477  1.00  0.00     0.060 A 
ATOM     31  C   UNL A   1      34.529  31.865  29.065  1.00  0.00     0.016 A 
ATOM     32  C   UNL A   1      35.964  33.695  28.354  1.00  0.00     0.016 A 
ATOM     33  C   UNL A   1      35.625  31.197  29.599  1.00  0.00     0.010 A 
ATOM     34  C   UNL A   1      37.064  33.027  28.900  1.00  0.00     0.010 A 
ATOM     35  C   UNL A   1      36.889  31.800  29.564  1.00  0.00    -0.014 A 
BRANCH  35  36
ATOM     36  C   UNL A   1      37.977  31.234  30.393  1.00  0.00     0.031 A 
ATOM     37  C   UNL A   1      38.894  30.219  29.772  1.00  0.00     0.074 A 
ATOM     38  C   UNL A   1      38.170  31.649  31.656  1.00  0.00     0.049 A 
ATOM     39  N   UNL A   1      39.904  29.575  30.300  1.00  0.00    -0.248 NA
ATOM     40  C   UNL A   1      38.640  29.882  28.361  1.00  0.00     0.031 C 
ATOM     41  C   UNL A   1      37.369  32.656  32.345  1.00  0.00     0.029 A 
ATOM     42  N   UNL A   1      39.104  31.265  32.583  1.00  0.00    -0.354 N 
ATOM     43  C   UNL A   1      40.397  28.758  29.292  1.00  0.00     0.074 A 
ATOM     44  C   UNL A   1      39.562  28.962  28.129  1.00  0.00     0.031 C 
ATOM     45  C   UNL A   1      37.839  32.805  33.596  1.00  0.00     0.029 A 
ATOM     46  C   UNL A   1      38.955  31.883  33.799  1.00  0.00     0.049 A 
ATOM     47  H   UNL A   1      39.814  30.609  32.395  1.00  0.00     0.167 HD
ATOM     48  C   UNL A   1      41.459  27.919  29.332  1.00  0.00     0.037 A 
ATOM     49  C   UNL A   1      39.634  31.705  34.950  1.00  0.00     0.037 A 
ATOM     50  C   UNL A   1      42.289  27.724  30.490  1.00  0.00     0.049 A 
ATOM     51  C   UNL A   1      40.774  30.720  34.985  1.00  0.00     0.074 A 
ATOM     52  C   UNL A   1      43.401  26.913  30.630  1.00  0.00     0.029 A 
ATOM     53  N   UNL A   1      42.090  28.347  31.714  1.00  0.00    -0.354 N 
ATOM     54  N   UNL A   1      41.251  29.969  34.023  1.00  0.00    -0.248 NA
ATOM     55  C   UNL A   1      41.473  30.563  36.269  1.00  0.00     0.031 C 
ATOM     56  C   UNL A   1      43.846  27.009  31.952  1.00  0.00     0.029 A 
ATOM     57  C   UNL A   1      43.043  27.918  32.622  1.00  0.00     0.049 A 
ATOM     58  H   UNL A   1      41.376  28.996  31.909  1.00  0.00     0.167 HD
ATOM     59  C   UNL A   1      42.318  29.272  34.573  1.00  0.00     0.074 A 
ATOM     60  C   UNL A   1      42.427  29.699  35.953  1.00  0.00     0.031 C 
ATOM     61  C   UNL A   1      43.137  28.361  33.990  1.00  0.00     0.037 A 
BRANCH  48  62
ATOM     62  C   UNL A   1      41.765  27.130  28.094  1.00  0.00     0.064 A 
ATOM     63  C   UNL A   1      41.172  25.882  27.848  1.00  0.00     0.173 A 
ATOM     64  C   UNL A   1      42.645  27.641  27.129  1.00  0.00     0.173 A 
ATOM     65  F   UNL A   1      40.337  25.343  28.748  1.00  0.00    -0.203 F 
ATOM     66  C   UNL A   1      41.464  25.167  26.690  1.00  0.00     0.198 A 
ATOM     67  C   UNL A   1      42.915  26.935  25.960  1.00  0.00     0.198 A 
ATOM     68  F   UNL A   1      43.240  28.828  27.317  1.00  0.00    -0.203 F 
ATOM     69  F   UNL A   1      40.919  23.958  26.495  1.00  0.00    -0.200 F 
ATOM     70  C   UNL A   1      42.330  25.696  25.744  1.00  0.00     0.200 A 
ATOM     71  F   UNL A   1      43.745  27.452  25.043  1.00  0.00    -0.200 F 
ATOM     72  F   UNL A   1      42.606  25.009  24.626  1.00  0.00    -0.200 F 
ENDBRANCH  48  62
BRANCH  49  73
ATOM     73  C   UNL A   1      39.245  32.467  36.164  1.00  0.00     0.064 A 
ATOM     74  C   UNL A   1      39.791  33.729  36.434  1.00  0.00     0.173 A 
ATOM     75  C   UNL A   1      38.327  31.943  37.085  1.00  0.00     0.173 A 
ATOM     76  F   UNL A   1      40.694  34.261  35.596  1.00  0.00    -0.203 F 
ATOM     77  C   UNL A   1      39.446  34.431  37.588  1.00  0.00     0.198 A 
ATOM     78  C   UNL A   1      37.962  32.656  38.225  1.00  0.00     0.198 A 
ATOM     79  F   UNL A   1      37.778  30.738  36.875  1.00  0.00    -0.203 F 
ATOM     80  F   UNL A   1      40.017  35.616  37.845  1.00  0.00    -0.200 F 
ATOM     81  C   UNL A   1      38.528  33.897  38.479  1.00  0.00     0.200 A 
ATOM     82  F   UNL A   1      37.067  32.140  39.078  1.00  0.00    -0.200 F 
ATOM     83  F   UNL A   1      38.193  34.573  39.587  1.00  0.00    -0.200 F 
ENDBRANCH  49  73
BRANCH  61  84
ATOM     84  C   UNL A   1      44.240  27.788  34.830  1.00  0.00     0.064 A 
ATOM     85  C   UNL A   1      45.483  28.426  34.949  1.00  0.00     0.173 A 
ATOM     86  C   UNL A   1      44.033  26.610  35.565  1.00  0.00     0.173 A 
ATOM     87  F   UNL A   1      45.734  29.548  34.257  1.00  0.00    -0.203 F 
ATOM     88  C   UNL A   1      46.486  27.895  35.754  1.00  0.00     0.198 A 
ATOM     89  C   UNL A   1      45.028  26.097  36.391  1.00  0.00     0.198 A 
ATOM     90  F   UNL A   1      42.858  25.966  35.492  1.00  0.00    -0.203 F 
ATOM     91  F   UNL A   1      47.681  28.497  35.818  1.00  0.00    -0.200 F 
ATOM     92  C   UNL A   1      46.255  26.735  36.480  1.00  0.00     0.200 A 
ATOM     93  F   UNL A   1      44.799  24.984  37.103  1.00  0.00    -0.200 F 
ATOM     94  F   UNL A   1      47.220  26.228  37.261  1.00  0.00    -0.200 F 
ENDBRANCH  61  84
ENDBRANCH  35  36
ENDBRANCH  28  30
ENDBRANCH  27  28
ENDBRANCH  26  27
ENDBRANCH  25  26
ENDBRANCH  24  25
ENDBRANCH   1  24
TORSDOF 21
ENDMDL
