MODEL 1
REMARK VINA RESULT:     -11.5      0.000      0.000
REMARK SMILES O=C(CSc1ccccc1C(=O)OCCOCCOC(=O)c1ccc(-c2c3nc(c(-c4c(F)c(F)c(F)c(F)c4F)c4ccc([nH]4)c(-c4c(F)c(F)c(F)c(F)c4F)c4nc(c(-c5c(F)c(F)c(F)c(F)c5F)c5ccc2[nH]5)C=C4)C=C3)cc1)c1ccc(Cl)cc1
REMARK SMILES IDX 15 1 14 2 13 3 11 4 12 5 10 6 5 7 6 8 7 9 9 10 8 11 4 12
REMARK SMILES IDX 3 13 2 14 1 15 85 16 86 17 91 18 87 19 90 20 88 21 89 22
REMARK SMILES IDX 16 23 17 24 18 25 19 26 20 27 21 28 22 29 23 30 84 31 24 32
REMARK SMILES IDX 83 33 25 34 26 35 27 36 77 37 28 38 82 39 76 40 78 41 29 42
REMARK SMILES IDX 81 43 75 44 74 45 30 47 62 48 42 49 61 50 43 51 46 52 60 53
REMARK SMILES IDX 79 54 44 55 45 56 59 58 80 59 47 60 31 61 32 62 40 63 33 64
REMARK SMILES IDX 34 65 38 66 41 67 35 68 36 69 39 70 37 71 63 72 64 73 72 74
REMARK SMILES IDX 65 75 66 76 70 77 73 78 67 79 68 80 71 81 69 82 48 83 49 84
REMARK SMILES IDX 57 85 50 86 51 87 55 88 58 89 52 90 53 91 56 92 54 93
REMARK H PARENT 78 46 46 57
REMARK Flexibility Score: inf
ROOT
ATOM      1  C   UNL A   1      34.086  22.899  26.750  1.00  0.00     0.202 C 
ENDROOT
BRANCH   1   2
ATOM      2  C   UNL A   1      32.755  22.605  27.452  1.00  0.00     0.261 C 
BRANCH   2   3
ATOM      3  O   UNL A   1      31.804  23.674  27.410  1.00  0.00    -0.460 OA
BRANCH   3   4
ATOM      4  C   UNL A   1      30.652  23.408  26.748  1.00  0.00     0.339 C 
ATOM      5  O   UNL A   1      29.766  22.647  27.110  1.00  0.00    -0.246 OA
BRANCH   4   6
ATOM      6  C   UNL A   1      30.504  24.270  25.553  1.00  0.00     0.073 A 
ATOM      7  C   UNL A   1      30.868  23.896  24.246  1.00  0.00     0.022 A 
ATOM      8  C   UNL A   1      30.601  24.795  23.197  1.00  0.00     0.016 A 
ATOM      9  C   UNL A   1      30.016  26.042  23.442  1.00  0.00     0.001 A 
ATOM     10  C   UNL A   1      29.916  25.528  25.790  1.00  0.00     0.017 A 
ATOM     11  C   UNL A   1      29.688  26.416  24.741  1.00  0.00     0.001 A 
BRANCH   7  12
ATOM     12  S   UNL A   1      31.799  22.425  23.834  1.00  0.00    -0.117 SA
BRANCH  12  13
ATOM     13  C   UNL A   1      32.839  22.990  22.456  1.00  0.00     0.156 C 
BRANCH  13  14
ATOM     14  C   UNL A   1      34.033  23.813  22.887  1.00  0.00     0.173 C 
ATOM     15  O   UNL A   1      35.166  23.330  22.841  1.00  0.00    -0.293 OA
BRANCH  14  16
ATOM     16  C   UNL A   1      33.877  25.244  23.314  1.00  0.00     0.018 A 
ATOM     17  C   UNL A   1      33.654  26.297  22.418  1.00  0.00     0.013 A 
ATOM     18  C   UNL A   1      33.920  25.527  24.689  1.00  0.00     0.013 A 
ATOM     19  C   UNL A   1      33.410  27.592  22.895  1.00  0.00     0.021 A 
ATOM     20  C   UNL A   1      33.686  26.822  25.164  1.00  0.00     0.021 A 
ATOM     21  C   UNL A   1      33.406  27.844  24.265  1.00  0.00     0.041 A 
ATOM     22  Cl  UNL A   1      33.020  29.418  24.838  1.00  0.00    -0.084 Cl
ENDBRANCH  14  16
ENDBRANCH  13  14
ENDBRANCH  12  13
ENDBRANCH   7  12
ENDBRANCH   4   6
ENDBRANCH   3   4
ENDBRANCH   2   3
ENDBRANCH   1   2
BRANCH   1  23
ATOM     23  O   UNL A   1      34.613  21.925  25.865  1.00  0.00    -0.374 OA
BRANCH  23  24
ATOM     24  C   UNL A   1      35.919  21.414  26.122  1.00  0.00     0.202 C 
BRANCH  24  25
ATOM     25  C   UNL A   1      36.785  20.957  24.938  1.00  0.00     0.261 C 
BRANCH  25  26
ATOM     26  O   UNL A   1      38.056  21.631  24.820  1.00  0.00    -0.460 OA
BRANCH  26  27
ATOM     27  C   UNL A   1      38.969  21.314  25.768  1.00  0.00     0.338 C 
ATOM     28  O   UNL A   1      39.441  20.212  26.007  1.00  0.00    -0.246 OA
BRANCH  27  29
ATOM     29  C   UNL A   1      39.408  22.511  26.504  1.00  0.00     0.060 A 
ATOM     30  C   UNL A   1      38.889  23.763  26.148  1.00  0.00     0.016 A 
ATOM     31  C   UNL A   1      40.475  22.414  27.396  1.00  0.00     0.016 A 
ATOM     32  C   UNL A   1      39.467  24.931  26.662  1.00  0.00     0.010 A 
ATOM     33  C   UNL A   1      41.055  23.582  27.900  1.00  0.00     0.010 A 
ATOM     34  C   UNL A   1      40.578  24.847  27.513  1.00  0.00    -0.014 A 
BRANCH  34  35
ATOM     35  C   UNL A   1      41.347  26.054  27.911  1.00  0.00     0.031 A 
ATOM     36  C   UNL A   1      40.639  27.173  28.625  1.00  0.00     0.074 A 
ATOM     37  C   UNL A   1      42.644  26.189  27.581  1.00  0.00     0.049 A 
ATOM     38  N   UNL A   1      41.050  28.388  28.886  1.00  0.00    -0.248 NA
ATOM     39  C   UNL A   1      39.278  26.881  29.103  1.00  0.00     0.031 C 
ATOM     40  C   UNL A   1      43.462  25.165  26.937  1.00  0.00     0.029 A 
ATOM     41  N   UNL A   1      43.489  27.265  27.712  1.00  0.00    -0.354 N 
ATOM     42  C   UNL A   1      39.995  29.013  29.539  1.00  0.00     0.074 A 
ATOM     43  C   UNL A   1      38.919  28.047  29.622  1.00  0.00     0.031 C 
ATOM     44  C   UNL A   1      44.684  25.672  26.699  1.00  0.00     0.029 A 
ATOM     45  C   UNL A   1      44.716  27.069  27.129  1.00  0.00     0.049 A 
ATOM     46  H   UNL A   1      43.237  28.094  28.179  1.00  0.00     0.167 HD
ATOM     47  C   UNL A   1      39.929  30.277  30.021  1.00  0.00     0.037 A 
ATOM     48  C   UNL A   1      45.732  27.932  26.927  1.00  0.00     0.037 A 
ATOM     49  C   UNL A   1      40.998  31.238  29.936  1.00  0.00     0.049 A 
ATOM     50  C   UNL A   1      45.605  29.362  27.395  1.00  0.00     0.074 A 
ATOM     51  C   UNL A   1      41.028  32.541  30.405  1.00  0.00     0.029 A 
ATOM     52  N   UNL A   1      42.224  31.002  29.335  1.00  0.00    -0.354 N 
ATOM     53  N   UNL A   1      44.609  29.944  28.016  1.00  0.00    -0.248 NA
ATOM     54  C   UNL A   1      46.744  30.254  27.131  1.00  0.00     0.031 C 
ATOM     55  C   UNL A   1      42.252  33.109  30.040  1.00  0.00     0.029 A 
ATOM     56  C   UNL A   1      43.010  32.142  29.400  1.00  0.00     0.049 A 
ATOM     57  H   UNL A   1      42.497  30.151  28.922  1.00  0.00     0.167 HD
ATOM     58  C   UNL A   1      45.017  31.252  28.256  1.00  0.00     0.074 A 
ATOM     59  C   UNL A   1      46.351  31.380  27.709  1.00  0.00     0.031 C 
ATOM     60  C   UNL A   1      44.349  32.250  28.883  1.00  0.00     0.037 A 
BRANCH  47  61
ATOM     61  C   UNL A   1      38.641  30.713  30.659  1.00  0.00     0.064 A 
ATOM     62  C   UNL A   1      38.475  30.732  32.051  1.00  0.00     0.173 A 
ATOM     63  C   UNL A   1      37.574  31.163  29.865  1.00  0.00     0.173 A 
ATOM     64  F   UNL A   1      39.461  30.305  32.855  1.00  0.00    -0.203 F 
ATOM     65  C   UNL A   1      37.280  31.160  32.624  1.00  0.00     0.198 A 
ATOM     66  C   UNL A   1      36.392  31.619  30.442  1.00  0.00     0.198 A 
ATOM     67  F   UNL A   1      37.684  31.173  28.528  1.00  0.00    -0.203 F 
ATOM     68  F   UNL A   1      37.128  31.129  33.955  1.00  0.00    -0.200 F 
ATOM     69  C   UNL A   1      36.243  31.610  31.820  1.00  0.00     0.200 A 
ATOM     70  F   UNL A   1      35.398  32.068  29.664  1.00  0.00    -0.200 F 
ATOM     71  F   UNL A   1      35.097  32.030  32.374  1.00  0.00    -0.200 F 
ENDBRANCH  47  61
BRANCH  48  72
ATOM     72  C   UNL A   1      46.961  27.480  26.223  1.00  0.00     0.064 A 
ATOM     73  C   UNL A   1      47.056  27.543  24.826  1.00  0.00     0.173 A 
ATOM     74  C   UNL A   1      48.054  26.955  26.928  1.00  0.00     0.173 A 
ATOM     75  F   UNL A   1      46.027  28.012  24.106  1.00  0.00    -0.203 F 
ATOM     76  C   UNL A   1      48.189  27.080  24.160  1.00  0.00     0.198 A 
ATOM     77  C   UNL A   1      49.198  26.520  26.264  1.00  0.00     0.198 A 
ATOM     78  F   UNL A   1      48.014  26.872  28.266  1.00  0.00    -0.203 F 
ATOM     79  F   UNL A   1      48.234  27.106  22.822  1.00  0.00    -0.200 F 
ATOM     80  C   UNL A   1      49.262  26.575  24.880  1.00  0.00     0.200 A 
ATOM     81  F   UNL A   1      50.237  26.045  26.964  1.00  0.00    -0.200 F 
ATOM     82  F   UNL A   1      50.352  26.133  24.239  1.00  0.00    -0.200 F 
ENDBRANCH  48  72
BRANCH  60  83
ATOM     83  C   UNL A   1      45.064  33.556  29.088  1.00  0.00     0.064 A 
ATOM     84  C   UNL A   1      44.964  34.611  28.170  1.00  0.00     0.173 A 
ATOM     85  C   UNL A   1      45.796  33.777  30.266  1.00  0.00     0.173 A 
ATOM     86  F   UNL A   1      44.288  34.447  27.024  1.00  0.00    -0.203 F 
ATOM     87  C   UNL A   1      45.580  35.836  28.420  1.00  0.00     0.198 A 
ATOM     88  C   UNL A   1      46.385  35.011  30.524  1.00  0.00     0.198 A 
ATOM     89  F   UNL A   1      45.917  32.802  31.180  1.00  0.00    -0.203 F 
ATOM     90  F   UNL A   1      45.498  36.822  27.514  1.00  0.00    -0.200 F 
ATOM     91  C   UNL A   1      46.280  36.039  29.600  1.00  0.00     0.200 A 
ATOM     92  F   UNL A   1      47.048  35.209  31.673  1.00  0.00    -0.200 F 
ATOM     93  F   UNL A   1      46.854  37.224  29.846  1.00  0.00    -0.200 F 
ENDBRANCH  60  83
ENDBRANCH  34  35
ENDBRANCH  27  29
ENDBRANCH  26  27
ENDBRANCH  25  26
ENDBRANCH  24  25
ENDBRANCH  23  24
ENDBRANCH   1  23
TORSDOF 18
ENDMDL
MODEL 2
REMARK VINA RESULT:     -11.2      4.446      8.432
REMARK SMILES O=C(CSc1ccccc1C(=O)OCCOCCOC(=O)c1ccc(-c2c3nc(c(-c4c(F)c(F)c(F)c(F)c4F)c4ccc([nH]4)c(-c4c(F)c(F)c(F)c(F)c4F)c4nc(c(-c5c(F)c(F)c(F)c(F)c5F)c5ccc2[nH]5)C=C4)C=C3)cc1)c1ccc(Cl)cc1
REMARK SMILES IDX 15 1 14 2 13 3 11 4 12 5 10 6 5 7 6 8 7 9 9 10 8 11 4 12
REMARK SMILES IDX 3 13 2 14 1 15 85 16 86 17 91 18 87 19 90 20 88 21 89 22
REMARK SMILES IDX 16 23 17 24 18 25 19 26 20 27 21 28 22 29 23 30 84 31 24 32
REMARK SMILES IDX 83 33 25 34 26 35 27 36 77 37 28 38 82 39 76 40 78 41 29 42
REMARK SMILES IDX 81 43 75 44 74 45 30 47 62 48 42 49 61 50 43 51 46 52 60 53
REMARK SMILES IDX 79 54 44 55 45 56 59 58 80 59 47 60 31 61 32 62 40 63 33 64
REMARK SMILES IDX 34 65 38 66 41 67 35 68 36 69 39 70 37 71 63 72 64 73 72 74
REMARK SMILES IDX 65 75 66 76 70 77 73 78 67 79 68 80 71 81 69 82 48 83 49 84
REMARK SMILES IDX 57 85 50 86 51 87 55 88 58 89 52 90 53 91 56 92 54 93
REMARK H PARENT 78 46 46 57
REMARK Flexibility Score: inf
ROOT
ATOM      1  C   UNL A   1      38.680  20.723  25.433  1.00  0.00     0.202 C 
ENDROOT
BRANCH   1   2
ATOM      2  C   UNL A   1      37.435  21.464  24.934  1.00  0.00     0.261 C 
BRANCH   2   3
ATOM      3  O   UNL A   1      36.445  21.722  25.937  1.00  0.00    -0.460 OA
BRANCH   3   4
ATOM      4  C   UNL A   1      35.893  22.960  25.911  1.00  0.00     0.339 C 
ATOM      5  O   UNL A   1      36.488  24.016  25.752  1.00  0.00    -0.246 OA
BRANCH   4   6
ATOM      6  C   UNL A   1      34.415  22.893  25.963  1.00  0.00     0.073 A 
ATOM      7  C   UNL A   1      33.579  22.744  24.842  1.00  0.00     0.022 A 
ATOM      8  C   UNL A   1      32.194  22.623  25.054  1.00  0.00     0.016 A 
ATOM      9  C   UNL A   1      31.650  22.681  26.342  1.00  0.00     0.001 A 
ATOM     10  C   UNL A   1      33.858  22.951  27.256  1.00  0.00     0.017 A 
ATOM     11  C   UNL A   1      32.480  22.861  27.443  1.00  0.00     0.001 A 
BRANCH   7  12
ATOM     12  S   UNL A   1      34.130  22.858  23.143  1.00  0.00    -0.117 SA
BRANCH  12  13
ATOM     13  C   UNL A   1      34.405  24.641  22.937  1.00  0.00     0.156 C 
BRANCH  13  14
ATOM     14  C   UNL A   1      33.133  25.459  22.908  1.00  0.00     0.173 C 
ATOM     15  O   UNL A   1      32.416  25.449  21.906  1.00  0.00    -0.293 OA
BRANCH  14  16
ATOM     16  C   UNL A   1      32.684  26.241  24.108  1.00  0.00     0.018 A 
ATOM     17  C   UNL A   1      31.396  26.774  24.243  1.00  0.00     0.013 A 
ATOM     18  C   UNL A   1      33.596  26.407  25.162  1.00  0.00     0.013 A 
ATOM     19  C   UNL A   1      31.013  27.400  25.438  1.00  0.00     0.021 A 
ATOM     20  C   UNL A   1      33.216  27.040  26.350  1.00  0.00     0.021 A 
ATOM     21  C   UNL A   1      31.915  27.511  26.492  1.00  0.00     0.041 A 
ATOM     22  Cl  UNL A   1      31.404  28.202  27.980  1.00  0.00    -0.084 Cl
ENDBRANCH  14  16
ENDBRANCH  13  14
ENDBRANCH  12  13
ENDBRANCH   7  12
ENDBRANCH   4   6
ENDBRANCH   3   4
ENDBRANCH   2   3
ENDBRANCH   1   2
BRANCH   1  23
ATOM     23  O   UNL A   1      39.553  21.393  26.327  1.00  0.00    -0.374 OA
BRANCH  23  24
ATOM     24  C   UNL A   1      40.728  20.712  26.761  1.00  0.00     0.202 C 
BRANCH  24  25
ATOM     25  C   UNL A   1      42.059  20.999  26.048  1.00  0.00     0.261 C 
BRANCH  25  26
ATOM     26  O   UNL A   1      42.762  22.167  26.520  1.00  0.00    -0.460 OA
BRANCH  26  27
ATOM     27  C   UNL A   1      42.742  23.232  25.684  1.00  0.00     0.338 C 
ATOM     28  O   UNL A   1      43.055  23.255  24.502  1.00  0.00    -0.246 OA
BRANCH  27  29
ATOM     29  C   UNL A   1      42.229  24.432  26.364  1.00  0.00     0.060 A 
ATOM     30  C   UNL A   1      42.978  25.615  26.324  1.00  0.00     0.016 A 
ATOM     31  C   UNL A   1      41.120  24.323  27.204  1.00  0.00     0.016 A 
ATOM     32  C   UNL A   1      42.636  26.687  27.159  1.00  0.00     0.010 A 
ATOM     33  C   UNL A   1      40.787  25.391  28.041  1.00  0.00     0.010 A 
ATOM     34  C   UNL A   1      41.559  26.567  28.049  1.00  0.00    -0.014 A 
BRANCH  34  35
ATOM     35  C   UNL A   1      41.293  27.591  29.092  1.00  0.00     0.031 A 
ATOM     36  C   UNL A   1      42.083  27.558  30.372  1.00  0.00     0.074 A 
ATOM     37  C   UNL A   1      40.312  28.498  28.937  1.00  0.00     0.049 A 
ATOM     38  N   UNL A   1      41.890  28.212  31.489  1.00  0.00    -0.248 NA
ATOM     39  C   UNL A   1      43.246  26.657  30.396  1.00  0.00     0.031 C 
ATOM     40  C   UNL A   1      39.508  28.673  27.732  1.00  0.00     0.029 A 
ATOM     41  N   UNL A   1      39.804  29.420  29.821  1.00  0.00    -0.354 N 
ATOM     42  C   UNL A   1      42.891  27.790  32.354  1.00  0.00     0.074 A 
ATOM     43  C   UNL A   1      43.682  26.812  31.638  1.00  0.00     0.031 C 
ATOM     44  C   UNL A   1      38.584  29.622  27.961  1.00  0.00     0.029 A 
ATOM     45  C   UNL A   1      38.702  30.084  29.343  1.00  0.00     0.049 A 
ATOM     46  H   UNL A   1      40.194  29.586  30.710  1.00  0.00     0.167 HD
ATOM     47  C   UNL A   1      43.126  28.180  33.630  1.00  0.00     0.037 A 
ATOM     48  C   UNL A   1      37.859  30.933  29.965  1.00  0.00     0.037 A 
ATOM     49  C   UNL A   1      42.337  29.152  34.342  1.00  0.00     0.049 A 
ATOM     50  C   UNL A   1      38.089  31.289  31.414  1.00  0.00     0.074 A 
ATOM     51  C   UNL A   1      42.505  29.620  35.635  1.00  0.00     0.029 A 
ATOM     52  N   UNL A   1      41.227  29.799  33.825  1.00  0.00    -0.354 N 
ATOM     53  N   UNL A   1      39.039  30.891  32.224  1.00  0.00    -0.248 NA
ATOM     54  C   UNL A   1      37.124  32.210  32.035  1.00  0.00     0.031 C 
ATOM     55  C   UNL A   1      41.464  30.509  35.917  1.00  0.00     0.029 A 
ATOM     56  C   UNL A   1      40.685  30.645  34.780  1.00  0.00     0.049 A 
ATOM     57  H   UNL A   1      40.875  29.677  32.914  1.00  0.00     0.167 HD
ATOM     58  C   UNL A   1      38.814  31.546  33.430  1.00  0.00     0.074 A 
ATOM     59  C   UNL A   1      37.635  32.363  33.249  1.00  0.00     0.031 C 
ATOM     60  C   UNL A   1      39.530  31.481  34.579  1.00  0.00     0.037 A 
BRANCH  47  61
ATOM     61  C   UNL A   1      44.267  27.531  34.358  1.00  0.00     0.064 A 
ATOM     62  C   UNL A   1      44.106  26.328  35.062  1.00  0.00     0.173 A 
ATOM     63  C   UNL A   1      45.551  28.095  34.311  1.00  0.00     0.173 A 
ATOM     64  F   UNL A   1      42.898  25.751  35.146  1.00  0.00    -0.203 F 
ATOM     65  C   UNL A   1      45.183  25.730  35.713  1.00  0.00     0.198 A 
ATOM     66  C   UNL A   1      46.631  27.479  34.937  1.00  0.00     0.198 A 
ATOM     67  F   UNL A   1      45.762  29.240  33.644  1.00  0.00    -0.203 F 
ATOM     68  F   UNL A   1      44.996  24.605  36.416  1.00  0.00    -0.200 F 
ATOM     69  C   UNL A   1      46.445  26.301  35.643  1.00  0.00     0.200 A 
ATOM     70  F   UNL A   1      47.853  28.025  34.855  1.00  0.00    -0.200 F 
ATOM     71  F   UNL A   1      47.481  25.720  36.263  1.00  0.00    -0.200 F 
ENDBRANCH  47  61
BRANCH  48  72
ATOM     72  C   UNL A   1      36.697  31.496  29.229  1.00  0.00     0.064 A 
ATOM     73  C   UNL A   1      36.657  32.850  28.869  1.00  0.00     0.173 A 
ATOM     74  C   UNL A   1      35.594  30.699  28.889  1.00  0.00     0.173 A 
ATOM     75  F   UNL A   1      37.676  33.659  29.196  1.00  0.00    -0.203 F 
ATOM     76  C   UNL A   1      35.551  33.391  28.217  1.00  0.00     0.198 A 
ATOM     77  C   UNL A   1      34.501  31.233  28.210  1.00  0.00     0.198 A 
ATOM     78  F   UNL A   1      35.581  29.397  29.209  1.00  0.00    -0.203 F 
ATOM     79  F   UNL A   1      35.519  34.698  27.930  1.00  0.00    -0.200 F 
ATOM     80  C   UNL A   1      34.477  32.580  27.881  1.00  0.00     0.200 A 
ATOM     81  F   UNL A   1      33.471  30.443  27.877  1.00  0.00    -0.200 F 
ATOM     82  F   UNL A   1      33.415  33.099  27.251  1.00  0.00    -0.200 F 
ENDBRANCH  48  72
BRANCH  60  83
ATOM     83  C   UNL A   1      39.116  32.369  35.719  1.00  0.00     0.064 A 
ATOM     84  C   UNL A   1      38.296  31.910  36.759  1.00  0.00     0.173 A 
ATOM     85  C   UNL A   1      39.617  33.678  35.806  1.00  0.00     0.173 A 
ATOM     86  F   UNL A   1      37.780  30.673  36.718  1.00  0.00    -0.203 F 
ATOM     87  C   UNL A   1      37.985  32.733  37.840  1.00  0.00     0.198 A 
ATOM     88  C   UNL A   1      39.326  34.487  36.901  1.00  0.00     0.198 A 
ATOM     89  F   UNL A   1      40.411  34.163  34.839  1.00  0.00    -0.203 F 
ATOM     90  F   UNL A   1      37.173  32.285  38.809  1.00  0.00    -0.200 F 
ATOM     91  C   UNL A   1      38.508  34.015  37.915  1.00  0.00     0.200 A 
ATOM     92  F   UNL A   1      39.847  35.720  36.978  1.00  0.00    -0.200 F 
ATOM     93  F   UNL A   1      38.223  34.797  38.965  1.00  0.00    -0.200 F 
ENDBRANCH  60  83
ENDBRANCH  34  35
ENDBRANCH  27  29
ENDBRANCH  26  27
ENDBRANCH  25  26
ENDBRANCH  24  25
ENDBRANCH  23  24
ENDBRANCH   1  23
TORSDOF 18
ENDMDL
MODEL 3
REMARK VINA RESULT:     -11.1      4.437      8.486
REMARK SMILES O=C(CSc1ccccc1C(=O)OCCOCCOC(=O)c1ccc(-c2c3nc(c(-c4c(F)c(F)c(F)c(F)c4F)c4ccc([nH]4)c(-c4c(F)c(F)c(F)c(F)c4F)c4nc(c(-c5c(F)c(F)c(F)c(F)c5F)c5ccc2[nH]5)C=C4)C=C3)cc1)c1ccc(Cl)cc1
REMARK SMILES IDX 15 1 14 2 13 3 11 4 12 5 10 6 5 7 6 8 7 9 9 10 8 11 4 12
REMARK SMILES IDX 3 13 2 14 1 15 85 16 86 17 91 18 87 19 90 20 88 21 89 22
REMARK SMILES IDX 16 23 17 24 18 25 19 26 20 27 21 28 22 29 23 30 84 31 24 32
REMARK SMILES IDX 83 33 25 34 26 35 27 36 77 37 28 38 82 39 76 40 78 41 29 42
REMARK SMILES IDX 81 43 75 44 74 45 30 47 62 48 42 49 61 50 43 51 46 52 60 53
REMARK SMILES IDX 79 54 44 55 45 56 59 58 80 59 47 60 31 61 32 62 40 63 33 64
REMARK SMILES IDX 34 65 38 66 41 67 35 68 36 69 39 70 37 71 63 72 64 73 72 74
REMARK SMILES IDX 65 75 66 76 70 77 73 78 67 79 68 80 71 81 69 82 48 83 49 84
REMARK SMILES IDX 57 85 50 86 51 87 55 88 58 89 52 90 53 91 56 92 54 93
REMARK H PARENT 78 46 46 57
REMARK Flexibility Score: inf
ROOT
ATOM      1  C   UNL A   1      38.538  21.281  25.377  1.00  0.00     0.202 C 
ENDROOT
BRANCH   1   2
ATOM      2  C   UNL A   1      37.150  21.894  25.598  1.00  0.00     0.261 C 
BRANCH   2   3
ATOM      3  O   UNL A   1      36.070  20.954  25.596  1.00  0.00    -0.460 OA
BRANCH   3   4
ATOM      4  C   UNL A   1      34.876  21.432  26.022  1.00  0.00     0.339 C 
ATOM      5  O   UNL A   1      34.593  21.764  27.164  1.00  0.00    -0.246 OA
BRANCH   4   6
ATOM      6  C   UNL A   1      33.945  21.648  24.891  1.00  0.00     0.073 A 
ATOM      7  C   UNL A   1      33.834  22.847  24.163  1.00  0.00     0.022 A 
ATOM      8  C   UNL A   1      32.955  22.880  23.065  1.00  0.00     0.016 A 
ATOM      9  C   UNL A   1      32.184  21.766  22.718  1.00  0.00     0.001 A 
ATOM     10  C   UNL A   1      33.164  20.531  24.536  1.00  0.00     0.017 A 
ATOM     11  C   UNL A   1      32.276  20.595  23.464  1.00  0.00     0.001 A 
BRANCH   7  12
ATOM     12  S   UNL A   1      34.609  24.391  24.626  1.00  0.00    -0.117 SA
BRANCH  12  13
ATOM     13  C   UNL A   1      33.697  24.856  26.126  1.00  0.00     0.156 C 
BRANCH  13  14
ATOM     14  C   UNL A   1      32.195  24.760  25.985  1.00  0.00     0.173 C 
ATOM     15  O   UNL A   1      31.588  23.803  26.469  1.00  0.00    -0.293 OA
BRANCH  14  16
ATOM     16  C   UNL A   1      31.406  25.850  25.318  1.00  0.00     0.018 A 
ATOM     17  C   UNL A   1      31.779  27.199  25.344  1.00  0.00     0.013 A 
ATOM     18  C   UNL A   1      30.257  25.482  24.598  1.00  0.00     0.013 A 
ATOM     19  C   UNL A   1      31.054  28.147  24.608  1.00  0.00     0.021 A 
ATOM     20  C   UNL A   1      29.529  26.430  23.871  1.00  0.00     0.021 A 
ATOM     21  C   UNL A   1      29.947  27.756  23.860  1.00  0.00     0.041 A 
ATOM     22  Cl  UNL A   1      29.121  28.914  22.894  1.00  0.00    -0.084 Cl
ENDBRANCH  14  16
ENDBRANCH  13  14
ENDBRANCH  12  13
ENDBRANCH   7  12
ENDBRANCH   4   6
ENDBRANCH   3   4
ENDBRANCH   2   3
ENDBRANCH   1   2
BRANCH   1  23
ATOM     23  O   UNL A   1      39.579  21.623  26.276  1.00  0.00    -0.374 OA
BRANCH  23  24
ATOM     24  C   UNL A   1      40.599  20.658  26.527  1.00  0.00     0.202 C 
BRANCH  24  25
ATOM     25  C   UNL A   1      42.027  20.941  26.034  1.00  0.00     0.261 C 
BRANCH  25  26
ATOM     26  O   UNL A   1      42.640  22.120  26.594  1.00  0.00    -0.460 OA
BRANCH  26  27
ATOM     27  C   UNL A   1      42.674  23.199  25.776  1.00  0.00     0.338 C 
ATOM     28  O   UNL A   1      43.041  23.237  24.610  1.00  0.00    -0.246 OA
BRANCH  27  29
ATOM     29  C   UNL A   1      42.149  24.396  26.453  1.00  0.00     0.060 A 
ATOM     30  C   UNL A   1      42.839  25.609  26.333  1.00  0.00     0.016 A 
ATOM     31  C   UNL A   1      41.100  24.264  27.364  1.00  0.00     0.016 A 
ATOM     32  C   UNL A   1      42.500  26.690  27.156  1.00  0.00     0.010 A 
ATOM     33  C   UNL A   1      40.771  25.342  28.190  1.00  0.00     0.010 A 
ATOM     34  C   UNL A   1      41.487  26.550  28.116  1.00  0.00    -0.014 A 
BRANCH  34  35
ATOM     35  C   UNL A   1      41.238  27.593  29.144  1.00  0.00     0.031 A 
ATOM     36  C   UNL A   1      42.041  27.576  30.416  1.00  0.00     0.074 A 
ATOM     37  C   UNL A   1      40.262  28.504  28.983  1.00  0.00     0.049 A 
ATOM     38  N   UNL A   1      41.864  28.251  31.524  1.00  0.00    -0.248 NA
ATOM     39  C   UNL A   1      43.198  26.668  30.443  1.00  0.00     0.031 C 
ATOM     40  C   UNL A   1      39.446  28.665  27.784  1.00  0.00     0.029 A 
ATOM     41  N   UNL A   1      39.769  29.444  29.857  1.00  0.00    -0.354 N 
ATOM     42  C   UNL A   1      42.871  27.836  32.385  1.00  0.00     0.074 A 
ATOM     43  C   UNL A   1      43.648  26.841  31.677  1.00  0.00     0.031 C 
ATOM     44  C   UNL A   1      38.531  29.624  28.007  1.00  0.00     0.029 A 
ATOM     45  C   UNL A   1      38.667  30.108  29.379  1.00  0.00     0.049 A 
ATOM     46  H   UNL A   1      40.169  29.623  30.739  1.00  0.00     0.167 HD
ATOM     47  C   UNL A   1      43.122  28.246  33.652  1.00  0.00     0.037 A 
ATOM     48  C   UNL A   1      37.836  30.973  29.996  1.00  0.00     0.037 A 
ATOM     49  C   UNL A   1      42.347  29.235  34.356  1.00  0.00     0.049 A 
ATOM     50  C   UNL A   1      38.083  31.352  31.436  1.00  0.00     0.074 A 
ATOM     51  C   UNL A   1      42.531  29.723  35.639  1.00  0.00     0.029 A 
ATOM     52  N   UNL A   1      41.236  29.881  33.839  1.00  0.00    -0.354 N 
ATOM     53  N   UNL A   1      39.039  30.961  32.243  1.00  0.00    -0.248 NA
ATOM     54  C   UNL A   1      37.131  32.290  32.051  1.00  0.00     0.031 C 
ATOM     55  C   UNL A   1      41.500  30.624  35.917  1.00  0.00     0.029 A 
ATOM     56  C   UNL A   1      40.710  30.747  34.785  1.00  0.00     0.049 A 
ATOM     57  H   UNL A   1      40.873  29.746  32.934  1.00  0.00     0.167 HD
ATOM     58  C   UNL A   1      38.831  31.638  33.440  1.00  0.00     0.074 A 
ATOM     59  C   UNL A   1      37.655  32.460  33.257  1.00  0.00     0.031 C 
ATOM     60  C   UNL A   1      39.558  31.587  34.582  1.00  0.00     0.037 A 
BRANCH  47  61
ATOM     61  C   UNL A   1      44.266  27.601  34.379  1.00  0.00     0.064 A 
ATOM     62  C   UNL A   1      45.551  28.165  34.384  1.00  0.00     0.173 A 
ATOM     63  C   UNL A   1      44.063  26.426  35.120  1.00  0.00     0.173 A 
ATOM     64  F   UNL A   1      45.801  29.282  33.685  1.00  0.00    -0.203 F 
ATOM     65  C   UNL A   1      46.594  27.562  35.083  1.00  0.00     0.198 A 
ATOM     66  C   UNL A   1      45.101  25.844  35.842  1.00  0.00     0.198 A 
ATOM     67  F   UNL A   1      42.852  25.851  35.156  1.00  0.00    -0.203 F 
ATOM     68  F   UNL A   1      47.824  28.094  35.038  1.00  0.00    -0.200 F 
ATOM     69  C   UNL A   1      46.367  26.407  35.817  1.00  0.00     0.200 A 
ATOM     70  F   UNL A   1      44.875  24.736  36.563  1.00  0.00    -0.200 F 
ATOM     71  F   UNL A   1      47.370  25.834  36.495  1.00  0.00    -0.200 F 
ENDBRANCH  47  61
BRANCH  48  72
ATOM     72  C   UNL A   1      36.670  31.531  29.262  1.00  0.00     0.064 A 
ATOM     73  C   UNL A   1      36.636  32.880  28.880  1.00  0.00     0.173 A 
ATOM     74  C   UNL A   1      35.558  30.737  28.946  1.00  0.00     0.173 A 
ATOM     75  F   UNL A   1      37.663  33.687  29.183  1.00  0.00    -0.203 F 
ATOM     76  C   UNL A   1      35.527  33.417  28.230  1.00  0.00     0.198 A 
ATOM     77  C   UNL A   1      34.462  31.266  28.270  1.00  0.00     0.198 A 
ATOM     78  F   UNL A   1      35.540  29.440  29.289  1.00  0.00    -0.203 F 
ATOM     79  F   UNL A   1      35.500  34.719  27.921  1.00  0.00    -0.200 F 
ATOM     80  C   UNL A   1      34.443  32.608  27.919  1.00  0.00     0.200 A 
ATOM     81  F   UNL A   1      33.423  30.478  27.960  1.00  0.00    -0.200 F 
ATOM     82  F   UNL A   1      33.378  33.124  27.291  1.00  0.00    -0.200 F 
ENDBRANCH  48  72
BRANCH  60  83
ATOM     83  C   UNL A   1      39.162  32.497  35.711  1.00  0.00     0.064 A 
ATOM     84  C   UNL A   1      38.333  32.066  36.757  1.00  0.00     0.173 A 
ATOM     85  C   UNL A   1      39.688  33.796  35.782  1.00  0.00     0.173 A 
ATOM     86  F   UNL A   1      37.793  30.840  36.730  1.00  0.00    -0.203 F 
ATOM     87  C   UNL A   1      38.038  32.909  37.827  1.00  0.00     0.198 A 
ATOM     88  C   UNL A   1      39.414  34.624  36.867  1.00  0.00     0.198 A 
ATOM     89  F   UNL A   1      40.492  34.254  34.810  1.00  0.00    -0.203 F 
ATOM     90  F   UNL A   1      37.218  32.489  38.802  1.00  0.00    -0.200 F 
ATOM     91  C   UNL A   1      38.587  34.181  37.887  1.00  0.00     0.200 A 
ATOM     92  F   UNL A   1      39.959  35.847  36.930  1.00  0.00    -0.200 F 
ATOM     93  F   UNL A   1      38.317  34.981  38.927  1.00  0.00    -0.200 F 
ENDBRANCH  60  83
ENDBRANCH  34  35
ENDBRANCH  27  29
ENDBRANCH  26  27
ENDBRANCH  25  26
ENDBRANCH  24  25
ENDBRANCH  23  24
ENDBRANCH   1  23
TORSDOF 18
ENDMDL
