MODEL 1
REMARK VINA RESULT:     -11.4      0.000      0.000
REMARK SMILES C[C@@]1(CN2C[C@H](C(=O)OCCOCCOC(=O)c3ccc(-c4c5nc(c(-c6c(F)c(F)c(F)c(F)c6F)c6ccc([nH]6)c(-c6c(F)c(F)c(F)c(F)c6F)c6nc(c(-c7c(F)c(F)c(F)c(F)c7F)c7ccc4[nH]7)C=C6)C=C5)cc3)CCC2=O)CCCO1
REMARK SMILES IDX 12 1 11 2 10 3 9 4 7 5 8 6 6 7 4 8 5 9 83 10 82 11 84 12
REMARK SMILES IDX 81 13 3 14 2 15 1 16 85 17 88 18 86 19 87 20 13 21 14 22
REMARK SMILES IDX 15 23 16 24 17 25 18 26 19 27 80 28 20 29 79 30 21 31 22 32
REMARK SMILES IDX 23 33 73 34 24 35 78 36 72 37 74 38 25 39 77 40 71 41 70 42
REMARK SMILES IDX 26 44 58 45 38 46 57 47 39 48 42 49 56 50 75 51 40 52 41 53
REMARK SMILES IDX 55 55 76 56 43 57 27 58 28 59 36 60 29 61 30 62 34 63 37 64
REMARK SMILES IDX 31 65 32 66 35 67 33 68 59 69 60 70 68 71 61 72 62 73 66 74
REMARK SMILES IDX 69 75 63 76 64 77 67 78 65 79 44 80 45 81 53 82 46 83 47 84
REMARK SMILES IDX 51 85 54 86 48 87 49 88 52 89 50 90
REMARK H PARENT 74 43 42 54
REMARK Flexibility Score: inf
ROOT
ATOM      1  O   UNL A   1      32.858  29.847  25.401  1.00  0.00    -0.374 OA
ENDROOT
BRANCH   1   2
ATOM      2  C   UNL A   1      32.821  28.495  24.938  1.00  0.00     0.202 C 
BRANCH   2   3
ATOM      3  C   UNL A   1      32.894  28.335  23.419  1.00  0.00     0.261 C 
BRANCH   3   4
ATOM      4  O   UNL A   1      31.889  27.408  22.960  1.00  0.00    -0.463 OA
BRANCH   4   5
ATOM      5  C   UNL A   1      32.089  26.091  23.218  1.00  0.00     0.310 C 
ATOM      6  O   UNL A   1      33.184  25.549  23.279  1.00  0.00    -0.252 OA
BRANCH   5   7
ATOM      7  C   UNL A   1      30.785  25.320  23.359  1.00  0.00     0.119 C 
ATOM      8  N   UNL A   1      31.139  23.599  25.165  1.00  0.00    -0.339 N 
ATOM      9  C   UNL A   1      30.921  23.853  23.744  1.00  0.00     0.134 C 
ATOM     10  C   UNL A   1      30.964  24.555  26.149  1.00  0.00     0.222 C 
ATOM     11  C   UNL A   1      30.314  25.873  25.765  1.00  0.00     0.101 C 
ATOM     12  O   UNL A   1      31.315  24.371  27.316  1.00  0.00    -0.275 OA
ATOM     13  C   UNL A   1      29.839  26.002  24.327  1.00  0.00     0.027 C 
BRANCH   8  14
ATOM     14  C   UNL A   1      31.494  22.227  25.563  1.00  0.00     0.154 C 
BRANCH  14  15
ATOM     15  C   UNL A   1      33.014  21.886  25.498  1.00  0.00     0.083 C 
ATOM     16  C   UNL A   1      33.383  21.002  24.306  1.00  0.00     0.044 C 
ATOM     17  C   UNL A   1      33.470  21.212  26.808  1.00  0.00     0.039 C 
ATOM     18  O   UNL A   1      33.774  23.118  25.399  1.00  0.00    -0.373 OA
ATOM     19  C   UNL A   1      34.148  22.328  27.565  1.00  0.00     0.031 C 
ATOM     20  C   UNL A   1      34.750  23.139  26.445  1.00  0.00     0.161 C 
ENDBRANCH  14  15
ENDBRANCH   8  14
ENDBRANCH   5   7
ENDBRANCH   4   5
ENDBRANCH   3   4
ENDBRANCH   2   3
ENDBRANCH   1   2
BRANCH   1  21
ATOM     21  C   UNL A   1      31.604  30.445  25.717  1.00  0.00     0.202 C 
BRANCH  21  22
ATOM     22  C   UNL A   1      31.687  31.743  26.528  1.00  0.00     0.261 C 
BRANCH  22  23
ATOM     23  O   UNL A   1      32.611  31.636  27.626  1.00  0.00    -0.460 OA
BRANCH  23  24
ATOM     24  C   UNL A   1      33.519  32.638  27.692  1.00  0.00     0.338 C 
ATOM     25  O   UNL A   1      33.299  33.839  27.626  1.00  0.00    -0.246 OA
BRANCH  24  26
ATOM     26  C   UNL A   1      34.864  32.112  27.996  1.00  0.00     0.060 A 
ATOM     27  C   UNL A   1      34.983  30.729  28.176  1.00  0.00     0.016 A 
ATOM     28  C   UNL A   1      35.963  32.949  28.205  1.00  0.00     0.016 A 
ATOM     29  C   UNL A   1      36.181  30.184  28.630  1.00  0.00     0.010 A 
ATOM     30  C   UNL A   1      37.168  32.401  28.660  1.00  0.00     0.010 A 
ATOM     31  C   UNL A   1      37.266  31.022  28.920  1.00  0.00    -0.014 A 
BRANCH  31  32
ATOM     32  C   UNL A   1      38.429  30.463  29.654  1.00  0.00     0.031 A 
ATOM     33  C   UNL A   1      38.649  30.869  31.087  1.00  0.00     0.074 A 
ATOM     34  C   UNL A   1      39.241  29.560  29.079  1.00  0.00     0.049 A 
ATOM     35  N   UNL A   1      39.575  30.485  31.928  1.00  0.00    -0.248 NA
ATOM     36  C   UNL A   1      37.694  31.838  31.647  1.00  0.00     0.031 C 
ATOM     37  C   UNL A   1      39.116  29.066  27.710  1.00  0.00     0.029 A 
ATOM     38  N   UNL A   1      40.331  28.894  29.582  1.00  0.00    -0.354 N 
ATOM     39  C   UNL A   1      39.318  31.166  33.110  1.00  0.00     0.074 A 
ATOM     40  C   UNL A   1      38.168  32.011  32.872  1.00  0.00     0.031 C 
ATOM     41  C   UNL A   1      40.094  28.173  27.479  1.00  0.00     0.029 A 
ATOM     42  C   UNL A   1      40.926  28.052  28.676  1.00  0.00     0.049 A 
ATOM     43  H   UNL A   1      40.655  29.011  30.504  1.00  0.00     0.167 HD
ATOM     44  C   UNL A   1      39.973  31.085  34.293  1.00  0.00     0.037 A 
ATOM     45  C   UNL A   1      42.024  27.282  28.799  1.00  0.00     0.037 A 
ATOM     46  C   UNL A   1      41.110  30.239  34.537  1.00  0.00     0.049 A 
ATOM     47  C   UNL A   1      42.763  27.245  30.111  1.00  0.00     0.074 A 
ATOM     48  C   UNL A   1      41.828  30.072  35.708  1.00  0.00     0.029 A 
ATOM     49  N   UNL A   1      41.701  29.420  33.586  1.00  0.00    -0.354 N 
ATOM     50  N   UNL A   1      42.494  27.868  31.233  1.00  0.00    -0.248 NA
ATOM     51  C   UNL A   1      43.958  26.390  30.174  1.00  0.00     0.031 C 
ATOM     52  C   UNL A   1      42.879  29.185  35.455  1.00  0.00     0.029 A 
ATOM     53  C   UNL A   1      42.788  28.762  34.139  1.00  0.00     0.049 A 
ATOM     54  H   UNL A   1      41.393  29.321  32.656  1.00  0.00     0.167 HD
ATOM     55  C   UNL A   1      43.465  27.462  32.139  1.00  0.00     0.074 A 
ATOM     56  C   UNL A   1      44.324  26.529  31.441  1.00  0.00     0.031 C 
ATOM     57  C   UNL A   1      43.630  27.830  33.434  1.00  0.00     0.037 A 
BRANCH  44  58
ATOM     58  C   UNL A   1      39.482  31.952  35.415  1.00  0.00     0.064 A 
ATOM     59  C   UNL A   1      39.871  33.294  35.532  1.00  0.00     0.173 A 
ATOM     60  C   UNL A   1      38.586  31.441  36.367  1.00  0.00     0.173 A 
ATOM     61  F   UNL A   1      40.737  33.826  34.657  1.00  0.00    -0.203 F 
ATOM     62  C   UNL A   1      39.397  34.088  36.575  1.00  0.00     0.198 A 
ATOM     63  C   UNL A   1      38.096  32.244  37.392  1.00  0.00     0.198 A 
ATOM     64  F   UNL A   1      38.183  30.164  36.297  1.00  0.00    -0.203 F 
ATOM     65  F   UNL A   1      39.815  35.356  36.692  1.00  0.00    -0.200 F 
ATOM     66  C   UNL A   1      38.505  33.564  37.499  1.00  0.00     0.200 A 
ATOM     67  F   UNL A   1      37.227  31.739  38.279  1.00  0.00    -0.200 F 
ATOM     68  F   UNL A   1      38.047  34.331  38.498  1.00  0.00    -0.200 F 
ENDBRANCH  44  58
BRANCH  45  69
ATOM     69  C   UNL A   1      42.497  26.480  27.641  1.00  0.00     0.064 A 
ATOM     70  C   UNL A   1      42.006  25.188  27.405  1.00  0.00     0.173 A 
ATOM     71  C   UNL A   1      43.462  26.983  26.756  1.00  0.00     0.173 A 
ATOM     72  F   UNL A   1      41.104  24.652  28.241  1.00  0.00    -0.203 F 
ATOM     73  C   UNL A   1      42.474  24.424  26.338  1.00  0.00     0.198 A 
ATOM     74  C   UNL A   1      43.910  26.229  25.675  1.00  0.00     0.198 A 
ATOM     75  F   UNL A   1      43.968  28.212  26.942  1.00  0.00    -0.203 F 
ATOM     76  F   UNL A   1      42.023  23.176  26.162  1.00  0.00    -0.200 F 
ATOM     77  C   UNL A   1      43.421  24.948  25.470  1.00  0.00     0.200 A 
ATOM     78  F   UNL A   1      44.820  26.741  24.834  1.00  0.00    -0.200 F 
ATOM     79  F   UNL A   1      43.870  24.213  24.444  1.00  0.00    -0.200 F 
ENDBRANCH  45  69
BRANCH  57  80
ATOM     80  C   UNL A   1      44.760  27.198  34.192  1.00  0.00     0.064 A 
ATOM     81  C   UNL A   1      46.022  27.804  34.270  1.00  0.00     0.173 A 
ATOM     82  C   UNL A   1      44.565  25.992  34.883  1.00  0.00     0.173 A 
ATOM     83  F   UNL A   1      46.263  28.950  33.617  1.00  0.00    -0.203 F 
ATOM     84  C   UNL A   1      47.056  27.211  34.991  1.00  0.00     0.198 A 
ATOM     85  C   UNL A   1      45.592  25.417  35.626  1.00  0.00     0.198 A 
ATOM     86  F   UNL A   1      43.374  25.376  34.846  1.00  0.00    -0.203 F 
ATOM     87  F   UNL A   1      48.268  27.784  35.016  1.00  0.00    -0.200 F 
ATOM     88  C   UNL A   1      46.839  26.023  35.673  1.00  0.00     0.200 A 
ATOM     89  F   UNL A   1      45.377  24.276  36.293  1.00  0.00    -0.200 F 
ATOM     90  F   UNL A   1      47.833  25.458  36.372  1.00  0.00    -0.200 F 
ENDBRANCH  57  80
ENDBRANCH  31  32
ENDBRANCH  24  26
ENDBRANCH  23  24
ENDBRANCH  22  23
ENDBRANCH  21  22
ENDBRANCH   1  21
TORSDOF 16
ENDMDL
MODEL 2
REMARK VINA RESULT:     -11.2      0.712      7.389
REMARK SMILES C[C@@]1(CN2C[C@H](C(=O)OCCOCCOC(=O)c3ccc(-c4c5nc(c(-c6c(F)c(F)c(F)c(F)c6F)c6ccc([nH]6)c(-c6c(F)c(F)c(F)c(F)c6F)c6nc(c(-c7c(F)c(F)c(F)c(F)c7F)c7ccc4[nH]7)C=C6)C=C5)cc3)CCC2=O)CCCO1
REMARK SMILES IDX 12 1 11 2 10 3 9 4 7 5 8 6 6 7 4 8 5 9 83 10 82 11 84 12
REMARK SMILES IDX 81 13 3 14 2 15 1 16 85 17 88 18 86 19 87 20 13 21 14 22
REMARK SMILES IDX 15 23 16 24 17 25 18 26 19 27 80 28 20 29 79 30 21 31 22 32
REMARK SMILES IDX 23 33 73 34 24 35 78 36 72 37 74 38 25 39 77 40 71 41 70 42
REMARK SMILES IDX 26 44 58 45 38 46 57 47 39 48 42 49 56 50 75 51 40 52 41 53
REMARK SMILES IDX 55 55 76 56 43 57 27 58 28 59 36 60 29 61 30 62 34 63 37 64
REMARK SMILES IDX 31 65 32 66 35 67 33 68 59 69 60 70 68 71 61 72 62 73 66 74
REMARK SMILES IDX 69 75 63 76 64 77 67 78 65 79 44 80 45 81 53 82 46 83 47 84
REMARK SMILES IDX 51 85 54 86 48 87 49 88 52 89 50 90
REMARK H PARENT 74 43 42 54
REMARK Flexibility Score: inf
ROOT
ATOM      1  O   UNL A   1      32.578  27.952  25.907  1.00  0.00    -0.374 OA
ENDROOT
BRANCH   1   2
ATOM      2  C   UNL A   1      33.611  27.003  25.630  1.00  0.00     0.202 C 
BRANCH   2   3
ATOM      3  C   UNL A   1      33.756  26.624  24.156  1.00  0.00     0.261 C 
BRANCH   3   4
ATOM      4  O   UNL A   1      32.775  25.632  23.791  1.00  0.00    -0.463 OA
BRANCH   4   5
ATOM      5  C   UNL A   1      31.722  26.041  23.038  1.00  0.00     0.310 C 
ATOM      6  O   UNL A   1      31.725  27.023  22.307  1.00  0.00    -0.252 OA
BRANCH   5   7
ATOM      7  C   UNL A   1      30.487  25.178  23.246  1.00  0.00     0.119 C 
ATOM      8  N   UNL A   1      31.014  23.578  25.120  1.00  0.00    -0.339 N 
ATOM      9  C   UNL A   1      30.747  23.746  23.694  1.00  0.00     0.134 C 
ATOM     10  C   UNL A   1      30.784  24.563  26.062  1.00  0.00     0.222 C 
ATOM     11  C   UNL A   1      30.024  25.806  25.634  1.00  0.00     0.101 C 
ATOM     12  O   UNL A   1      31.173  24.463  27.228  1.00  0.00    -0.275 OA
ATOM     13  C   UNL A   1      29.509  25.829  24.204  1.00  0.00     0.027 C 
BRANCH   8  14
ATOM     14  C   UNL A   1      31.486  22.258  25.571  1.00  0.00     0.154 C 
BRANCH  14  15
ATOM     15  C   UNL A   1      33.022  22.022  25.451  1.00  0.00     0.083 C 
ATOM     16  C   UNL A   1      33.405  21.154  24.250  1.00  0.00     0.044 C 
ATOM     17  C   UNL A   1      33.572  21.393  26.746  1.00  0.00     0.039 C 
ATOM     18  O   UNL A   1      33.691  23.302  25.314  1.00  0.00    -0.373 OA
ATOM     19  C   UNL A   1      34.200  22.559  27.469  1.00  0.00     0.031 C 
ATOM     20  C   UNL A   1      34.702  23.399  26.321  1.00  0.00     0.161 C 
ENDBRANCH  14  15
ENDBRANCH   8  14
ENDBRANCH   5   7
ENDBRANCH   4   5
ENDBRANCH   3   4
ENDBRANCH   2   3
ENDBRANCH   1   2
BRANCH   1  21
ATOM     21  C   UNL A   1      32.534  29.105  25.072  1.00  0.00     0.202 C 
BRANCH  21  22
ATOM     22  C   UNL A   1      31.940  30.358  25.723  1.00  0.00     0.261 C 
BRANCH  22  23
ATOM     23  O   UNL A   1      32.387  30.526  27.081  1.00  0.00    -0.460 OA
BRANCH  23  24
ATOM     24  C   UNL A   1      33.138  31.632  27.290  1.00  0.00     0.338 C 
ATOM     25  O   UNL A   1      32.769  32.797  27.234  1.00  0.00    -0.246 OA
BRANCH  24  26
ATOM     26  C   UNL A   1      34.495  31.270  27.743  1.00  0.00     0.060 A 
ATOM     27  C   UNL A   1      34.731  29.924  28.042  1.00  0.00     0.016 A 
ATOM     28  C   UNL A   1      35.486  32.229  27.971  1.00  0.00     0.016 A 
ATOM     29  C   UNL A   1      35.931  29.539  28.634  1.00  0.00     0.010 A 
ATOM     30  C   UNL A   1      36.694  31.841  28.565  1.00  0.00     0.010 A 
ATOM     31  C   UNL A   1      36.901  30.503  28.942  1.00  0.00    -0.014 A 
BRANCH  31  32
ATOM     32  C   UNL A   1      38.042  30.120  29.810  1.00  0.00     0.031 A 
ATOM     33  C   UNL A   1      39.088  29.184  29.267  1.00  0.00     0.074 A 
ATOM     34  C   UNL A   1      38.183  30.646  31.039  1.00  0.00     0.049 A 
ATOM     35  N   UNL A   1      40.182  28.740  29.831  1.00  0.00    -0.248 NA
ATOM     36  C   UNL A   1      38.872  28.682  27.901  1.00  0.00     0.031 C 
ATOM     37  C   UNL A   1      37.254  31.583  31.666  1.00  0.00     0.029 A 
ATOM     38  N   UNL A   1      39.168  30.465  31.977  1.00  0.00    -0.354 N 
ATOM     39  C   UNL A   1      40.780  27.907  28.896  1.00  0.00     0.074 A 
ATOM     40  C   UNL A   1      39.914  27.881  27.736  1.00  0.00     0.031 C 
ATOM     41  C   UNL A   1      37.714  31.897  32.890  1.00  0.00     0.029 A 
ATOM     42  C   UNL A   1      38.955  31.164  33.139  1.00  0.00     0.049 A 
ATOM     43  H   UNL A   1      39.952  29.888  31.830  1.00  0.00     0.167 HD
ATOM     44  C   UNL A   1      41.952  27.234  28.987  1.00  0.00     0.037 A 
ATOM     45  C   UNL A   1      39.675  31.196  34.277  1.00  0.00     0.037 A 
ATOM     46  C   UNL A   1      42.820  27.265  30.133  1.00  0.00     0.049 A 
ATOM     47  C   UNL A   1      40.952  30.402  34.371  1.00  0.00     0.074 A 
ATOM     48  C   UNL A   1      44.039  26.634  30.313  1.00  0.00     0.029 A 
ATOM     49  N   UNL A   1      42.556  27.964  31.302  1.00  0.00    -0.354 N 
ATOM     50  N   UNL A   1      41.525  29.642  33.470  1.00  0.00    -0.248 NA
ATOM     51  C   UNL A   1      41.685  30.476  35.644  1.00  0.00     0.031 C 
ATOM     52  C   UNL A   1      44.492  26.916  31.605  1.00  0.00     0.029 A 
ATOM     53  C   UNL A   1      43.579  27.761  32.215  1.00  0.00     0.049 A 
ATOM     54  H   UNL A   1      41.760  28.521  31.460  1.00  0.00     0.167 HD
ATOM     55  C   UNL A   1      42.694  29.170  34.053  1.00  0.00     0.074 A 
ATOM     56  C   UNL A   1      42.757  29.739  35.382  1.00  0.00     0.031 C 
ATOM     57  C   UNL A   1      43.631  28.341  33.533  1.00  0.00     0.037 A 
BRANCH  44  58
ATOM     58  C   UNL A   1      42.356  26.388  27.816  1.00  0.00     0.064 A 
ATOM     59  C   UNL A   1      43.244  26.858  26.839  1.00  0.00     0.173 A 
ATOM     60  C   UNL A   1      41.872  25.076  27.689  1.00  0.00     0.173 A 
ATOM     61  F   UNL A   1      43.723  28.109  26.907  1.00  0.00    -0.203 F 
ATOM     62  C   UNL A   1      43.617  26.054  25.764  1.00  0.00     0.198 A 
ATOM     63  C   UNL A   1      42.266  24.267  26.627  1.00  0.00     0.198 A 
ATOM     64  F   UNL A   1      41.022  24.579  28.599  1.00  0.00    -0.203 F 
ATOM     65  F   UNL A   1      44.434  26.539  24.819  1.00  0.00    -0.200 F 
ATOM     66  C   UNL A   1      43.133  24.758  25.663  1.00  0.00     0.200 A 
ATOM     67  F   UNL A   1      41.806  23.012  26.536  1.00  0.00    -0.200 F 
ATOM     68  F   UNL A   1      43.497  23.985  24.631  1.00  0.00    -0.200 F 
ENDBRANCH  44  58
BRANCH  45  69
ATOM     69  C   UNL A   1      39.205  32.012  35.425  1.00  0.00     0.064 A 
ATOM     70  C   UNL A   1      39.549  33.366  35.542  1.00  0.00     0.173 A 
ATOM     71  C   UNL A   1      38.416  31.450  36.439  1.00  0.00     0.173 A 
ATOM     72  F   UNL A   1      40.327  33.942  34.614  1.00  0.00    -0.203 F 
ATOM     73  C   UNL A   1      39.134  34.122  36.637  1.00  0.00     0.198 A 
ATOM     74  C   UNL A   1      37.979  32.212  37.519  1.00  0.00     0.198 A 
ATOM     75  F   UNL A   1      38.065  30.156  36.377  1.00  0.00    -0.203 F 
ATOM     76  F   UNL A   1      39.514  35.401  36.748  1.00  0.00    -0.200 F 
ATOM     77  C   UNL A   1      38.344  33.546  37.622  1.00  0.00     0.200 A 
ATOM     78  F   UNL A   1      37.211  31.654  38.465  1.00  0.00    -0.200 F 
ATOM     79  F   UNL A   1      37.945  34.274  38.673  1.00  0.00    -0.200 F 
ENDBRANCH  45  69
BRANCH  57  80
ATOM     80  C   UNL A   1      44.823  28.024  34.388  1.00  0.00     0.064 A 
ATOM     81  C   UNL A   1      45.964  28.839  34.391  1.00  0.00     0.173 A 
ATOM     82  C   UNL A   1      44.806  26.914  35.247  1.00  0.00     0.173 A 
ATOM     83  F   UNL A   1      46.035  29.905  33.579  1.00  0.00    -0.203 F 
ATOM     84  C   UNL A   1      47.055  28.539  35.203  1.00  0.00     0.198 A 
ATOM     85  C   UNL A   1      45.887  26.633  36.078  1.00  0.00     0.198 A 
ATOM     86  F   UNL A   1      43.735  26.107  35.287  1.00  0.00    -0.203 F 
ATOM     87  F   UNL A   1      48.154  29.307  35.157  1.00  0.00    -0.200 F 
ATOM     88  C   UNL A   1      47.013  27.441  36.050  1.00  0.00     0.200 A 
ATOM     89  F   UNL A   1      45.839  25.579  36.904  1.00  0.00    -0.200 F 
ATOM     90  F   UNL A   1      48.061  27.158  36.835  1.00  0.00    -0.200 F 
ENDBRANCH  57  80
ENDBRANCH  31  32
ENDBRANCH  24  26
ENDBRANCH  23  24
ENDBRANCH  22  23
ENDBRANCH  21  22
ENDBRANCH   1  21
TORSDOF 16
ENDMDL
MODEL 3
REMARK VINA RESULT:     -11.1      0.782      7.511
REMARK SMILES C[C@@]1(CN2C[C@H](C(=O)OCCOCCOC(=O)c3ccc(-c4c5nc(c(-c6c(F)c(F)c(F)c(F)c6F)c6ccc([nH]6)c(-c6c(F)c(F)c(F)c(F)c6F)c6nc(c(-c7c(F)c(F)c(F)c(F)c7F)c7ccc4[nH]7)C=C6)C=C5)cc3)CCC2=O)CCCO1
REMARK SMILES IDX 12 1 11 2 10 3 9 4 7 5 8 6 6 7 4 8 5 9 83 10 82 11 84 12
REMARK SMILES IDX 81 13 3 14 2 15 1 16 85 17 88 18 86 19 87 20 13 21 14 22
REMARK SMILES IDX 15 23 16 24 17 25 18 26 19 27 80 28 20 29 79 30 21 31 22 32
REMARK SMILES IDX 23 33 73 34 24 35 78 36 72 37 74 38 25 39 77 40 71 41 70 42
REMARK SMILES IDX 26 44 58 45 38 46 57 47 39 48 42 49 56 50 75 51 40 52 41 53
REMARK SMILES IDX 55 55 76 56 43 57 27 58 28 59 36 60 29 61 30 62 34 63 37 64
REMARK SMILES IDX 31 65 32 66 35 67 33 68 59 69 60 70 68 71 61 72 62 73 66 74
REMARK SMILES IDX 69 75 63 76 64 77 67 78 65 79 44 80 45 81 53 82 46 83 47 84
REMARK SMILES IDX 51 85 54 86 48 87 49 88 52 89 50 90
REMARK H PARENT 74 43 42 54
REMARK Flexibility Score: inf
ROOT
ATOM      1  O   UNL A   1      32.395  28.733  25.542  1.00  0.00    -0.374 OA
ENDROOT
BRANCH   1   2
ATOM      2  C   UNL A   1      33.526  28.645  24.672  1.00  0.00     0.202 C 
BRANCH   2   3
ATOM      3  C   UNL A   1      33.185  28.567  23.183  1.00  0.00     0.261 C 
BRANCH   3   4
ATOM      4  O   UNL A   1      32.891  27.208  22.803  1.00  0.00    -0.463 OA
BRANCH   4   5
ATOM      5  C   UNL A   1      31.602  26.906  22.506  1.00  0.00     0.310 C 
ATOM      6  O   UNL A   1      30.768  27.710  22.113  1.00  0.00    -0.252 OA
BRANCH   5   7
ATOM      7  C   UNL A   1      31.266  25.447  22.781  1.00  0.00     0.119 C 
ATOM      8  N   UNL A   1      32.375  24.836  24.960  1.00  0.00    -0.339 N 
ATOM      9  C   UNL A   1      32.338  24.648  23.512  1.00  0.00     0.134 C 
ATOM     10  C   UNL A   1      31.370  25.456  25.678  1.00  0.00     0.222 C 
ATOM     11  C   UNL A   1      30.066  25.773  24.965  1.00  0.00     0.101 C 
ATOM     12  O   UNL A   1      31.497  25.755  26.867  1.00  0.00    -0.275 OA
ATOM     13  C   UNL A   1      29.951  25.310  23.522  1.00  0.00     0.027 C 
BRANCH   8  14
ATOM     14  C   UNL A   1      33.520  24.264  25.688  1.00  0.00     0.154 C 
BRANCH  14  15
ATOM     15  C   UNL A   1      33.357  22.776  26.124  1.00  0.00     0.083 C 
ATOM     16  C   UNL A   1      33.579  22.559  27.622  1.00  0.00     0.044 C 
ATOM     17  C   UNL A   1      34.313  21.873  25.320  1.00  0.00     0.039 C 
ATOM     18  O   UNL A   1      32.017  22.328  25.797  1.00  0.00    -0.373 OA
ATOM     19  C   UNL A   1      33.422  21.258  24.268  1.00  0.00     0.031 C 
ATOM     20  C   UNL A   1      32.112  21.140  25.006  1.00  0.00     0.161 C 
ENDBRANCH  14  15
ENDBRANCH   8  14
ENDBRANCH   5   7
ENDBRANCH   4   5
ENDBRANCH   3   4
ENDBRANCH   2   3
ENDBRANCH   1   2
BRANCH   1  21
ATOM     21  C   UNL A   1      31.431  29.735  25.232  1.00  0.00     0.202 C 
BRANCH  21  22
ATOM     22  C   UNL A   1      31.521  31.010  26.077  1.00  0.00     0.261 C 
BRANCH  22  23
ATOM     23  O   UNL A   1      32.442  30.868  27.174  1.00  0.00    -0.460 OA
BRANCH  23  24
ATOM     24  C   UNL A   1      33.250  31.936  27.367  1.00  0.00     0.338 C 
ATOM     25  O   UNL A   1      32.941  33.118  27.297  1.00  0.00    -0.246 OA
BRANCH  24  26
ATOM     26  C   UNL A   1      34.587  31.510  27.821  1.00  0.00     0.060 A 
ATOM     27  C   UNL A   1      34.756  30.155  28.130  1.00  0.00     0.016 A 
ATOM     28  C   UNL A   1      35.625  32.420  28.043  1.00  0.00     0.016 A 
ATOM     29  C   UNL A   1      35.935  29.716  28.724  1.00  0.00     0.010 A 
ATOM     30  C   UNL A   1      36.813  31.976  28.638  1.00  0.00     0.010 A 
ATOM     31  C   UNL A   1      36.953  30.632  29.025  1.00  0.00    -0.014 A 
BRANCH  31  32
ATOM     32  C   UNL A   1      38.074  30.199  29.895  1.00  0.00     0.031 A 
ATOM     33  C   UNL A   1      39.092  29.235  29.345  1.00  0.00     0.074 A 
ATOM     34  C   UNL A   1      38.224  30.702  31.132  1.00  0.00     0.049 A 
ATOM     35  N   UNL A   1      40.167  28.746  29.911  1.00  0.00    -0.248 NA
ATOM     36  C   UNL A   1      38.869  28.759  27.971  1.00  0.00     0.031 C 
ATOM     37  C   UNL A   1      37.324  31.661  31.766  1.00  0.00     0.029 A 
ATOM     38  N   UNL A   1      39.196  30.474  32.074  1.00  0.00    -0.354 N 
ATOM     39  C   UNL A   1      40.742  27.906  28.967  1.00  0.00     0.074 A 
ATOM     40  C   UNL A   1      39.884  27.926  27.802  1.00  0.00     0.031 C 
ATOM     41  C   UNL A   1      37.785  31.942  32.997  1.00  0.00     0.029 A 
ATOM     42  C   UNL A   1      38.998  31.164  33.244  1.00  0.00     0.049 A 
ATOM     43  H   UNL A   1      39.961  29.874  31.924  1.00  0.00     0.167 HD
ATOM     44  C   UNL A   1      41.890  27.193  29.057  1.00  0.00     0.037 A 
ATOM     45  C   UNL A   1      39.712  31.156  34.387  1.00  0.00     0.037 A 
ATOM     46  C   UNL A   1      42.750  27.178  30.210  1.00  0.00     0.049 A 
ATOM     47  C   UNL A   1      40.960  30.318  34.479  1.00  0.00     0.074 A 
ATOM     48  C   UNL A   1      43.946  26.504  30.388  1.00  0.00     0.029 A 
ATOM     49  N   UNL A   1      42.502  27.869  31.386  1.00  0.00    -0.354 N 
ATOM     50  N   UNL A   1      41.513  29.551  33.570  1.00  0.00    -0.248 NA
ATOM     51  C   UNL A   1      41.686  30.349  35.757  1.00  0.00     0.031 C 
ATOM     52  C   UNL A   1      44.399  26.752  31.687  1.00  0.00     0.029 A 
ATOM     53  C   UNL A   1      43.511  27.619  32.303  1.00  0.00     0.049 A 
ATOM     54  H   UNL A   1      41.724  28.451  31.547  1.00  0.00     0.167 HD
ATOM     55  C   UNL A   1      42.661  29.032  34.154  1.00  0.00     0.074 A 
ATOM     56  C   UNL A   1      42.734  29.580  35.492  1.00  0.00     0.031 C 
ATOM     57  C   UNL A   1      43.574  28.178  33.629  1.00  0.00     0.037 A 
BRANCH  44  58
ATOM     58  C   UNL A   1      42.273  26.349  27.877  1.00  0.00     0.064 A 
ATOM     59  C   UNL A   1      41.733  25.071  27.679  1.00  0.00     0.173 A 
ATOM     60  C   UNL A   1      43.169  26.842  26.916  1.00  0.00     0.173 A 
ATOM     61  F   UNL A   1      40.883  24.550  28.576  1.00  0.00    -0.203 F 
ATOM     62  C   UNL A   1      42.092  24.306  26.571  1.00  0.00     0.198 A 
ATOM     63  C   UNL A   1      43.507  26.084  25.797  1.00  0.00     0.198 A 
ATOM     64  F   UNL A   1      43.712  28.059  27.058  1.00  0.00    -0.203 F 
ATOM     65  F   UNL A   1      41.596  23.070  26.423  1.00  0.00    -0.200 F 
ATOM     66  C   UNL A   1      42.973  24.816  25.629  1.00  0.00     0.200 A 
ATOM     67  F   UNL A   1      44.351  26.582  24.883  1.00  0.00    -0.200 F 
ATOM     68  F   UNL A   1      43.314  24.080  24.562  1.00  0.00    -0.200 F 
ENDBRANCH  44  58
BRANCH  45  69
ATOM     69  C   UNL A   1      39.261  31.972  35.544  1.00  0.00     0.064 A 
ATOM     70  C   UNL A   1      38.413  31.436  36.523  1.00  0.00     0.173 A 
ATOM     71  C   UNL A   1      39.658  33.309  35.686  1.00  0.00     0.173 A 
ATOM     72  F   UNL A   1      37.982  30.170  36.416  1.00  0.00    -0.203 F 
ATOM     73  C   UNL A   1      37.965  32.212  37.590  1.00  0.00     0.198 A 
ATOM     74  C   UNL A   1      39.232  34.076  36.767  1.00  0.00     0.198 A 
ATOM     75  F   UNL A   1      40.465  33.871  34.772  1.00  0.00    -0.203 F 
ATOM     76  F   UNL A   1      37.119  31.690  38.487  1.00  0.00    -0.200 F 
ATOM     77  C   UNL A   1      38.380  33.530  37.715  1.00  0.00     0.200 A 
ATOM     78  F   UNL A   1      39.640  35.347  36.887  1.00  0.00    -0.200 F 
ATOM     79  F   UNL A   1      37.950  34.275  38.742  1.00  0.00    -0.200 F 
ENDBRANCH  45  69
BRANCH  57  80
ATOM     80  C   UNL A   1      44.748  27.809  34.488  1.00  0.00     0.064 A 
ATOM     81  C   UNL A   1      44.728  26.674  35.311  1.00  0.00     0.173 A 
ATOM     82  C   UNL A   1      45.922  28.577  34.454  1.00  0.00     0.173 A 
ATOM     83  F   UNL A   1      43.625  25.914  35.389  1.00  0.00    -0.203 F 
ATOM     84  C   UNL A   1      45.832  26.337  36.091  1.00  0.00     0.198 A 
ATOM     85  C   UNL A   1      47.033  28.222  35.212  1.00  0.00     0.198 A 
ATOM     86  F   UNL A   1      45.994  29.668  33.677  1.00  0.00    -0.203 F 
ATOM     87  F   UNL A   1      45.776  25.274  36.905  1.00  0.00    -0.200 F 
ATOM     88  C   UNL A   1      46.986  27.107  36.036  1.00  0.00     0.200 A 
ATOM     89  F   UNL A   1      48.150  28.959  35.149  1.00  0.00    -0.200 F 
ATOM     90  F   UNL A   1      48.049  26.777  36.781  1.00  0.00    -0.200 F 
ENDBRANCH  57  80
ENDBRANCH  31  32
ENDBRANCH  24  26
ENDBRANCH  23  24
ENDBRANCH  22  23
ENDBRANCH  21  22
ENDBRANCH   1  21
TORSDOF 16
ENDMDL
