MODEL 1
REMARK VINA RESULT:     -12.3      0.000      0.000
REMARK SMILES CC(C)[C@@H]1C(=O)Nc2ccccc2N1C(=O)N[C@H](Cc1ccccc1)C(=O)OCCOCCOC(=O)c1ccc(-c2c3nc(c(-c4c(F)c(F)c(F)c(F)c4F)c4ccc([nH]4)c(-c4c(F)c(F)c(F)c(F)c4F)c4nc(c(-c5c(F)c(F)c(F)c(F)c5F)c5ccc2[nH]5)C=C4)C=C3)cc1
REMARK SMILES IDX 30 1 29 2 28 3 26 4 27 5 18 6 17 7 15 8 16 9 14 11 4 12 5 13
REMARK SMILES IDX 6 14 7 15 13 16 8 17 12 19 9 20 11 21 10 22 2 23 1 24 3 25
REMARK SMILES IDX 19 26 20 27 21 28 25 29 22 30 24 31 23 32 31 33 32 34 33 35
REMARK SMILES IDX 34 36 35 37 36 38 37 39 38 40 99 41 39 42 98 43 40 44 41 45
REMARK SMILES IDX 42 46 92 47 43 48 97 49 91 50 93 51 44 52 96 53 90 54 89 55
REMARK SMILES IDX 45 57 77 58 57 59 76 60 58 61 61 62 75 63 94 64 59 65 60 66
REMARK SMILES IDX 74 68 95 69 62 70 46 71 47 72 55 73 48 74 49 75 53 76 56 77
REMARK SMILES IDX 50 78 51 79 54 80 52 81 78 82 79 83 87 84 80 85 81 86 85 87
REMARK SMILES IDX 88 88 82 89 83 90 86 91 84 92 63 93 64 94 72 95 65 96 66 97
REMARK SMILES IDX 70 98 73 99 67 100 68 101 71 102 69 103
REMARK H PARENT 17 10 7 18 93 56 61 67
REMARK Flexibility Score: inf
ROOT
ATOM      1  C   UNL A   1      40.017  21.346  26.602  1.00  0.00     0.202 C 
ENDROOT
BRANCH   1   2
ATOM      2  C   UNL A   1      38.812  22.166  26.138  1.00  0.00     0.261 C 
BRANCH   2   3
ATOM      3  O   UNL A   1      38.168  21.592  24.982  1.00  0.00    -0.462 OA
BRANCH   3   4
ATOM      4  C   UNL A   1      37.072  20.806  25.170  1.00  0.00     0.329 C 
ATOM      5  O   UNL A   1      37.071  19.586  25.087  1.00  0.00    -0.250 OA
BRANCH   4   6
ATOM      6  C   UNL A   1      35.842  21.635  25.602  1.00  0.00     0.198 C 
BRANCH   6   7
ATOM      7  N   UNL A   1      34.743  20.755  26.190  1.00  0.00    -0.324 N 
ATOM      8  C   UNL A   1      33.582  20.096  26.054  1.00  0.00     0.323 C 
ATOM      9  O   UNL A   1      33.295  19.557  27.139  1.00  0.00    -0.248 OA
ATOM     10  H   UNL A   1      35.019  20.593  27.121  1.00  0.00     0.166 HD
BRANCH   8  11
ATOM     11  N   UNL A   1      32.772  19.908  24.953  1.00  0.00    -0.280 N 
ATOM     12  C   UNL A   1      32.435  18.677  24.136  1.00  0.00     0.184 C 
ATOM     13  C   UNL A   1      32.282  18.867  22.615  1.00  0.00     0.247 C 
ATOM     14  O   UNL A   1      32.313  17.946  21.797  1.00  0.00    -0.272 OA
ATOM     15  N   UNL A   1      31.940  20.095  22.177  1.00  0.00    -0.322 N 
ATOM     16  C   UNL A   1      32.138  21.110  24.386  1.00  0.00     0.070 A 
ATOM     17  C   UNL A   1      31.808  21.184  23.022  1.00  0.00     0.065 A 
ATOM     18  H   UNL A   1      31.777  20.224  21.215  1.00  0.00     0.170 HD
ATOM     19  C   UNL A   1      31.829  22.238  25.164  1.00  0.00     0.028 A 
ATOM     20  C   UNL A   1      31.338  22.363  22.438  1.00  0.00     0.028 A 
ATOM     21  C   UNL A   1      31.281  23.397  24.593  1.00  0.00     0.002 A 
ATOM     22  C   UNL A   1      31.060  23.468  23.225  1.00  0.00     0.002 A 
BRANCH  12  23
ATOM     23  C   UNL A   1      33.369  17.493  24.305  1.00  0.00     0.015 C 
ATOM     24  C   UNL A   1      34.834  17.824  24.047  1.00  0.00     0.010 C 
ATOM     25  C   UNL A   1      33.181  16.643  25.556  1.00  0.00     0.010 C 
ENDBRANCH  12  23
ENDBRANCH   8  11
ENDBRANCH   6   7
BRANCH   6  26
ATOM     26  C   UNL A   1      35.337  22.583  24.496  1.00  0.00     0.072 C 
BRANCH  26  27
ATOM     27  C   UNL A   1      34.865  24.009  24.397  1.00  0.00    -0.045 A 
ATOM     28  C   UNL A   1      34.467  24.388  23.086  1.00  0.00     0.004 A 
ATOM     29  C   UNL A   1      34.612  24.894  25.435  1.00  0.00     0.004 A 
ATOM     30  C   UNL A   1      33.841  25.595  22.809  1.00  0.00     0.000 A 
ATOM     31  C   UNL A   1      33.981  26.121  25.155  1.00  0.00     0.000 A 
ATOM     32  C   UNL A   1      33.595  26.467  23.853  1.00  0.00     0.000 A 
ENDBRANCH  26  27
ENDBRANCH   6  26
ENDBRANCH   4   6
ENDBRANCH   3   4
ENDBRANCH   2   3
ENDBRANCH   1   2
BRANCH   1  33
ATOM     33  O   UNL A   1      41.067  21.312  25.638  1.00  0.00    -0.374 OA
BRANCH  33  34
ATOM     34  C   UNL A   1      42.350  20.959  26.150  1.00  0.00     0.202 C 
BRANCH  34  35
ATOM     35  C   UNL A   1      43.508  21.648  25.408  1.00  0.00     0.261 C 
BRANCH  35  36
ATOM     36  O   UNL A   1      43.073  22.813  24.672  1.00  0.00    -0.460 OA
BRANCH  36  37
ATOM     37  C   UNL A   1      43.786  23.947  24.865  1.00  0.00     0.338 C 
ATOM     38  O   UNL A   1      44.844  24.236  24.336  1.00  0.00    -0.246 OA
BRANCH  37  39
ATOM     39  C   UNL A   1      43.043  24.903  25.729  1.00  0.00     0.060 A 
ATOM     40  C   UNL A   1      43.627  26.157  25.944  1.00  0.00     0.016 A 
ATOM     41  C   UNL A   1      41.851  24.588  26.380  1.00  0.00     0.016 A 
ATOM     42  C   UNL A   1      43.075  27.057  26.865  1.00  0.00     0.010 A 
ATOM     43  C   UNL A   1      41.280  25.510  27.280  1.00  0.00     0.010 A 
ATOM     44  C   UNL A   1      41.913  26.734  27.578  1.00  0.00    -0.014 A 
BRANCH  44  45
ATOM     45  C   UNL A   1      41.462  27.582  28.729  1.00  0.00     0.031 A 
ATOM     46  C   UNL A   1      42.203  27.501  30.045  1.00  0.00     0.074 A 
ATOM     47  C   UNL A   1      40.460  28.480  28.628  1.00  0.00     0.049 A 
ATOM     48  N   UNL A   1      41.982  28.142  31.169  1.00  0.00    -0.248 NA
ATOM     49  C   UNL A   1      43.359  26.593  30.098  1.00  0.00     0.031 C 
ATOM     50  C   UNL A   1      39.704  28.777  27.416  1.00  0.00     0.029 A 
ATOM     51  N   UNL A   1      39.899  29.311  29.575  1.00  0.00    -0.354 N 
ATOM     52  C   UNL A   1      42.981  27.730  32.044  1.00  0.00     0.074 A 
ATOM     53  C   UNL A   1      43.752  26.720  31.354  1.00  0.00     0.031 C 
ATOM     54  C   UNL A   1      38.758  29.689  27.698  1.00  0.00     0.029 A 
ATOM     55  C   UNL A   1      38.813  30.020  29.118  1.00  0.00     0.049 A 
ATOM     56  H   UNL A   1      40.243  29.389  30.494  1.00  0.00     0.167 HD
ATOM     57  C   UNL A   1      43.272  28.183  33.288  1.00  0.00     0.037 A 
ATOM     58  C   UNL A   1      37.943  30.828  29.760  1.00  0.00     0.037 A 
ATOM     59  C   UNL A   1      42.534  29.199  33.990  1.00  0.00     0.049 A 
ATOM     60  C   UNL A   1      38.176  31.189  31.202  1.00  0.00     0.074 A 
ATOM     61  C   UNL A   1      42.790  29.740  35.239  1.00  0.00     0.029 A 
ATOM     62  N   UNL A   1      41.391  29.822  33.514  1.00  0.00    -0.354 N 
ATOM     63  N   UNL A   1      39.152  30.828  31.996  1.00  0.00    -0.248 NA
ATOM     64  C   UNL A   1      37.211  32.110  31.826  1.00  0.00     0.031 C 
ATOM     65  C   UNL A   1      41.767  30.642  35.546  1.00  0.00     0.029 A 
ATOM     66  C   UNL A   1      40.911  30.714  34.461  1.00  0.00     0.049 A 
ATOM     67  H   UNL A   1      40.982  29.655  32.635  1.00  0.00     0.167 HD
ATOM     68  C   UNL A   1      38.962  31.529  33.181  1.00  0.00     0.074 A 
ATOM     69  C   UNL A   1      37.765  32.323  33.011  1.00  0.00     0.031 C 
ATOM     70  C   UNL A   1      39.735  31.529  34.295  1.00  0.00     0.037 A 
BRANCH  57  71
ATOM     71  C   UNL A   1      44.461  27.574  33.976  1.00  0.00     0.064 A 
ATOM     72  C   UNL A   1      45.739  28.148  33.879  1.00  0.00     0.173 A 
ATOM     73  C   UNL A   1      44.317  26.423  34.763  1.00  0.00     0.173 A 
ATOM     74  F   UNL A   1      45.932  29.246  33.133  1.00  0.00    -0.203 F 
ATOM     75  C   UNL A   1      46.835  27.566  34.511  1.00  0.00     0.198 A 
ATOM     76  C   UNL A   1      45.408  25.864  35.422  1.00  0.00     0.198 A 
ATOM     77  F   UNL A   1      43.115  25.842  34.898  1.00  0.00    -0.203 F 
ATOM     78  F   UNL A   1      48.055  28.096  34.354  1.00  0.00    -0.200 F 
ATOM     79  C   UNL A   1      46.667  26.429  35.286  1.00  0.00     0.200 A 
ATOM     80  F   UNL A   1      45.242  24.776  36.185  1.00  0.00    -0.200 F 
ATOM     81  F   UNL A   1      47.722  25.873  35.898  1.00  0.00    -0.200 F 
ENDBRANCH  57  71
BRANCH  58  82
ATOM     82  C   UNL A   1      36.752  31.358  29.043  1.00  0.00     0.064 A 
ATOM     83  C   UNL A   1      36.662  32.706  28.669  1.00  0.00     0.173 A 
ATOM     84  C   UNL A   1      35.654  30.530  28.762  1.00  0.00     0.173 A 
ATOM     85  F   UNL A   1      37.674  33.544  28.938  1.00  0.00    -0.203 F 
ATOM     86  C   UNL A   1      35.511  33.211  28.066  1.00  0.00     0.198 A 
ATOM     87  C   UNL A   1      34.513  31.030  28.138  1.00  0.00     0.198 A 
ATOM     88  F   UNL A   1      35.691  29.231  29.095  1.00  0.00    -0.203 F 
ATOM     89  F   UNL A   1      35.432  34.514  27.765  1.00  0.00    -0.200 F 
ATOM     90  C   UNL A   1      34.438  32.372  27.799  1.00  0.00     0.200 A 
ATOM     91  F   UNL A   1      33.485  30.214  27.873  1.00  0.00    -0.200 F 
ATOM     92  F   UNL A   1      33.330  32.859  27.224  1.00  0.00    -0.200 F 
ENDBRANCH  58  82
BRANCH  70  93
ATOM     93  C   UNL A   1      39.371  32.475  35.404  1.00  0.00     0.064 A 
ATOM     94  C   UNL A   1      38.551  32.091  36.475  1.00  0.00     0.173 A 
ATOM     95  C   UNL A   1      39.896  33.779  35.417  1.00  0.00     0.173 A 
ATOM     96  F   UNL A   1      38.010  30.864  36.505  1.00  0.00    -0.203 F 
ATOM     97  C   UNL A   1      38.254  32.982  37.505  1.00  0.00     0.198 A 
ATOM     98  C   UNL A   1      39.624  34.654  36.465  1.00  0.00     0.198 A 
ATOM     99  F   UNL A   1      40.688  34.198  34.420  1.00  0.00    -0.203 F 
ATOM    100  F   UNL A   1      37.431  32.608  38.495  1.00  0.00    -0.200 F 
ATOM    101  C   UNL A   1      38.797  34.258  37.504  1.00  0.00     0.200 A 
ATOM    102  F   UNL A   1      40.164  35.881  36.468  1.00  0.00    -0.200 F 
ATOM    103  F   UNL A   1      38.520  35.108  38.503  1.00  0.00    -0.200 F 
ENDBRANCH  70  93
ENDBRANCH  44  45
ENDBRANCH  37  39
ENDBRANCH  36  37
ENDBRANCH  35  36
ENDBRANCH  34  35
ENDBRANCH  33  34
ENDBRANCH   1  33
TORSDOF 19
ENDMDL
MODEL 2
REMARK VINA RESULT:     -12.2      3.613      8.487
REMARK SMILES CC(C)[C@@H]1C(=O)Nc2ccccc2N1C(=O)N[C@H](Cc1ccccc1)C(=O)OCCOCCOC(=O)c1ccc(-c2c3nc(c(-c4c(F)c(F)c(F)c(F)c4F)c4ccc([nH]4)c(-c4c(F)c(F)c(F)c(F)c4F)c4nc(c(-c5c(F)c(F)c(F)c(F)c5F)c5ccc2[nH]5)C=C4)C=C3)cc1
REMARK SMILES IDX 30 1 29 2 28 3 26 4 27 5 18 6 17 7 15 8 16 9 14 11 4 12 5 13
REMARK SMILES IDX 6 14 7 15 13 16 8 17 12 19 9 20 11 21 10 22 2 23 1 24 3 25
REMARK SMILES IDX 19 26 20 27 21 28 25 29 22 30 24 31 23 32 31 33 32 34 33 35
REMARK SMILES IDX 34 36 35 37 36 38 37 39 38 40 99 41 39 42 98 43 40 44 41 45
REMARK SMILES IDX 42 46 92 47 43 48 97 49 91 50 93 51 44 52 96 53 90 54 89 55
REMARK SMILES IDX 45 57 77 58 57 59 76 60 58 61 61 62 75 63 94 64 59 65 60 66
REMARK SMILES IDX 74 68 95 69 62 70 46 71 47 72 55 73 48 74 49 75 53 76 56 77
REMARK SMILES IDX 50 78 51 79 54 80 52 81 78 82 79 83 87 84 80 85 81 86 85 87
REMARK SMILES IDX 88 88 82 89 83 90 86 91 84 92 63 93 64 94 72 95 65 96 66 97
REMARK SMILES IDX 70 98 73 99 67 100 68 101 71 102 69 103
REMARK H PARENT 17 10 7 18 93 56 61 67
REMARK Flexibility Score: inf
ROOT
ATOM      1  C   UNL A   1      32.346  30.014  25.642  1.00  0.00     0.202 C 
ENDROOT
BRANCH   1   2
ATOM      2  C   UNL A   1      32.280  29.189  24.355  1.00  0.00     0.261 C 
BRANCH   2   3
ATOM      3  O   UNL A   1      33.516  28.497  24.082  1.00  0.00    -0.462 OA
BRANCH   3   4
ATOM      4  C   UNL A   1      33.920  27.523  24.943  1.00  0.00     0.329 C 
ATOM      5  O   UNL A   1      34.028  27.668  26.153  1.00  0.00    -0.250 OA
BRANCH   4   6
ATOM      6  C   UNL A   1      34.134  26.173  24.222  1.00  0.00     0.198 C 
BRANCH   6   7
ATOM      7  N   UNL A   1      32.905  25.759  23.418  1.00  0.00    -0.324 N 
ATOM      8  C   UNL A   1      31.803  25.007  23.282  1.00  0.00     0.323 C 
ATOM      9  O   UNL A   1      31.263  25.276  22.192  1.00  0.00    -0.248 OA
ATOM     10  H   UNL A   1      32.937  26.312  22.604  1.00  0.00     0.166 HD
BRANCH   8  11
ATOM     11  N   UNL A   1      31.215  24.100  24.139  1.00  0.00    -0.280 N 
ATOM     12  C   UNL A   1      30.071  24.227  25.125  1.00  0.00     0.184 C 
ATOM     13  C   UNL A   1      30.200  23.452  26.450  1.00  0.00     0.247 C 
ATOM     14  O   UNL A   1      29.526  23.683  27.455  1.00  0.00    -0.272 OA
ATOM     15  N   UNL A   1      30.990  22.359  26.452  1.00  0.00    -0.322 N 
ATOM     16  C   UNL A   1      31.812  22.755  24.191  1.00  0.00     0.070 A 
ATOM     17  C   UNL A   1      31.735  21.969  25.353  1.00  0.00     0.065 A 
ATOM     18  H   UNL A   1      31.038  21.814  27.271  1.00  0.00     0.170 HD
ATOM     19  C   UNL A   1      32.485  22.187  23.096  1.00  0.00     0.028 A 
ATOM     20  C   UNL A   1      32.414  20.753  25.470  1.00  0.00     0.028 A 
ATOM     21  C   UNL A   1      33.101  20.928  23.186  1.00  0.00     0.002 A 
ATOM     22  C   UNL A   1      33.087  20.224  24.381  1.00  0.00     0.002 A 
BRANCH  12  23
ATOM     23  C   UNL A   1      29.688  25.642  25.519  1.00  0.00     0.015 C 
ATOM     24  C   UNL A   1      30.809  26.414  26.203  1.00  0.00     0.010 C 
ATOM     25  C   UNL A   1      28.971  26.476  24.464  1.00  0.00     0.010 C 
ENDBRANCH  12  23
ENDBRANCH   8  11
ENDBRANCH   6   7
BRANCH   6  26
ATOM     26  C   UNL A   1      34.650  25.065  25.161  1.00  0.00     0.072 C 
BRANCH  26  27
ATOM     27  C   UNL A   1      35.487  23.820  25.042  1.00  0.00    -0.045 A 
ATOM     28  C   UNL A   1      35.368  22.944  26.155  1.00  0.00     0.004 A 
ATOM     29  C   UNL A   1      36.184  23.368  23.930  1.00  0.00     0.004 A 
ATOM     30  C   UNL A   1      35.915  21.669  26.171  1.00  0.00     0.000 A 
ATOM     31  C   UNL A   1      36.743  22.077  23.947  1.00  0.00     0.000 A 
ATOM     32  C   UNL A   1      36.607  21.232  25.057  1.00  0.00     0.000 A 
ENDBRANCH  26  27
ENDBRANCH   6  26
ENDBRANCH   4   6
ENDBRANCH   3   4
ENDBRANCH   2   3
ENDBRANCH   1   2
BRANCH   1  33
ATOM     33  O   UNL A   1      31.405  31.086  25.660  1.00  0.00    -0.374 OA
BRANCH  33  34
ATOM     34  C   UNL A   1      31.339  31.814  26.884  1.00  0.00     0.202 C 
BRANCH  34  35
ATOM     35  C   UNL A   1      32.142  33.126  26.851  1.00  0.00     0.261 C 
BRANCH  35  36
ATOM     36  O   UNL A   1      32.404  33.643  28.175  1.00  0.00    -0.460 OA
BRANCH  36  37
ATOM     37  C   UNL A   1      33.520  34.397  28.315  1.00  0.00     0.338 C 
ATOM     38  O   UNL A   1      33.574  35.613  28.335  1.00  0.00    -0.246 OA
BRANCH  37  39
ATOM     39  C   UNL A   1      34.708  33.544  28.587  1.00  0.00     0.060 A 
ATOM     40  C   UNL A   1      34.484  32.318  29.224  1.00  0.00     0.016 A 
ATOM     41  C   UNL A   1      36.018  33.934  28.306  1.00  0.00     0.016 A 
ATOM     42  C   UNL A   1      35.557  31.527  29.655  1.00  0.00     0.010 A 
ATOM     43  C   UNL A   1      37.093  33.119  28.711  1.00  0.00     0.010 A 
ATOM     44  C   UNL A   1      36.880  31.932  29.441  1.00  0.00    -0.014 A 
BRANCH  44  45
ATOM     45  C   UNL A   1      38.016  31.217  30.110  1.00  0.00     0.031 A 
ATOM     46  C   UNL A   1      38.371  31.561  31.539  1.00  0.00     0.074 A 
ATOM     47  C   UNL A   1      38.701  30.217  29.516  1.00  0.00     0.049 A 
ATOM     48  N   UNL A   1      39.314  31.069  32.307  1.00  0.00    -0.248 NA
ATOM     49  C   UNL A   1      37.540  32.579  32.199  1.00  0.00     0.031 C 
ATOM     50  C   UNL A   1      38.434  29.674  28.189  1.00  0.00     0.029 A 
ATOM     51  N   UNL A   1      39.778  29.478  29.961  1.00  0.00    -0.354 N 
ATOM     52  C   UNL A   1      39.172  31.701  33.536  1.00  0.00     0.074 A 
ATOM     53  C   UNL A   1      38.113  32.674  33.387  1.00  0.00     0.031 C 
ATOM     54  C   UNL A   1      39.340  28.721  27.911  1.00  0.00     0.029 A 
ATOM     55  C   UNL A   1      40.276  28.605  29.024  1.00  0.00     0.049 A 
ATOM     56  H   UNL A   1      40.155  29.568  30.866  1.00  0.00     0.167 HD
ATOM     57  C   UNL A   1      39.819  31.464  34.704  1.00  0.00     0.037 A 
ATOM     58  C   UNL A   1      41.370  27.813  29.037  1.00  0.00     0.037 A 
ATOM     59  C   UNL A   1      40.862  30.490  34.886  1.00  0.00     0.049 A 
ATOM     60  C   UNL A   1      42.193  27.688  30.292  1.00  0.00     0.074 A 
ATOM     61  C   UNL A   1      41.540  30.163  36.048  1.00  0.00     0.029 A 
ATOM     62  N   UNL A   1      41.387  29.693  33.881  1.00  0.00    -0.354 N 
ATOM     63  N   UNL A   1      42.012  28.257  31.457  1.00  0.00    -0.248 NA
ATOM     64  C   UNL A   1      43.346  26.774  30.247  1.00  0.00     0.031 C 
ATOM     65  C   UNL A   1      42.519  29.215  35.734  1.00  0.00     0.029 A 
ATOM     66  C   UNL A   1      42.406  28.901  34.391  1.00  0.00     0.049 A 
ATOM     67  H   UNL A   1      41.082  29.689  32.945  1.00  0.00     0.167 HD
ATOM     68  C   UNL A   1      42.977  27.718  32.299  1.00  0.00     0.074 A 
ATOM     69  C   UNL A   1      43.755  26.791  31.508  1.00  0.00     0.031 C 
ATOM     70  C   UNL A   1      43.172  27.956  33.620  1.00  0.00     0.037 A 
BRANCH  57  71
ATOM     71  C   UNL A   1      39.405  32.282  35.894  1.00  0.00     0.064 A 
ATOM     72  C   UNL A   1      39.970  33.541  36.153  1.00  0.00     0.173 A 
ATOM     73  C   UNL A   1      38.413  31.816  36.769  1.00  0.00     0.173 A 
ATOM     74  F   UNL A   1      40.928  34.030  35.351  1.00  0.00    -0.203 F 
ATOM     75  C   UNL A   1      39.586  34.283  37.266  1.00  0.00     0.198 A 
ATOM     76  C   UNL A   1      38.007  32.576  37.862  1.00  0.00     0.198 A 
ATOM     77  F   UNL A   1      37.833  30.625  36.560  1.00  0.00    -0.203 F 
ATOM     78  F   UNL A   1      40.184  35.454  37.527  1.00  0.00    -0.200 F 
ATOM     79  C   UNL A   1      38.601  33.803  38.116  1.00  0.00     0.200 A 
ATOM     80  F   UNL A   1      37.043  32.119  38.672  1.00  0.00    -0.200 F 
ATOM     81  F   UNL A   1      38.229  34.520  39.185  1.00  0.00    -0.200 F 
ENDBRANCH  57  71
BRANCH  58  82
ATOM     82  C   UNL A   1      41.764  27.067  27.812  1.00  0.00     0.064 A 
ATOM     83  C   UNL A   1      41.316  25.761  27.573  1.00  0.00     0.173 A 
ATOM     84  C   UNL A   1      42.642  27.636  26.876  1.00  0.00     0.173 A 
ATOM     85  F   UNL A   1      40.496  25.165  28.451  1.00  0.00    -0.203 F 
ATOM     86  C   UNL A   1      41.751  25.041  26.461  1.00  0.00     0.198 A 
ATOM     87  C   UNL A   1      43.059  26.925  25.752  1.00  0.00     0.198 A 
ATOM     88  F   UNL A   1      43.097  28.885  27.055  1.00  0.00    -0.203 F 
ATOM     89  F   UNL A   1      41.347  23.777  26.283  1.00  0.00    -0.200 F 
ATOM     90  C   UNL A   1      42.621  25.625  25.550  1.00  0.00     0.200 A 
ATOM     91  F   UNL A   1      43.889  27.496  24.870  1.00  0.00    -0.200 F 
ATOM     92  F   UNL A   1      43.042  24.932  24.483  1.00  0.00    -0.200 F 
ENDBRANCH  58  82
BRANCH  70  93
ATOM     93  C   UNL A   1      44.218  27.147  34.334  1.00  0.00     0.064 A 
ATOM     94  C   UNL A   1      43.945  25.881  34.872  1.00  0.00     0.173 A 
ATOM     95  C   UNL A   1      45.533  27.632  34.438  1.00  0.00     0.173 A 
ATOM     96  F   UNL A   1      42.703  25.377  34.816  1.00  0.00    -0.203 F 
ATOM     97  C   UNL A   1      44.943  25.141  35.504  1.00  0.00     0.198 A 
ATOM     98  C   UNL A   1      46.534  26.875  35.039  1.00  0.00     0.198 A 
ATOM     99  F   UNL A   1      45.850  28.835  33.937  1.00  0.00    -0.203 F 
ATOM    100  F   UNL A   1      44.648  23.954  36.052  1.00  0.00    -0.200 F 
ATOM    101  C   UNL A   1      46.237  25.634  35.579  1.00  0.00     0.200 A 
ATOM    102  F   UNL A   1      47.787  27.348  35.096  1.00  0.00    -0.200 F 
ATOM    103  F   UNL A   1      47.197  24.914  36.177  1.00  0.00    -0.200 F 
ENDBRANCH  70  93
ENDBRANCH  44  45
ENDBRANCH  37  39
ENDBRANCH  36  37
ENDBRANCH  35  36
ENDBRANCH  34  35
ENDBRANCH  33  34
ENDBRANCH   1  33
TORSDOF 19
ENDMDL
MODEL 3
REMARK VINA RESULT:     -12.2      5.404     10.199
REMARK SMILES CC(C)[C@@H]1C(=O)Nc2ccccc2N1C(=O)N[C@H](Cc1ccccc1)C(=O)OCCOCCOC(=O)c1ccc(-c2c3nc(c(-c4c(F)c(F)c(F)c(F)c4F)c4ccc([nH]4)c(-c4c(F)c(F)c(F)c(F)c4F)c4nc(c(-c5c(F)c(F)c(F)c(F)c5F)c5ccc2[nH]5)C=C4)C=C3)cc1
REMARK SMILES IDX 30 1 29 2 28 3 26 4 27 5 18 6 17 7 15 8 16 9 14 11 4 12 5 13
REMARK SMILES IDX 6 14 7 15 13 16 8 17 12 19 9 20 11 21 10 22 2 23 1 24 3 25
REMARK SMILES IDX 19 26 20 27 21 28 25 29 22 30 24 31 23 32 31 33 32 34 33 35
REMARK SMILES IDX 34 36 35 37 36 38 37 39 38 40 99 41 39 42 98 43 40 44 41 45
REMARK SMILES IDX 42 46 92 47 43 48 97 49 91 50 93 51 44 52 96 53 90 54 89 55
REMARK SMILES IDX 45 57 77 58 57 59 76 60 58 61 61 62 75 63 94 64 59 65 60 66
REMARK SMILES IDX 74 68 95 69 62 70 46 71 47 72 55 73 48 74 49 75 53 76 56 77
REMARK SMILES IDX 50 78 51 79 54 80 52 81 78 82 79 83 87 84 80 85 81 86 85 87
REMARK SMILES IDX 88 88 82 89 83 90 86 91 84 92 63 93 64 94 72 95 65 96 66 97
REMARK SMILES IDX 70 98 73 99 67 100 68 101 71 102 69 103
REMARK H PARENT 17 10 7 18 93 56 61 67
REMARK Flexibility Score: inf
ROOT
ATOM      1  C   UNL A   1      34.951  31.965  27.824  1.00  0.00     0.202 C 
ENDROOT
BRANCH   1   2
ATOM      2  C   UNL A   1      35.048  30.458  27.580  1.00  0.00     0.261 C 
BRANCH   2   3
ATOM      3  O   UNL A   1      34.144  30.008  26.550  1.00  0.00    -0.462 OA
BRANCH   3   4
ATOM      4  C   UNL A   1      33.423  28.874  26.766  1.00  0.00     0.329 C 
ATOM      5  O   UNL A   1      32.501  28.781  27.565  1.00  0.00    -0.250 OA
BRANCH   4   6
ATOM      6  C   UNL A   1      33.841  27.738  25.807  1.00  0.00     0.198 C 
BRANCH   6   7
ATOM      7  N   UNL A   1      33.561  28.094  24.350  1.00  0.00    -0.324 N 
ATOM      8  C   UNL A   1      32.825  27.950  23.237  1.00  0.00     0.323 C 
ATOM      9  O   UNL A   1      33.308  28.665  22.339  1.00  0.00    -0.248 OA
ATOM     10  H   UNL A   1      34.260  28.744  24.109  1.00  0.00     0.166 HD
BRANCH   8  11
ATOM     11  N   UNL A   1      31.675  27.225  23.001  1.00  0.00    -0.280 N 
ATOM     12  C   UNL A   1      30.229  27.640  22.828  1.00  0.00     0.184 C 
ATOM     13  C   UNL A   1      29.157  26.711  23.430  1.00  0.00     0.247 C 
ATOM     14  O   UNL A   1      27.990  27.047  23.639  1.00  0.00    -0.272 OA
ATOM     15  N   UNL A   1      29.484  25.413  23.588  1.00  0.00    -0.322 N 
ATOM     16  C   UNL A   1      31.814  25.760  22.960  1.00  0.00     0.070 A 
ATOM     17  C   UNL A   1      30.746  24.917  23.313  1.00  0.00     0.065 A 
ATOM     18  H   UNL A   1      28.794  24.790  23.913  1.00  0.00     0.170 HD
ATOM     19  C   UNL A   1      33.006  25.126  22.571  1.00  0.00     0.028 A 
ATOM     20  C   UNL A   1      30.900  23.532  23.417  1.00  0.00     0.028 A 
ATOM     21  C   UNL A   1      33.138  23.729  22.597  1.00  0.00     0.002 A 
ATOM     22  C   UNL A   1      32.093  22.934  23.046  1.00  0.00     0.002 A 
BRANCH  12  23
ATOM     23  C   UNL A   1      29.875  29.034  23.314  1.00  0.00     0.015 C 
ATOM     24  C   UNL A   1      30.649  29.467  24.552  1.00  0.00     0.010 C 
ATOM     25  C   UNL A   1      29.812  30.133  22.259  1.00  0.00     0.010 C 
ENDBRANCH  12  23
ENDBRANCH   8  11
ENDBRANCH   6   7
BRANCH   6  26
ATOM     26  C   UNL A   1      33.274  26.365  26.219  1.00  0.00     0.072 C 
BRANCH  26  27
ATOM     27  C   UNL A   1      33.666  24.919  26.066  1.00  0.00    -0.045 A 
ATOM     28  C   UNL A   1      34.981  24.736  25.557  1.00  0.00     0.004 A 
ATOM     29  C   UNL A   1      32.983  23.802  26.523  1.00  0.00     0.004 A 
ATOM     30  C   UNL A   1      35.600  23.495  25.501  1.00  0.00     0.000 A 
ATOM     31  C   UNL A   1      33.608  22.542  26.464  1.00  0.00     0.000 A 
ATOM     32  C   UNL A   1      34.908  22.390  25.961  1.00  0.00     0.000 A 
ENDBRANCH  26  27
ENDBRANCH   6  26
ENDBRANCH   4   6
ENDBRANCH   3   4
ENDBRANCH   2   3
ENDBRANCH   1   2
BRANCH   1  33
ATOM     33  O   UNL A   1      34.264  32.287  29.031  1.00  0.00    -0.374 OA
BRANCH  33  34
ATOM     34  C   UNL A   1      34.438  33.626  29.490  1.00  0.00     0.202 C 
BRANCH  34  35
ATOM     35  C   UNL A   1      34.522  33.734  31.022  1.00  0.00     0.261 C 
BRANCH  35  36
ATOM     36  O   UNL A   1      34.511  32.440  31.666  1.00  0.00    -0.460 OA
BRANCH  36  37
ATOM     37  C   UNL A   1      35.489  32.212  32.573  1.00  0.00     0.338 C 
ATOM     38  O   UNL A   1      35.473  32.525  33.749  1.00  0.00    -0.246 OA
BRANCH  37  39
ATOM     39  C   UNL A   1      36.579  31.385  31.987  1.00  0.00     0.060 A 
ATOM     40  C   UNL A   1      37.848  31.494  32.568  1.00  0.00     0.016 A 
ATOM     41  C   UNL A   1      36.413  30.577  30.862  1.00  0.00     0.016 A 
ATOM     42  C   UNL A   1      38.959  30.873  31.984  1.00  0.00     0.010 A 
ATOM     43  C   UNL A   1      37.529  29.926  30.298  1.00  0.00     0.010 A 
ATOM     44  C   UNL A   1      38.826  30.110  30.817  1.00  0.00    -0.014 A 
BRANCH  44  45
ATOM     45  C   UNL A   1      40.038  29.652  30.061  1.00  0.00     0.031 A 
ATOM     46  C   UNL A   1      41.162  30.629  29.798  1.00  0.00     0.074 A 
ATOM     47  C   UNL A   1      40.210  28.375  29.661  1.00  0.00     0.049 A 
ATOM     48  N   UNL A   1      42.296  30.446  29.164  1.00  0.00    -0.248 NA
ATOM     49  C   UNL A   1      40.996  31.987  30.338  1.00  0.00     0.031 C 
ATOM     50  C   UNL A   1      39.290  27.272  29.918  1.00  0.00     0.029 A 
ATOM     51  N   UNL A   1      41.230  27.789  28.940  1.00  0.00    -0.354 N 
ATOM     52  C   UNL A   1      42.979  31.653  29.252  1.00  0.00     0.074 A 
ATOM     53  C   UNL A   1      42.098  32.586  29.918  1.00  0.00     0.031 C 
ATOM     54  C   UNL A   1      39.764  26.157  29.335  1.00  0.00     0.029 A 
ATOM     55  C   UNL A   1      41.004  26.469  28.632  1.00  0.00     0.049 A 
ATOM     56  H   UNL A   1      42.044  28.272  28.671  1.00  0.00     0.167 HD
ATOM     57  C   UNL A   1      44.243  31.954  28.866  1.00  0.00     0.037 A 
ATOM     58  C   UNL A   1      41.694  25.604  27.858  1.00  0.00     0.037 A 
ATOM     59  C   UNL A   1      45.148  31.042  28.218  1.00  0.00     0.049 A 
ATOM     60  C   UNL A   1      43.025  26.008  27.282  1.00  0.00     0.074 A 
ATOM     61  C   UNL A   1      46.459  31.260  27.831  1.00  0.00     0.029 A 
ATOM     62  N   UNL A   1      44.836  29.742  27.852  1.00  0.00    -0.354 N 
ATOM     63  N   UNL A   1      43.674  27.137  27.417  1.00  0.00    -0.248 NA
ATOM     64  C   UNL A   1      43.742  25.000  26.483  1.00  0.00     0.031 C 
ATOM     65  C   UNL A   1      46.920  30.115  27.173  1.00  0.00     0.029 A 
ATOM     66  C   UNL A   1      45.920  29.160  27.211  1.00  0.00     0.049 A 
ATOM     67  H   UNL A   1      43.974  29.298  28.022  1.00  0.00     0.167 HD
ATOM     68  C   UNL A   1      44.899  26.951  26.788  1.00  0.00     0.074 A 
ATOM     69  C   UNL A   1      44.897  25.608  26.252  1.00  0.00     0.031 C 
ATOM     70  C   UNL A   1      45.939  27.815  26.694  1.00  0.00     0.037 A 
BRANCH  57  71
ATOM     71  C   UNL A   1      44.730  33.348  29.144  1.00  0.00     0.064 A 
ATOM     72  C   UNL A   1      45.407  33.667  30.333  1.00  0.00     0.173 A 
ATOM     73  C   UNL A   1      44.542  34.370  28.203  1.00  0.00     0.173 A 
ATOM     74  F   UNL A   1      45.606  32.727  31.269  1.00  0.00    -0.203 F 
ATOM     75  C   UNL A   1      45.841  34.965  30.584  1.00  0.00     0.198 A 
ATOM     76  C   UNL A   1      45.008  35.660  28.442  1.00  0.00     0.198 A 
ATOM     77  F   UNL A   1      43.911  34.116  27.047  1.00  0.00    -0.203 F 
ATOM     78  F   UNL A   1      46.430  35.259  31.751  1.00  0.00    -0.200 F 
ATOM     79  C   UNL A   1      45.646  35.959  29.636  1.00  0.00     0.200 A 
ATOM     80  F   UNL A   1      44.836  36.615  27.519  1.00  0.00    -0.200 F 
ATOM     81  F   UNL A   1      46.069  37.208  29.877  1.00  0.00    -0.200 F 
ENDBRANCH  57  71
BRANCH  58  82
ATOM     82  C   UNL A   1      41.137  24.254  27.571  1.00  0.00     0.064 A 
ATOM     83  C   UNL A   1      41.683  23.099  28.147  1.00  0.00     0.173 A 
ATOM     84  C   UNL A   1      40.074  24.092  26.669  1.00  0.00     0.173 A 
ATOM     85  F   UNL A   1      42.717  23.200  28.995  1.00  0.00    -0.203 F 
ATOM     86  C   UNL A   1      41.205  21.833  27.813  1.00  0.00     0.198 A 
ATOM     87  C   UNL A   1      39.581  22.828  26.354  1.00  0.00     0.198 A 
ATOM     88  F   UNL A   1      39.513  25.166  26.093  1.00  0.00    -0.203 F 
ATOM     89  F   UNL A   1      41.778  20.743  28.341  1.00  0.00    -0.200 F 
ATOM     90  C   UNL A   1      40.153  21.698  26.918  1.00  0.00     0.200 A 
ATOM     91  F   UNL A   1      38.558  22.704  25.498  1.00  0.00    -0.200 F 
ATOM     92  F   UNL A   1      39.697  20.481  26.595  1.00  0.00    -0.200 F 
ENDBRANCH  58  82
BRANCH  70  93
ATOM     93  C   UNL A   1      47.209  27.324  26.059  1.00  0.00     0.064 A 
ATOM     94  C   UNL A   1      47.498  27.538  24.703  1.00  0.00     0.173 A 
ATOM     95  C   UNL A   1      48.177  26.667  26.838  1.00  0.00     0.173 A 
ATOM     96  F   UNL A   1      46.603  28.145  23.910  1.00  0.00    -0.203 F 
ATOM     97  C   UNL A   1      48.697  27.096  24.148  1.00  0.00     0.198 A 
ATOM     98  C   UNL A   1      49.388  26.257  26.287  1.00  0.00     0.198 A 
ATOM     99  F   UNL A   1      47.955  26.439  28.140  1.00  0.00    -0.203 F 
ATOM    100  F   UNL A   1      48.931  27.270  22.840  1.00  0.00    -0.200 F 
ATOM    101  C   UNL A   1      49.644  26.464  24.941  1.00  0.00     0.200 A 
ATOM    102  F   UNL A   1      50.306  25.661  27.060  1.00  0.00    -0.200 F 
ATOM    103  F   UNL A   1      50.802  26.051  24.406  1.00  0.00    -0.200 F 
ENDBRANCH  70  93
ENDBRANCH  44  45
ENDBRANCH  37  39
ENDBRANCH  36  37
ENDBRANCH  35  36
ENDBRANCH  34  35
ENDBRANCH  33  34
ENDBRANCH   1  33
TORSDOF 19
ENDMDL
