MODEL 1
REMARK VINA RESULT:     -10.9      0.000      0.000
REMARK SMILES CCC(CC)NC(=O)N[C@@H]1C=C[C@@H](C(=O)OCCOCCOC(=O)c2ccc(-c3c4nc(c(-c5c(F)c(F)c(F)c(F)c5F)c5ccc([nH]5)c(-c5c(F)c(F)c(F)c(F)c5F)c5nc(c(-c6c(F)c(F)c(F)c(F)c6F)c6ccc3[nH]6)C=C5)C=C4)cc2)C1
REMARK SMILES IDX 18 1 17 2 16 3 14 4 15 5 13 6 10 7 11 8 88 9 12 10 9 11 6 12
REMARK SMILES IDX 7 13 8 15 3 17 2 18 1 19 4 20 5 21 19 22 20 23 21 24 22 25
REMARK SMILES IDX 23 26 24 27 25 28 26 29 87 30 27 31 86 32 28 33 29 34 30 35
REMARK SMILES IDX 80 36 31 37 85 38 79 39 81 40 32 41 84 42 78 43 77 44 33 46
REMARK SMILES IDX 65 47 45 48 64 49 46 50 49 51 63 52 82 53 47 54 48 55 62 57
REMARK SMILES IDX 83 58 50 59 34 60 35 61 43 62 36 63 37 64 41 65 44 66 38 67
REMARK SMILES IDX 39 68 42 69 40 70 66 71 67 72 75 73 68 74 69 75 73 76 76 77
REMARK SMILES IDX 70 78 71 79 74 80 72 81 51 82 52 83 60 84 53 85 54 86 58 87
REMARK SMILES IDX 61 88 55 89 56 90 59 91 57 92
REMARK H PARENT 6 14 9 16 81 45 49 56
REMARK Flexibility Score: inf
ROOT
ATOM      1  C   UNL A   1      42.620  19.533  25.758  1.00  0.00     0.202 C 
ENDROOT
BRANCH   1   2
ATOM      2  C   UNL A   1      41.993  20.643  26.606  1.00  0.00     0.261 C 
BRANCH   2   3
ATOM      3  O   UNL A   1      40.571  20.679  26.403  1.00  0.00    -0.463 OA
BRANCH   3   4
ATOM      4  C   UNL A   1      39.939  21.819  26.785  1.00  0.00     0.312 C 
ATOM      5  O   UNL A   1      40.124  22.391  27.853  1.00  0.00    -0.252 OA
BRANCH   4   6
ATOM      6  C   UNL A   1      38.963  22.342  25.732  1.00  0.00     0.124 C 
ATOM      7  C   UNL A   1      36.512  22.463  25.416  1.00  0.00     0.107 C 
ATOM      8  C   UNL A   1      37.072  23.703  26.032  1.00  0.00    -0.006 C 
ATOM      9  C   UNL A   1      37.711  21.501  25.428  1.00  0.00     0.048 C 
ATOM     10  C   UNL A   1      38.397  23.649  26.190  1.00  0.00    -0.014 C 
BRANCH   7  11
ATOM     11  N   UNL A   1      36.074  22.803  24.083  1.00  0.00    -0.332 N 
ATOM     12  N   UNL A   1      33.713  22.757  24.161  1.00  0.00    -0.335 N 
ATOM     13  C   UNL A   1      34.870  23.038  23.550  1.00  0.00     0.315 C 
ATOM     14  H   UNL A   1      32.934  23.171  23.722  1.00  0.00     0.165 HD
ATOM     15  O   UNL A   1      34.820  23.551  22.430  1.00  0.00    -0.249 OA
ATOM     16  H   UNL A   1      36.811  22.875  23.434  1.00  0.00     0.165 HD
BRANCH  12  17
ATOM     17  C   UNL A   1      33.351  21.970  25.335  1.00  0.00     0.083 C 
BRANCH  17  18
ATOM     18  C   UNL A   1      33.126  22.898  26.537  1.00  0.00     0.021 C 
ATOM     19  C   UNL A   1      33.569  22.275  27.853  1.00  0.00     0.006 C 
ENDBRANCH  17  18
BRANCH  17  20
ATOM     20  C   UNL A   1      32.172  21.032  25.004  1.00  0.00     0.021 C 
ATOM     21  C   UNL A   1      32.557  19.649  24.495  1.00  0.00     0.006 C 
ENDBRANCH  17  20
ENDBRANCH  12  17
ENDBRANCH   7  11
ENDBRANCH   4   6
ENDBRANCH   3   4
ENDBRANCH   2   3
ENDBRANCH   1   2
BRANCH   1  22
ATOM     22  O   UNL A   1      43.617  19.959  24.830  1.00  0.00    -0.374 OA
BRANCH  22  23
ATOM     23  C   UNL A   1      44.353  21.140  25.151  1.00  0.00     0.202 C 
BRANCH  23  24
ATOM     24  C   UNL A   1      44.236  22.298  24.153  1.00  0.00     0.261 C 
BRANCH  24  25
ATOM     25  O   UNL A   1      43.405  23.364  24.652  1.00  0.00    -0.460 OA
BRANCH  25  26
ATOM     26  C   UNL A   1      44.076  24.490  24.994  1.00  0.00     0.338 C 
ATOM     27  O   UNL A   1      45.143  24.884  24.544  1.00  0.00    -0.246 OA
BRANCH  26  28
ATOM     28  C   UNL A   1      43.266  25.313  25.912  1.00  0.00     0.060 A 
ATOM     29  C   UNL A   1      43.608  26.665  26.038  1.00  0.00     0.016 A 
ATOM     30  C   UNL A   1      42.258  24.760  26.704  1.00  0.00     0.016 A 
ATOM     31  C   UNL A   1      42.983  27.457  26.999  1.00  0.00     0.010 A 
ATOM     32  C   UNL A   1      41.632  25.556  27.671  1.00  0.00     0.010 A 
ATOM     33  C   UNL A   1      42.021  26.896  27.849  1.00  0.00    -0.014 A 
BRANCH  33  34
ATOM     34  C   UNL A   1      41.556  27.668  29.029  1.00  0.00     0.031 A 
ATOM     35  C   UNL A   1      42.322  27.560  30.319  1.00  0.00     0.074 A 
ATOM     36  C   UNL A   1      40.497  28.492  28.942  1.00  0.00     0.049 A 
ATOM     37  N   UNL A   1      42.099  28.137  31.472  1.00  0.00    -0.248 NA
ATOM     38  C   UNL A   1      43.502  26.680  30.305  1.00  0.00     0.031 C 
ATOM     39  C   UNL A   1      39.701  28.721  27.739  1.00  0.00     0.029 A 
ATOM     40  N   UNL A   1      39.914  29.293  29.892  1.00  0.00    -0.354 N 
ATOM     41  C   UNL A   1      43.107  27.694  32.317  1.00  0.00     0.074 A 
ATOM     42  C   UNL A   1      43.923  26.771  31.557  1.00  0.00     0.031 C 
ATOM     43  C   UNL A   1      38.729  29.605  28.023  1.00  0.00     0.029 A 
ATOM     44  C   UNL A   1      38.819  29.983  29.432  1.00  0.00     0.049 A 
ATOM     45  H   UNL A   1      40.248  29.367  30.815  1.00  0.00     0.167 HD
ATOM     46  C   UNL A   1      43.342  28.035  33.607  1.00  0.00     0.037 A 
ATOM     47  C   UNL A   1      37.982  30.815  30.081  1.00  0.00     0.037 A 
ATOM     48  C   UNL A   1      42.533  28.950  34.366  1.00  0.00     0.049 A 
ATOM     49  C   UNL A   1      38.218  31.117  31.538  1.00  0.00     0.074 A 
ATOM     50  C   UNL A   1      42.688  29.360  35.678  1.00  0.00     0.029 A 
ATOM     51  N   UNL A   1      41.406  29.597  33.877  1.00  0.00    -0.354 N 
ATOM     52  N   UNL A   1      39.182  30.706  32.326  1.00  0.00    -0.248 NA
ATOM     53  C   UNL A   1      37.248  32.006  32.196  1.00  0.00     0.031 C 
ATOM     54  C   UNL A   1      41.633  30.222  35.997  1.00  0.00     0.029 A 
ATOM     55  C   UNL A   1      40.847  30.388  34.868  1.00  0.00     0.049 A 
ATOM     56  H   UNL A   1      41.057  29.508  32.961  1.00  0.00     0.167 HD
ATOM     57  C   UNL A   1      38.955  31.309  33.557  1.00  0.00     0.074 A 
ATOM     58  C   UNL A   1      37.765  32.121  33.411  1.00  0.00     0.031 C 
ATOM     59  C   UNL A   1      39.671  31.202  34.704  1.00  0.00     0.037 A 
BRANCH  46  60
ATOM     60  C   UNL A   1      44.516  27.392  34.286  1.00  0.00     0.064 A 
ATOM     61  C   UNL A   1      45.788  27.985  34.273  1.00  0.00     0.173 A 
ATOM     62  C   UNL A   1      44.365  26.177  34.971  1.00  0.00     0.173 A 
ATOM     63  F   UNL A   1      45.988  29.139  33.618  1.00  0.00    -0.203 F 
ATOM     64  C   UNL A   1      46.871  27.372  34.898  1.00  0.00     0.198 A 
ATOM     65  C   UNL A   1      45.444  25.580  35.617  1.00  0.00     0.198 A 
ATOM     66  F   UNL A   1      43.169  25.570  35.014  1.00  0.00    -0.203 F 
ATOM     67  F   UNL A   1      48.086  27.931  34.831  1.00  0.00    -0.200 F 
ATOM     68  C   UNL A   1      46.696  26.173  35.574  1.00  0.00     0.200 A 
ATOM     69  F   UNL A   1      45.272  24.427  36.278  1.00  0.00    -0.200 F 
ATOM     70  F   UNL A   1      47.739  25.584  36.175  1.00  0.00    -0.200 F 
ENDBRANCH  46  60
BRANCH  47  71
ATOM     71  C   UNL A   1      36.837  31.428  29.359  1.00  0.00     0.064 A 
ATOM     72  C   UNL A   1      35.724  30.662  28.989  1.00  0.00     0.173 A 
ATOM     73  C   UNL A   1      36.842  32.786  29.010  1.00  0.00     0.173 A 
ATOM     74  F   UNL A   1      35.687  29.353  29.278  1.00  0.00    -0.203 F 
ATOM     75  C   UNL A   1      34.665  31.227  28.281  1.00  0.00     0.198 A 
ATOM     76  C   UNL A   1      35.771  33.356  28.325  1.00  0.00     0.198 A 
ATOM     77  F   UNL A   1      37.886  33.561  29.339  1.00  0.00    -0.203 F 
ATOM     78  F   UNL A   1      33.633  30.463  27.901  1.00  0.00    -0.200 F 
ATOM     79  C   UNL A   1      34.687  32.574  27.955  1.00  0.00     0.200 A 
ATOM     80  F   UNL A   1      35.791  34.660  28.020  1.00  0.00    -0.200 F 
ATOM     81  F   UNL A   1      33.667  33.118  27.276  1.00  0.00    -0.200 F 
ENDBRANCH  47  71
BRANCH  59  82
ATOM     82  C   UNL A   1      39.215  32.018  35.879  1.00  0.00     0.064 A 
ATOM     83  C   UNL A   1      39.639  33.341  36.067  1.00  0.00     0.173 A 
ATOM     84  C   UNL A   1      38.310  31.478  36.806  1.00  0.00     0.173 A 
ATOM     85  F   UNL A   1      40.515  33.898  35.218  1.00  0.00    -0.203 F 
ATOM     86  C   UNL A   1      39.193  34.086  37.156  1.00  0.00     0.198 A 
ATOM     87  C   UNL A   1      37.844  32.235  37.877  1.00  0.00     0.198 A 
ATOM     88  F   UNL A   1      37.868  30.219  36.666  1.00  0.00    -0.203 F 
ATOM     89  F   UNL A   1      39.646  35.333  37.343  1.00  0.00    -0.200 F 
ATOM     90  C   UNL A   1      38.291  33.536  38.056  1.00  0.00     0.200 A 
ATOM     91  F   UNL A   1      36.964  31.706  38.738  1.00  0.00    -0.200 F 
ATOM     92  F   UNL A   1      37.859  34.255  39.100  1.00  0.00    -0.200 F 
ENDBRANCH  59  82
ENDBRANCH  33  34
ENDBRANCH  26  28
ENDBRANCH  25  26
ENDBRANCH  24  25
ENDBRANCH  23  24
ENDBRANCH  22  23
ENDBRANCH   1  22
TORSDOF 18
ENDMDL
MODEL 2
REMARK VINA RESULT:     -10.6      3.254      8.494
REMARK SMILES CCC(CC)NC(=O)N[C@@H]1C=C[C@@H](C(=O)OCCOCCOC(=O)c2ccc(-c3c4nc(c(-c5c(F)c(F)c(F)c(F)c5F)c5ccc([nH]5)c(-c5c(F)c(F)c(F)c(F)c5F)c5nc(c(-c6c(F)c(F)c(F)c(F)c6F)c6ccc3[nH]6)C=C5)C=C4)cc2)C1
REMARK SMILES IDX 18 1 17 2 16 3 14 4 15 5 13 6 10 7 11 8 88 9 12 10 9 11 6 12
REMARK SMILES IDX 7 13 8 15 3 17 2 18 1 19 4 20 5 21 19 22 20 23 21 24 22 25
REMARK SMILES IDX 23 26 24 27 25 28 26 29 87 30 27 31 86 32 28 33 29 34 30 35
REMARK SMILES IDX 80 36 31 37 85 38 79 39 81 40 32 41 84 42 78 43 77 44 33 46
REMARK SMILES IDX 65 47 45 48 64 49 46 50 49 51 63 52 82 53 47 54 48 55 62 57
REMARK SMILES IDX 83 58 50 59 34 60 35 61 43 62 36 63 37 64 41 65 44 66 38 67
REMARK SMILES IDX 39 68 42 69 40 70 66 71 67 72 75 73 68 74 69 75 73 76 76 77
REMARK SMILES IDX 70 78 71 79 74 80 72 81 51 82 52 83 60 84 53 85 54 86 58 87
REMARK SMILES IDX 61 88 55 89 56 90 59 91 57 92
REMARK H PARENT 6 14 9 16 81 45 49 56
REMARK Flexibility Score: inf
ROOT
ATOM      1  C   UNL A   1      30.407  28.464  23.514  1.00  0.00     0.202 C 
ENDROOT
BRANCH   1   2
ATOM      2  C   UNL A   1      30.981  27.484  22.488  1.00  0.00     0.261 C 
BRANCH   2   3
ATOM      3  O   UNL A   1      32.415  27.580  22.459  1.00  0.00    -0.463 OA
BRANCH   3   4
ATOM      4  C   UNL A   1      33.090  26.419  22.262  1.00  0.00     0.312 C 
ATOM      5  O   UNL A   1      33.640  26.104  21.213  1.00  0.00    -0.252 OA
BRANCH   4   6
ATOM      6  C   UNL A   1      33.114  25.525  23.502  1.00  0.00     0.124 C 
ATOM      7  C   UNL A   1      34.812  24.549  25.014  1.00  0.00     0.107 C 
ATOM      8  C   UNL A   1      34.273  25.846  25.520  1.00  0.00    -0.006 C 
ATOM      9  C   UNL A   1      34.218  24.457  23.599  1.00  0.00     0.048 C 
ATOM     10  C   UNL A   1      33.345  26.370  24.715  1.00  0.00    -0.014 C 
BRANCH   7  11
ATOM     11  N   UNL A   1      34.334  23.509  25.895  1.00  0.00    -0.332 N 
ATOM     12  N   UNL A   1      36.235  22.213  26.435  1.00  0.00    -0.335 N 
ATOM     13  C   UNL A   1      34.952  22.557  26.602  1.00  0.00     0.315 C 
ATOM     14  H   UNL A   1      36.580  21.644  27.161  1.00  0.00     0.165 HD
ATOM     15  O   UNL A   1      34.305  21.961  27.466  1.00  0.00    -0.249 OA
ATOM     16  H   UNL A   1      33.355  23.499  25.995  1.00  0.00     0.165 HD
BRANCH  12  17
ATOM     17  C   UNL A   1      37.235  22.496  25.411  1.00  0.00     0.083 C 
BRANCH  17  18
ATOM     18  C   UNL A   1      38.529  22.998  26.068  1.00  0.00     0.021 C 
ATOM     19  C   UNL A   1      38.353  24.337  26.768  1.00  0.00     0.006 C 
ENDBRANCH  17  18
BRANCH  17  20
ATOM     20  C   UNL A   1      37.405  21.277  24.482  1.00  0.00     0.021 C 
ATOM     21  C   UNL A   1      36.810  19.973  24.997  1.00  0.00     0.006 C 
ENDBRANCH  17  20
ENDBRANCH  12  17
ENDBRANCH   7  11
ENDBRANCH   4   6
ENDBRANCH   3   4
ENDBRANCH   2   3
ENDBRANCH   1   2
BRANCH   1  22
ATOM     22  O   UNL A   1      31.370  29.222  24.246  1.00  0.00    -0.374 OA
BRANCH  22  23
ATOM     23  C   UNL A   1      31.234  29.260  25.667  1.00  0.00     0.202 C 
BRANCH  23  24
ATOM     24  C   UNL A   1      31.726  30.539  26.356  1.00  0.00     0.261 C 
BRANCH  24  25
ATOM     25  O   UNL A   1      33.163  30.612  26.404  1.00  0.00    -0.460 OA
BRANCH  25  26
ATOM     26  C   UNL A   1      33.653  31.584  27.210  1.00  0.00     0.338 C 
ATOM     27  O   UNL A   1      33.069  32.584  27.606  1.00  0.00    -0.246 OA
BRANCH  26  28
ATOM     28  C   UNL A   1      34.990  31.214  27.711  1.00  0.00     0.060 A 
ATOM     29  C   UNL A   1      35.264  29.850  27.871  1.00  0.00     0.016 A 
ATOM     30  C   UNL A   1      35.922  32.175  28.107  1.00  0.00     0.016 A 
ATOM     31  C   UNL A   1      36.449  29.443  28.482  1.00  0.00     0.010 A 
ATOM     32  C   UNL A   1      37.110  31.765  28.723  1.00  0.00     0.010 A 
ATOM     33  C   UNL A   1      37.359  30.400  28.950  1.00  0.00    -0.014 A 
BRANCH  33  34
ATOM     34  C   UNL A   1      38.479  29.970  29.823  1.00  0.00     0.031 A 
ATOM     35  C   UNL A   1      39.478  28.979  29.292  1.00  0.00     0.074 A 
ATOM     36  C   UNL A   1      38.635  30.489  31.054  1.00  0.00     0.049 A 
ATOM     37  N   UNL A   1      40.530  28.461  29.874  1.00  0.00    -0.248 NA
ATOM     38  C   UNL A   1      39.262  28.509  27.914  1.00  0.00     0.031 C 
ATOM     39  C   UNL A   1      37.764  31.489  31.666  1.00  0.00     0.029 A 
ATOM     40  N   UNL A   1      39.592  30.243  32.008  1.00  0.00    -0.354 N 
ATOM     41  C   UNL A   1      41.099  27.609  28.937  1.00  0.00     0.074 A 
ATOM     42  C   UNL A   1      40.258  27.650  27.760  1.00  0.00     0.031 C 
ATOM     43  C   UNL A   1      38.225  31.773  32.896  1.00  0.00     0.029 A 
ATOM     44  C   UNL A   1      39.407  30.956  33.167  1.00  0.00     0.049 A 
ATOM     45  H   UNL A   1      40.339  29.615  31.874  1.00  0.00     0.167 HD
ATOM     46  C   UNL A   1      42.229  26.870  29.041  1.00  0.00     0.037 A 
ATOM     47  C   UNL A   1      40.108  30.938  34.317  1.00  0.00     0.037 A 
ATOM     48  C   UNL A   1      43.067  26.825  30.210  1.00  0.00     0.049 A 
ATOM     49  C   UNL A   1      41.317  30.047  34.436  1.00  0.00     0.074 A 
ATOM     50  C   UNL A   1      44.232  26.107  30.413  1.00  0.00     0.029 A 
ATOM     51  N   UNL A   1      42.824  27.530  31.380  1.00  0.00    -0.354 N 
ATOM     52  N   UNL A   1      41.856  29.256  33.541  1.00  0.00    -0.248 NA
ATOM     53  C   UNL A   1      42.017  30.050  35.729  1.00  0.00     0.031 C 
ATOM     54  C   UNL A   1      44.671  26.344  31.720  1.00  0.00     0.029 A 
ATOM     55  C   UNL A   1      43.806  27.248  32.315  1.00  0.00     0.049 A 
ATOM     56  H   UNL A   1      42.065  28.141  31.524  1.00  0.00     0.167 HD
ATOM     57  C   UNL A   1      42.973  28.696  34.148  1.00  0.00     0.074 A 
ATOM     58  C   UNL A   1      43.039  29.242  35.487  1.00  0.00     0.031 C 
ATOM     59  C   UNL A   1      43.867  27.811  33.639  1.00  0.00     0.037 A 
BRANCH  46  60
ATOM     60  C   UNL A   1      42.612  26.027  27.859  1.00  0.00     0.064 A 
ATOM     61  C   UNL A   1      43.463  26.513  26.855  1.00  0.00     0.173 A 
ATOM     62  C   UNL A   1      42.134  24.714  27.736  1.00  0.00     0.173 A 
ATOM     63  F   UNL A   1      43.934  27.768  26.918  1.00  0.00    -0.203 F 
ATOM     64  C   UNL A   1      43.801  25.724  25.758  1.00  0.00     0.198 A 
ATOM     65  C   UNL A   1      42.495  23.919  26.653  1.00  0.00     0.198 A 
ATOM     66  F   UNL A   1      41.318  24.202  28.670  1.00  0.00    -0.203 F 
ATOM     67  F   UNL A   1      44.576  26.225  24.787  1.00  0.00    -0.200 F 
ATOM     68  C   UNL A   1      43.321  24.426  25.661  1.00  0.00     0.200 A 
ATOM     69  F   UNL A   1      42.038  22.662  26.564  1.00  0.00    -0.200 F 
ATOM     70  F   UNL A   1      43.647  23.668  24.605  1.00  0.00    -0.200 F 
ENDBRANCH  46  60
BRANCH  47  71
ATOM     71  C   UNL A   1      39.688  31.797  35.455  1.00  0.00     0.064 A 
ATOM     72  C   UNL A   1      38.645  31.407  36.306  1.00  0.00     0.173 A 
ATOM     73  C   UNL A   1      40.308  33.029  35.703  1.00  0.00     0.173 A 
ATOM     74  F   UNL A   1      38.004  30.248  36.091  1.00  0.00    -0.203 F 
ATOM     75  C   UNL A   1      38.226  32.226  37.352  1.00  0.00     0.198 A 
ATOM     76  C   UNL A   1      39.906  33.836  36.765  1.00  0.00     0.198 A 
ATOM     77  F   UNL A   1      41.309  33.448  34.915  1.00  0.00    -0.203 F 
ATOM     78  F   UNL A   1      37.197  31.850  38.124  1.00  0.00    -0.200 F 
ATOM     79  C   UNL A   1      38.861  33.436  37.585  1.00  0.00     0.200 A 
ATOM     80  F   UNL A   1      40.528  35.000  36.993  1.00  0.00    -0.200 F 
ATOM     81  F   UNL A   1      38.459  34.223  38.593  1.00  0.00    -0.200 F 
ENDBRANCH  47  71
BRANCH  59  82
ATOM     82  C   UNL A   1      45.018  27.413  34.517  1.00  0.00     0.064 A 
ATOM     83  C   UNL A   1      44.957  26.284  35.347  1.00  0.00     0.173 A 
ATOM     84  C   UNL A   1      46.212  28.149  34.494  1.00  0.00     0.173 A 
ATOM     85  F   UNL A   1      43.834  25.555  35.415  1.00  0.00    -0.203 F 
ATOM     86  C   UNL A   1      46.042  25.924  36.142  1.00  0.00     0.198 A 
ATOM     87  C   UNL A   1      47.304  27.769  35.269  1.00  0.00     0.198 A 
ATOM     88  F   UNL A   1      46.324  29.233  33.711  1.00  0.00    -0.203 F 
ATOM     89  F   UNL A   1      45.946  24.868  36.963  1.00  0.00    -0.200 F 
ATOM     90  C   UNL A   1      47.216  26.661  36.099  1.00  0.00     0.200 A 
ATOM     91  F   UNL A   1      48.441  28.476  35.216  1.00  0.00    -0.200 F 
ATOM     92  F   UNL A   1      48.260  26.309  36.861  1.00  0.00    -0.200 F 
ENDBRANCH  59  82
ENDBRANCH  33  34
ENDBRANCH  26  28
ENDBRANCH  25  26
ENDBRANCH  24  25
ENDBRANCH  23  24
ENDBRANCH  22  23
ENDBRANCH   1  22
TORSDOF 18
ENDMDL
MODEL 3
REMARK VINA RESULT:     -10.5      3.362      8.910
REMARK SMILES CCC(CC)NC(=O)N[C@@H]1C=C[C@@H](C(=O)OCCOCCOC(=O)c2ccc(-c3c4nc(c(-c5c(F)c(F)c(F)c(F)c5F)c5ccc([nH]5)c(-c5c(F)c(F)c(F)c(F)c5F)c5nc(c(-c6c(F)c(F)c(F)c(F)c6F)c6ccc3[nH]6)C=C5)C=C4)cc2)C1
REMARK SMILES IDX 18 1 17 2 16 3 14 4 15 5 13 6 10 7 11 8 88 9 12 10 9 11 6 12
REMARK SMILES IDX 7 13 8 15 3 17 2 18 1 19 4 20 5 21 19 22 20 23 21 24 22 25
REMARK SMILES IDX 23 26 24 27 25 28 26 29 87 30 27 31 86 32 28 33 29 34 30 35
REMARK SMILES IDX 80 36 31 37 85 38 79 39 81 40 32 41 84 42 78 43 77 44 33 46
REMARK SMILES IDX 65 47 45 48 64 49 46 50 49 51 63 52 82 53 47 54 48 55 62 57
REMARK SMILES IDX 83 58 50 59 34 60 35 61 43 62 36 63 37 64 41 65 44 66 38 67
REMARK SMILES IDX 39 68 42 69 40 70 66 71 67 72 75 73 68 74 69 75 73 76 76 77
REMARK SMILES IDX 70 78 71 79 74 80 72 81 51 82 52 83 60 84 53 85 54 86 58 87
REMARK SMILES IDX 61 88 55 89 56 90 59 91 57 92
REMARK H PARENT 6 14 9 16 81 45 49 56
REMARK Flexibility Score: inf
ROOT
ATOM      1  C   UNL A   1      30.410  28.940  22.876  1.00  0.00     0.202 C 
ENDROOT
BRANCH   1   2
ATOM      2  C   UNL A   1      30.902  27.490  22.879  1.00  0.00     0.261 C 
BRANCH   2   3
ATOM      3  O   UNL A   1      32.241  27.419  22.364  1.00  0.00    -0.463 OA
BRANCH   3   4
ATOM      4  C   UNL A   1      32.808  26.185  22.335  1.00  0.00     0.312 C 
ATOM      5  O   UNL A   1      33.278  25.661  21.332  1.00  0.00    -0.252 OA
BRANCH   4   6
ATOM      6  C   UNL A   1      32.820  25.502  23.702  1.00  0.00     0.124 C 
ATOM      7  C   UNL A   1      33.988  23.607  24.782  1.00  0.00     0.107 C 
ATOM      8  C   UNL A   1      34.666  24.914  25.032  1.00  0.00    -0.006 C 
ATOM      9  C   UNL A   1      32.919  23.967  23.738  1.00  0.00     0.048 C 
ATOM     10  C   UNL A   1      34.031  25.942  24.463  1.00  0.00    -0.014 C 
BRANCH   7  11
ATOM     11  N   UNL A   1      33.426  23.166  26.037  1.00  0.00    -0.332 N 
ATOM     12  N   UNL A   1      34.204  20.954  26.337  1.00  0.00    -0.335 N 
ATOM     13  C   UNL A   1      33.595  22.063  26.775  1.00  0.00     0.315 C 
ATOM     14  H   UNL A   1      34.418  20.321  27.060  1.00  0.00     0.165 HD
ATOM     15  O   UNL A   1      33.169  22.067  27.932  1.00  0.00    -0.249 OA
ATOM     16  H   UNL A   1      32.789  23.806  26.428  1.00  0.00     0.165 HD
BRANCH  12  17
ATOM     17  C   UNL A   1      34.621  20.479  25.022  1.00  0.00     0.083 C 
BRANCH  17  18
ATOM     18  C   UNL A   1      36.142  20.268  25.001  1.00  0.00     0.021 C 
ATOM     19  C   UNL A   1      36.906  21.529  24.628  1.00  0.00     0.006 C 
ENDBRANCH  17  18
BRANCH  17  20
ATOM     20  C   UNL A   1      33.785  19.250  24.612  1.00  0.00     0.021 C 
ATOM     21  C   UNL A   1      32.904  18.661  25.706  1.00  0.00     0.006 C 
ENDBRANCH  17  20
ENDBRANCH  12  17
ENDBRANCH   7  11
ENDBRANCH   4   6
ENDBRANCH   3   4
ENDBRANCH   2   3
ENDBRANCH   1   2
BRANCH   1  22
ATOM     22  O   UNL A   1      30.318  29.560  24.159  1.00  0.00    -0.374 OA
BRANCH  22  23
ATOM     23  C   UNL A   1      31.462  29.480  25.011  1.00  0.00     0.202 C 
BRANCH  23  24
ATOM     24  C   UNL A   1      31.731  30.704  25.893  1.00  0.00     0.261 C 
BRANCH  24  25
ATOM     25  O   UNL A   1      32.704  30.431  26.919  1.00  0.00    -0.460 OA
BRANCH  25  26
ATOM     26  C   UNL A   1      33.408  31.512  27.333  1.00  0.00     0.338 C 
ATOM     27  O   UNL A   1      32.989  32.650  27.502  1.00  0.00    -0.246 OA
BRANCH  26  28
ATOM     28  C   UNL A   1      34.774  31.120  27.724  1.00  0.00     0.060 A 
ATOM     29  C   UNL A   1      35.028  29.754  27.901  1.00  0.00     0.016 A 
ATOM     30  C   UNL A   1      35.761  32.066  28.007  1.00  0.00     0.016 A 
ATOM     31  C   UNL A   1      36.252  29.332  28.416  1.00  0.00     0.010 A 
ATOM     32  C   UNL A   1      36.990  31.641  28.527  1.00  0.00     0.010 A 
ATOM     33  C   UNL A   1      37.224  30.276  28.772  1.00  0.00    -0.014 A 
BRANCH  33  34
ATOM     34  C   UNL A   1      38.406  29.840  29.556  1.00  0.00     0.031 A 
ATOM     35  C   UNL A   1      38.598  30.380  30.947  1.00  0.00     0.074 A 
ATOM     36  C   UNL A   1      39.273  28.941  29.058  1.00  0.00     0.049 A 
ATOM     37  N   UNL A   1      39.553  30.142  31.810  1.00  0.00    -0.248 NA
ATOM     38  C   UNL A   1      37.568  31.314  31.432  1.00  0.00     0.031 C 
ATOM     39  C   UNL A   1      39.174  28.309  27.745  1.00  0.00     0.029 A 
ATOM     40  N   UNL A   1      40.409  28.401  29.609  1.00  0.00    -0.354 N 
ATOM     41  C   UNL A   1      39.241  30.893  32.935  1.00  0.00     0.074 A 
ATOM     42  C   UNL A   1      38.027  31.623  32.634  1.00  0.00     0.031 C 
ATOM     43  C   UNL A   1      40.209  27.466  27.589  1.00  0.00     0.029 A 
ATOM     44  C   UNL A   1      41.056  27.518  28.780  1.00  0.00     0.049 A 
ATOM     45  H   UNL A   1      40.730  28.625  30.513  1.00  0.00     0.167 HD
ATOM     46  C   UNL A   1      39.898  30.959  34.118  1.00  0.00     0.037 A 
ATOM     47  C   UNL A   1      42.206  26.842  28.960  1.00  0.00     0.037 A 
ATOM     48  C   UNL A   1      41.104  30.237  34.420  1.00  0.00     0.049 A 
ATOM     49  C   UNL A   1      42.961  26.993  30.256  1.00  0.00     0.074 A 
ATOM     50  C   UNL A   1      41.844  30.237  35.588  1.00  0.00     0.029 A 
ATOM     51  N   UNL A   1      41.753  29.384  33.537  1.00  0.00    -0.354 N 
ATOM     52  N   UNL A   1      42.651  27.693  31.319  1.00  0.00    -0.248 NA
ATOM     53  C   UNL A   1      44.226  26.253  30.375  1.00  0.00     0.031 C 
ATOM     54  C   UNL A   1      42.963  29.418  35.400  1.00  0.00     0.029 A 
ATOM     55  C   UNL A   1      42.894  28.869  34.130  1.00  0.00     0.049 A 
ATOM     56  H   UNL A   1      41.446  29.176  32.625  1.00  0.00     0.167 HD
ATOM     57  C   UNL A   1      43.660  27.454  32.243  1.00  0.00     0.074 A 
ATOM     58  C   UNL A   1      44.590  26.537  31.617  1.00  0.00     0.031 C 
ATOM     59  C   UNL A   1      43.802  27.946  33.499  1.00  0.00     0.037 A 
BRANCH  46  60
ATOM     60  C   UNL A   1      39.329  31.867  35.170  1.00  0.00     0.064 A 
ATOM     61  C   UNL A   1      38.503  31.378  36.193  1.00  0.00     0.173 A 
ATOM     62  C   UNL A   1      39.628  33.237  35.165  1.00  0.00     0.173 A 
ATOM     63  F   UNL A   1      38.174  30.078  36.233  1.00  0.00    -0.203 F 
ATOM     64  C   UNL A   1      37.974  32.234  37.157  1.00  0.00     0.198 A 
ATOM     65  C   UNL A   1      39.120  34.085  36.145  1.00  0.00     0.198 A 
ATOM     66  F   UNL A   1      40.416  33.753  34.209  1.00  0.00    -0.203 F 
ATOM     67  F   UNL A   1      37.147  31.754  38.096  1.00  0.00    -0.200 F 
ATOM     68  C   UNL A   1      38.288  33.585  37.135  1.00  0.00     0.200 A 
ATOM     69  F   UNL A   1      39.431  35.389  36.128  1.00  0.00    -0.200 F 
ATOM     70  F   UNL A   1      37.779  34.407  38.063  1.00  0.00    -0.200 F 
ENDBRANCH  46  60
BRANCH  47  71
ATOM     71  C   UNL A   1      42.721  25.952  27.887  1.00  0.00     0.064 A 
ATOM     72  C   UNL A   1      43.624  26.429  26.927  1.00  0.00     0.173 A 
ATOM     73  C   UNL A   1      42.307  24.617  27.789  1.00  0.00     0.173 A 
ATOM     74  F   UNL A   1      44.027  27.708  26.964  1.00  0.00    -0.203 F 
ATOM     75  C   UNL A   1      44.080  25.607  25.899  1.00  0.00     0.198 A 
ATOM     76  C   UNL A   1      42.784  23.788  26.776  1.00  0.00     0.198 A 
ATOM     77  F   UNL A   1      41.442  24.114  28.682  1.00  0.00    -0.203 F 
ATOM     78  F   UNL A   1      44.909  26.099  24.968  1.00  0.00    -0.200 F 
ATOM     79  C   UNL A   1      43.665  24.286  25.828  1.00  0.00     0.200 A 
ATOM     80  F   UNL A   1      42.388  22.510  26.716  1.00  0.00    -0.200 F 
ATOM     81  F   UNL A   1      44.107  23.495  24.840  1.00  0.00    -0.200 F 
ENDBRANCH  47  71
BRANCH  59  82
ATOM     82  C   UNL A   1      44.980  27.468  34.298  1.00  0.00     0.064 A 
ATOM     83  C   UNL A   1      46.196  28.166  34.308  1.00  0.00     0.173 A 
ATOM     84  C   UNL A   1      44.875  26.319  35.096  1.00  0.00     0.173 A 
ATOM     85  F   UNL A   1      46.352  29.263  33.551  1.00  0.00    -0.203 F 
ATOM     86  C   UNL A   1      47.273  27.715  35.067  1.00  0.00     0.198 A 
ATOM     87  C   UNL A   1      45.944  25.886  35.875  1.00  0.00     0.198 A 
ATOM     88  F   UNL A   1      43.730  25.619  35.127  1.00  0.00    -0.203 F 
ATOM     89  F   UNL A   1      48.441  28.371  35.026  1.00  0.00    -0.200 F 
ATOM     90  C   UNL A   1      47.145  26.580  35.855  1.00  0.00     0.200 A 
ATOM     91  F   UNL A   1      45.814  24.797  36.645  1.00  0.00    -0.200 F 
ATOM     92  F   UNL A   1      48.180  26.150  36.589  1.00  0.00    -0.200 F 
ENDBRANCH  59  82
ENDBRANCH  33  34
ENDBRANCH  26  28
ENDBRANCH  25  26
ENDBRANCH  24  25
ENDBRANCH  23  24
ENDBRANCH  22  23
ENDBRANCH   1  22
TORSDOF 18
ENDMDL
