MODEL 1
REMARK VINA RESULT:     -14.1      0.000      0.000
REMARK SMILES Cc1cccc(N2C(=O)/C(=C/c3ccc(C(=O)OCCOCCOC(=O)c4ccc(-c5c6nc(c(-c7c(F)c(F)c(F)c(F)c7F)c7ccc([nH]7)c(-c7c(F)c(F)c(F)c(F)c7F)c7nc(c(-c8c(F)c(F)c(F)c(F)c8F)c8ccc5[nH]8)C=C7)C=C6)cc4)cc3)c3ccccc3C2=O)c1
REMARK SMILES IDX 21 1 20 2 19 3 18 4 16 5 17 6 15 7 12 8 13 9 91 10 14 11
REMARK SMILES IDX 90 12 11 13 7 14 8 15 98 16 9 17 10 18 97 19 99 20 92 21
REMARK SMILES IDX 96 22 93 23 95 24 94 25 6 26 1 27 2 28 3 29 100 30 4 31 5 32
REMARK SMILES IDX 22 33 23 34 24 35 25 36 26 37 27 38 28 39 89 40 29 41 88 42
REMARK SMILES IDX 30 43 31 44 32 45 82 46 33 47 87 48 81 49 83 50 34 51 86 52
REMARK SMILES IDX 80 53 79 54 35 56 67 57 47 58 66 59 48 60 51 61 65 62 84 63
REMARK SMILES IDX 49 64 50 65 64 67 85 68 52 69 36 70 37 71 45 72 38 73 39 74
REMARK SMILES IDX 43 75 46 76 40 77 41 78 44 79 42 80 68 81 69 82 77 83 70 84
REMARK SMILES IDX 71 85 75 86 78 87 72 88 73 89 76 90 74 91 53 92 54 93 62 94
REMARK SMILES IDX 55 95 56 96 60 97 63 98 57 99 58 100 61 101 59 102
REMARK H PARENT 83 55 51 66
REMARK Flexibility Score: inf
ROOT
ATOM      1  O   UNL A   1      32.528  34.676  28.933  1.00  0.00    -0.374 OA
ENDROOT
BRANCH   1   2
ATOM      2  C   UNL A   1      33.325  33.829  28.123  1.00  0.00     0.202 C 
BRANCH   2   3
ATOM      3  C   UNL A   1      32.370  33.069  27.241  1.00  0.00     0.261 C 
BRANCH   3   4
ATOM      4  O   UNL A   1      32.724  31.678  27.113  1.00  0.00    -0.460 OA
BRANCH   4   5
ATOM      5  C   UNL A   1      31.895  30.817  26.437  1.00  0.00     0.338 C 
ATOM      6  O   UNL A   1      31.098  31.037  25.580  1.00  0.00    -0.246 OA
BRANCH   5   7
ATOM      7  C   UNL A   1      32.321  29.469  26.862  1.00  0.00     0.060 A 
ATOM      8  C   UNL A   1      32.521  26.735  26.864  1.00  0.00    -0.025 A 
ATOM      9  C   UNL A   1      31.503  27.349  27.603  1.00  0.00     0.009 A 
ATOM     10  C   UNL A   1      33.574  27.496  26.345  1.00  0.00     0.009 A 
ATOM     11  C   UNL A   1      31.406  28.733  27.615  1.00  0.00     0.016 A 
ATOM     12  C   UNL A   1      33.457  28.875  26.310  1.00  0.00     0.016 A 
BRANCH   8  13
ATOM     13  C   UNL A   1      32.383  25.318  26.535  1.00  0.00     0.022 C 
ATOM     14  N   UNL A   1      32.813  22.824  24.186  1.00  0.00    -0.242 N 
ATOM     15  C   UNL A   1      32.066  23.332  25.266  1.00  0.00     0.265 C 
ATOM     16  C   UNL A   1      33.178  23.670  23.107  1.00  0.00     0.265 C 
ATOM     17  O   UNL A   1      31.474  22.730  26.159  1.00  0.00    -0.268 OA
ATOM     18  C   UNL A   1      32.041  24.818  25.327  1.00  0.00     0.049 C 
ATOM     19  C   UNL A   1      32.432  24.948  22.954  1.00  0.00     0.048 A 
ATOM     20  O   UNL A   1      34.041  23.472  22.254  1.00  0.00    -0.268 OA
ATOM     21  C   UNL A   1      31.810  25.513  24.064  1.00  0.00    -0.000 A 
ATOM     22  C   UNL A   1      32.363  25.582  21.705  1.00  0.00     0.014 A 
ATOM     23  C   UNL A   1      31.032  26.667  23.901  1.00  0.00     0.010 A 
ATOM     24  C   UNL A   1      31.630  26.759  21.557  1.00  0.00     0.001 A 
ATOM     25  C   UNL A   1      30.953  27.293  22.652  1.00  0.00     0.001 A 
BRANCH  14  26
ATOM     26  C   UNL A   1      33.239  21.424  24.208  1.00  0.00     0.053 A 
ATOM     27  C   UNL A   1      32.156  18.066  22.694  1.00  0.00     0.044 C 
ATOM     28  C   UNL A   1      32.929  19.070  23.498  1.00  0.00    -0.049 A 
ATOM     29  C   UNL A   1      34.027  18.678  24.255  1.00  0.00     0.003 A 
ATOM     30  C   UNL A   1      32.564  20.428  23.472  1.00  0.00     0.030 A 
ATOM     31  C   UNL A   1      34.728  19.629  24.984  1.00  0.00     0.002 A 
ATOM     32  C   UNL A   1      34.335  20.975  24.963  1.00  0.00     0.027 A 
ENDBRANCH  14  26
ENDBRANCH   8  13
ENDBRANCH   5   7
ENDBRANCH   4   5
ENDBRANCH   3   4
ENDBRANCH   2   3
ENDBRANCH   1   2
BRANCH   1  33
ATOM     33  C   UNL A   1      33.062  35.959  29.197  1.00  0.00     0.202 C 
BRANCH  33  34
ATOM     34  C   UNL A   1      32.717  36.474  30.600  1.00  0.00     0.261 C 
BRANCH  34  35
ATOM     35  O   UNL A   1      32.852  35.401  31.553  1.00  0.00    -0.460 OA
BRANCH  35  36
ATOM     36  C   UNL A   1      34.008  35.393  32.271  1.00  0.00     0.338 C 
ATOM     37  O   UNL A   1      34.478  36.349  32.866  1.00  0.00    -0.246 OA
BRANCH  36  38
ATOM     38  C   UNL A   1      34.765  34.139  31.990  1.00  0.00     0.060 A 
ATOM     39  C   UNL A   1      34.698  33.061  32.893  1.00  0.00     0.016 A 
ATOM     40  C   UNL A   1      35.757  34.162  31.015  1.00  0.00     0.016 A 
ATOM     41  C   UNL A   1      35.719  32.099  32.922  1.00  0.00     0.010 A 
ATOM     42  C   UNL A   1      36.801  33.264  31.107  1.00  0.00     0.010 A 
ATOM     43  C   UNL A   1      36.820  32.253  32.084  1.00  0.00    -0.014 A 
BRANCH  43  44
ATOM     44  C   UNL A   1      38.096  31.531  32.179  1.00  0.00     0.031 A 
ATOM     45  C   UNL A   1      38.266  30.278  31.397  1.00  0.00     0.074 A 
ATOM     46  C   UNL A   1      39.204  32.149  32.662  1.00  0.00     0.049 A 
ATOM     47  N   UNL A   1      39.338  29.564  31.415  1.00  0.00    -0.248 NA
ATOM     48  C   UNL A   1      37.226  29.685  30.553  1.00  0.00     0.031 C 
ATOM     49  C   UNL A   1      40.597  31.912  32.263  1.00  0.00     0.029 A 
ATOM     50  N   UNL A   1      39.332  33.152  33.637  1.00  0.00    -0.354 N 
ATOM     51  C   UNL A   1      39.290  28.715  30.338  1.00  0.00     0.074 A 
ATOM     52  C   UNL A   1      37.906  28.705  29.945  1.00  0.00     0.031 C 
ATOM     53  C   UNL A   1      41.426  32.488  33.149  1.00  0.00     0.029 A 
ATOM     54  C   UNL A   1      40.601  32.992  34.227  1.00  0.00     0.049 A 
ATOM     55  H   UNL A   1      38.664  33.837  33.864  1.00  0.00     0.167 HD
ATOM     56  C   UNL A   1      40.469  28.250  29.837  1.00  0.00     0.037 A 
ATOM     57  C   UNL A   1      40.740  32.734  35.557  1.00  0.00     0.037 A 
ATOM     58  C   UNL A   1      41.579  28.559  30.751  1.00  0.00     0.049 A 
ATOM     59  C   UNL A   1      41.425  31.413  35.742  1.00  0.00     0.074 A 
ATOM     60  C   UNL A   1      42.687  29.384  30.681  1.00  0.00     0.029 A 
ATOM     61  N   UNL A   1      41.480  28.153  32.084  1.00  0.00    -0.354 N 
ATOM     62  N   UNL A   1      41.464  30.521  34.790  1.00  0.00    -0.248 NA
ATOM     63  C   UNL A   1      42.170  31.000  36.923  1.00  0.00     0.031 C 
ATOM     64  C   UNL A   1      43.197  29.539  32.005  1.00  0.00     0.029 A 
ATOM     65  C   UNL A   1      42.431  28.771  32.870  1.00  0.00     0.049 A 
ATOM     66  H   UNL A   1      40.817  27.508  32.420  1.00  0.00     0.167 HD
ATOM     67  C   UNL A   1      42.267  29.490  35.157  1.00  0.00     0.074 A 
ATOM     68  C   UNL A   1      42.655  29.810  36.519  1.00  0.00     0.031 C 
ATOM     69  C   UNL A   1      42.536  28.467  34.296  1.00  0.00     0.037 A 
BRANCH  56  70
ATOM     70  C   UNL A   1      40.671  27.648  28.457  1.00  0.00     0.064 A 
ATOM     71  C   UNL A   1      40.238  26.330  28.188  1.00  0.00     0.173 A 
ATOM     72  C   UNL A   1      41.358  28.263  27.386  1.00  0.00     0.173 A 
ATOM     73  F   UNL A   1      39.597  25.607  29.116  1.00  0.00    -0.203 F 
ATOM     74  C   UNL A   1      40.461  25.696  26.958  1.00  0.00     0.198 A 
ATOM     75  C   UNL A   1      41.530  27.649  26.140  1.00  0.00     0.198 A 
ATOM     76  F   UNL A   1      41.949  29.455  27.506  1.00  0.00    -0.203 F 
ATOM     77  F   UNL A   1      40.067  24.427  26.782  1.00  0.00    -0.200 F 
ATOM     78  C   UNL A   1      41.090  26.363  25.927  1.00  0.00     0.200 A 
ATOM     79  F   UNL A   1      42.152  28.315  25.154  1.00  0.00    -0.200 F 
ATOM     80  F   UNL A   1      41.288  25.765  24.744  1.00  0.00    -0.200 F 
ENDBRANCH  56  70
BRANCH  57  81
ATOM     81  C   UNL A   1      39.649  33.368  36.349  1.00  0.00     0.064 A 
ATOM     82  C   UNL A   1      38.632  32.500  36.810  1.00  0.00     0.173 A 
ATOM     83  C   UNL A   1      39.871  34.542  37.083  1.00  0.00     0.173 A 
ATOM     84  F   UNL A   1      38.393  31.348  36.161  1.00  0.00    -0.203 F 
ATOM     85  C   UNL A   1      37.991  32.712  38.029  1.00  0.00     0.198 A 
ATOM     86  C   UNL A   1      39.215  34.753  38.303  1.00  0.00     0.198 A 
ATOM     87  F   UNL A   1      40.831  35.399  36.711  1.00  0.00    -0.203 F 
ATOM     88  F   UNL A   1      37.160  31.780  38.519  1.00  0.00    -0.200 F 
ATOM     89  C   UNL A   1      38.315  33.818  38.794  1.00  0.00     0.200 A 
ATOM     90  F   UNL A   1      39.542  35.810  39.061  1.00  0.00    -0.200 F 
ATOM     91  F   UNL A   1      37.811  33.948  40.030  1.00  0.00    -0.200 F 
ENDBRANCH  57  81
BRANCH  69  92
ATOM     92  C   UNL A   1      42.974  27.096  34.728  1.00  0.00     0.064 A 
ATOM     93  C   UNL A   1      42.073  26.055  35.009  1.00  0.00     0.173 A 
ATOM     94  C   UNL A   1      44.338  26.728  34.667  1.00  0.00     0.173 A 
ATOM     95  F   UNL A   1      40.747  26.244  34.978  1.00  0.00    -0.203 F 
ATOM     96  C   UNL A   1      42.507  24.756  35.267  1.00  0.00     0.198 A 
ATOM     97  C   UNL A   1      44.761  25.416  34.855  1.00  0.00     0.198 A 
ATOM     98  F   UNL A   1      45.297  27.622  34.379  1.00  0.00    -0.203 F 
ATOM     99  F   UNL A   1      41.611  23.808  35.571  1.00  0.00    -0.200 F 
ATOM    100  C   UNL A   1      43.847  24.433  35.173  1.00  0.00     0.200 A 
ATOM    101  F   UNL A   1      46.055  25.107  34.698  1.00  0.00    -0.200 F 
ATOM    102  F   UNL A   1      44.253  23.172  35.363  1.00  0.00    -0.200 F 
ENDBRANCH  69  92
ENDBRANCH  43  44
ENDBRANCH  36  38
ENDBRANCH  35  36
ENDBRANCH  34  35
ENDBRANCH  33  34
ENDBRANCH   1  33
TORSDOF 16
ENDMDL
MODEL 2
REMARK VINA RESULT:     -12.6      4.081     10.265
REMARK SMILES Cc1cccc(N2C(=O)/C(=C/c3ccc(C(=O)OCCOCCOC(=O)c4ccc(-c5c6nc(c(-c7c(F)c(F)c(F)c(F)c7F)c7ccc([nH]7)c(-c7c(F)c(F)c(F)c(F)c7F)c7nc(c(-c8c(F)c(F)c(F)c(F)c8F)c8ccc5[nH]8)C=C7)C=C6)cc4)cc3)c3ccccc3C2=O)c1
REMARK SMILES IDX 21 1 20 2 19 3 18 4 16 5 17 6 15 7 12 8 13 9 91 10 14 11
REMARK SMILES IDX 90 12 11 13 7 14 8 15 98 16 9 17 10 18 97 19 99 20 92 21
REMARK SMILES IDX 96 22 93 23 95 24 94 25 6 26 1 27 2 28 3 29 100 30 4 31 5 32
REMARK SMILES IDX 22 33 23 34 24 35 25 36 26 37 27 38 28 39 89 40 29 41 88 42
REMARK SMILES IDX 30 43 31 44 32 45 82 46 33 47 87 48 81 49 83 50 34 51 86 52
REMARK SMILES IDX 80 53 79 54 35 56 67 57 47 58 66 59 48 60 51 61 65 62 84 63
REMARK SMILES IDX 49 64 50 65 64 67 85 68 52 69 36 70 37 71 45 72 38 73 39 74
REMARK SMILES IDX 43 75 46 76 40 77 41 78 44 79 42 80 68 81 69 82 77 83 70 84
REMARK SMILES IDX 71 85 75 86 78 87 72 88 73 89 76 90 74 91 53 92 54 93 62 94
REMARK SMILES IDX 55 95 56 96 60 97 63 98 57 99 58 100 61 101 59 102
REMARK H PARENT 83 55 51 66
REMARK Flexibility Score: inf
ROOT
ATOM      1  O   UNL A   1      37.418  21.299  25.440  1.00  0.00    -0.374 OA
ENDROOT
BRANCH   1   2
ATOM      2  C   UNL A   1      36.856  21.973  24.326  1.00  0.00     0.202 C 
BRANCH   2   3
ATOM      3  C   UNL A   1      35.925  23.013  24.890  1.00  0.00     0.261 C 
BRANCH   3   4
ATOM      4  O   UNL A   1      34.697  22.444  25.385  1.00  0.00    -0.460 OA
BRANCH   4   5
ATOM      5  C   UNL A   1      34.077  21.436  24.689  1.00  0.00     0.338 C 
ATOM      6  O   UNL A   1      34.291  20.265  24.686  1.00  0.00    -0.246 OA
BRANCH   5   7
ATOM      7  C   UNL A   1      32.915  22.079  24.045  1.00  0.00     0.060 A 
ATOM      8  C   UNL A   1      31.055  24.011  23.473  1.00  0.00    -0.025 A 
ATOM      9  C   UNL A   1      30.794  23.088  24.493  1.00  0.00     0.009 A 
ATOM     10  C   UNL A   1      32.117  23.801  22.587  1.00  0.00     0.009 A 
ATOM     11  C   UNL A   1      31.728  22.101  24.777  1.00  0.00     0.016 A 
ATOM     12  C   UNL A   1      33.076  22.851  22.894  1.00  0.00     0.016 A 
BRANCH   8  13
ATOM     13  C   UNL A   1      30.285  25.252  23.446  1.00  0.00     0.022 C 
ATOM     14  N   UNL A   1      30.336  28.704  23.383  1.00  0.00    -0.242 N 
ATOM     15  C   UNL A   1      29.686  27.526  23.797  1.00  0.00     0.265 C 
ATOM     16  C   UNL A   1      31.734  28.855  23.575  1.00  0.00     0.265 C 
ATOM     17  O   UNL A   1      28.484  27.300  23.923  1.00  0.00    -0.268 OA
ATOM     18  C   UNL A   1      30.614  26.399  24.079  1.00  0.00     0.049 C 
ATOM     19  C   UNL A   1      32.393  27.950  24.556  1.00  0.00     0.048 A 
ATOM     20  O   UNL A   1      32.485  29.664  23.036  1.00  0.00    -0.268 OA
ATOM     21  C   UNL A   1      31.808  26.724  24.855  1.00  0.00    -0.000 A 
ATOM     22  C   UNL A   1      33.599  28.327  25.165  1.00  0.00     0.014 A 
ATOM     23  C   UNL A   1      32.381  25.914  25.845  1.00  0.00     0.010 A 
ATOM     24  C   UNL A   1      34.194  27.494  26.113  1.00  0.00     0.001 A 
ATOM     25  C   UNL A   1      33.576  26.295  26.463  1.00  0.00     0.001 A 
BRANCH  14  26
ATOM     26  C   UNL A   1      29.561  29.753  22.720  1.00  0.00     0.053 A 
ATOM     27  C   UNL A   1      28.829  33.497  23.155  1.00  0.00     0.044 C 
ATOM     28  C   UNL A   1      28.793  32.106  22.593  1.00  0.00    -0.049 A 
ATOM     29  C   UNL A   1      28.034  31.816  21.465  1.00  0.00     0.003 A 
ATOM     30  C   UNL A   1      29.553  31.083  23.189  1.00  0.00     0.030 A 
ATOM     31  C   UNL A   1      28.025  30.523  20.962  1.00  0.00     0.002 A 
ATOM     32  C   UNL A   1      28.771  29.511  21.584  1.00  0.00     0.027 A 
ENDBRANCH  14  26
ENDBRANCH   8  13
ENDBRANCH   5   7
ENDBRANCH   4   5
ENDBRANCH   3   4
ENDBRANCH   2   3
ENDBRANCH   1   2
BRANCH   1  33
ATOM     33  C   UNL A   1      38.808  21.046  25.371  1.00  0.00     0.202 C 
BRANCH  33  34
ATOM     34  C   UNL A   1      39.578  21.599  26.576  1.00  0.00     0.261 C 
BRANCH  34  35
ATOM     35  O   UNL A   1      39.508  23.039  26.572  1.00  0.00    -0.460 OA
BRANCH  35  36
ATOM     36  C   UNL A   1      40.425  23.675  27.350  1.00  0.00     0.338 C 
ATOM     37  O   UNL A   1      41.290  23.128  28.015  1.00  0.00    -0.246 OA
BRANCH  36  38
ATOM     38  C   UNL A   1      40.046  25.110  27.502  1.00  0.00     0.060 A 
ATOM     39  C   UNL A   1      40.453  26.050  26.537  1.00  0.00     0.016 A 
ATOM     40  C   UNL A   1      39.570  25.547  28.735  1.00  0.00     0.016 A 
ATOM     41  C   UNL A   1      40.537  27.412  26.868  1.00  0.00     0.010 A 
ATOM     42  C   UNL A   1      39.738  26.872  29.081  1.00  0.00     0.010 A 
ATOM     43  C   UNL A   1      40.263  27.810  28.173  1.00  0.00    -0.014 A 
BRANCH  43  44
ATOM     44  C   UNL A   1      40.576  29.116  28.770  1.00  0.00     0.031 A 
ATOM     45  C   UNL A   1      39.507  30.146  28.834  1.00  0.00     0.074 A 
ATOM     46  C   UNL A   1      41.672  29.269  29.557  1.00  0.00     0.049 A 
ATOM     47  N   UNL A   1      39.677  31.323  29.328  1.00  0.00    -0.248 NA
ATOM     48  C   UNL A   1      38.152  29.963  28.307  1.00  0.00     0.031 C 
ATOM     49  C   UNL A   1      41.820  30.172  30.706  1.00  0.00     0.029 A 
ATOM     50  N   UNL A   1      42.923  28.632  29.507  1.00  0.00    -0.354 N 
ATOM     51  C   UNL A   1      38.436  31.862  29.555  1.00  0.00     0.074 A 
ATOM     52  C   UNL A   1      37.543  31.067  28.755  1.00  0.00     0.031 C 
ATOM     53  C   UNL A   1      43.115  30.260  31.049  1.00  0.00     0.029 A 
ATOM     54  C   UNL A   1      43.864  29.532  30.045  1.00  0.00     0.049 A 
ATOM     55  H   UNL A   1      43.107  27.730  29.161  1.00  0.00     0.167 HD
ATOM     56  C   UNL A   1      38.321  32.825  30.513  1.00  0.00     0.037 A 
ATOM     57  C   UNL A   1      44.911  29.993  29.308  1.00  0.00     0.037 A 
ATOM     58  C   UNL A   1      39.649  33.290  30.941  1.00  0.00     0.049 A 
ATOM     59  C   UNL A   1      44.820  31.485  29.186  1.00  0.00     0.074 A 
ATOM     60  C   UNL A   1      40.372  33.201  32.117  1.00  0.00     0.029 A 
ATOM     61  N   UNL A   1      40.544  33.746  29.969  1.00  0.00    -0.354 N 
ATOM     62  N   UNL A   1      43.700  32.122  29.390  1.00  0.00    -0.248 NA
ATOM     63  C   UNL A   1      45.931  32.385  28.913  1.00  0.00     0.031 C 
ATOM     64  C   UNL A   1      41.730  33.521  31.817  1.00  0.00     0.029 A 
ATOM     65  C   UNL A   1      41.823  33.852  30.474  1.00  0.00     0.049 A 
ATOM     66  H   UNL A   1      40.293  33.962  29.042  1.00  0.00     0.167 HD
ATOM     67  C   UNL A   1      43.921  33.461  29.367  1.00  0.00     0.074 A 
ATOM     68  C   UNL A   1      45.326  33.583  29.023  1.00  0.00     0.031 C 
ATOM     69  C   UNL A   1      42.918  34.344  29.639  1.00  0.00     0.037 A 
BRANCH  56  70
ATOM     70  C   UNL A   1      37.031  33.256  31.189  1.00  0.00     0.064 A 
ATOM     71  C   UNL A   1      36.050  33.963  30.458  1.00  0.00     0.173 A 
ATOM     72  C   UNL A   1      36.730  33.095  32.560  1.00  0.00     0.173 A 
ATOM     73  F   UNL A   1      36.207  34.218  29.152  1.00  0.00    -0.203 F 
ATOM     74  C   UNL A   1      34.873  34.449  31.045  1.00  0.00     0.198 A 
ATOM     75  C   UNL A   1      35.529  33.531  33.131  1.00  0.00     0.198 A 
ATOM     76  F   UNL A   1      37.600  32.568  33.427  1.00  0.00    -0.203 F 
ATOM     77  F   UNL A   1      34.003  35.153  30.308  1.00  0.00    -0.200 F 
ATOM     78  C   UNL A   1      34.604  34.216  32.377  1.00  0.00     0.200 A 
ATOM     79  F   UNL A   1      35.292  33.301  34.433  1.00  0.00    -0.200 F 
ATOM     80  F   UNL A   1      33.471  34.664  32.936  1.00  0.00    -0.200 F 
ENDBRANCH  56  70
BRANCH  57  81
ATOM     81  C   UNL A   1      45.367  28.976  28.319  1.00  0.00     0.064 A 
ATOM     82  C   UNL A   1      46.131  27.905  28.839  1.00  0.00     0.173 A 
ATOM     83  C   UNL A   1      44.653  28.739  27.136  1.00  0.00     0.173 A 
ATOM     84  F   UNL A   1      46.815  28.066  29.984  1.00  0.00    -0.203 F 
ATOM     85  C   UNL A   1      46.048  26.622  28.299  1.00  0.00     0.198 A 
ATOM     86  C   UNL A   1      44.583  27.450  26.593  1.00  0.00     0.198 A 
ATOM     87  F   UNL A   1      43.896  29.706  26.600  1.00  0.00    -0.203 F 
ATOM     88  F   UNL A   1      46.647  25.595  28.920  1.00  0.00    -0.200 F 
ATOM     89  C   UNL A   1      45.239  26.389  27.201  1.00  0.00     0.200 A 
ATOM     90  F   UNL A   1      43.781  27.210  25.545  1.00  0.00    -0.200 F 
ATOM     91  F   UNL A   1      45.042  25.134  26.769  1.00  0.00    -0.200 F 
ENDBRANCH  57  81
BRANCH  69  92
ATOM     92  C   UNL A   1      42.909  35.775  29.179  1.00  0.00     0.064 A 
ATOM     93  C   UNL A   1      42.228  36.208  28.029  1.00  0.00     0.173 A 
ATOM     94  C   UNL A   1      43.419  36.798  30.012  1.00  0.00     0.173 A 
ATOM     95  F   UNL A   1      41.595  35.347  27.220  1.00  0.00    -0.203 F 
ATOM     96  C   UNL A   1      42.116  37.559  27.704  1.00  0.00     0.198 A 
ATOM     97  C   UNL A   1      43.243  38.147  29.721  1.00  0.00     0.198 A 
ATOM     98  F   UNL A   1      44.065  36.520  31.154  1.00  0.00    -0.203 F 
ATOM     99  F   UNL A   1      41.492  37.917  26.574  1.00  0.00    -0.200 F 
ATOM    100  C   UNL A   1      42.607  38.527  28.558  1.00  0.00     0.200 A 
ATOM    101  F   UNL A   1      43.668  39.074  30.590  1.00  0.00    -0.200 F 
ATOM    102  F   UNL A   1      42.444  39.825  28.272  1.00  0.00    -0.200 F 
ENDBRANCH  69  92
ENDBRANCH  43  44
ENDBRANCH  36  38
ENDBRANCH  35  36
ENDBRANCH  34  35
ENDBRANCH  33  34
ENDBRANCH   1  33
TORSDOF 16
ENDMDL
MODEL 3
REMARK VINA RESULT:     -12.5      3.659     10.550
REMARK SMILES Cc1cccc(N2C(=O)/C(=C/c3ccc(C(=O)OCCOCCOC(=O)c4ccc(-c5c6nc(c(-c7c(F)c(F)c(F)c(F)c7F)c7ccc([nH]7)c(-c7c(F)c(F)c(F)c(F)c7F)c7nc(c(-c8c(F)c(F)c(F)c(F)c8F)c8ccc5[nH]8)C=C7)C=C6)cc4)cc3)c3ccccc3C2=O)c1
REMARK SMILES IDX 21 1 20 2 19 3 18 4 16 5 17 6 15 7 12 8 13 9 91 10 14 11
REMARK SMILES IDX 90 12 11 13 7 14 8 15 98 16 9 17 10 18 97 19 99 20 92 21
REMARK SMILES IDX 96 22 93 23 95 24 94 25 6 26 1 27 2 28 3 29 100 30 4 31 5 32
REMARK SMILES IDX 22 33 23 34 24 35 25 36 26 37 27 38 28 39 89 40 29 41 88 42
REMARK SMILES IDX 30 43 31 44 32 45 82 46 33 47 87 48 81 49 83 50 34 51 86 52
REMARK SMILES IDX 80 53 79 54 35 56 67 57 47 58 66 59 48 60 51 61 65 62 84 63
REMARK SMILES IDX 49 64 50 65 64 67 85 68 52 69 36 70 37 71 45 72 38 73 39 74
REMARK SMILES IDX 43 75 46 76 40 77 41 78 44 79 42 80 68 81 69 82 77 83 70 84
REMARK SMILES IDX 71 85 75 86 78 87 72 88 73 89 76 90 74 91 53 92 54 93 62 94
REMARK SMILES IDX 55 95 56 96 60 97 63 98 57 99 58 100 61 101 59 102
REMARK H PARENT 83 55 51 66
REMARK Flexibility Score: inf
ROOT
ATOM      1  O   UNL A   1      36.270  20.870  25.384  1.00  0.00    -0.374 OA
ENDROOT
BRANCH   1   2
ATOM      2  C   UNL A   1      34.924  21.201  25.091  1.00  0.00     0.202 C 
BRANCH   2   3
ATOM      3  C   UNL A   1      34.139  20.919  26.345  1.00  0.00     0.261 C 
BRANCH   3   4
ATOM      4  O   UNL A   1      33.208  21.973  26.662  1.00  0.00    -0.460 OA
BRANCH   4   5
ATOM      5  C   UNL A   1      32.125  22.200  25.850  1.00  0.00     0.338 C 
ATOM      6  O   UNL A   1      31.235  21.473  25.539  1.00  0.00    -0.246 OA
BRANCH   5   7
ATOM      7  C   UNL A   1      32.168  23.647  25.556  1.00  0.00     0.060 A 
ATOM      8  C   UNL A   1      32.900  26.279  25.783  1.00  0.00    -0.025 A 
ATOM      9  C   UNL A   1      31.806  25.805  26.517  1.00  0.00     0.009 A 
ATOM     10  C   UNL A   1      33.451  25.503  24.758  1.00  0.00     0.009 A 
ATOM     11  C   UNL A   1      31.425  24.476  26.395  1.00  0.00     0.016 A 
ATOM     12  C   UNL A   1      33.109  24.165  24.666  1.00  0.00     0.016 A 
BRANCH   8  13
ATOM     13  C   UNL A   1      33.529  27.528  26.203  1.00  0.00     0.022 C 
ATOM     14  N   UNL A   1      33.134  30.881  26.930  1.00  0.00    -0.242 N 
ATOM     15  C   UNL A   1      33.959  29.857  26.429  1.00  0.00     0.265 C 
ATOM     16  C   UNL A   1      31.786  30.988  26.501  1.00  0.00     0.265 C 
ATOM     17  O   UNL A   1      35.180  29.732  26.499  1.00  0.00    -0.268 OA
ATOM     18  C   UNL A   1      33.210  28.762  25.755  1.00  0.00     0.049 C 
ATOM     19  C   UNL A   1      31.404  30.274  25.252  1.00  0.00     0.048 A 
ATOM     20  O   UNL A   1      30.875  31.621  27.031  1.00  0.00    -0.268 OA
ATOM     21  C   UNL A   1      32.150  29.175  24.840  1.00  0.00    -0.000 A 
ATOM     22  C   UNL A   1      30.297  30.701  24.504  1.00  0.00     0.014 A 
ATOM     23  C   UNL A   1      31.845  28.559  23.618  1.00  0.00     0.010 A 
ATOM     24  C   UNL A   1      29.966  30.053  23.314  1.00  0.00     0.001 A 
ATOM     25  C   UNL A   1      30.749  28.992  22.864  1.00  0.00     0.001 A 
BRANCH  14  26
ATOM     26  C   UNL A   1      33.672  31.810  27.925  1.00  0.00     0.053 A 
ATOM     27  C   UNL A   1      33.396  35.531  28.828  1.00  0.00     0.044 C 
ATOM     28  C   UNL A   1      33.829  34.095  28.870  1.00  0.00    -0.049 A 
ATOM     29  C   UNL A   1      34.728  33.654  29.834  1.00  0.00     0.003 A 
ATOM     30  C   UNL A   1      33.304  33.171  27.948  1.00  0.00     0.030 A 
ATOM     31  C   UNL A   1      35.107  32.319  29.855  1.00  0.00     0.002 A 
ATOM     32  C   UNL A   1      34.590  31.418  28.913  1.00  0.00     0.027 A 
ENDBRANCH  14  26
ENDBRANCH   8  13
ENDBRANCH   5   7
ENDBRANCH   4   5
ENDBRANCH   3   4
ENDBRANCH   2   3
ENDBRANCH   1   2
BRANCH   1  33
ATOM     33  C   UNL A   1      37.252  21.543  24.619  1.00  0.00     0.202 C 
BRANCH  33  34
ATOM     34  C   UNL A   1      37.796  22.798  25.312  1.00  0.00     0.261 C 
BRANCH  34  35
ATOM     35  O   UNL A   1      38.375  22.433  26.581  1.00  0.00    -0.460 OA
BRANCH  35  36
ATOM     36  C   UNL A   1      39.625  22.917  26.819  1.00  0.00     0.338 C 
ATOM     37  O   UNL A   1      40.618  22.239  27.022  1.00  0.00    -0.246 OA
BRANCH  36  38
ATOM     38  C   UNL A   1      39.554  24.383  27.082  1.00  0.00     0.060 A 
ATOM     39  C   UNL A   1      40.062  25.291  26.135  1.00  0.00     0.016 A 
ATOM     40  C   UNL A   1      39.276  24.817  28.375  1.00  0.00     0.016 A 
ATOM     41  C   UNL A   1      40.444  26.584  26.528  1.00  0.00     0.010 A 
ATOM     42  C   UNL A   1      39.733  26.056  28.774  1.00  0.00     0.010 A 
ATOM     43  C   UNL A   1      40.361  26.935  27.873  1.00  0.00    -0.014 A 
BRANCH  43  44
ATOM     44  C   UNL A   1      40.976  28.109  28.506  1.00  0.00     0.031 A 
ATOM     45  C   UNL A   1      40.099  29.226  28.943  1.00  0.00     0.074 A 
ATOM     46  C   UNL A   1      42.236  28.041  29.007  1.00  0.00     0.049 A 
ATOM     47  N   UNL A   1      40.535  30.303  29.499  1.00  0.00    -0.248 NA
ATOM     48  C   UNL A   1      38.646  29.257  28.754  1.00  0.00     0.031 C 
ATOM     49  C   UNL A   1      42.769  28.761  30.171  1.00  0.00     0.029 A 
ATOM     50  N   UNL A   1      43.345  27.291  28.579  1.00  0.00    -0.354 N 
ATOM     51  C   UNL A   1      39.465  30.932  30.084  1.00  0.00     0.074 A 
ATOM     52  C   UNL A   1      38.312  30.348  29.454  1.00  0.00     0.031 C 
ATOM     53  C   UNL A   1      44.108  28.668  30.188  1.00  0.00     0.029 A 
ATOM     54  C   UNL A   1      44.497  28.009  28.958  1.00  0.00     0.049 A 
ATOM     55  H   UNL A   1      43.321  26.429  28.106  1.00  0.00     0.167 HD
ATOM     56  C   UNL A   1      39.708  31.764  31.136  1.00  0.00     0.037 A 
ATOM     57  C   UNL A   1      45.393  28.453  28.036  1.00  0.00     0.037 A 
ATOM     58  C   UNL A   1      41.148  32.028  31.267  1.00  0.00     0.049 A 
ATOM     59  C   UNL A   1      45.475  29.950  28.098  1.00  0.00     0.074 A 
ATOM     60  C   UNL A   1      42.109  31.707  32.209  1.00  0.00     0.029 A 
ATOM     61  N   UNL A   1      41.842  32.515  30.155  1.00  0.00    -0.354 N 
ATOM     62  N   UNL A   1      44.530  30.666  28.641  1.00  0.00    -0.248 NA
ATOM     63  C   UNL A   1      46.601  30.758  27.653  1.00  0.00     0.031 C 
ATOM     64  C   UNL A   1      43.389  31.922  31.616  1.00  0.00     0.029 A 
ATOM     65  C   UNL A   1      43.207  32.419  30.333  1.00  0.00     0.049 A 
ATOM     66  H   UNL A   1      41.412  32.878  29.348  1.00  0.00     0.167 HD
ATOM     67  C   UNL A   1      44.916  31.966  28.704  1.00  0.00     0.074 A 
ATOM     68  C   UNL A   1      46.204  31.987  28.035  1.00  0.00     0.031 C 
ATOM     69  C   UNL A   1      44.131  32.903  29.309  1.00  0.00     0.037 A 
BRANCH  56  70
ATOM     70  C   UNL A   1      38.682  32.231  32.154  1.00  0.00     0.064 A 
ATOM     71  C   UNL A   1      37.873  33.356  31.880  1.00  0.00     0.173 A 
ATOM     72  C   UNL A   1      38.501  31.688  33.446  1.00  0.00     0.173 A 
ATOM     73  F   UNL A   1      37.951  33.997  30.706  1.00  0.00    -0.203 F 
ATOM     74  C   UNL A   1      36.960  33.877  32.807  1.00  0.00     0.198 A 
ATOM     75  C   UNL A   1      37.550  32.175  34.350  1.00  0.00     0.198 A 
ATOM     76  F   UNL A   1      39.272  30.706  33.924  1.00  0.00    -0.203 F 
ATOM     77  F   UNL A   1      36.255  34.976  32.504  1.00  0.00    -0.200 F 
ATOM     78  C   UNL A   1      36.785  33.274  34.035  1.00  0.00     0.200 A 
ATOM     79  F   UNL A   1      37.403  31.577  35.543  1.00  0.00    -0.200 F 
ATOM     80  F   UNL A   1      35.900  33.760  34.917  1.00  0.00    -0.200 F 
ENDBRANCH  56  70
BRANCH  57  81
ATOM     81  C   UNL A   1      45.465  27.537  26.863  1.00  0.00     0.064 A 
ATOM     82  C   UNL A   1      46.325  26.423  26.999  1.00  0.00     0.173 A 
ATOM     83  C   UNL A   1      44.393  27.413  25.969  1.00  0.00     0.173 A 
ATOM     84  F   UNL A   1      47.355  26.474  27.861  1.00  0.00    -0.203 F 
ATOM     85  C   UNL A   1      46.030  25.197  26.403  1.00  0.00     0.198 A 
ATOM     86  C   UNL A   1      44.107  26.182  25.366  1.00  0.00     0.198 A 
ATOM     87  F   UNL A   1      43.530  28.425  25.806  1.00  0.00    -0.203 F 
ATOM     88  F   UNL A   1      46.769  24.116  26.693  1.00  0.00    -0.200 F 
ATOM     89  C   UNL A   1      44.896  25.069  25.620  1.00  0.00     0.200 A 
ATOM     90  F   UNL A   1      42.997  26.042  24.626  1.00  0.00    -0.200 F 
ATOM     91  F   UNL A   1      44.529  23.861  25.167  1.00  0.00    -0.200 F 
ENDBRANCH  57  81
BRANCH  69  92
ATOM     92  C   UNL A   1      44.204  34.376  29.018  1.00  0.00     0.064 A 
ATOM     93  C   UNL A   1      43.730  34.949  27.827  1.00  0.00     0.173 A 
ATOM     94  C   UNL A   1      44.569  35.289  30.036  1.00  0.00     0.173 A 
ATOM     95  F   UNL A   1      43.241  34.198  26.831  1.00  0.00    -0.203 F 
ATOM     96  C   UNL A   1      43.679  36.330  27.643  1.00  0.00     0.198 A 
ATOM     97  C   UNL A   1      44.448  36.665  29.874  1.00  0.00     0.198 A 
ATOM     98  F   UNL A   1      45.010  34.871  31.232  1.00  0.00    -0.203 F 
ATOM     99  F   UNL A   1      43.257  36.825  26.472  1.00  0.00    -0.200 F 
ATOM    100  C   UNL A   1      44.020  37.186  28.671  1.00  0.00     0.200 A 
ATOM    101  F   UNL A   1      44.723  37.480  30.902  1.00  0.00    -0.200 F 
ATOM    102  F   UNL A   1      43.912  38.511  28.512  1.00  0.00    -0.200 F 
ENDBRANCH  69  92
ENDBRANCH  43  44
ENDBRANCH  36  38
ENDBRANCH  35  36
ENDBRANCH  34  35
ENDBRANCH  33  34
ENDBRANCH   1  33
TORSDOF 16
ENDMDL
