MODEL 1
REMARK VINA RESULT:     -11.3      0.000      0.000
REMARK SMILES C[C@H](Cc1ccc([N+](=O)[O-])cc1)C(=O)OCCOCCOC(=O)c1ccc(-c2c3nc(c(-c4c(F)c(F)c(F)c(F)c4F)c4ccc([nH]4)c(-c4c(F)c(F)c(F)c(F)c4F)c4nc(c(-c5c(F)c(F)c(F)c(F)c5F)c5ccc2[nH]5)C=C4)C=C3)cc1
REMARK SMILES IDX 17 1 16 2 15 3 13 4 14 5 2 6 1 7 3 8 4 9 5 10 12 11 6 12
REMARK SMILES IDX 11 13 7 14 8 15 9 16 10 17 18 18 19 19 20 20 21 21 22 22
REMARK SMILES IDX 23 23 24 24 25 25 86 26 26 27 85 28 27 29 28 30 29 31 79 32
REMARK SMILES IDX 30 33 84 34 78 35 80 36 31 37 83 38 77 39 76 40 32 42 64 43
REMARK SMILES IDX 44 44 63 45 45 46 48 47 62 48 81 49 46 50 47 51 61 53 82 54
REMARK SMILES IDX 49 55 33 56 34 57 42 58 35 59 36 60 40 61 43 62 37 63 38 64
REMARK SMILES IDX 41 65 39 66 65 67 66 68 74 69 67 70 68 71 72 72 75 73 69 74
REMARK SMILES IDX 70 75 73 76 71 77 50 78 51 79 59 80 52 81 53 82 57 83 60 84
REMARK SMILES IDX 54 85 55 86 58 87 56 88
REMARK H PARENT 80 41 48 52
REMARK Flexibility Score: inf
ROOT
ATOM      1  C   UNL A   1      34.457  21.953  26.813  1.00  0.00     0.202 C 
ENDROOT
BRANCH   1   2
ATOM      2  C   UNL A   1      33.680  23.257  26.616  1.00  0.00     0.261 C 
BRANCH   2   3
ATOM      3  O   UNL A   1      33.370  23.510  25.235  1.00  0.00    -0.463 OA
BRANCH   3   4
ATOM      4  C   UNL A   1      32.435  22.687  24.691  1.00  0.00     0.309 C 
ATOM      5  O   UNL A   1      31.290  22.557  25.108  1.00  0.00    -0.252 OA
BRANCH   4   6
ATOM      6  C   UNL A   1      32.963  21.871  23.524  1.00  0.00     0.100 C 
ATOM      7  C   UNL A   1      33.270  22.850  22.393  1.00  0.00     0.020 C 
BRANCH   6   8
ATOM      8  C   UNL A   1      32.122  20.616  23.176  1.00  0.00     0.050 C 
BRANCH   8   9
ATOM      9  C   UNL A   1      32.601  19.304  23.752  1.00  0.00    -0.047 A 
ATOM     10  C   UNL A   1      33.043  18.280  22.899  1.00  0.00     0.011 A 
ATOM     11  C   UNL A   1      32.560  19.080  25.135  1.00  0.00     0.011 A 
ATOM     12  C   UNL A   1      33.347  17.018  23.407  1.00  0.00     0.086 A 
ATOM     13  C   UNL A   1      32.888  17.826  25.657  1.00  0.00     0.086 A 
ATOM     14  C   UNL A   1      33.250  16.792  24.784  1.00  0.00     0.269 A 
BRANCH  14  15
ATOM     15  N   UNL A   1      33.492  15.446  25.314  1.00  0.00     0.062 N 
ATOM     16  O   UNL A   1      32.510  14.791  25.692  1.00  0.00    -0.258 OA
ATOM     17  O   UNL A   1      34.665  15.049  25.366  1.00  0.00    -0.258 OA
ENDBRANCH  14  15
ENDBRANCH   8   9
ENDBRANCH   6   8
ENDBRANCH   4   6
ENDBRANCH   3   4
ENDBRANCH   2   3
ENDBRANCH   1   2
BRANCH   1  18
ATOM     18  O   UNL A   1      35.704  21.841  26.131  1.00  0.00    -0.374 OA
BRANCH  18  19
ATOM     19  C   UNL A   1      35.938  20.661  25.365  1.00  0.00     0.202 C 
BRANCH  19  20
ATOM     20  C   UNL A   1      37.391  20.388  24.956  1.00  0.00     0.261 C 
BRANCH  20  21
ATOM     21  O   UNL A   1      38.253  21.510  25.230  1.00  0.00    -0.460 OA
BRANCH  21  22
ATOM     22  C   UNL A   1      39.246  21.255  26.114  1.00  0.00     0.338 C 
ATOM     23  O   UNL A   1      39.847  20.202  26.271  1.00  0.00    -0.246 OA
BRANCH  22  24
ATOM     24  C   UNL A   1      39.664  22.495  26.792  1.00  0.00     0.060 A 
ATOM     25  C   UNL A   1      38.963  23.667  26.479  1.00  0.00     0.016 A 
ATOM     26  C   UNL A   1      40.777  22.537  27.636  1.00  0.00     0.016 A 
ATOM     27  C   UNL A   1      39.408  24.897  26.959  1.00  0.00     0.010 A 
ATOM     28  C   UNL A   1      41.228  23.775  28.108  1.00  0.00     0.010 A 
ATOM     29  C   UNL A   1      40.570  24.962  27.738  1.00  0.00    -0.014 A 
BRANCH  29  30
ATOM     30  C   UNL A   1      41.184  26.284  28.015  1.00  0.00     0.031 A 
ATOM     31  C   UNL A   1      42.589  26.546  27.545  1.00  0.00     0.074 A 
ATOM     32  C   UNL A   1      40.490  27.254  28.637  1.00  0.00     0.049 A 
ATOM     33  N   UNL A   1      43.331  27.614  27.693  1.00  0.00    -0.248 NA
ATOM     34  C   UNL A   1      43.245  25.455  26.808  1.00  0.00     0.031 C 
ATOM     35  C   UNL A   1      39.109  27.139  29.098  1.00  0.00     0.029 A 
ATOM     36  N   UNL A   1      40.861  28.527  28.989  1.00  0.00    -0.354 N 
ATOM     37  C   UNL A   1      44.539  27.323  27.074  1.00  0.00     0.074 A 
ATOM     38  C   UNL A   1      44.443  25.969  26.571  1.00  0.00     0.031 C 
ATOM     39  C   UNL A   1      38.750  28.294  29.684  1.00  0.00     0.029 A 
ATOM     40  C   UNL A   1      39.884  29.217  29.664  1.00  0.00     0.049 A 
ATOM     41  H   UNL A   1      41.744  28.910  28.778  1.00  0.00     0.167 HD
ATOM     42  C   UNL A   1      45.627  28.116  26.928  1.00  0.00     0.037 A 
ATOM     43  C   UNL A   1      39.914  30.444  30.218  1.00  0.00     0.037 A 
ATOM     44  C   UNL A   1      45.723  29.463  27.423  1.00  0.00     0.049 A 
ATOM     45  C   UNL A   1      41.161  31.281  30.105  1.00  0.00     0.074 A 
ATOM     46  C   UNL A   1      46.778  30.353  27.308  1.00  0.00     0.029 A 
ATOM     47  N   UNL A   1      44.726  30.114  28.133  1.00  0.00    -0.354 N 
ATOM     48  N   UNL A   1      42.291  31.006  29.497  1.00  0.00    -0.248 NA
ATOM     49  C   UNL A   1      41.136  32.601  30.752  1.00  0.00     0.031 C 
ATOM     50  C   UNL A   1      46.434  31.526  27.988  1.00  0.00     0.029 A 
ATOM     51  C   UNL A   1      45.149  31.386  28.486  1.00  0.00     0.049 A 
ATOM     52  H   UNL A   1      43.846  29.730  28.354  1.00  0.00     0.167 HD
ATOM     53  C   UNL A   1      43.098  32.124  29.666  1.00  0.00     0.074 A 
ATOM     54  C   UNL A   1      42.325  33.087  30.423  1.00  0.00     0.031 C 
ATOM     55  C   UNL A   1      44.365  32.335  29.232  1.00  0.00     0.037 A 
BRANCH  42  56
ATOM     56  C   UNL A   1      46.816  27.534  26.222  1.00  0.00     0.064 A 
ATOM     57  C   UNL A   1      46.967  27.630  24.830  1.00  0.00     0.173 A 
ATOM     58  C   UNL A   1      47.831  26.897  26.951  1.00  0.00     0.173 A 
ATOM     59  F   UNL A   1      46.015  28.217  24.088  1.00  0.00    -0.203 F 
ATOM     60  C   UNL A   1      48.080  27.090  24.192  1.00  0.00     0.198 A 
ATOM     61  C   UNL A   1      48.956  26.381  26.312  1.00  0.00     0.198 A 
ATOM     62  F   UNL A   1      47.736  26.781  28.284  1.00  0.00    -0.203 F 
ATOM     63  F   UNL A   1      48.183  27.155  22.858  1.00  0.00    -0.200 F 
ATOM     64  C   UNL A   1      49.076  26.472  24.934  1.00  0.00     0.200 A 
ATOM     65  F   UNL A   1      49.922  25.793  27.031  1.00  0.00    -0.200 F 
ATOM     66  F   UNL A   1      50.149  25.956  24.318  1.00  0.00    -0.200 F 
ENDBRANCH  42  56
BRANCH  43  67
ATOM     67  C   UNL A   1      38.724  30.956  30.946  1.00  0.00     0.064 A 
ATOM     68  C   UNL A   1      37.684  31.606  30.267  1.00  0.00     0.173 A 
ATOM     69  C   UNL A   1      38.612  30.821  32.337  1.00  0.00     0.173 A 
ATOM     70  F   UNL A   1      37.760  31.783  28.940  1.00  0.00    -0.203 F 
ATOM     71  C   UNL A   1      36.584  32.115  30.954  1.00  0.00     0.198 A 
ATOM     72  C   UNL A   1      37.499  31.307  33.020  1.00  0.00     0.198 A 
ATOM     73  F   UNL A   1      39.581  30.209  33.032  1.00  0.00    -0.203 F 
ATOM     74  F   UNL A   1      35.624  32.770  30.287  1.00  0.00    -0.200 F 
ATOM     75  C   UNL A   1      36.490  31.959  32.329  1.00  0.00     0.200 A 
ATOM     76  F   UNL A   1      37.406  31.145  34.347  1.00  0.00    -0.200 F 
ATOM     77  F   UNL A   1      35.429  32.446  32.989  1.00  0.00    -0.200 F 
ENDBRANCH  43  67
BRANCH  55  78
ATOM     78  C   UNL A   1      44.986  33.668  29.534  1.00  0.00     0.064 A 
ATOM     79  C   UNL A   1      45.744  33.882  30.694  1.00  0.00     0.173 A 
ATOM     80  C   UNL A   1      44.857  34.732  28.627  1.00  0.00     0.173 A 
ATOM     81  F   UNL A   1      45.884  32.901  31.599  1.00  0.00    -0.203 F 
ATOM     82  C   UNL A   1      46.333  35.117  30.946  1.00  0.00     0.198 A 
ATOM     83  C   UNL A   1      45.471  35.957  28.868  1.00  0.00     0.198 A 
ATOM     84  F   UNL A   1      44.148  34.576  27.498  1.00  0.00    -0.203 F 
ATOM     85  F   UNL A   1      47.018  35.312  32.081  1.00  0.00    -0.200 F 
ATOM     86  C   UNL A   1      46.202  36.152  30.030  1.00  0.00     0.200 A 
ATOM     87  F   UNL A   1      45.354  36.952  27.977  1.00  0.00    -0.200 F 
ATOM     88  F   UNL A   1      46.776  37.338  30.271  1.00  0.00    -0.200 F 
ENDBRANCH  55  78
ENDBRANCH  29  30
ENDBRANCH  22  24
ENDBRANCH  21  22
ENDBRANCH  20  21
ENDBRANCH  19  20
ENDBRANCH  18  19
ENDBRANCH   1  18
TORSDOF 17
ENDMDL
MODEL 2
REMARK VINA RESULT:     -11.2      0.431      7.467
REMARK SMILES C[C@H](Cc1ccc([N+](=O)[O-])cc1)C(=O)OCCOCCOC(=O)c1ccc(-c2c3nc(c(-c4c(F)c(F)c(F)c(F)c4F)c4ccc([nH]4)c(-c4c(F)c(F)c(F)c(F)c4F)c4nc(c(-c5c(F)c(F)c(F)c(F)c5F)c5ccc2[nH]5)C=C4)C=C3)cc1
REMARK SMILES IDX 17 1 16 2 15 3 13 4 14 5 2 6 1 7 3 8 4 9 5 10 12 11 6 12
REMARK SMILES IDX 11 13 7 14 8 15 9 16 10 17 18 18 19 19 20 20 21 21 22 22
REMARK SMILES IDX 23 23 24 24 25 25 86 26 26 27 85 28 27 29 28 30 29 31 79 32
REMARK SMILES IDX 30 33 84 34 78 35 80 36 31 37 83 38 77 39 76 40 32 42 64 43
REMARK SMILES IDX 44 44 63 45 45 46 48 47 62 48 81 49 46 50 47 51 61 53 82 54
REMARK SMILES IDX 49 55 33 56 34 57 42 58 35 59 36 60 40 61 43 62 37 63 38 64
REMARK SMILES IDX 41 65 39 66 65 67 66 68 74 69 67 70 68 71 72 72 75 73 69 74
REMARK SMILES IDX 70 75 73 76 71 77 50 78 51 79 59 80 52 81 53 82 57 83 60 84
REMARK SMILES IDX 54 85 55 86 58 87 56 88
REMARK H PARENT 80 41 48 52
REMARK Flexibility Score: inf
ROOT
ATOM      1  C   UNL A   1      34.174  22.090  27.048  1.00  0.00     0.202 C 
ENDROOT
BRANCH   1   2
ATOM      2  C   UNL A   1      33.419  23.375  26.701  1.00  0.00     0.261 C 
BRANCH   2   3
ATOM      3  O   UNL A   1      33.068  23.447  25.308  1.00  0.00    -0.463 OA
BRANCH   3   4
ATOM      4  C   UNL A   1      32.301  22.422  24.850  1.00  0.00     0.309 C 
ATOM      5  O   UNL A   1      31.223  22.087  25.329  1.00  0.00    -0.252 OA
BRANCH   4   6
ATOM      6  C   UNL A   1      32.939  21.665  23.699  1.00  0.00     0.100 C 
ATOM      7  C   UNL A   1      33.378  22.702  22.667  1.00  0.00     0.020 C 
BRANCH   6   8
ATOM      8  C   UNL A   1      32.123  20.449  23.190  1.00  0.00     0.050 C 
BRANCH   8   9
ATOM      9  C   UNL A   1      32.541  19.093  23.710  1.00  0.00    -0.047 A 
ATOM     10  C   UNL A   1      32.581  18.851  25.092  1.00  0.00     0.011 A 
ATOM     11  C   UNL A   1      32.939  18.085  22.822  1.00  0.00     0.011 A 
ATOM     12  C   UNL A   1      33.103  17.657  25.587  1.00  0.00     0.086 A 
ATOM     13  C   UNL A   1      33.439  16.874  23.307  1.00  0.00     0.086 A 
ATOM     14  C   UNL A   1      33.548  16.680  24.690  1.00  0.00     0.269 A 
BRANCH  14  15
ATOM     15  N   UNL A   1      34.170  15.456  25.205  1.00  0.00     0.062 N 
ATOM     16  O   UNL A   1      35.405  15.436  25.303  1.00  0.00    -0.258 OA
ATOM     17  O   UNL A   1      33.424  14.510  25.498  1.00  0.00    -0.258 OA
ENDBRANCH  14  15
ENDBRANCH   8   9
ENDBRANCH   6   8
ENDBRANCH   4   6
ENDBRANCH   3   4
ENDBRANCH   2   3
ENDBRANCH   1   2
BRANCH   1  18
ATOM     18  O   UNL A   1      35.466  21.928  26.468  1.00  0.00    -0.374 OA
BRANCH  18  19
ATOM     19  C   UNL A   1      35.700  20.759  25.684  1.00  0.00     0.202 C 
BRANCH  19  20
ATOM     20  C   UNL A   1      37.037  20.695  24.935  1.00  0.00     0.261 C 
BRANCH  20  21
ATOM     21  O   UNL A   1      37.874  21.833  25.219  1.00  0.00    -0.460 OA
BRANCH  21  22
ATOM     22  C   UNL A   1      38.987  21.548  25.936  1.00  0.00     0.338 C 
ATOM     23  O   UNL A   1      39.606  20.494  25.959  1.00  0.00    -0.246 OA
BRANCH  22  24
ATOM     24  C   UNL A   1      39.498  22.762  26.597  1.00  0.00     0.060 A 
ATOM     25  C   UNL A   1      39.055  23.998  26.106  1.00  0.00     0.016 A 
ATOM     26  C   UNL A   1      40.465  22.704  27.604  1.00  0.00     0.016 A 
ATOM     27  C   UNL A   1      39.620  25.180  26.577  1.00  0.00     0.010 A 
ATOM     28  C   UNL A   1      41.039  23.893  28.068  1.00  0.00     0.010 A 
ATOM     29  C   UNL A   1      40.648  25.132  27.527  1.00  0.00    -0.014 A 
BRANCH  29  30
ATOM     30  C   UNL A   1      41.423  26.363  27.820  1.00  0.00     0.031 A 
ATOM     31  C   UNL A   1      40.762  27.471  28.592  1.00  0.00     0.074 A 
ATOM     32  C   UNL A   1      42.709  26.478  27.444  1.00  0.00     0.049 A 
ATOM     33  N   UNL A   1      41.236  28.639  28.943  1.00  0.00    -0.248 NA
ATOM     34  C   UNL A   1      39.378  27.229  29.029  1.00  0.00     0.031 C 
ATOM     35  C   UNL A   1      43.474  25.457  26.733  1.00  0.00     0.029 A 
ATOM     36  N   UNL A   1      43.594  27.513  27.608  1.00  0.00    -0.354 N 
ATOM     37  C   UNL A   1      40.211  29.271  29.635  1.00  0.00     0.074 A 
ATOM     38  C   UNL A   1      39.079  28.369  29.633  1.00  0.00     0.031 C 
ATOM     39  C   UNL A   1      44.716  25.921  26.511  1.00  0.00     0.029 A 
ATOM     40  C   UNL A   1      44.822  27.281  27.039  1.00  0.00     0.049 A 
ATOM     41  H   UNL A   1      43.371  28.343  28.088  1.00  0.00     0.167 HD
ATOM     42  C   UNL A   1      40.216  30.488  30.228  1.00  0.00     0.037 A 
ATOM     43  C   UNL A   1      45.899  28.084  26.941  1.00  0.00     0.037 A 
ATOM     44  C   UNL A   1      41.342  31.384  30.236  1.00  0.00     0.049 A 
ATOM     45  C   UNL A   1      45.856  29.463  27.547  1.00  0.00     0.074 A 
ATOM     46  C   UNL A   1      41.449  32.632  30.827  1.00  0.00     0.029 A 
ATOM     47  N   UNL A   1      42.556  31.128  29.618  1.00  0.00    -0.354 N 
ATOM     48  N   UNL A   1      44.889  30.042  28.218  1.00  0.00    -0.248 NA
ATOM     49  C   UNL A   1      47.055  30.298  27.383  1.00  0.00     0.031 C 
ATOM     50  C   UNL A   1      42.713  33.149  30.527  1.00  0.00     0.029 A 
ATOM     51  C   UNL A   1      43.410  32.205  29.791  1.00  0.00     0.049 A 
ATOM     52  H   UNL A   1      42.778  30.303  29.129  1.00  0.00     0.167 HD
ATOM     53  C   UNL A   1      45.372  31.295  28.578  1.00  0.00     0.074 A 
ATOM     54  C   UNL A   1      46.722  31.387  28.061  1.00  0.00     0.031 C 
ATOM     55  C   UNL A   1      44.754  32.279  29.276  1.00  0.00     0.037 A 
BRANCH  42  56
ATOM     56  C   UNL A   1      38.950  30.934  30.900  1.00  0.00     0.064 A 
ATOM     57  C   UNL A   1      37.889  31.495  30.174  1.00  0.00     0.173 A 
ATOM     58  C   UNL A   1      38.786  30.769  32.283  1.00  0.00     0.173 A 
ATOM     59  F   UNL A   1      38.004  31.687  28.851  1.00  0.00    -0.203 F 
ATOM     60  C   UNL A   1      36.719  31.896  30.813  1.00  0.00     0.198 A 
ATOM     61  C   UNL A   1      37.604  31.147  32.915  1.00  0.00     0.198 A 
ATOM     62  F   UNL A   1      39.770  30.235  33.022  1.00  0.00    -0.203 F 
ATOM     63  F   UNL A   1      35.735  32.470  30.107  1.00  0.00    -0.200 F 
ATOM     64  C   UNL A   1      36.575  31.716  32.181  1.00  0.00     0.200 A 
ATOM     65  F   UNL A   1      37.463  30.964  34.235  1.00  0.00    -0.200 F 
ATOM     66  F   UNL A   1      35.446  32.099  32.793  1.00  0.00    -0.200 F 
ENDBRANCH  42  56
BRANCH  43  67
ATOM     67  C   UNL A   1      47.112  27.611  26.226  1.00  0.00     0.064 A 
ATOM     68  C   UNL A   1      47.227  27.733  24.834  1.00  0.00     0.173 A 
ATOM     69  C   UNL A   1      48.173  27.011  26.919  1.00  0.00     0.173 A 
ATOM     70  F   UNL A   1      46.225  28.274  24.126  1.00  0.00    -0.203 F 
ATOM     71  C   UNL A   1      48.351  27.259  24.161  1.00  0.00     0.198 A 
ATOM     72  C   UNL A   1      49.308  26.561  26.247  1.00  0.00     0.198 A 
ATOM     73  F   UNL A   1      48.111  26.869  28.250  1.00  0.00    -0.203 F 
ATOM     74  F   UNL A   1      48.416  27.348  22.825  1.00  0.00    -0.200 F 
ATOM     75  C   UNL A   1      49.393  26.679  24.869  1.00  0.00     0.200 A 
ATOM     76  F   UNL A   1      50.318  26.011  26.936  1.00  0.00    -0.200 F 
ATOM     77  F   UNL A   1      50.476  26.226  24.221  1.00  0.00    -0.200 F 
ENDBRANCH  43  67
BRANCH  55  78
ATOM     78  C   UNL A   1      45.538  33.528  29.552  1.00  0.00     0.064 A 
ATOM     79  C   UNL A   1      45.493  34.632  28.688  1.00  0.00     0.173 A 
ATOM     80  C   UNL A   1      46.310  33.639  30.719  1.00  0.00     0.173 A 
ATOM     81  F   UNL A   1      44.781  34.571  27.552  1.00  0.00    -0.203 F 
ATOM     82  C   UNL A   1      46.208  35.792  28.972  1.00  0.00     0.198 A 
ATOM     83  C   UNL A   1      47.001  34.810  31.014  1.00  0.00     0.198 A 
ATOM     84  F   UNL A   1      46.381  32.613  31.582  1.00  0.00    -0.203 F 
ATOM     85  F   UNL A   1      46.183  36.820  28.111  1.00  0.00    -0.200 F 
ATOM     86  C   UNL A   1      46.955  35.883  30.137  1.00  0.00     0.200 A 
ATOM     87  F   UNL A   1      47.713  34.901  32.146  1.00  0.00    -0.200 F 
ATOM     88  F   UNL A   1      47.637  37.004  30.412  1.00  0.00    -0.200 F 
ENDBRANCH  55  78
ENDBRANCH  29  30
ENDBRANCH  22  24
ENDBRANCH  21  22
ENDBRANCH  20  21
ENDBRANCH  19  20
ENDBRANCH  18  19
ENDBRANCH   1  18
TORSDOF 17
ENDMDL
MODEL 3
REMARK VINA RESULT:     -11.0      1.664      2.972
REMARK SMILES C[C@H](Cc1ccc([N+](=O)[O-])cc1)C(=O)OCCOCCOC(=O)c1ccc(-c2c3nc(c(-c4c(F)c(F)c(F)c(F)c4F)c4ccc([nH]4)c(-c4c(F)c(F)c(F)c(F)c4F)c4nc(c(-c5c(F)c(F)c(F)c(F)c5F)c5ccc2[nH]5)C=C4)C=C3)cc1
REMARK SMILES IDX 17 1 16 2 15 3 13 4 14 5 2 6 1 7 3 8 4 9 5 10 12 11 6 12
REMARK SMILES IDX 11 13 7 14 8 15 9 16 10 17 18 18 19 19 20 20 21 21 22 22
REMARK SMILES IDX 23 23 24 24 25 25 86 26 26 27 85 28 27 29 28 30 29 31 79 32
REMARK SMILES IDX 30 33 84 34 78 35 80 36 31 37 83 38 77 39 76 40 32 42 64 43
REMARK SMILES IDX 44 44 63 45 45 46 48 47 62 48 81 49 46 50 47 51 61 53 82 54
REMARK SMILES IDX 49 55 33 56 34 57 42 58 35 59 36 60 40 61 43 62 37 63 38 64
REMARK SMILES IDX 41 65 39 66 65 67 66 68 74 69 67 70 68 71 72 72 75 73 69 74
REMARK SMILES IDX 70 75 73 76 71 77 50 78 51 79 59 80 52 81 53 82 57 83 60 84
REMARK SMILES IDX 54 85 55 86 58 87 56 88
REMARK H PARENT 80 41 48 52
REMARK Flexibility Score: inf
ROOT
ATOM      1  C   UNL A   1      37.147  23.046  25.654  1.00  0.00     0.202 C 
ENDROOT
BRANCH   1   2
ATOM      2  C   UNL A   1      35.692  23.198  26.103  1.00  0.00     0.261 C 
BRANCH   2   3
ATOM      3  O   UNL A   1      34.947  21.974  25.982  1.00  0.00    -0.463 OA
BRANCH   3   4
ATOM      4  C   UNL A   1      33.699  22.104  25.460  1.00  0.00     0.309 C 
ATOM      5  O   UNL A   1      32.733  22.557  26.064  1.00  0.00    -0.252 OA
BRANCH   4   6
ATOM      6  C   UNL A   1      33.583  21.569  24.045  1.00  0.00     0.100 C 
ATOM      7  C   UNL A   1      33.649  22.770  23.103  1.00  0.00     0.020 C 
BRANCH   6   8
ATOM      8  C   UNL A   1      32.435  20.550  23.826  1.00  0.00     0.050 C 
BRANCH   8   9
ATOM      9  C   UNL A   1      32.744  19.108  24.154  1.00  0.00    -0.047 A 
ATOM     10  C   UNL A   1      32.602  18.639  25.469  1.00  0.00     0.011 A 
ATOM     11  C   UNL A   1      33.222  18.242  23.160  1.00  0.00     0.011 A 
ATOM     12  C   UNL A   1      33.023  17.354  25.812  1.00  0.00     0.086 A 
ATOM     13  C   UNL A   1      33.621  16.944  23.489  1.00  0.00     0.086 A 
ATOM     14  C   UNL A   1      33.549  16.518  24.821  1.00  0.00     0.269 A 
BRANCH  14  15
ATOM     15  N   UNL A   1      34.065  15.196  25.190  1.00  0.00     0.062 N 
ATOM     16  O   UNL A   1      35.295  15.060  25.265  1.00  0.00    -0.258 OA
ATOM     17  O   UNL A   1      33.242  14.292  25.392  1.00  0.00    -0.258 OA
ENDBRANCH  14  15
ENDBRANCH   8   9
ENDBRANCH   6   8
ENDBRANCH   4   6
ENDBRANCH   3   4
ENDBRANCH   2   3
ENDBRANCH   1   2
BRANCH   1  18
ATOM     18  O   UNL A   1      37.607  21.719  25.413  1.00  0.00    -0.374 OA
BRANCH  18  19
ATOM     19  C   UNL A   1      38.925  21.384  25.843  1.00  0.00     0.202 C 
BRANCH  19  20
ATOM     20  C   UNL A   1      39.410  19.965  25.524  1.00  0.00     0.261 C 
BRANCH  20  21
ATOM     21  O   UNL A   1      40.290  19.449  26.542  1.00  0.00    -0.460 OA
BRANCH  21  22
ATOM     22  C   UNL A   1      41.588  19.353  26.169  1.00  0.00     0.338 C 
ATOM     23  O   UNL A   1      42.118  18.436  25.557  1.00  0.00    -0.246 OA
BRANCH  22  24
ATOM     24  C   UNL A   1      42.299  20.613  26.447  1.00  0.00     0.060 A 
ATOM     25  C   UNL A   1      42.275  21.088  27.765  1.00  0.00     0.016 A 
ATOM     26  C   UNL A   1      42.888  21.369  25.430  1.00  0.00     0.016 A 
ATOM     27  C   UNL A   1      42.788  22.348  28.062  1.00  0.00     0.010 A 
ATOM     28  C   UNL A   1      43.393  22.639  25.731  1.00  0.00     0.010 A 
ATOM     29  C   UNL A   1      43.307  23.150  27.038  1.00  0.00    -0.014 A 
BRANCH  29  30
ATOM     30  C   UNL A   1      43.597  24.579  27.312  1.00  0.00     0.031 A 
ATOM     31  C   UNL A   1      44.983  25.102  27.049  1.00  0.00     0.074 A 
ATOM     32  C   UNL A   1      42.634  25.411  27.746  1.00  0.00     0.049 A 
ATOM     33  N   UNL A   1      45.468  26.303  27.234  1.00  0.00    -0.248 NA
ATOM     34  C   UNL A   1      45.953  24.139  26.504  1.00  0.00     0.031 C 
ATOM     35  C   UNL A   1      41.245  25.036  27.994  1.00  0.00     0.029 A 
ATOM     36  N   UNL A   1      42.687  26.746  28.060  1.00  0.00    -0.354 N 
ATOM     37  C   UNL A   1      46.796  26.240  26.833  1.00  0.00     0.074 A 
ATOM     38  C   UNL A   1      47.051  24.876  26.420  1.00  0.00     0.031 C 
ATOM     39  C   UNL A   1      40.576  26.116  28.432  1.00  0.00     0.029 A 
ATOM     40  C   UNL A   1      41.497  27.249  28.523  1.00  0.00     0.049 A 
ATOM     41  H   UNL A   1      43.502  27.291  27.962  1.00  0.00     0.167 HD
ATOM     42  C   UNL A   1      47.719  27.231  26.802  1.00  0.00     0.037 A 
ATOM     43  C   UNL A   1      41.195  28.477  28.984  1.00  0.00     0.037 A 
ATOM     44  C   UNL A   1      47.467  28.588  27.207  1.00  0.00     0.049 A 
ATOM     45  C   UNL A   1      42.257  29.545  29.007  1.00  0.00     0.074 A 
ATOM     46  C   UNL A   1      48.334  29.668  27.194  1.00  0.00     0.029 A 
ATOM     47  N   UNL A   1      46.258  29.050  27.704  1.00  0.00    -0.354 N 
ATOM     48  N   UNL A   1      43.504  29.481  28.605  1.00  0.00    -0.248 NA
ATOM     49  C   UNL A   1      41.868  30.857  29.546  1.00  0.00     0.031 C 
ATOM     50  C   UNL A   1      47.660  30.773  27.727  1.00  0.00     0.029 A 
ATOM     51  C   UNL A   1      46.362  30.394  28.026  1.00  0.00     0.049 A 
ATOM     52  H   UNL A   1      45.446  28.504  27.812  1.00  0.00     0.167 HD
ATOM     53  C   UNL A   1      44.039  30.747  28.816  1.00  0.00     0.074 A 
ATOM     54  C   UNL A   1      42.978  31.561  29.372  1.00  0.00     0.031 C 
ATOM     55  C   UNL A   1      45.295  31.193  28.571  1.00  0.00     0.037 A 
BRANCH  42  56
ATOM     56  C   UNL A   1      49.099  26.875  26.333  1.00  0.00     0.064 A 
ATOM     57  C   UNL A   1      49.488  27.037  24.995  1.00  0.00     0.173 A 
ATOM     58  C   UNL A   1      50.053  26.393  27.242  1.00  0.00     0.173 A 
ATOM     59  F   UNL A   1      48.607  27.480  24.086  1.00  0.00    -0.203 F 
ATOM     60  C   UNL A   1      50.775  26.708  24.580  1.00  0.00     0.198 A 
ATOM     61  C   UNL A   1      51.347  26.090  26.828  1.00  0.00     0.198 A 
ATOM     62  F   UNL A   1      49.732  26.223  28.533  1.00  0.00    -0.203 F 
ATOM     63  F   UNL A   1      51.112  26.829  23.288  1.00  0.00    -0.200 F 
ATOM     64  C   UNL A   1      51.706  26.241  25.497  1.00  0.00     0.200 A 
ATOM     65  F   UNL A   1      52.248  25.648  27.717  1.00  0.00    -0.200 F 
ATOM     66  F   UNL A   1      52.945  25.929  25.095  1.00  0.00    -0.200 F 
ENDBRANCH  42  56
BRANCH  43  67
ATOM     67  C   UNL A   1      39.823  28.765  29.479  1.00  0.00     0.064 A 
ATOM     68  C   UNL A   1      39.465  28.510  30.810  1.00  0.00     0.173 A 
ATOM     69  C   UNL A   1      38.839  29.284  28.625  1.00  0.00     0.173 A 
ATOM     70  F   UNL A   1      40.364  27.988  31.656  1.00  0.00    -0.203 F 
ATOM     71  C   UNL A   1      38.170  28.750  31.264  1.00  0.00     0.198 A 
ATOM     72  C   UNL A   1      37.552  29.549  29.088  1.00  0.00     0.198 A 
ATOM     73  F   UNL A   1      39.132  29.544  27.343  1.00  0.00    -0.203 F 
ATOM     74  F   UNL A   1      37.841  28.457  32.530  1.00  0.00    -0.200 F 
ATOM     75  C   UNL A   1      37.216  29.274  30.404  1.00  0.00     0.200 A 
ATOM     76  F   UNL A   1      36.637  30.065  28.256  1.00  0.00    -0.200 F 
ATOM     77  F   UNL A   1      35.971  29.508  30.843  1.00  0.00    -0.200 F 
ENDBRANCH  43  67
BRANCH  55  78
ATOM     78  C   UNL A   1      45.586  32.635  28.869  1.00  0.00     0.064 A 
ATOM     79  C   UNL A   1      45.333  33.647  27.931  1.00  0.00     0.173 A 
ATOM     80  C   UNL A   1      46.082  33.014  30.126  1.00  0.00     0.173 A 
ATOM     81  F   UNL A   1      44.871  33.334  26.710  1.00  0.00    -0.203 F 
ATOM     82  C   UNL A   1      45.585  34.982  28.233  1.00  0.00     0.198 A 
ATOM     83  C   UNL A   1      46.308  34.352  30.435  1.00  0.00     0.198 A 
ATOM     84  F   UNL A   1      46.335  32.085  31.061  1.00  0.00    -0.203 F 
ATOM     85  F   UNL A   1      45.375  35.928  27.307  1.00  0.00    -0.200 F 
ATOM     86  C   UNL A   1      46.066  35.334  29.486  1.00  0.00     0.200 A 
ATOM     87  F   UNL A   1      46.760  34.692  31.650  1.00  0.00    -0.200 F 
ATOM     88  F   UNL A   1      46.301  36.621  29.778  1.00  0.00    -0.200 F 
ENDBRANCH  55  78
ENDBRANCH  29  30
ENDBRANCH  22  24
ENDBRANCH  21  22
ENDBRANCH  20  21
ENDBRANCH  19  20
ENDBRANCH  18  19
ENDBRANCH   1  18
TORSDOF 17
ENDMDL
