MODEL 1
REMARK VINA RESULT:     -12.1      0.000      0.000
REMARK SMILES CCCc1cc(OC(F)(F)F)cc2c1O[C@H](C(F)(F)F)C(C(=O)OCCOCCOC(=O)c1ccc(-c3c4nc(c(-c5c(F)c(F)c(F)c(F)c5F)c5ccc([nH]5)c(-c5c(F)c(F)c(F)c(F)c5F)c5nc(c(-c6c(F)c(F)c(F)c(F)c6F)c6ccc3[nH]6)C=C5)C=C4)cc1)=C2
REMARK SMILES IDX 27 1 26 2 25 3 24 4 22 5 23 6 21 7 4 8 5 9 14 10 6 11 13 12
REMARK SMILES IDX 15 13 12 14 96 15 16 16 3 17 2 18 1 19 7 20 8 21 9 22 10 23
REMARK SMILES IDX 11 24 17 25 18 26 19 27 20 28 28 29 29 30 30 31 31 32 32 33
REMARK SMILES IDX 33 34 34 35 95 36 35 37 94 38 36 39 37 40 38 41 88 42 39 43
REMARK SMILES IDX 93 44 87 45 89 46 40 47 92 48 86 49 85 50 41 52 73 53 53 54
REMARK SMILES IDX 72 55 54 56 57 57 71 58 90 59 55 60 56 61 70 63 91 64 58 65
REMARK SMILES IDX 42 66 43 67 51 68 44 69 45 70 49 71 52 72 46 73 47 74 50 75
REMARK SMILES IDX 48 76 74 77 75 78 83 79 76 80 77 81 81 82 84 83 78 84 79 85
REMARK SMILES IDX 82 86 80 87 59 88 60 89 68 90 61 91 62 92 66 93 69 94 63 95
REMARK SMILES IDX 64 96 67 97 65 98
REMARK H PARENT 89 51 57 62
REMARK Flexibility Score: inf
ROOT
ATOM      1  O   UNL A   1      34.975  21.424  26.048  1.00  0.00    -0.374 OA
ENDROOT
BRANCH   1   2
ATOM      2  C   UNL A   1      33.647  21.045  26.407  1.00  0.00     0.202 C 
BRANCH   2   3
ATOM      3  C   UNL A   1      32.708  20.679  25.254  1.00  0.00     0.261 C 
BRANCH   3   4
ATOM      4  O   UNL A   1      31.822  21.768  24.927  1.00  0.00    -0.460 OA
BRANCH   4   5
ATOM      5  C   UNL A   1      32.088  22.387  23.753  1.00  0.00     0.338 C 
ATOM      6  O   UNL A   1      32.297  21.837  22.682  1.00  0.00    -0.246 OA
BRANCH   5   7
ATOM      7  C   UNL A   1      31.980  23.856  23.862  1.00  0.00     0.087 C 
ATOM      8  C   UNL A   1      31.318  27.756  25.177  1.00  0.00    -0.002 A 
ATOM      9  C   UNL A   1      30.844  28.710  24.266  1.00  0.00     0.054 A 
ATOM     10  C   UNL A   1      31.494  26.444  24.715  1.00  0.00     0.131 A 
ATOM     11  C   UNL A   1      30.477  28.344  22.965  1.00  0.00     0.130 A 
ATOM     12  C   UNL A   1      31.143  26.053  23.412  1.00  0.00     0.021 A 
ATOM     13  O   UNL A   1      31.993  25.542  25.621  1.00  0.00    -0.475 OA
ATOM     14  C   UNL A   1      30.635  27.017  22.540  1.00  0.00     0.058 A 
ATOM     15  C   UNL A   1      31.245  24.634  23.048  1.00  0.00     0.027 C 
ATOM     16  C   UNL A   1      32.730  24.453  25.029  1.00  0.00     0.316 C 
BRANCH   8  17
ATOM     17  C   UNL A   1      31.690  28.081  26.611  1.00  0.00     0.039 C 
BRANCH  17  18
ATOM     18  C   UNL A   1      32.822  29.079  26.868  1.00  0.00     0.001 C 
ATOM     19  C   UNL A   1      34.151  28.651  26.259  1.00  0.00     0.004 C 
ENDBRANCH  17  18
ENDBRANCH   8  17
BRANCH  11  20
ATOM     20  O   UNL A   1      29.954  29.191  22.026  1.00  0.00    -0.406 OA
BRANCH  20  21
ATOM     21  C   UNL A   1      28.649  29.700  22.268  1.00  0.00     0.573 C 
ATOM     22  F   UNL A   1      28.017  30.009  21.114  1.00  0.00    -0.132 F 
ATOM     23  F   UNL A   1      27.907  28.812  22.965  1.00  0.00    -0.132 F 
ATOM     24  F   UNL A   1      28.753  30.828  23.003  1.00  0.00    -0.132 F 
ENDBRANCH  20  21
ENDBRANCH  11  20
BRANCH  16  25
ATOM     25  C   UNL A   1      34.165  24.880  24.660  1.00  0.00     0.430 C 
ATOM     26  F   UNL A   1      34.172  25.904  23.775  1.00  0.00    -0.167 F 
ATOM     27  F   UNL A   1      34.847  25.302  25.750  1.00  0.00    -0.167 F 
ATOM     28  F   UNL A   1      34.890  23.875  24.114  1.00  0.00    -0.167 F 
ENDBRANCH  16  25
ENDBRANCH   5   7
ENDBRANCH   4   5
ENDBRANCH   3   4
ENDBRANCH   2   3
ENDBRANCH   1   2
BRANCH   1  29
ATOM     29  C   UNL A   1      35.571  20.749  24.942  1.00  0.00     0.202 C 
BRANCH  29  30
ATOM     30  C   UNL A   1      37.084  20.518  25.006  1.00  0.00     0.261 C 
BRANCH  30  31
ATOM     31  O   UNL A   1      37.785  21.688  25.457  1.00  0.00    -0.460 OA
BRANCH  31  32
ATOM     32  C   UNL A   1      38.973  21.427  26.047  1.00  0.00     0.338 C 
ATOM     33  O   UNL A   1      39.645  20.408  25.952  1.00  0.00    -0.246 OA
BRANCH  32  34
ATOM     34  C   UNL A   1      39.476  22.633  26.724  1.00  0.00     0.060 A 
ATOM     35  C   UNL A   1      38.793  23.832  26.480  1.00  0.00     0.016 A 
ATOM     36  C   UNL A   1      40.624  22.617  27.521  1.00  0.00     0.016 A 
ATOM     37  C   UNL A   1      39.291  25.030  26.980  1.00  0.00     0.010 A 
ATOM     38  C   UNL A   1      41.127  23.825  28.016  1.00  0.00     0.010 A 
ATOM     39  C   UNL A   1      40.485  25.039  27.712  1.00  0.00    -0.014 A 
BRANCH  39  40
ATOM     40  C   UNL A   1      41.129  26.340  28.014  1.00  0.00     0.031 A 
ATOM     41  C   UNL A   1      42.535  26.581  27.539  1.00  0.00     0.074 A 
ATOM     42  C   UNL A   1      40.451  27.310  28.649  1.00  0.00     0.049 A 
ATOM     43  N   UNL A   1      43.280  27.651  27.660  1.00  0.00    -0.248 NA
ATOM     44  C   UNL A   1      43.189  25.469  26.831  1.00  0.00     0.031 C 
ATOM     45  C   UNL A   1      39.075  27.202  29.129  1.00  0.00     0.029 A 
ATOM     46  N   UNL A   1      40.832  28.582  28.996  1.00  0.00    -0.354 N 
ATOM     47  C   UNL A   1      44.486  27.340  27.046  1.00  0.00     0.074 A 
ATOM     48  C   UNL A   1      44.389  25.974  26.582  1.00  0.00     0.031 C 
ATOM     49  C   UNL A   1      38.726  28.360  29.716  1.00  0.00     0.029 A 
ATOM     50  C   UNL A   1      39.861  29.281  29.670  1.00  0.00     0.049 A 
ATOM     51  H   UNL A   1      41.716  28.957  28.782  1.00  0.00     0.167 HD
ATOM     52  C   UNL A   1      45.573  28.130  26.874  1.00  0.00     0.037 A 
ATOM     53  C   UNL A   1      39.894  30.519  30.201  1.00  0.00     0.037 A 
ATOM     54  C   UNL A   1      45.666  29.491  27.329  1.00  0.00     0.049 A 
ATOM     55  C   UNL A   1      41.136  31.357  30.041  1.00  0.00     0.074 A 
ATOM     56  C   UNL A   1      46.713  30.383  27.174  1.00  0.00     0.029 A 
ATOM     57  N   UNL A   1      44.675  30.155  28.038  1.00  0.00    -0.354 N 
ATOM     58  N   UNL A   1      42.255  31.071  29.422  1.00  0.00    -0.248 NA
ATOM     59  C   UNL A   1      41.115  32.695  30.650  1.00  0.00     0.031 C 
ATOM     60  C   UNL A   1      46.374  31.571  27.832  1.00  0.00     0.029 A 
ATOM     61  C   UNL A   1      45.098  31.436  28.352  1.00  0.00     0.049 A 
ATOM     62  H   UNL A   1      43.801  29.772  28.279  1.00  0.00     0.167 HD
ATOM     63  C   UNL A   1      43.060  32.197  29.545  1.00  0.00     0.074 A 
ATOM     64  C   UNL A   1      42.294  33.178  30.284  1.00  0.00     0.031 C 
ATOM     65  C   UNL A   1      44.320  32.401  29.087  1.00  0.00     0.037 A 
BRANCH  52  66
ATOM     66  C   UNL A   1      46.761  27.532  26.179  1.00  0.00     0.064 A 
ATOM     67  C   UNL A   1      46.923  27.624  24.788  1.00  0.00     0.173 A 
ATOM     68  C   UNL A   1      47.767  26.895  26.919  1.00  0.00     0.173 A 
ATOM     69  F   UNL A   1      45.982  28.213  24.035  1.00  0.00    -0.203 F 
ATOM     70  C   UNL A   1      48.043  27.081  24.162  1.00  0.00     0.198 A 
ATOM     71  C   UNL A   1      48.897  26.376  26.292  1.00  0.00     0.198 A 
ATOM     72  F   UNL A   1      47.659  26.784  28.251  1.00  0.00    -0.203 F 
ATOM     73  F   UNL A   1      48.160  27.145  22.828  1.00  0.00    -0.200 F 
ATOM     74  C   UNL A   1      49.031  26.465  24.914  1.00  0.00     0.200 A 
ATOM     75  F   UNL A   1      49.856  25.790  27.021  1.00  0.00    -0.200 F 
ATOM     76  F   UNL A   1      50.111  25.949  24.311  1.00  0.00    -0.200 F 
ENDBRANCH  52  66
BRANCH  53  77
ATOM     77  C   UNL A   1      38.716  31.041  30.939  1.00  0.00     0.064 A 
ATOM     78  C   UNL A   1      38.618  30.917  32.331  1.00  0.00     0.173 A 
ATOM     79  C   UNL A   1      37.654  31.657  30.261  1.00  0.00     0.173 A 
ATOM     80  F   UNL A   1      39.596  30.313  33.020  1.00  0.00    -0.203 F 
ATOM     81  C   UNL A   1      37.492  31.374  33.016  1.00  0.00     0.198 A 
ATOM     82  C   UNL A   1      36.542  32.137  30.950  1.00  0.00     0.198 A 
ATOM     83  F   UNL A   1      37.699  31.799  28.928  1.00  0.00    -0.203 F 
ATOM     84  F   UNL A   1      37.402  31.201  34.342  1.00  0.00    -0.200 F 
ATOM     85  C   UNL A   1      36.459  31.988  32.326  1.00  0.00     0.200 A 
ATOM     86  F   UNL A   1      35.551  32.741  30.280  1.00  0.00    -0.200 F 
ATOM     87  F   UNL A   1      35.378  32.428  32.985  1.00  0.00    -0.200 F 
ENDBRANCH  53  77
BRANCH  65  88
ATOM     88  C   UNL A   1      44.940  33.742  29.348  1.00  0.00     0.064 A 
ATOM     89  C   UNL A   1      45.722  33.980  30.488  1.00  0.00     0.173 A 
ATOM     90  C   UNL A   1      44.786  34.789  28.427  1.00  0.00     0.173 A 
ATOM     91  F   UNL A   1      45.887  33.015  31.407  1.00  0.00    -0.203 F 
ATOM     92  C   UNL A   1      46.306  35.224  30.708  1.00  0.00     0.198 A 
ATOM     93  C   UNL A   1      45.395  36.023  28.636  1.00  0.00     0.198 A 
ATOM     94  F   UNL A   1      44.054  34.610  27.317  1.00  0.00    -0.203 F 
ATOM     95  F   UNL A   1      47.011  35.443  31.827  1.00  0.00    -0.200 F 
ATOM     96  C   UNL A   1      46.149  36.242  29.779  1.00  0.00     0.200 A 
ATOM     97  F   UNL A   1      45.254  37.000  27.730  1.00  0.00    -0.200 F 
ATOM     98  F   UNL A   1      46.718  37.437  29.989  1.00  0.00    -0.200 F 
ENDBRANCH  65  88
ENDBRANCH  39  40
ENDBRANCH  32  34
ENDBRANCH  31  32
ENDBRANCH  30  31
ENDBRANCH  29  30
ENDBRANCH   1  29
TORSDOF 19
ENDMDL
MODEL 2
REMARK VINA RESULT:     -12.1      4.588      7.867
REMARK SMILES CCCc1cc(OC(F)(F)F)cc2c1O[C@H](C(F)(F)F)C(C(=O)OCCOCCOC(=O)c1ccc(-c3c4nc(c(-c5c(F)c(F)c(F)c(F)c5F)c5ccc([nH]5)c(-c5c(F)c(F)c(F)c(F)c5F)c5nc(c(-c6c(F)c(F)c(F)c(F)c6F)c6ccc3[nH]6)C=C5)C=C4)cc1)=C2
REMARK SMILES IDX 27 1 26 2 25 3 24 4 22 5 23 6 21 7 4 8 5 9 14 10 6 11 13 12
REMARK SMILES IDX 15 13 12 14 96 15 16 16 3 17 2 18 1 19 7 20 8 21 9 22 10 23
REMARK SMILES IDX 11 24 17 25 18 26 19 27 20 28 28 29 29 30 30 31 31 32 32 33
REMARK SMILES IDX 33 34 34 35 95 36 35 37 94 38 36 39 37 40 38 41 88 42 39 43
REMARK SMILES IDX 93 44 87 45 89 46 40 47 92 48 86 49 85 50 41 52 73 53 53 54
REMARK SMILES IDX 72 55 54 56 57 57 71 58 90 59 55 60 56 61 70 63 91 64 58 65
REMARK SMILES IDX 42 66 43 67 51 68 44 69 45 70 49 71 52 72 46 73 47 74 50 75
REMARK SMILES IDX 48 76 74 77 75 78 83 79 76 80 77 81 81 82 84 83 78 84 79 85
REMARK SMILES IDX 82 86 80 87 59 88 60 89 68 90 61 91 62 92 66 93 69 94 63 95
REMARK SMILES IDX 64 96 67 97 65 98
REMARK H PARENT 89 51 57 62
REMARK Flexibility Score: inf
ROOT
ATOM      1  O   UNL A   1      42.309  21.425  25.326  1.00  0.00    -0.374 OA
ENDROOT
BRANCH   1   2
ATOM      2  C   UNL A   1      41.383  21.059  26.347  1.00  0.00     0.202 C 
BRANCH   2   3
ATOM      3  C   UNL A   1      40.205  22.012  26.571  1.00  0.00     0.261 C 
BRANCH   3   4
ATOM      4  O   UNL A   1      39.015  21.551  25.900  1.00  0.00    -0.460 OA
BRANCH   4   5
ATOM      5  C   UNL A   1      38.036  22.477  25.775  1.00  0.00     0.338 C 
ATOM      6  O   UNL A   1      38.173  23.686  25.880  1.00  0.00    -0.246 OA
BRANCH   5   7
ATOM      7  C   UNL A   1      36.751  21.876  25.363  1.00  0.00     0.087 C 
ATOM      8  C   UNL A   1      32.757  20.714  25.082  1.00  0.00    -0.002 A 
ATOM      9  C   UNL A   1      32.454  19.426  24.625  1.00  0.00     0.054 A 
ATOM     10  C   UNL A   1      34.110  21.062  25.203  1.00  0.00     0.131 A 
ATOM     11  C   UNL A   1      33.468  18.490  24.382  1.00  0.00     0.130 A 
ATOM     12  C   UNL A   1      35.146  20.147  24.956  1.00  0.00     0.021 A 
ATOM     13  O   UNL A   1      34.373  22.344  25.619  1.00  0.00    -0.475 OA
ATOM     14  C   UNL A   1      34.812  18.857  24.541  1.00  0.00     0.058 A 
ATOM     15  C   UNL A   1      36.531  20.557  25.224  1.00  0.00     0.027 C 
ATOM     16  C   UNL A   1      35.633  22.871  25.155  1.00  0.00     0.316 C 
BRANCH   8  17
ATOM     17  C   UNL A   1      31.704  21.757  25.405  1.00  0.00     0.039 C 
BRANCH  17  18
ATOM     18  C   UNL A   1      31.354  22.802  24.343  1.00  0.00     0.001 C 
ATOM     19  C   UNL A   1      31.369  24.228  24.874  1.00  0.00     0.004 C 
ENDBRANCH  17  18
ENDBRANCH   8  17
BRANCH  11  20
ATOM     20  O   UNL A   1      33.268  17.194  23.989  1.00  0.00    -0.406 OA
BRANCH  20  21
ATOM     21  C   UNL A   1      33.522  16.179  24.950  1.00  0.00     0.573 C 
ATOM     22  F   UNL A   1      32.742  15.096  24.743  1.00  0.00    -0.132 F 
ATOM     23  F   UNL A   1      34.821  15.810  24.928  1.00  0.00    -0.132 F 
ATOM     24  F   UNL A   1      33.245  16.666  26.179  1.00  0.00    -0.132 F 
ENDBRANCH  20  21
ENDBRANCH  11  20
BRANCH  16  25
ATOM     25  C   UNL A   1      35.535  23.361  23.697  1.00  0.00     0.430 C 
ATOM     26  F   UNL A   1      34.688  22.599  22.967  1.00  0.00    -0.167 F 
ATOM     27  F   UNL A   1      35.070  24.630  23.636  1.00  0.00    -0.167 F 
ATOM     28  F   UNL A   1      36.730  23.355  23.057  1.00  0.00    -0.167 F 
ENDBRANCH  16  25
ENDBRANCH   5   7
ENDBRANCH   4   5
ENDBRANCH   3   4
ENDBRANCH   2   3
ENDBRANCH   1   2
BRANCH   1  29
ATOM     29  C   UNL A   1      43.696  21.393  25.659  1.00  0.00     0.202 C 
BRANCH  29  30
ATOM     30  C   UNL A   1      44.572  22.509  25.083  1.00  0.00     0.261 C 
BRANCH  30  31
ATOM     31  O   UNL A   1      43.802  23.675  24.749  1.00  0.00    -0.460 OA
BRANCH  31  32
ATOM     32  C   UNL A   1      44.396  24.844  25.078  1.00  0.00     0.338 C 
ATOM     33  O   UNL A   1      45.417  25.322  24.600  1.00  0.00    -0.246 OA
BRANCH  32  34
ATOM     34  C   UNL A   1      43.544  25.598  26.011  1.00  0.00     0.060 A 
ATOM     35  C   UNL A   1      43.870  26.943  26.227  1.00  0.00     0.016 A 
ATOM     36  C   UNL A   1      42.495  24.998  26.714  1.00  0.00     0.016 A 
ATOM     37  C   UNL A   1      43.190  27.677  27.192  1.00  0.00     0.010 A 
ATOM     38  C   UNL A   1      41.818  25.736  27.690  1.00  0.00     0.010 A 
ATOM     39  C   UNL A   1      42.191  27.065  27.961  1.00  0.00    -0.014 A 
BRANCH  39  40
ATOM     40  C   UNL A   1      41.661  27.781  29.146  1.00  0.00     0.031 A 
ATOM     41  C   UNL A   1      42.384  27.646  30.458  1.00  0.00     0.074 A 
ATOM     42  C   UNL A   1      40.589  28.583  29.040  1.00  0.00     0.049 A 
ATOM     43  N   UNL A   1      42.120  28.206  31.612  1.00  0.00    -0.248 NA
ATOM     44  C   UNL A   1      43.563  26.765  30.472  1.00  0.00     0.031 C 
ATOM     45  C   UNL A   1      39.826  28.815  27.816  1.00  0.00     0.029 A 
ATOM     46  N   UNL A   1      39.959  29.355  29.983  1.00  0.00    -0.354 N 
ATOM     47  C   UNL A   1      43.097  27.745  32.485  1.00  0.00     0.074 A 
ATOM     48  C   UNL A   1      43.939  26.835  31.740  1.00  0.00     0.031 C 
ATOM     49  C   UNL A   1      38.823  29.669  28.083  1.00  0.00     0.029 A 
ATOM     50  C   UNL A   1      38.863  30.026  29.500  1.00  0.00     0.049 A 
ATOM     51  H   UNL A   1      40.263  29.422  30.917  1.00  0.00     0.167 HD
ATOM     52  C   UNL A   1      43.281  28.062  33.788  1.00  0.00     0.037 A 
ATOM     53  C   UNL A   1      37.985  30.826  30.136  1.00  0.00     0.037 A 
ATOM     54  C   UNL A   1      42.447  28.974  34.526  1.00  0.00     0.049 A 
ATOM     55  C   UNL A   1      38.183  31.121  31.601  1.00  0.00     0.074 A 
ATOM     56  C   UNL A   1      42.572  29.385  35.842  1.00  0.00     0.029 A 
ATOM     57  N   UNL A   1      41.326  29.608  34.012  1.00  0.00    -0.354 N 
ATOM     58  N   UNL A   1      39.132  30.715  32.407  1.00  0.00    -0.248 NA
ATOM     59  C   UNL A   1      37.187  31.992  32.241  1.00  0.00     0.031 C 
ATOM     60  C   UNL A   1      41.498  30.230  36.137  1.00  0.00     0.029 A 
ATOM     61  C   UNL A   1      40.733  30.386  34.993  1.00  0.00     0.049 A 
ATOM     62  H   UNL A   1      41.002  29.520  33.087  1.00  0.00     0.167 HD
ATOM     63  C   UNL A   1      38.865  31.298  33.639  1.00  0.00     0.074 A 
ATOM     64  C   UNL A   1      37.671  32.099  33.470  1.00  0.00     0.031 C 
ATOM     65  C   UNL A   1      39.546  31.181  34.806  1.00  0.00     0.037 A 
BRANCH  52  66
ATOM     66  C   UNL A   1      44.420  27.403  34.508  1.00  0.00     0.064 A 
ATOM     67  C   UNL A   1      44.270  26.163  35.146  1.00  0.00     0.173 A 
ATOM     68  C   UNL A   1      45.688  28.003  34.524  1.00  0.00     0.173 A 
ATOM     69  F   UNL A   1      43.074  25.555  35.169  1.00  0.00    -0.203 F 
ATOM     70  C   UNL A   1      45.345  25.556  35.792  1.00  0.00     0.198 A 
ATOM     71  C   UNL A   1      46.766  27.381  35.149  1.00  0.00     0.198 A 
ATOM     72  F   UNL A   1      45.883  29.188  33.927  1.00  0.00    -0.203 F 
ATOM     73  F   UNL A   1      45.171  24.390  36.429  1.00  0.00    -0.200 F 
ATOM     74  C   UNL A   1      46.592  26.162  35.787  1.00  0.00     0.200 A 
ATOM     75  F   UNL A   1      47.973  27.963  35.134  1.00  0.00    -0.200 F 
ATOM     76  F   UNL A   1      47.627  25.574  36.402  1.00  0.00    -0.200 F 
ENDBRANCH  52  66
BRANCH  53  77
ATOM     77  C   UNL A   1      36.834  31.401  29.395  1.00  0.00     0.064 A 
ATOM     78  C   UNL A   1      35.759  30.601  28.986  1.00  0.00     0.173 A 
ATOM     79  C   UNL A   1      36.797  32.764  29.062  1.00  0.00     0.173 A 
ATOM     80  F   UNL A   1      35.761  29.288  29.259  1.00  0.00    -0.203 F 
ATOM     81  C   UNL A   1      34.699  31.137  28.257  1.00  0.00     0.198 A 
ATOM     82  C   UNL A   1      35.724  33.304  28.357  1.00  0.00     0.198 A 
ATOM     83  F   UNL A   1      37.802  33.572  29.429  1.00  0.00    -0.203 F 
ATOM     84  F   UNL A   1      33.706  30.341  27.838  1.00  0.00    -0.200 F 
ATOM     85  C   UNL A   1      34.680  32.489  27.948  1.00  0.00     0.200 A 
ATOM     86  F   UNL A   1      35.704  34.613  28.071  1.00  0.00    -0.200 F 
ATOM     87  F   UNL A   1      33.660  33.004  27.248  1.00  0.00    -0.200 F 
ENDBRANCH  53  77
BRANCH  65  88
ATOM     88  C   UNL A   1      39.033  31.955  35.984  1.00  0.00     0.064 A 
ATOM     89  C   UNL A   1      38.156  31.381  36.916  1.00  0.00     0.173 A 
ATOM     90  C   UNL A   1      39.457  33.274  36.208  1.00  0.00     0.173 A 
ATOM     91  F   UNL A   1      37.709  30.127  36.739  1.00  0.00    -0.203 F 
ATOM     92  C   UNL A   1      37.703  32.106  38.014  1.00  0.00     0.198 A 
ATOM     93  C   UNL A   1      39.024  33.986  37.323  1.00  0.00     0.198 A 
ATOM     94  F   UNL A   1      40.301  33.867  35.350  1.00  0.00    -0.203 F 
ATOM     95  F   UNL A   1      36.830  31.552  38.867  1.00  0.00    -0.200 F 
ATOM     96  C   UNL A   1      38.143  33.405  38.221  1.00  0.00     0.200 A 
ATOM     97  F   UNL A   1      39.463  35.236  37.528  1.00  0.00    -0.200 F 
ATOM     98  F   UNL A   1      37.712  34.099  39.283  1.00  0.00    -0.200 F 
ENDBRANCH  65  88
ENDBRANCH  39  40
ENDBRANCH  32  34
ENDBRANCH  31  32
ENDBRANCH  30  31
ENDBRANCH  29  30
ENDBRANCH   1  29
TORSDOF 19
ENDMDL
MODEL 3
REMARK VINA RESULT:     -11.9      1.456      3.190
REMARK SMILES CCCc1cc(OC(F)(F)F)cc2c1O[C@H](C(F)(F)F)C(C(=O)OCCOCCOC(=O)c1ccc(-c3c4nc(c(-c5c(F)c(F)c(F)c(F)c5F)c5ccc([nH]5)c(-c5c(F)c(F)c(F)c(F)c5F)c5nc(c(-c6c(F)c(F)c(F)c(F)c6F)c6ccc3[nH]6)C=C5)C=C4)cc1)=C2
REMARK SMILES IDX 27 1 26 2 25 3 24 4 22 5 23 6 21 7 4 8 5 9 14 10 6 11 13 12
REMARK SMILES IDX 15 13 12 14 96 15 16 16 3 17 2 18 1 19 7 20 8 21 9 22 10 23
REMARK SMILES IDX 11 24 17 25 18 26 19 27 20 28 28 29 29 30 30 31 31 32 32 33
REMARK SMILES IDX 33 34 34 35 95 36 35 37 94 38 36 39 37 40 38 41 88 42 39 43
REMARK SMILES IDX 93 44 87 45 89 46 40 47 92 48 86 49 85 50 41 52 73 53 53 54
REMARK SMILES IDX 72 55 54 56 57 57 71 58 90 59 55 60 56 61 70 63 91 64 58 65
REMARK SMILES IDX 42 66 43 67 51 68 44 69 45 70 49 71 52 72 46 73 47 74 50 75
REMARK SMILES IDX 48 76 74 77 75 78 83 79 76 80 77 81 81 82 84 83 78 84 79 85
REMARK SMILES IDX 82 86 80 87 59 88 60 89 68 90 61 91 62 92 66 93 69 94 63 95
REMARK SMILES IDX 64 96 67 97 65 98
REMARK H PARENT 89 51 57 62
REMARK Flexibility Score: inf
ROOT
ATOM      1  O   UNL A   1      36.128  20.712  24.909  1.00  0.00    -0.374 OA
ENDROOT
BRANCH   1   2
ATOM      2  C   UNL A   1      34.717  20.513  24.985  1.00  0.00     0.202 C 
BRANCH   2   3
ATOM      3  C   UNL A   1      33.871  21.749  25.301  1.00  0.00     0.261 C 
BRANCH   3   4
ATOM      4  O   UNL A   1      33.250  22.284  24.115  1.00  0.00    -0.460 OA
BRANCH   4   5
ATOM      5  C   UNL A   1      33.915  23.312  23.539  1.00  0.00     0.338 C 
ATOM      6  O   UNL A   1      34.771  23.219  22.673  1.00  0.00    -0.246 OA
BRANCH   5   7
ATOM      7  C   UNL A   1      33.403  24.625  23.984  1.00  0.00     0.087 C 
ATOM      8  C   UNL A   1      32.137  28.592  24.189  1.00  0.00    -0.002 A 
ATOM      9  C   UNL A   1      32.391  29.327  25.354  1.00  0.00     0.054 A 
ATOM     10  C   UNL A   1      32.609  27.273  24.135  1.00  0.00     0.131 A 
ATOM     11  C   UNL A   1      33.166  28.791  26.391  1.00  0.00     0.130 A 
ATOM     12  C   UNL A   1      33.379  26.707  25.164  1.00  0.00     0.021 A 
ATOM     13  O   UNL A   1      32.313  26.568  22.995  1.00  0.00    -0.475 OA
ATOM     14  C   UNL A   1      33.651  27.479  26.295  1.00  0.00     0.058 A 
ATOM     15  C   UNL A   1      33.936  25.362  24.973  1.00  0.00     0.027 C 
ATOM     16  C   UNL A   1      32.227  25.140  23.186  1.00  0.00     0.316 C 
BRANCH   8  17
ATOM     17  C   UNL A   1      31.344  29.132  23.015  1.00  0.00     0.039 C 
BRANCH  17  18
ATOM     18  C   UNL A   1      29.815  29.114  23.090  1.00  0.00     0.001 C 
ATOM     19  C   UNL A   1      29.216  30.452  23.499  1.00  0.00     0.004 C 
ENDBRANCH  17  18
ENDBRANCH   8  17
BRANCH  11  20
ATOM     20  O   UNL A   1      33.513  29.451  27.538  1.00  0.00    -0.406 OA
BRANCH  20  21
ATOM     21  C   UNL A   1      34.845  29.941  27.626  1.00  0.00     0.573 C 
ATOM     22  F   UNL A   1      35.491  29.427  28.695  1.00  0.00    -0.132 F 
ATOM     23  F   UNL A   1      35.537  29.657  26.502  1.00  0.00    -0.132 F 
ATOM     24  F   UNL A   1      34.805  31.283  27.766  1.00  0.00    -0.132 F 
ENDBRANCH  20  21
ENDBRANCH  11  20
BRANCH  16  25
ATOM     25  C   UNL A   1      30.870  24.734  23.793  1.00  0.00     0.430 C 
ATOM     26  F   UNL A   1      30.989  24.377  25.094  1.00  0.00    -0.167 F 
ATOM     27  F   UNL A   1      29.986  25.758  23.749  1.00  0.00    -0.167 F 
ATOM     28  F   UNL A   1      30.292  23.694  23.145  1.00  0.00    -0.167 F 
ENDBRANCH  16  25
ENDBRANCH   5   7
ENDBRANCH   4   5
ENDBRANCH   3   4
ENDBRANCH   2   3
ENDBRANCH   1   2
BRANCH   1  29
ATOM     29  C   UNL A   1      36.957  19.555  25.001  1.00  0.00     0.202 C 
BRANCH  29  30
ATOM     30  C   UNL A   1      38.471  19.787  25.003  1.00  0.00     0.261 C 
BRANCH  30  31
ATOM     31  O   UNL A   1      38.827  20.993  25.696  1.00  0.00    -0.460 OA
BRANCH  31  32
ATOM     32  C   UNL A   1      39.969  20.903  26.413  1.00  0.00     0.338 C 
ATOM     33  O   UNL A   1      40.731  19.947  26.485  1.00  0.00    -0.246 OA
BRANCH  32  34
ATOM     34  C   UNL A   1      40.301  22.211  27.001  1.00  0.00     0.060 A 
ATOM     35  C   UNL A   1      39.617  23.326  26.500  1.00  0.00     0.016 A 
ATOM     36  C   UNL A   1      41.300  22.362  27.966  1.00  0.00     0.016 A 
ATOM     37  C   UNL A   1      39.974  24.604  26.915  1.00  0.00     0.010 A 
ATOM     38  C   UNL A   1      41.662  23.650  28.376  1.00  0.00     0.010 A 
ATOM     39  C   UNL A   1      41.028  24.776  27.821  1.00  0.00    -0.014 A 
BRANCH  39  40
ATOM     40  C   UNL A   1      41.557  26.141  28.052  1.00  0.00     0.031 A 
ATOM     41  C   UNL A   1      42.923  26.489  27.529  1.00  0.00     0.074 A 
ATOM     42  C   UNL A   1      40.808  27.072  28.667  1.00  0.00     0.049 A 
ATOM     43  N   UNL A   1      43.570  27.626  27.586  1.00  0.00    -0.248 NA
ATOM     44  C   UNL A   1      43.660  25.412  26.847  1.00  0.00     0.031 C 
ATOM     45  C   UNL A   1      39.460  26.860  29.189  1.00  0.00     0.029 A 
ATOM     46  N   UNL A   1      41.079  28.387  28.952  1.00  0.00    -0.354 N 
ATOM     47  C   UNL A   1      44.784  27.400  26.952  1.00  0.00     0.074 A 
ATOM     48  C   UNL A   1      44.801  26.012  26.545  1.00  0.00     0.031 C 
ATOM     49  C   UNL A   1      39.021  28.006  29.739  1.00  0.00     0.029 A 
ATOM     50  C   UNL A   1      40.066  29.023  29.624  1.00  0.00     0.049 A 
ATOM     51  H   UNL A   1      41.920  28.831  28.698  1.00  0.00     0.167 HD
ATOM     52  C   UNL A   1      45.789  28.277  26.718  1.00  0.00     0.037 A 
ATOM     53  C   UNL A   1      39.997  30.280  30.104  1.00  0.00     0.037 A 
ATOM     54  C   UNL A   1      45.768  29.660  27.115  1.00  0.00     0.049 A 
ATOM     55  C   UNL A   1      41.153  31.220  29.876  1.00  0.00     0.074 A 
ATOM     56  C   UNL A   1      46.724  30.635  26.895  1.00  0.00     0.029 A 
ATOM     57  N   UNL A   1      44.737  30.260  27.824  1.00  0.00    -0.354 N 
ATOM     58  N   UNL A   1      42.278  31.011  29.238  1.00  0.00    -0.248 NA
ATOM     59  C   UNL A   1      41.024  32.575  30.432  1.00  0.00     0.031 C 
ATOM     60  C   UNL A   1      46.294  31.814  27.514  1.00  0.00     0.029 A 
ATOM     61  C   UNL A   1      45.048  31.586  28.075  1.00  0.00     0.049 A 
ATOM     62  H   UNL A   1      43.909  29.810  28.106  1.00  0.00     0.167 HD
ATOM     63  C   UNL A   1      42.978  32.209  29.293  1.00  0.00     0.074 A 
ATOM     64  C   UNL A   1      42.144  33.147  30.014  1.00  0.00     0.031 C 
ATOM     65  C   UNL A   1      44.203  32.507  28.792  1.00  0.00     0.037 A 
BRANCH  52  66
ATOM     66  C   UNL A   1      47.009  27.761  26.014  1.00  0.00     0.064 A 
ATOM     67  C   UNL A   1      48.111  27.258  26.722  1.00  0.00     0.173 A 
ATOM     68  C   UNL A   1      47.058  27.732  24.612  1.00  0.00     0.173 A 
ATOM     69  F   UNL A   1      48.118  27.276  28.063  1.00  0.00    -0.203 F 
ATOM     70  C   UNL A   1      49.227  26.764  26.050  1.00  0.00     0.198 A 
ATOM     71  C   UNL A   1      48.165  27.214  23.945  1.00  0.00     0.198 A 
ATOM     72  F   UNL A   1      46.029  28.200  23.890  1.00  0.00    -0.203 F 
ATOM     73  F   UNL A   1      50.286  26.325  26.745  1.00  0.00    -0.200 F 
ATOM     74  C   UNL A   1      49.250  26.736  24.664  1.00  0.00     0.200 A 
ATOM     75  F   UNL A   1      48.181  27.179  22.606  1.00  0.00    -0.200 F 
ATOM     76  F   UNL A   1      50.321  26.254  24.019  1.00  0.00    -0.200 F 
ENDBRANCH  52  66
BRANCH  53  77
ATOM     77  C   UNL A   1      38.794  30.723  30.853  1.00  0.00     0.064 A 
ATOM     78  C   UNL A   1      37.710  31.323  30.199  1.00  0.00     0.173 A 
ATOM     79  C   UNL A   1      38.714  30.573  32.246  1.00  0.00     0.173 A 
ATOM     80  F   UNL A   1      37.750  31.510  28.871  1.00  0.00    -0.203 F 
ATOM     81  C   UNL A   1      36.599  31.773  30.910  1.00  0.00     0.198 A 
ATOM     82  C   UNL A   1      37.592  30.999  32.953  1.00  0.00     0.198 A 
ATOM     83  F   UNL A   1      39.726  30.007  32.920  1.00  0.00    -0.203 F 
ATOM     84  F   UNL A   1      35.597  32.386  30.266  1.00  0.00    -0.200 F 
ATOM     85  C   UNL A   1      36.539  31.606  32.285  1.00  0.00     0.200 A 
ATOM     86  F   UNL A   1      37.533  30.825  34.280  1.00  0.00    -0.200 F 
ATOM     87  F   UNL A   1      35.470  32.038  32.969  1.00  0.00    -0.200 F 
ENDBRANCH  53  77
BRANCH  65  88
ATOM     88  C   UNL A   1      44.704  33.909  28.983  1.00  0.00     0.064 A 
ATOM     89  C   UNL A   1      44.395  34.929  28.071  1.00  0.00     0.173 A 
ATOM     90  C   UNL A   1      45.465  34.245  30.113  1.00  0.00     0.173 A 
ATOM     91  F   UNL A   1      43.683  34.655  26.967  1.00  0.00    -0.203 F 
ATOM     92  C   UNL A   1      44.851  36.229  28.270  1.00  0.00     0.198 A 
ATOM     93  C   UNL A   1      45.894  35.553  30.323  1.00  0.00     0.198 A 
ATOM     94  F   UNL A   1      45.780  33.308  31.019  1.00  0.00    -0.203 F 
ATOM     95  F   UNL A   1      44.582  37.178  27.363  1.00  0.00    -0.200 F 
ATOM     96  C   UNL A   1      45.593  36.542  29.400  1.00  0.00     0.200 A 
ATOM     97  F   UNL A   1      46.599  35.855  31.422  1.00  0.00    -0.200 F 
ATOM     98  F   UNL A   1      46.024  37.795  29.594  1.00  0.00    -0.200 F 
ENDBRANCH  65  88
ENDBRANCH  39  40
ENDBRANCH  32  34
ENDBRANCH  31  32
ENDBRANCH  30  31
ENDBRANCH  29  30
ENDBRANCH   1  29
TORSDOF 19
ENDMDL
