MODEL 1
REMARK VINA RESULT:     -13.4      0.000      0.000
REMARK SMILES Cc1ccc2[nH]cc([C@@H](C(=O)OCCOCCOC(=O)c3ccc(-c4c5nc(c(-c6c(F)c(F)c(F)c(F)c6F)c6ccc([nH]6)c(-c6c(F)c(F)c(F)c(F)c6F)c6nc(c(-c7c(F)c(F)c(F)c(F)c7F)c7ccc4[nH]7)C=C6)C=C5)cc3)[NH+]3CCN(c4cccc(Cl)c4)CC3)c2c1
REMARK SMILES IDX 15 1 14 2 13 3 12 4 10 5 11 6 9 7 8 8 1 9 2 10 3 11 98 12
REMARK SMILES IDX 4 13 97 14 5 15 6 16 7 17 84 19 85 20 96 21 86 23 95 24
REMARK SMILES IDX 87 25 88 26 89 27 94 28 90 29 92 30 91 31 93 32 16 33 17 34
REMARK SMILES IDX 18 35 19 36 20 37 21 38 22 39 83 40 23 41 82 42 24 43 25 44
REMARK SMILES IDX 26 45 76 46 27 47 81 48 75 49 77 50 28 51 80 52 74 53 73 54
REMARK SMILES IDX 29 56 61 57 41 58 60 59 42 60 45 61 59 62 78 63 43 64 44 65
REMARK SMILES IDX 58 67 79 68 46 69 30 70 31 71 39 72 32 73 33 74 37 75 40 76
REMARK SMILES IDX 34 77 35 78 38 79 36 80 62 81 63 82 71 83 64 84 65 85 69 86
REMARK SMILES IDX 72 87 66 88 67 89 70 90 68 91 47 92 48 93 56 94 49 95 50 96
REMARK SMILES IDX 54 97 57 98 51 99 52 100 55 101 53 102
REMARK H PARENT 6 18 84 22 77 55 45 66
REMARK Flexibility Score: inf
ROOT
ATOM      1  O   UNL A   1      35.669  22.070  25.271  1.00  0.00    -0.374 OA
ENDROOT
BRANCH   1   2
ATOM      2  C   UNL A   1      34.297  22.369  25.528  1.00  0.00     0.202 C 
BRANCH   2   3
ATOM      3  C   UNL A   1      33.300  22.059  24.406  1.00  0.00     0.261 C 
BRANCH   3   4
ATOM      4  O   UNL A   1      32.667  23.236  23.858  1.00  0.00    -0.459 OA
BRANCH   4   5
ATOM      5  C   UNL A   1      33.509  24.119  23.243  1.00  0.00     0.370 C 
ATOM      6  O   UNL A   1      34.414  23.763  22.489  1.00  0.00    -0.245 OA
BRANCH   5   7
ATOM      7  C   UNL A   1      33.278  25.600  23.615  1.00  0.00     0.328 C 
BRANCH   7   8
ATOM      8  C   UNL A   1      32.480  25.921  24.859  1.00  0.00     0.046 A 
ATOM      9  C   UNL A   1      35.220  29.545  27.250  1.00  0.00     0.044 C 
ATOM     10  C   UNL A   1      33.988  28.713  27.043  1.00  0.00    -0.050 A 
ATOM     11  C   UNL A   1      32.873  28.861  27.869  1.00  0.00     0.005 A 
ATOM     12  C   UNL A   1      33.966  27.762  26.008  1.00  0.00     0.014 A 
ATOM     13  C   UNL A   1      31.743  28.050  27.716  1.00  0.00     0.027 A 
ATOM     14  C   UNL A   1      32.839  26.930  25.828  1.00  0.00     0.009 A 
ATOM     15  C   UNL A   1      31.768  27.080  26.708  1.00  0.00     0.046 A 
ATOM     16  N   UNL A   1      30.831  26.138  26.362  1.00  0.00    -0.361 N 
ATOM     17  C   UNL A   1      31.276  25.399  25.296  1.00  0.00     0.094 A 
ATOM     18  H   UNL A   1      29.967  26.012  26.814  1.00  0.00     0.166 HD
ENDBRANCH   7   8
BRANCH   7  19
ATOM     19  N   UNL A   1      32.845  26.380  22.432  1.00  0.00    -0.316 N 
ATOM     20  C   UNL A   1      31.472  26.246  21.935  1.00  0.00     0.284 C 
ATOM     21  C   UNL A   1      33.324  27.764  22.345  1.00  0.00     0.284 C 
ATOM     22  H   UNL A   1      33.380  25.834  21.756  1.00  0.00     0.349 HD
ATOM     23  C   UNL A   1      30.448  27.321  22.370  1.00  0.00     0.178 C 
ATOM     24  C   UNL A   1      32.356  28.846  22.871  1.00  0.00     0.178 C 
ATOM     25  N   UNL A   1      31.011  28.673  22.296  1.00  0.00    -0.360 N 
BRANCH  25  26
ATOM     26  C   UNL A   1      30.140  29.737  22.522  1.00  0.00     0.038 A 
ATOM     27  C   UNL A   1      29.888  30.249  23.802  1.00  0.00     0.026 A 
ATOM     28  C   UNL A   1      29.508  30.338  21.428  1.00  0.00     0.046 A 
ATOM     29  C   UNL A   1      29.013  31.322  23.989  1.00  0.00     0.004 A 
ATOM     30  C   UNL A   1      28.630  31.406  21.615  1.00  0.00     0.043 A 
ATOM     31  C   UNL A   1      28.379  31.900  22.892  1.00  0.00     0.020 A 
ATOM     32  Cl  UNL A   1      27.850  32.115  20.256  1.00  0.00    -0.084 Cl
ENDBRANCH  25  26
ENDBRANCH   7  19
ENDBRANCH   5   7
ENDBRANCH   4   5
ENDBRANCH   3   4
ENDBRANCH   2   3
ENDBRANCH   1   2
BRANCH   1  33
ATOM     33  C   UNL A   1      35.999  20.712  24.991  1.00  0.00     0.202 C 
BRANCH  33  34
ATOM     34  C   UNL A   1      37.494  20.388  24.962  1.00  0.00     0.261 C 
BRANCH  34  35
ATOM     35  O   UNL A   1      38.275  21.551  25.290  1.00  0.00    -0.460 OA
BRANCH  35  36
ATOM     36  C   UNL A   1      39.356  21.295  26.053  1.00  0.00     0.338 C 
ATOM     37  O   UNL A   1      40.062  20.292  26.030  1.00  0.00    -0.246 OA
BRANCH  36  38
ATOM     38  C   UNL A   1      39.721  22.484  26.836  1.00  0.00     0.060 A 
ATOM     39  C   UNL A   1      39.032  23.672  26.558  1.00  0.00     0.016 A 
ATOM     40  C   UNL A   1      40.799  22.477  27.722  1.00  0.00     0.016 A 
ATOM     41  C   UNL A   1      39.469  24.873  27.109  1.00  0.00     0.010 A 
ATOM     42  C   UNL A   1      41.243  23.689  28.268  1.00  0.00     0.010 A 
ATOM     43  C   UNL A   1      40.610  24.897  27.922  1.00  0.00    -0.014 A 
BRANCH  43  44
ATOM     44  C   UNL A   1      41.228  26.209  28.235  1.00  0.00     0.031 A 
ATOM     45  C   UNL A   1      42.626  26.487  27.752  1.00  0.00     0.074 A 
ATOM     46  C   UNL A   1      40.530  27.173  28.860  1.00  0.00     0.049 A 
ATOM     47  N   UNL A   1      43.332  27.587  27.833  1.00  0.00    -0.248 NA
ATOM     48  C   UNL A   1      43.320  25.378  27.079  1.00  0.00     0.031 C 
ATOM     49  C   UNL A   1      39.159  27.040  29.345  1.00  0.00     0.029 A 
ATOM     50  N   UNL A   1      40.879  28.461  29.178  1.00  0.00    -0.354 N 
ATOM     51  C   UNL A   1      44.545  27.305  27.218  1.00  0.00     0.074 A 
ATOM     52  C   UNL A   1      44.497  25.921  26.800  1.00  0.00     0.031 C 
ATOM     53  C   UNL A   1      38.780  28.204  29.900  1.00  0.00     0.029 A 
ATOM     54  C   UNL A   1      39.886  29.157  29.822  1.00  0.00     0.049 A 
ATOM     55  H   UNL A   1      41.759  28.850  28.965  1.00  0.00     0.167 HD
ATOM     56  C   UNL A   1      45.599  28.129  27.004  1.00  0.00     0.037 A 
ATOM     57  C   UNL A   1      39.876  30.419  30.294  1.00  0.00     0.037 A 
ATOM     58  C   UNL A   1      45.653  29.506  27.419  1.00  0.00     0.049 A 
ATOM     59  C   UNL A   1      41.083  31.298  30.095  1.00  0.00     0.074 A 
ATOM     60  C   UNL A   1      46.675  30.423  27.239  1.00  0.00     0.029 A 
ATOM     61  N   UNL A   1      44.642  30.162  28.103  1.00  0.00    -0.354 N 
ATOM     62  N   UNL A   1      42.210  31.032  29.481  1.00  0.00    -0.248 NA
ATOM     63  C   UNL A   1      41.010  32.659  30.645  1.00  0.00     0.031 C 
ATOM     64  C   UNL A   1      46.299  31.622  27.853  1.00  0.00     0.029 A 
ATOM     65  C   UNL A   1      45.023  31.466  28.373  1.00  0.00     0.049 A 
ATOM     66  H   UNL A   1      43.780  29.761  28.359  1.00  0.00     0.167 HD
ATOM     67  C   UNL A   1      42.966  32.197  29.546  1.00  0.00     0.074 A 
ATOM     68  C   UNL A   1      42.163  33.176  30.248  1.00  0.00     0.031 C 
ATOM     69  C   UNL A   1      44.212  32.434  29.066  1.00  0.00     0.037 A 
BRANCH  56  70
ATOM     70  C   UNL A   1      46.795  27.552  26.306  1.00  0.00     0.064 A 
ATOM     71  C   UNL A   1      46.950  27.647  24.915  1.00  0.00     0.173 A 
ATOM     72  C   UNL A   1      47.813  26.926  27.040  1.00  0.00     0.173 A 
ATOM     73  F   UNL A   1      45.996  28.224  24.167  1.00  0.00    -0.203 F 
ATOM     74  C   UNL A   1      48.071  27.116  24.282  1.00  0.00     0.198 A 
ATOM     75  C   UNL A   1      48.945  26.419  26.406  1.00  0.00     0.198 A 
ATOM     76  F   UNL A   1      47.714  26.812  28.372  1.00  0.00    -0.203 F 
ATOM     77  F   UNL A   1      48.179  27.180  22.947  1.00  0.00    -0.200 F 
ATOM     78  C   UNL A   1      49.069  26.509  25.028  1.00  0.00     0.200 A 
ATOM     79  F   UNL A   1      49.913  25.841  27.130  1.00  0.00    -0.200 F 
ATOM     80  F   UNL A   1      50.150  26.001  24.419  1.00  0.00    -0.200 F 
ENDBRANCH  56  70
BRANCH  57  81
ATOM     81  C   UNL A   1      38.675  30.933  31.003  1.00  0.00     0.064 A 
ATOM     82  C   UNL A   1      38.573  30.868  32.399  1.00  0.00     0.173 A 
ATOM     83  C   UNL A   1      37.597  31.482  30.293  1.00  0.00     0.173 A 
ATOM     84  F   UNL A   1      39.566  30.326  33.119  1.00  0.00    -0.203 F 
ATOM     85  C   UNL A   1      37.429  31.316  33.058  1.00  0.00     0.198 A 
ATOM     86  C   UNL A   1      36.466  31.953  30.954  1.00  0.00     0.198 A 
ATOM     87  F   UNL A   1      37.646  31.563  28.955  1.00  0.00    -0.203 F 
ATOM     88  F   UNL A   1      37.337  31.200  34.390  1.00  0.00    -0.200 F 
ATOM     89  C   UNL A   1      36.380  31.864  32.336  1.00  0.00     0.200 A 
ATOM     90  F   UNL A   1      35.458  32.491  30.254  1.00  0.00    -0.200 F 
ATOM     91  F   UNL A   1      35.281  32.295  32.969  1.00  0.00    -0.200 F 
ENDBRANCH  57  81
BRANCH  69  92
ATOM     92  C   UNL A   1      44.773  33.813  29.254  1.00  0.00     0.064 A 
ATOM     93  C   UNL A   1      45.463  34.175  30.420  1.00  0.00     0.173 A 
ATOM     94  C   UNL A   1      44.648  34.774  28.239  1.00  0.00     0.173 A 
ATOM     95  F   UNL A   1      45.597  33.297  31.425  1.00  0.00    -0.203 F 
ATOM     96  C   UNL A   1      45.985  35.458  30.574  1.00  0.00     0.198 A 
ATOM     97  C   UNL A   1      45.196  36.046  28.384  1.00  0.00     0.198 A 
ATOM     98  F   UNL A   1      44.005  34.476  27.100  1.00  0.00    -0.203 F 
ATOM     99  F   UNL A   1      46.599  35.797  31.715  1.00  0.00    -0.200 F 
ATOM    100  C   UNL A   1      45.856  36.390  29.554  1.00  0.00     0.200 A 
ATOM    101  F   UNL A   1      45.082  36.940  27.392  1.00  0.00    -0.200 F 
ATOM    102  F   UNL A   1      46.361  37.621  29.702  1.00  0.00    -0.200 F 
ENDBRANCH  69  92
ENDBRANCH  43  44
ENDBRANCH  36  38
ENDBRANCH  35  36
ENDBRANCH  34  35
ENDBRANCH  33  34
ENDBRANCH   1  33
TORSDOF 17
ENDMDL
MODEL 2
REMARK VINA RESULT:     -13.3      1.184      3.203
REMARK SMILES Cc1ccc2[nH]cc([C@@H](C(=O)OCCOCCOC(=O)c3ccc(-c4c5nc(c(-c6c(F)c(F)c(F)c(F)c6F)c6ccc([nH]6)c(-c6c(F)c(F)c(F)c(F)c6F)c6nc(c(-c7c(F)c(F)c(F)c(F)c7F)c7ccc4[nH]7)C=C6)C=C5)cc3)[NH+]3CCN(c4cccc(Cl)c4)CC3)c2c1
REMARK SMILES IDX 15 1 14 2 13 3 12 4 10 5 11 6 9 7 8 8 1 9 2 10 3 11 98 12
REMARK SMILES IDX 4 13 97 14 5 15 6 16 7 17 84 19 85 20 96 21 86 23 95 24
REMARK SMILES IDX 87 25 88 26 89 27 94 28 90 29 92 30 91 31 93 32 16 33 17 34
REMARK SMILES IDX 18 35 19 36 20 37 21 38 22 39 83 40 23 41 82 42 24 43 25 44
REMARK SMILES IDX 26 45 76 46 27 47 81 48 75 49 77 50 28 51 80 52 74 53 73 54
REMARK SMILES IDX 29 56 61 57 41 58 60 59 42 60 45 61 59 62 78 63 43 64 44 65
REMARK SMILES IDX 58 67 79 68 46 69 30 70 31 71 39 72 32 73 33 74 37 75 40 76
REMARK SMILES IDX 34 77 35 78 38 79 36 80 62 81 63 82 71 83 64 84 65 85 69 86
REMARK SMILES IDX 72 87 66 88 67 89 70 90 68 91 47 92 48 93 56 94 49 95 50 96
REMARK SMILES IDX 54 97 57 98 51 99 52 100 55 101 53 102
REMARK H PARENT 6 18 84 22 77 55 45 66
REMARK Flexibility Score: inf
ROOT
ATOM      1  O   UNL A   1      34.853  21.750  24.688  1.00  0.00    -0.374 OA
ENDROOT
BRANCH   1   2
ATOM      2  C   UNL A   1      33.631  21.017  24.761  1.00  0.00     0.202 C 
BRANCH   2   3
ATOM      3  C   UNL A   1      32.559  21.354  23.720  1.00  0.00     0.261 C 
BRANCH   3   4
ATOM      4  O   UNL A   1      31.778  22.521  24.056  1.00  0.00    -0.459 OA
BRANCH   4   5
ATOM      5  C   UNL A   1      32.078  23.649  23.346  1.00  0.00     0.370 C 
ATOM      6  O   UNL A   1      32.752  23.630  22.316  1.00  0.00    -0.245 OA
BRANCH   5   7
ATOM      7  C   UNL A   1      31.559  24.964  23.970  1.00  0.00     0.328 C 
BRANCH   7   8
ATOM      8  C   UNL A   1      31.620  26.232  23.149  1.00  0.00     0.046 A 
ATOM      9  C   UNL A   1      26.901  28.224  23.501  1.00  0.00     0.044 C 
ATOM     10  C   UNL A   1      28.355  28.275  23.131  1.00  0.00    -0.050 A 
ATOM     11  C   UNL A   1      28.904  29.409  22.529  1.00  0.00     0.005 A 
ATOM     12  C   UNL A   1      29.169  27.158  23.382  1.00  0.00     0.014 A 
ATOM     13  C   UNL A   1      30.245  29.444  22.132  1.00  0.00     0.027 A 
ATOM     14  C   UNL A   1      30.527  27.163  22.994  1.00  0.00     0.009 A 
ATOM     15  C   UNL A   1      31.019  28.299  22.352  1.00  0.00     0.046 A 
ATOM     16  N   UNL A   1      32.330  28.042  22.035  1.00  0.00    -0.361 N 
ATOM     17  C   UNL A   1      32.679  26.784  22.452  1.00  0.00     0.094 A 
ATOM     18  H   UNL A   1      32.931  28.671  21.574  1.00  0.00     0.166 HD
ENDBRANCH   7   8
BRANCH   7  19
ATOM     19  N   UNL A   1      32.083  25.138  25.345  1.00  0.00    -0.316 N 
ATOM     20  C   UNL A   1      33.514  25.379  25.552  1.00  0.00     0.284 C 
ATOM     21  C   UNL A   1      31.257  25.922  26.269  1.00  0.00     0.284 C 
ATOM     22  H   UNL A   1      31.983  24.158  25.610  1.00  0.00     0.349 HD
ATOM     23  C   UNL A   1      33.968  26.845  25.752  1.00  0.00     0.178 C 
ATOM     24  C   UNL A   1      31.630  27.414  26.403  1.00  0.00     0.178 C 
ATOM     25  N   UNL A   1      33.072  27.575  26.654  1.00  0.00    -0.360 N 
BRANCH  25  26
ATOM     26  C   UNL A   1      33.458  28.862  27.027  1.00  0.00     0.038 A 
ATOM     27  C   UNL A   1      34.722  29.147  27.561  1.00  0.00     0.026 A 
ATOM     28  C   UNL A   1      32.558  29.917  26.844  1.00  0.00     0.046 A 
ATOM     29  C   UNL A   1      35.076  30.451  27.918  1.00  0.00     0.004 A 
ATOM     30  C   UNL A   1      32.908  31.218  27.206  1.00  0.00     0.043 A 
ATOM     31  C   UNL A   1      34.164  31.489  27.743  1.00  0.00     0.020 A 
ATOM     32  Cl  UNL A   1      31.778  32.497  26.989  1.00  0.00    -0.084 Cl
ENDBRANCH  25  26
ENDBRANCH   7  19
ENDBRANCH   5   7
ENDBRANCH   4   5
ENDBRANCH   3   4
ENDBRANCH   2   3
ENDBRANCH   1   2
BRANCH   1  33
ATOM     33  C   UNL A   1      35.839  21.477  25.682  1.00  0.00     0.202 C 
BRANCH  33  34
ATOM     34  C   UNL A   1      37.109  20.787  25.179  1.00  0.00     0.261 C 
BRANCH  34  35
ATOM     35  O   UNL A   1      38.211  21.712  25.140  1.00  0.00    -0.460 OA
BRANCH  35  36
ATOM     36  C   UNL A   1      39.223  21.401  25.975  1.00  0.00     0.338 C 
ATOM     37  O   UNL A   1      39.862  20.355  26.012  1.00  0.00    -0.246 OA
BRANCH  36  38
ATOM     38  C   UNL A   1      39.613  22.579  26.763  1.00  0.00     0.060 A 
ATOM     39  C   UNL A   1      38.939  23.778  26.501  1.00  0.00     0.016 A 
ATOM     40  C   UNL A   1      40.701  22.549  27.637  1.00  0.00     0.016 A 
ATOM     41  C   UNL A   1      39.399  24.969  27.056  1.00  0.00     0.010 A 
ATOM     42  C   UNL A   1      41.169  23.750  28.187  1.00  0.00     0.010 A 
ATOM     43  C   UNL A   1      40.550  24.970  27.857  1.00  0.00    -0.014 A 
BRANCH  43  44
ATOM     44  C   UNL A   1      41.191  26.271  28.172  1.00  0.00     0.031 A 
ATOM     45  C   UNL A   1      42.588  26.531  27.678  1.00  0.00     0.074 A 
ATOM     46  C   UNL A   1      40.512  27.241  28.809  1.00  0.00     0.049 A 
ATOM     47  N   UNL A   1      43.311  27.620  27.760  1.00  0.00    -0.248 NA
ATOM     48  C   UNL A   1      43.259  25.416  26.993  1.00  0.00     0.031 C 
ATOM     49  C   UNL A   1      39.144  27.125  29.306  1.00  0.00     0.029 A 
ATOM     50  N   UNL A   1      40.884  28.522  29.133  1.00  0.00    -0.354 N 
ATOM     51  C   UNL A   1      44.515  27.323  27.132  1.00  0.00     0.074 A 
ATOM     52  C   UNL A   1      44.441  25.943  26.706  1.00  0.00     0.031 C 
ATOM     53  C   UNL A   1      38.787  28.292  29.872  1.00  0.00     0.029 A 
ATOM     54  C   UNL A   1      39.907  29.228  29.790  1.00  0.00     0.049 A 
ATOM     55  H   UNL A   1      41.767  28.898  28.915  1.00  0.00     0.167 HD
ATOM     56  C   UNL A   1      45.579  28.132  26.915  1.00  0.00     0.037 A 
ATOM     57  C   UNL A   1      39.920  30.487  30.270  1.00  0.00     0.037 A 
ATOM     58  C   UNL A   1      45.657  29.506  27.338  1.00  0.00     0.049 A 
ATOM     59  C   UNL A   1      41.139  31.349  30.066  1.00  0.00     0.074 A 
ATOM     60  C   UNL A   1      46.691  30.408  27.155  1.00  0.00     0.029 A 
ATOM     61  N   UNL A   1      44.663  30.173  28.035  1.00  0.00    -0.354 N 
ATOM     62  N   UNL A   1      42.256  31.070  29.440  1.00  0.00    -0.248 NA
ATOM     63  C   UNL A   1      41.091  32.707  30.626  1.00  0.00     0.031 C 
ATOM     64  C   UNL A   1      46.339  31.609  27.780  1.00  0.00     0.029 A 
ATOM     65  C   UNL A   1      45.066  31.469  28.310  1.00  0.00     0.049 A 
ATOM     66  H   UNL A   1      43.797  29.783  28.296  1.00  0.00     0.167 HD
ATOM     67  C   UNL A   1      43.030  32.223  29.506  1.00  0.00     0.074 A 
ATOM     68  C   UNL A   1      42.249  33.210  30.221  1.00  0.00     0.031 C 
ATOM     69  C   UNL A   1      44.275  32.444  29.017  1.00  0.00     0.037 A 
BRANCH  56  70
ATOM     70  C   UNL A   1      46.760  27.542  26.202  1.00  0.00     0.064 A 
ATOM     71  C   UNL A   1      46.903  27.644  24.810  1.00  0.00     0.173 A 
ATOM     72  C   UNL A   1      47.775  26.895  26.923  1.00  0.00     0.173 A 
ATOM     73  F   UNL A   1      45.953  28.241  24.075  1.00  0.00    -0.203 F 
ATOM     74  C   UNL A   1      48.011  27.101  24.164  1.00  0.00     0.198 A 
ATOM     75  C   UNL A   1      48.893  26.376  26.276  1.00  0.00     0.198 A 
ATOM     76  F   UNL A   1      47.685  26.774  28.255  1.00  0.00    -0.203 F 
ATOM     77  F   UNL A   1      48.108  27.171  22.829  1.00  0.00    -0.200 F 
ATOM     78  C   UNL A   1      49.006  26.473  24.898  1.00  0.00     0.200 A 
ATOM     79  F   UNL A   1      49.858  25.778  26.988  1.00  0.00    -0.200 F 
ATOM     80  F   UNL A   1      50.074  25.953  24.275  1.00  0.00    -0.200 F 
ENDBRANCH  56  70
BRANCH  57  81
ATOM     81  C   UNL A   1      38.734  31.015  30.994  1.00  0.00     0.064 A 
ATOM     82  C   UNL A   1      37.712  31.692  30.315  1.00  0.00     0.173 A 
ATOM     83  C   UNL A   1      38.611  30.868  32.384  1.00  0.00     0.173 A 
ATOM     84  F   UNL A   1      37.799  31.881  28.990  1.00  0.00    -0.203 F 
ATOM     85  C   UNL A   1      36.620  32.219  31.001  1.00  0.00     0.198 A 
ATOM     86  C   UNL A   1      37.506  31.372  33.064  1.00  0.00     0.198 A 
ATOM     87  F   UNL A   1      39.564  30.230  33.078  1.00  0.00    -0.203 F 
ATOM     88  F   UNL A   1      35.679  32.903  30.336  1.00  0.00    -0.200 F 
ATOM     89  C   UNL A   1      36.515  32.054  32.374  1.00  0.00     0.200 A 
ATOM     90  F   UNL A   1      37.403  31.202  34.390  1.00  0.00    -0.200 F 
ATOM     91  F   UNL A   1      35.464  32.560  33.034  1.00  0.00    -0.200 F 
ENDBRANCH  57  81
BRANCH  69  92
ATOM     92  C   UNL A   1      44.858  33.814  29.208  1.00  0.00     0.064 A 
ATOM     93  C   UNL A   1      44.572  34.866  28.326  1.00  0.00     0.173 A 
ATOM     94  C   UNL A   1      45.685  34.085  30.309  1.00  0.00     0.173 A 
ATOM     95  F   UNL A   1      43.798  34.654  27.251  1.00  0.00    -0.203 F 
ATOM     96  C   UNL A   1      45.116  36.133  28.523  1.00  0.00     0.198 A 
ATOM     97  C   UNL A   1      46.204  35.360  30.519  1.00  0.00     0.198 A 
ATOM     98  F   UNL A   1      45.982  33.116  31.188  1.00  0.00    -0.203 F 
ATOM     99  F   UNL A   1      44.868  37.112  27.642  1.00  0.00    -0.200 F 
ATOM    100  C   UNL A   1      45.926  36.381  29.623  1.00  0.00     0.200 A 
ATOM    101  F   UNL A   1      46.975  35.601  31.588  1.00  0.00    -0.200 F 
ATOM    102  F   UNL A   1      46.444  37.601  29.813  1.00  0.00    -0.200 F 
ENDBRANCH  69  92
ENDBRANCH  43  44
ENDBRANCH  36  38
ENDBRANCH  35  36
ENDBRANCH  34  35
ENDBRANCH  33  34
ENDBRANCH   1  33
TORSDOF 17
ENDMDL
MODEL 3
REMARK VINA RESULT:     -13.1      4.686     10.237
REMARK SMILES Cc1ccc2[nH]cc([C@@H](C(=O)OCCOCCOC(=O)c3ccc(-c4c5nc(c(-c6c(F)c(F)c(F)c(F)c6F)c6ccc([nH]6)c(-c6c(F)c(F)c(F)c(F)c6F)c6nc(c(-c7c(F)c(F)c(F)c(F)c7F)c7ccc4[nH]7)C=C6)C=C5)cc3)[NH+]3CCN(c4cccc(Cl)c4)CC3)c2c1
REMARK SMILES IDX 15 1 14 2 13 3 12 4 10 5 11 6 9 7 8 8 1 9 2 10 3 11 98 12
REMARK SMILES IDX 4 13 97 14 5 15 6 16 7 17 84 19 85 20 96 21 86 23 95 24
REMARK SMILES IDX 87 25 88 26 89 27 94 28 90 29 92 30 91 31 93 32 16 33 17 34
REMARK SMILES IDX 18 35 19 36 20 37 21 38 22 39 83 40 23 41 82 42 24 43 25 44
REMARK SMILES IDX 26 45 76 46 27 47 81 48 75 49 77 50 28 51 80 52 74 53 73 54
REMARK SMILES IDX 29 56 61 57 41 58 60 59 42 60 45 61 59 62 78 63 43 64 44 65
REMARK SMILES IDX 58 67 79 68 46 69 30 70 31 71 39 72 32 73 33 74 37 75 40 76
REMARK SMILES IDX 34 77 35 78 38 79 36 80 62 81 63 82 71 83 64 84 65 85 69 86
REMARK SMILES IDX 72 87 66 88 67 89 70 90 68 91 47 92 48 93 56 94 49 95 50 96
REMARK SMILES IDX 54 97 57 98 51 99 52 100 55 101 53 102
REMARK H PARENT 6 18 84 22 77 55 45 66
REMARK Flexibility Score: inf
ROOT
ATOM      1  O   UNL A   1      33.044  30.381  26.123  1.00  0.00    -0.374 OA
ENDROOT
BRANCH   1   2
ATOM      2  C   UNL A   1      33.231  28.970  26.008  1.00  0.00     0.202 C 
BRANCH   2   3
ATOM      3  C   UNL A   1      31.977  28.096  26.121  1.00  0.00     0.261 C 
BRANCH   3   4
ATOM      4  O   UNL A   1      32.164  26.926  26.945  1.00  0.00    -0.459 OA
BRANCH   4   5
ATOM      5  C   UNL A   1      31.573  25.784  26.482  1.00  0.00     0.370 C 
ATOM      6  O   UNL A   1      30.358  25.683  26.314  1.00  0.00    -0.245 OA
BRANCH   5   7
ATOM      7  C   UNL A   1      32.542  24.605  26.244  1.00  0.00     0.328 C 
BRANCH   7   8
ATOM      8  C   UNL A   1      33.206  24.472  24.892  1.00  0.00     0.046 A 
ATOM      9  C   UNL A   1      37.979  22.905  25.949  1.00  0.00     0.044 C 
ATOM     10  C   UNL A   1      36.834  23.184  25.020  1.00  0.00    -0.050 A 
ATOM     11  C   UNL A   1      36.953  22.967  23.646  1.00  0.00     0.005 A 
ATOM     12  C   UNL A   1      35.629  23.685  25.543  1.00  0.00     0.014 A 
ATOM     13  C   UNL A   1      35.908  23.277  22.768  1.00  0.00     0.027 A 
ATOM     14  C   UNL A   1      34.557  24.006  24.683  1.00  0.00     0.009 A 
ATOM     15  C   UNL A   1      34.739  23.818  23.313  1.00  0.00     0.046 A 
ATOM     16  N   UNL A   1      33.589  24.244  22.696  1.00  0.00    -0.361 N 
ATOM     17  C   UNL A   1      32.691  24.695  23.628  1.00  0.00     0.094 A 
ATOM     18  H   UNL A   1      33.433  24.228  21.724  1.00  0.00     0.166 HD
ENDBRANCH   7   8
BRANCH   7  19
ATOM     19  N   UNL A   1      31.955  23.334  26.729  1.00  0.00    -0.316 N 
ATOM     20  C   UNL A   1      31.130  22.524  25.828  1.00  0.00     0.284 C 
ATOM     21  C   UNL A   1      32.806  22.502  27.587  1.00  0.00     0.284 C 
ATOM     22  H   UNL A   1      31.259  23.774  27.332  1.00  0.00     0.349 HD
ATOM     23  C   UNL A   1      31.812  21.333  25.114  1.00  0.00     0.178 C 
ATOM     24  C   UNL A   1      33.578  21.370  26.874  1.00  0.00     0.178 C 
ATOM     25  N   UNL A   1      32.676  20.574  26.023  1.00  0.00    -0.360 N 
BRANCH  25  26
ATOM     26  C   UNL A   1      33.231  19.392  25.535  1.00  0.00     0.038 A 
ATOM     27  C   UNL A   1      34.399  19.369  24.760  1.00  0.00     0.026 A 
ATOM     28  C   UNL A   1      32.614  18.176  25.847  1.00  0.00     0.046 A 
ATOM     29  C   UNL A   1      34.930  18.163  24.293  1.00  0.00     0.004 A 
ATOM     30  C   UNL A   1      33.140  16.973  25.376  1.00  0.00     0.043 A 
ATOM     31  C   UNL A   1      34.295  16.962  24.599  1.00  0.00     0.020 A 
ATOM     32  Cl  UNL A   1      32.353  15.491  25.757  1.00  0.00    -0.084 Cl
ENDBRANCH  25  26
ENDBRANCH   7  19
ENDBRANCH   5   7
ENDBRANCH   4   5
ENDBRANCH   3   4
ENDBRANCH   2   3
ENDBRANCH   1   2
BRANCH   1  33
ATOM     33  C   UNL A   1      31.758  30.837  26.535  1.00  0.00     0.202 C 
BRANCH  33  34
ATOM     34  C   UNL A   1      31.710  32.262  27.092  1.00  0.00     0.261 C 
BRANCH  34  35
ATOM     35  O   UNL A   1      32.981  32.916  26.930  1.00  0.00    -0.460 OA
BRANCH  35  36
ATOM     36  C   UNL A   1      33.558  33.298  28.087  1.00  0.00     0.338 C 
ATOM     37  O   UNL A   1      33.068  33.997  28.967  1.00  0.00    -0.246 OA
BRANCH  36  38
ATOM     38  C   UNL A   1      34.842  32.606  28.268  1.00  0.00     0.060 A 
ATOM     39  C   UNL A   1      34.799  31.285  28.730  1.00  0.00     0.016 A 
ATOM     40  C   UNL A   1      36.060  33.272  28.123  1.00  0.00     0.016 A 
ATOM     41  C   UNL A   1      35.974  30.648  29.120  1.00  0.00     0.010 A 
ATOM     42  C   UNL A   1      37.240  32.632  28.526  1.00  0.00     0.010 A 
ATOM     43  C   UNL A   1      37.194  31.337  29.073  1.00  0.00    -0.014 A 
BRANCH  43  44
ATOM     44  C   UNL A   1      38.362  30.754  29.779  1.00  0.00     0.031 A 
ATOM     45  C   UNL A   1      38.603  31.127  31.217  1.00  0.00     0.074 A 
ATOM     46  C   UNL A   1      39.147  29.841  29.182  1.00  0.00     0.049 A 
ATOM     47  N   UNL A   1      39.505  30.679  32.054  1.00  0.00    -0.248 NA
ATOM     48  C   UNL A   1      37.699  32.135  31.793  1.00  0.00     0.031 C 
ATOM     49  C   UNL A   1      38.998  29.371  27.807  1.00  0.00     0.029 A 
ATOM     50  N   UNL A   1      40.220  29.135  29.667  1.00  0.00    -0.354 N 
ATOM     51  C   UNL A   1      39.273  31.343  33.252  1.00  0.00     0.074 A 
ATOM     52  C   UNL A   1      38.170  32.251  33.026  1.00  0.00     0.031 C 
ATOM     53  C   UNL A   1      39.945  28.450  27.557  1.00  0.00     0.029 A 
ATOM     54  C   UNL A   1      40.774  28.278  28.750  1.00  0.00     0.049 A 
ATOM     55  H   UNL A   1      40.559  29.234  30.586  1.00  0.00     0.167 HD
ATOM     56  C   UNL A   1      39.910  31.197  34.438  1.00  0.00     0.037 A 
ATOM     57  C   UNL A   1      41.832  27.451  28.862  1.00  0.00     0.037 A 
ATOM     58  C   UNL A   1      41.008  30.296  34.668  1.00  0.00     0.049 A 
ATOM     59  C   UNL A   1      42.561  27.350  30.178  1.00  0.00     0.074 A 
ATOM     60  C   UNL A   1      41.712  30.073  35.839  1.00  0.00     0.029 A 
ATOM     61  N   UNL A   1      41.566  29.473  33.702  1.00  0.00    -0.354 N 
ATOM     62  N   UNL A   1      42.311  27.955  31.313  1.00  0.00    -0.248 NA
ATOM     63  C   UNL A   1      43.713  26.438  30.228  1.00  0.00     0.031 C 
ATOM     64  C   UNL A   1      42.725  29.146  35.569  1.00  0.00     0.029 A 
ATOM     65  C   UNL A   1      42.620  28.756  34.244  1.00  0.00     0.049 A 
ATOM     66  H   UNL A   1      41.259  29.408  32.769  1.00  0.00     0.167 HD
ATOM     67  C   UNL A   1      43.253  27.478  32.216  1.00  0.00     0.074 A 
ATOM     68  C   UNL A   1      44.071  26.522  31.501  1.00  0.00     0.031 C 
ATOM     69  C   UNL A   1      43.423  27.802  33.522  1.00  0.00     0.037 A 
BRANCH  56  70
ATOM     70  C   UNL A   1      39.445  32.053  35.580  1.00  0.00     0.064 A 
ATOM     71  C   UNL A   1      39.932  33.355  35.768  1.00  0.00     0.173 A 
ATOM     72  C   UNL A   1      38.478  31.576  36.478  1.00  0.00     0.173 A 
ATOM     73  F   UNL A   1      40.868  33.850  34.944  1.00  0.00    -0.203 F 
ATOM     74  C   UNL A   1      39.483  34.141  36.826  1.00  0.00     0.198 A 
ATOM     75  C   UNL A   1      38.013  32.374  37.519  1.00  0.00     0.198 A 
ATOM     76  F   UNL A   1      37.980  30.339  36.340  1.00  0.00    -0.203 F 
ATOM     77  F   UNL A   1      39.993  35.367  37.012  1.00  0.00    -0.200 F 
ATOM     78  C   UNL A   1      38.521  33.652  37.696  1.00  0.00     0.200 A 
ATOM     79  F   UNL A   1      37.076  31.904  38.354  1.00  0.00    -0.200 F 
ATOM     80  F   UNL A   1      38.086  34.411  38.713  1.00  0.00    -0.200 F 
ENDBRANCH  56  70
BRANCH  57  81
ATOM     81  C   UNL A   1      42.269  26.645  27.692  1.00  0.00     0.064 A 
ATOM     82  C   UNL A   1      41.708  25.388  27.427  1.00  0.00     0.173 A 
ATOM     83  C   UNL A   1      43.272  27.110  26.829  1.00  0.00     0.173 A 
ATOM     84  F   UNL A   1      40.766  24.890  28.240  1.00  0.00    -0.203 F 
ATOM     85  C   UNL A   1      42.147  24.619  26.351  1.00  0.00     0.198 A 
ATOM     86  C   UNL A   1      43.691  26.351  25.739  1.00  0.00     0.198 A 
ATOM     87  F   UNL A   1      43.842  28.305  27.043  1.00  0.00    -0.203 F 
ATOM     88  F   UNL A   1      41.628  23.401  26.145  1.00  0.00    -0.200 F 
ATOM     89  C   UNL A   1      43.133  25.103  25.505  1.00  0.00     0.200 A 
ATOM     90  F   UNL A   1      44.637  26.827  24.918  1.00  0.00    -0.200 F 
ATOM     91  F   UNL A   1      43.554  24.363  24.470  1.00  0.00    -0.200 F 
ENDBRANCH  57  81
BRANCH  69  92
ATOM     92  C   UNL A   1      44.514  27.095  34.272  1.00  0.00     0.064 A 
ATOM     93  C   UNL A   1      45.809  27.627  34.363  1.00  0.00     0.173 A 
ATOM     94  C   UNL A   1      44.251  25.888  34.937  1.00  0.00     0.173 A 
ATOM     95  F   UNL A   1      46.114  28.772  33.734  1.00  0.00    -0.203 F 
ATOM     96  C   UNL A   1      46.808  26.962  35.070  1.00  0.00     0.198 A 
ATOM     97  C   UNL A   1      45.245  25.240  35.666  1.00  0.00     0.198 A 
ATOM     98  F   UNL A   1      43.027  25.341  34.888  1.00  0.00    -0.203 F 
ATOM     99  F   UNL A   1      48.050  27.464  35.105  1.00  0.00    -0.200 F 
ATOM    100  C   UNL A   1      46.523  25.773  35.726  1.00  0.00     0.200 A 
ATOM    101  F   UNL A   1      44.964  24.098  36.310  1.00  0.00    -0.200 F 
ATOM    102  F   UNL A   1      47.484  25.137  36.409  1.00  0.00    -0.200 F 
ENDBRANCH  69  92
ENDBRANCH  43  44
ENDBRANCH  36  38
ENDBRANCH  35  36
ENDBRANCH  34  35
ENDBRANCH  33  34
ENDBRANCH   1  33
TORSDOF 17
ENDMDL
