MODEL 1
REMARK VINA RESULT:     -10.5      0.000      0.000
REMARK SMILES O=C(OCCOCCOC(=O)c1ccc(-n2cc(CSc3nc4ccccc4c(=O)n3-c3ccc(Br)cc3)nn2)cc1)c1ccc(-c2c3nc(c(-c4c(F)c(F)c(F)c(F)c4F)c4ccc([nH]4)c(-c4c(F)c(F)c(F)c(F)c4F)c4nc(c(-c5c(F)c(F)c(F)c(F)c5F)c5ccc2[nH]5)C=C4)C=C3)cc1
REMARK SMILES IDX 7 1 6 2 5 3 4 4 3 5 2 6 1 7 43 8 44 9 105 10 45 11 104 12
REMARK SMILES IDX 46 13 47 14 48 15 98 16 49 17 103 18 97 19 99 20 50 21
REMARK SMILES IDX 102 22 96 23 95 24 51 26 83 27 63 28 82 29 64 30 67 31 81 32
REMARK SMILES IDX 100 33 65 34 66 35 80 37 101 38 68 39 52 40 53 41 61 42
REMARK SMILES IDX 54 43 55 44 59 45 62 46 56 47 57 48 60 49 58 50 84 51 85 52
REMARK SMILES IDX 93 53 86 54 87 55 91 56 94 57 88 58 89 59 92 60 90 61 69 62
REMARK SMILES IDX 70 63 78 64 71 65 72 66 76 67 79 68 73 69 74 70 77 71 75 72
REMARK SMILES IDX 8 73 9 74 10 75 11 76 12 77 13 78 42 79 14 80 41 81 15 82
REMARK SMILES IDX 16 83 17 84 40 85 18 86 39 87 19 88 20 89 21 90 22 91 31 92
REMARK SMILES IDX 23 93 29 94 24 95 28 96 30 97 25 98 27 99 26 100 32 101
REMARK SMILES IDX 33 102 38 103 34 104 37 105 35 106 36 107
REMARK H PARENT 99 25 67 36
REMARK Flexibility Score: inf
ROOT
ATOM      1  C   UNL A   1      32.127  27.998  25.449  1.00  0.00     0.202 C 
ENDROOT
BRANCH   1   2
ATOM      2  O   UNL A   1      33.092  29.053  25.596  1.00  0.00    -0.374 OA
BRANCH   2   3
ATOM      3  C   UNL A   1      33.389  29.449  26.932  1.00  0.00     0.202 C 
BRANCH   3   4
ATOM      4  C   UNL A   1      34.857  29.478  27.356  1.00  0.00     0.261 C 
BRANCH   4   5
ATOM      5  O   UNL A   1      35.394  30.810  27.442  1.00  0.00    -0.460 OA
BRANCH   5   6
ATOM      6  C   UNL A   1      35.272  31.629  28.510  1.00  0.00     0.338 C 
ATOM      7  O   UNL A   1      34.160  31.945  28.929  1.00  0.00    -0.246 OA
BRANCH   6   8
ATOM      8  C   UNL A   1      36.464  31.910  29.345  1.00  0.00     0.060 A 
ATOM      9  C   UNL A   1      37.495  32.787  29.009  1.00  0.00     0.016 A 
ATOM     10  C   UNL A   1      36.576  31.134  30.508  1.00  0.00     0.016 A 
ATOM     11  C   UNL A   1      38.719  32.676  29.635  1.00  0.00     0.010 A 
ATOM     12  C   UNL A   1      37.771  31.084  31.196  1.00  0.00     0.010 A 
ATOM     13  C   UNL A   1      38.864  31.774  30.685  1.00  0.00    -0.014 A 
BRANCH  13  14
ATOM     14  C   UNL A   1      40.175  31.672  31.299  1.00  0.00     0.031 A 
ATOM     15  C   UNL A   1      40.607  32.906  32.008  1.00  0.00     0.074 A 
ATOM     16  C   UNL A   1      40.868  30.518  31.291  1.00  0.00     0.049 A 
ATOM     17  N   UNL A   1      41.672  33.614  31.814  1.00  0.00    -0.248 NA
ATOM     18  C   UNL A   1      39.656  33.503  32.964  1.00  0.00     0.031 C 
ATOM     19  C   UNL A   1      40.427  29.195  30.840  1.00  0.00     0.029 A 
ATOM     20  N   UNL A   1      42.105  30.266  31.794  1.00  0.00    -0.354 N 
ATOM     21  C   UNL A   1      41.613  34.648  32.745  1.00  0.00     0.074 A 
ATOM     22  C   UNL A   1      40.296  34.616  33.321  1.00  0.00     0.031 C 
ATOM     23  C   UNL A   1      41.273  28.256  31.316  1.00  0.00     0.029 A 
ATOM     24  C   UNL A   1      42.380  28.919  31.981  1.00  0.00     0.049 A 
ATOM     25  H   UNL A   1      42.750  30.978  32.009  1.00  0.00     0.167 HD
ATOM     26  C   UNL A   1      42.733  35.310  33.141  1.00  0.00     0.037 A 
ATOM     27  C   UNL A   1      43.402  28.410  32.713  1.00  0.00     0.037 A 
ATOM     28  C   UNL A   1      43.780  35.211  32.163  1.00  0.00     0.049 A 
ATOM     29  C   UNL A   1      44.410  29.488  32.880  1.00  0.00     0.074 A 
ATOM     30  C   UNL A   1      43.901  35.609  30.845  1.00  0.00     0.029 A 
ATOM     31  N   UNL A   1      44.784  34.298  32.365  1.00  0.00    -0.354 N 
ATOM     32  N   UNL A   1      45.124  29.969  31.901  1.00  0.00    -0.248 NA
ATOM     33  C   UNL A   1      44.282  30.354  34.044  1.00  0.00     0.031 C 
ATOM     34  C   UNL A   1      44.623  34.558  30.207  1.00  0.00     0.029 A 
ATOM     35  C   UNL A   1      44.956  33.620  31.184  1.00  0.00     0.049 A 
ATOM     36  H   UNL A   1      45.287  34.157  33.200  1.00  0.00     0.167 HD
ATOM     37  C   UNL A   1      45.174  31.335  32.137  1.00  0.00     0.074 A 
ATOM     38  C   UNL A   1      44.702  31.504  33.509  1.00  0.00     0.031 C 
ATOM     39  C   UNL A   1      45.317  32.225  31.111  1.00  0.00     0.037 A 
BRANCH  26  40
ATOM     40  C   UNL A   1      42.975  35.729  34.568  1.00  0.00     0.064 A 
ATOM     41  C   UNL A   1      43.245  37.078  34.863  1.00  0.00     0.173 A 
ATOM     42  C   UNL A   1      43.243  34.811  35.609  1.00  0.00     0.173 A 
ATOM     43  F   UNL A   1      43.058  38.029  33.936  1.00  0.00    -0.203 F 
ATOM     44  C   UNL A   1      43.799  37.467  36.086  1.00  0.00     0.198 A 
ATOM     45  C   UNL A   1      43.744  35.209  36.845  1.00  0.00     0.198 A 
ATOM     46  F   UNL A   1      43.141  33.488  35.437  1.00  0.00    -0.203 F 
ATOM     47  F   UNL A   1      44.151  38.745  36.280  1.00  0.00    -0.200 F 
ATOM     48  C   UNL A   1      44.051  36.532  37.075  1.00  0.00     0.200 A 
ATOM     49  F   UNL A   1      44.004  34.282  37.780  1.00  0.00    -0.200 F 
ATOM     50  F   UNL A   1      44.635  36.894  38.224  1.00  0.00    -0.200 F 
ENDBRANCH  26  40
BRANCH  27  51
ATOM     51  C   UNL A   1      43.378  27.199  33.568  1.00  0.00     0.064 A 
ATOM     52  C   UNL A   1      42.419  27.047  34.582  1.00  0.00     0.173 A 
ATOM     53  C   UNL A   1      44.120  26.048  33.233  1.00  0.00     0.173 A 
ATOM     54  F   UNL A   1      41.634  28.077  34.927  1.00  0.00    -0.203 F 
ATOM     55  C   UNL A   1      42.204  25.814  35.210  1.00  0.00     0.198 A 
ATOM     56  C   UNL A   1      43.911  24.822  33.865  1.00  0.00     0.198 A 
ATOM     57  F   UNL A   1      44.997  26.065  32.219  1.00  0.00    -0.203 F 
ATOM     58  F   UNL A   1      41.239  25.692  36.132  1.00  0.00    -0.200 F 
ATOM     59  C   UNL A   1      42.945  24.702  34.845  1.00  0.00     0.200 A 
ATOM     60  F   UNL A   1      44.608  23.746  33.474  1.00  0.00    -0.200 F 
ATOM     61  F   UNL A   1      42.699  23.508  35.403  1.00  0.00    -0.200 F 
ENDBRANCH  27  51
BRANCH  39  62
ATOM     62  C   UNL A   1      45.641  31.675  29.750  1.00  0.00     0.064 A 
ATOM     63  C   UNL A   1      46.943  31.370  29.314  1.00  0.00     0.173 A 
ATOM     64  C   UNL A   1      44.582  31.308  28.908  1.00  0.00     0.173 A 
ATOM     65  F   UNL A   1      48.002  31.588  30.102  1.00  0.00    -0.203 F 
ATOM     66  C   UNL A   1      47.174  30.775  28.075  1.00  0.00     0.198 A 
ATOM     67  C   UNL A   1      44.813  30.678  27.688  1.00  0.00     0.198 A 
ATOM     68  F   UNL A   1      43.314  31.516  29.295  1.00  0.00    -0.203 F 
ATOM     69  F   UNL A   1      48.428  30.507  27.679  1.00  0.00    -0.200 F 
ATOM     70  C   UNL A   1      46.107  30.423  27.266  1.00  0.00     0.200 A 
ATOM     71  F   UNL A   1      43.776  30.291  26.933  1.00  0.00    -0.200 F 
ATOM     72  F   UNL A   1      46.325  29.811  26.093  1.00  0.00    -0.200 F 
ENDBRANCH  39  62
ENDBRANCH  13  14
ENDBRANCH   6   8
ENDBRANCH   5   6
ENDBRANCH   4   5
ENDBRANCH   3   4
ENDBRANCH   2   3
ENDBRANCH   1   2
BRANCH   1  73
ATOM     73  C   UNL A   1      32.186  27.106  24.198  1.00  0.00     0.261 C 
BRANCH  73  74
ATOM     74  O   UNL A   1      32.788  25.828  24.477  1.00  0.00    -0.460 OA
BRANCH  74  75
ATOM     75  C   UNL A   1      33.436  25.263  23.424  1.00  0.00     0.338 C 
ATOM     76  O   UNL A   1      33.364  25.582  22.262  1.00  0.00    -0.246 OA
BRANCH  75  77
ATOM     77  C   UNL A   1      34.468  24.338  23.947  1.00  0.00     0.060 A 
ATOM     78  C   UNL A   1      34.869  24.509  25.284  1.00  0.00     0.018 A 
ATOM     79  C   UNL A   1      35.046  23.353  23.148  1.00  0.00     0.018 A 
ATOM     80  C   UNL A   1      35.872  23.715  25.831  1.00  0.00     0.029 A 
ATOM     81  C   UNL A   1      36.116  22.622  23.661  1.00  0.00     0.029 A 
ATOM     82  C   UNL A   1      36.544  22.833  24.987  1.00  0.00     0.066 A 
BRANCH  82  83
ATOM     83  N   UNL A   1      37.827  22.411  25.380  1.00  0.00    -0.220 N 
ATOM     84  C   UNL A   1      38.684  23.196  26.098  1.00  0.00     0.141 A 
ATOM     85  N   UNL A   1      38.264  21.134  25.393  1.00  0.00    -0.062 NA
ATOM     86  C   UNL A   1      39.650  22.350  26.580  1.00  0.00     0.093 A 
ATOM     87  N   UNL A   1      39.417  21.102  26.062  1.00  0.00    -0.134 NA
BRANCH  86  88
ATOM     88  C   UNL A   1      40.879  22.712  27.316  1.00  0.00     0.138 C 
BRANCH  88  89
ATOM     89  S   UNL A   1      42.117  23.840  26.694  1.00  0.00    -0.081 SA
BRANCH  89  90
ATOM     90  C   UNL A   1      41.744  25.536  26.861  1.00  0.00     0.176 A 
ATOM     91  N   UNL A   1      40.590  25.713  27.440  1.00  0.00    -0.223 NA
ATOM     92  N   UNL A   1      42.522  26.613  26.465  1.00  0.00    -0.255 N 
ATOM     93  C   UNL A   1      40.086  27.012  27.555  1.00  0.00     0.079 A 
ATOM     94  C   UNL A   1      41.784  27.701  25.976  1.00  0.00     0.266 A 
ATOM     95  C   UNL A   1      39.045  27.307  28.435  1.00  0.00     0.029 A 
ATOM     96  C   UNL A   1      40.550  28.010  26.712  1.00  0.00     0.066 A 
ATOM     97  O   UNL A   1      42.076  28.399  25.006  1.00  0.00    -0.268 OA
ATOM     98  C   UNL A   1      38.443  28.572  28.417  1.00  0.00     0.002 A 
ATOM     99  C   UNL A   1      39.925  29.260  26.641  1.00  0.00     0.016 A 
ATOM    100  C   UNL A   1      38.859  29.536  27.495  1.00  0.00     0.001 A 
BRANCH  92 101
ATOM    101  C   UNL A   1      43.966  26.727  26.518  1.00  0.00     0.051 A 
ATOM    102  C   UNL A   1      44.727  26.689  25.329  1.00  0.00     0.028 A 
ATOM    103  C   UNL A   1      44.697  26.919  27.696  1.00  0.00     0.028 A 
ATOM    104  C   UNL A   1      46.121  26.584  25.334  1.00  0.00     0.018 A 
ATOM    105  C   UNL A   1      46.093  26.754  27.723  1.00  0.00     0.018 A 
ATOM    106  C   UNL A   1      46.793  26.538  26.542  1.00  0.00     0.018 A 
ATOM    107  Br  UNL A   1      48.635  26.141  26.581  1.00  0.00    -0.051 Br
ENDBRANCH  92 101
ENDBRANCH  89  90
ENDBRANCH  88  89
ENDBRANCH  86  88
ENDBRANCH  82  83
ENDBRANCH  75  77
ENDBRANCH  74  75
ENDBRANCH  73  74
ENDBRANCH   1  73
TORSDOF 19
ENDMDL
MODEL 2
REMARK VINA RESULT:     -10.5      4.358      9.671
REMARK SMILES O=C(OCCOCCOC(=O)c1ccc(-n2cc(CSc3nc4ccccc4c(=O)n3-c3ccc(Br)cc3)nn2)cc1)c1ccc(-c2c3nc(c(-c4c(F)c(F)c(F)c(F)c4F)c4ccc([nH]4)c(-c4c(F)c(F)c(F)c(F)c4F)c4nc(c(-c5c(F)c(F)c(F)c(F)c5F)c5ccc2[nH]5)C=C4)C=C3)cc1
REMARK SMILES IDX 7 1 6 2 5 3 4 4 3 5 2 6 1 7 43 8 44 9 105 10 45 11 104 12
REMARK SMILES IDX 46 13 47 14 48 15 98 16 49 17 103 18 97 19 99 20 50 21
REMARK SMILES IDX 102 22 96 23 95 24 51 26 83 27 63 28 82 29 64 30 67 31 81 32
REMARK SMILES IDX 100 33 65 34 66 35 80 37 101 38 68 39 52 40 53 41 61 42
REMARK SMILES IDX 54 43 55 44 59 45 62 46 56 47 57 48 60 49 58 50 84 51 85 52
REMARK SMILES IDX 93 53 86 54 87 55 91 56 94 57 88 58 89 59 92 60 90 61 69 62
REMARK SMILES IDX 70 63 78 64 71 65 72 66 76 67 79 68 73 69 74 70 77 71 75 72
REMARK SMILES IDX 8 73 9 74 10 75 11 76 12 77 13 78 42 79 14 80 41 81 15 82
REMARK SMILES IDX 16 83 17 84 40 85 18 86 39 87 19 88 20 89 21 90 22 91 31 92
REMARK SMILES IDX 23 93 29 94 24 95 28 96 30 97 25 98 27 99 26 100 32 101
REMARK SMILES IDX 33 102 38 103 34 104 37 105 35 106 36 107
REMARK H PARENT 99 25 67 36
REMARK Flexibility Score: inf
ROOT
ATOM      1  C   UNL A   1      38.611  34.133  35.212  1.00  0.00     0.202 C 
ENDROOT
BRANCH   1   2
ATOM      2  O   UNL A   1      39.993  34.423  35.479  1.00  0.00    -0.374 OA
BRANCH   2   3
ATOM      3  C   UNL A   1      40.736  34.983  34.401  1.00  0.00     0.202 C 
BRANCH   3   4
ATOM      4  C   UNL A   1      41.130  34.057  33.251  1.00  0.00     0.261 C 
BRANCH   4   5
ATOM      5  O   UNL A   1      40.167  34.040  32.184  1.00  0.00    -0.460 OA
BRANCH   5   6
ATOM      6  C   UNL A   1      40.463  33.914  30.871  1.00  0.00     0.338 C 
ATOM      7  O   UNL A   1      40.648  34.911  30.176  1.00  0.00    -0.246 OA
BRANCH   6   8
ATOM      8  C   UNL A   1      40.846  32.584  30.341  1.00  0.00     0.060 A 
ATOM      9  C   UNL A   1      40.008  31.472  30.273  1.00  0.00     0.016 A 
ATOM     10  C   UNL A   1      42.197  32.448  29.987  1.00  0.00     0.016 A 
ATOM     11  C   UNL A   1      40.553  30.210  30.152  1.00  0.00     0.010 A 
ATOM     12  C   UNL A   1      42.736  31.195  29.775  1.00  0.00     0.010 A 
ATOM     13  C   UNL A   1      41.928  30.081  29.968  1.00  0.00    -0.014 A 
BRANCH  13  14
ATOM     14  C   UNL A   1      42.462  28.735  29.871  1.00  0.00     0.031 A 
ATOM     15  C   UNL A   1      43.087  28.241  31.127  1.00  0.00     0.074 A 
ATOM     16  C   UNL A   1      42.302  27.993  28.759  1.00  0.00     0.049 A 
ATOM     17  N   UNL A   1      44.292  27.811  31.310  1.00  0.00    -0.248 NA
ATOM     18  C   UNL A   1      42.302  28.375  32.369  1.00  0.00     0.031 C 
ATOM     19  C   UNL A   1      41.496  28.295  27.572  1.00  0.00     0.029 A 
ATOM     20  N   UNL A   1      42.757  26.739  28.501  1.00  0.00    -0.354 N 
ATOM     21  C   UNL A   1      44.366  27.454  32.654  1.00  0.00     0.074 A 
ATOM     22  C   UNL A   1      43.173  27.952  33.284  1.00  0.00     0.031 C 
ATOM     23  C   UNL A   1      41.324  27.166  26.851  1.00  0.00     0.029 A 
ATOM     24  C   UNL A   1      42.114  26.105  27.449  1.00  0.00     0.049 A 
ATOM     25  H   UNL A   1      43.482  26.317  29.017  1.00  0.00     0.167 HD
ATOM     26  C   UNL A   1      45.295  26.568  33.103  1.00  0.00     0.037 A 
ATOM     27  C   UNL A   1      42.170  24.780  27.163  1.00  0.00     0.037 A 
ATOM     28  C   UNL A   1      46.429  26.501  32.224  1.00  0.00     0.049 A 
ATOM     29  C   UNL A   1      43.365  24.228  27.853  1.00  0.00     0.074 A 
ATOM     30  C   UNL A   1      47.373  27.419  31.804  1.00  0.00     0.029 A 
ATOM     31  N   UNL A   1      46.511  25.458  31.336  1.00  0.00    -0.354 N 
ATOM     32  N   UNL A   1      44.592  24.526  27.525  1.00  0.00    -0.248 NA
ATOM     33  C   UNL A   1      43.185  23.718  29.204  1.00  0.00     0.031 C 
ATOM     34  C   UNL A   1      47.597  27.116  30.429  1.00  0.00     0.029 A 
ATOM     35  C   UNL A   1      46.831  25.994  30.113  1.00  0.00     0.049 A 
ATOM     36  H   UNL A   1      46.367  24.505  31.538  1.00  0.00     0.167 HD
ATOM     37  C   UNL A   1      45.260  24.650  28.734  1.00  0.00     0.074 A 
ATOM     38  C   UNL A   1      44.362  24.069  29.729  1.00  0.00     0.031 C 
ATOM     39  C   UNL A   1      46.346  25.468  28.860  1.00  0.00     0.037 A 
BRANCH  26  40
ATOM     40  C   UNL A   1      44.993  25.518  34.141  1.00  0.00     0.064 A 
ATOM     41  C   UNL A   1      45.545  25.632  35.430  1.00  0.00     0.173 A 
ATOM     42  C   UNL A   1      44.428  24.261  33.827  1.00  0.00     0.173 A 
ATOM     43  F   UNL A   1      46.137  26.770  35.820  1.00  0.00    -0.203 F 
ATOM     44  C   UNL A   1      45.582  24.548  36.312  1.00  0.00     0.198 A 
ATOM     45  C   UNL A   1      44.418  23.201  34.729  1.00  0.00     0.198 A 
ATOM     46  F   UNL A   1      43.968  23.971  32.604  1.00  0.00    -0.203 F 
ATOM     47  F   UNL A   1      46.224  24.666  37.483  1.00  0.00    -0.200 F 
ATOM     48  C   UNL A   1      45.021  23.333  35.960  1.00  0.00     0.200 A 
ATOM     49  F   UNL A   1      43.891  22.025  34.357  1.00  0.00    -0.200 F 
ATOM     50  F   UNL A   1      45.107  22.279  36.780  1.00  0.00    -0.200 F 
ENDBRANCH  26  40
BRANCH  27  51
ATOM     51  C   UNL A   1      41.072  23.923  26.657  1.00  0.00     0.064 A 
ATOM     52  C   UNL A   1      41.299  22.580  26.318  1.00  0.00     0.173 A 
ATOM     53  C   UNL A   1      39.724  24.324  26.751  1.00  0.00     0.173 A 
ATOM     54  F   UNL A   1      42.550  22.103  26.257  1.00  0.00    -0.203 F 
ATOM     55  C   UNL A   1      40.241  21.688  26.105  1.00  0.00     0.198 A 
ATOM     56  C   UNL A   1      38.670  23.436  26.530  1.00  0.00     0.198 A 
ATOM     57  F   UNL A   1      39.399  25.560  27.155  1.00  0.00    -0.203 F 
ATOM     58  F   UNL A   1      40.496  20.399  25.842  1.00  0.00    -0.200 F 
ATOM     59  C   UNL A   1      38.928  22.116  26.219  1.00  0.00     0.200 A 
ATOM     60  F   UNL A   1      37.406  23.856  26.683  1.00  0.00    -0.200 F 
ATOM     61  F   UNL A   1      37.916  21.249  26.073  1.00  0.00    -0.200 F 
ENDBRANCH  27  51
BRANCH  39  62
ATOM     62  C   UNL A   1      46.929  26.054  27.604  1.00  0.00     0.064 A 
ATOM     63  C   UNL A   1      46.438  27.213  26.975  1.00  0.00     0.173 A 
ATOM     64  C   UNL A   1      48.115  25.506  27.099  1.00  0.00     0.173 A 
ATOM     65  F   UNL A   1      45.372  27.861  27.461  1.00  0.00    -0.203 F 
ATOM     66  C   UNL A   1      47.076  27.764  25.866  1.00  0.00     0.198 A 
ATOM     67  C   UNL A   1      48.773  26.080  26.014  1.00  0.00     0.198 A 
ATOM     68  F   UNL A   1      48.667  24.436  27.694  1.00  0.00    -0.203 F 
ATOM     69  F   UNL A   1      46.578  28.862  25.278  1.00  0.00    -0.200 F 
ATOM     70  C   UNL A   1      48.248  27.200  25.390  1.00  0.00     0.200 A 
ATOM     71  F   UNL A   1      49.934  25.563  25.592  1.00  0.00    -0.200 F 
ATOM     72  F   UNL A   1      48.887  27.753  24.350  1.00  0.00    -0.200 F 
ENDBRANCH  39  62
ENDBRANCH  13  14
ENDBRANCH   6   8
ENDBRANCH   5   6
ENDBRANCH   4   5
ENDBRANCH   3   4
ENDBRANCH   2   3
ENDBRANCH   1   2
BRANCH   1  73
ATOM     73  C   UNL A   1      37.895  33.074  36.067  1.00  0.00     0.261 C 
BRANCH  73  74
ATOM     74  O   UNL A   1      37.321  32.029  35.260  1.00  0.00    -0.460 OA
BRANCH  74  75
ATOM     75  C   UNL A   1      38.206  31.380  34.457  1.00  0.00     0.338 C 
ATOM     76  O   UNL A   1      39.292  30.952  34.760  1.00  0.00    -0.246 OA
BRANCH  75  77
ATOM     77  C   UNL A   1      37.525  31.038  33.187  1.00  0.00     0.060 A 
ATOM     78  C   UNL A   1      37.618  29.706  32.744  1.00  0.00     0.018 A 
ATOM     79  C   UNL A   1      36.843  31.994  32.437  1.00  0.00     0.018 A 
ATOM     80  C   UNL A   1      37.053  29.320  31.534  1.00  0.00     0.029 A 
ATOM     81  C   UNL A   1      36.361  31.634  31.179  1.00  0.00     0.029 A 
ATOM     82  C   UNL A   1      36.500  30.308  30.723  1.00  0.00     0.066 A 
BRANCH  82  83
ATOM     83  N   UNL A   1      36.384  30.030  29.348  1.00  0.00    -0.220 N 
ATOM     84  C   UNL A   1      35.237  29.554  28.778  1.00  0.00     0.141 A 
ATOM     85  N   UNL A   1      37.222  30.467  28.385  1.00  0.00    -0.062 NA
ATOM     86  C   UNL A   1      35.388  29.741  27.427  1.00  0.00     0.093 A 
ATOM     87  N   UNL A   1      36.652  30.225  27.204  1.00  0.00    -0.134 NA
BRANCH  86  88
ATOM     88  C   UNL A   1      34.486  29.287  26.349  1.00  0.00     0.138 C 
BRANCH  88  89
ATOM     89  S   UNL A   1      33.202  28.065  26.572  1.00  0.00    -0.081 SA
BRANCH  89  90
ATOM     90  C   UNL A   1      33.265  26.697  25.492  1.00  0.00     0.176 A 
ATOM     91  N   UNL A   1      33.820  25.666  26.064  1.00  0.00    -0.223 NA
ATOM     92  N   UNL A   1      32.800  26.631  24.188  1.00  0.00    -0.255 N 
ATOM     93  C   UNL A   1      34.048  24.515  25.304  1.00  0.00     0.079 A 
ATOM     94  C   UNL A   1      33.595  25.849  23.337  1.00  0.00     0.266 A 
ATOM     95  C   UNL A   1      34.323  23.291  25.912  1.00  0.00     0.029 A 
ATOM     96  C   UNL A   1      34.109  24.601  23.922  1.00  0.00     0.066 A 
ATOM     97  O   UNL A   1      33.893  26.114  22.174  1.00  0.00    -0.268 OA
ATOM     98  C   UNL A   1      34.713  22.190  25.139  1.00  0.00     0.002 A 
ATOM     99  C   UNL A   1      34.550  23.530  23.138  1.00  0.00     0.016 A 
ATOM    100  C   UNL A   1      34.861  22.320  23.755  1.00  0.00     0.001 A 
BRANCH  92 101
ATOM    101  C   UNL A   1      31.613  27.255  23.640  1.00  0.00     0.051 A 
ATOM    102  C   UNL A   1      31.691  28.531  23.041  1.00  0.00     0.028 A 
ATOM    103  C   UNL A   1      30.347  26.656  23.620  1.00  0.00     0.028 A 
ATOM    104  C   UNL A   1      30.554  29.265  22.688  1.00  0.00     0.018 A 
ATOM    105  C   UNL A   1      29.192  27.401  23.327  1.00  0.00     0.018 A 
ATOM    106  C   UNL A   1      29.301  28.721  22.908  1.00  0.00     0.018 A 
ATOM    107  Br  UNL A   1      27.760  29.783  22.682  1.00  0.00    -0.051 Br
ENDBRANCH  92 101
ENDBRANCH  89  90
ENDBRANCH  88  89
ENDBRANCH  86  88
ENDBRANCH  82  83
ENDBRANCH  75  77
ENDBRANCH  74  75
ENDBRANCH  73  74
ENDBRANCH   1  73
TORSDOF 19
ENDMDL
MODEL 3
REMARK VINA RESULT:     -10.4      2.124      3.001
REMARK SMILES O=C(OCCOCCOC(=O)c1ccc(-n2cc(CSc3nc4ccccc4c(=O)n3-c3ccc(Br)cc3)nn2)cc1)c1ccc(-c2c3nc(c(-c4c(F)c(F)c(F)c(F)c4F)c4ccc([nH]4)c(-c4c(F)c(F)c(F)c(F)c4F)c4nc(c(-c5c(F)c(F)c(F)c(F)c5F)c5ccc2[nH]5)C=C4)C=C3)cc1
REMARK SMILES IDX 7 1 6 2 5 3 4 4 3 5 2 6 1 7 43 8 44 9 105 10 45 11 104 12
REMARK SMILES IDX 46 13 47 14 48 15 98 16 49 17 103 18 97 19 99 20 50 21
REMARK SMILES IDX 102 22 96 23 95 24 51 26 83 27 63 28 82 29 64 30 67 31 81 32
REMARK SMILES IDX 100 33 65 34 66 35 80 37 101 38 68 39 52 40 53 41 61 42
REMARK SMILES IDX 54 43 55 44 59 45 62 46 56 47 57 48 60 49 58 50 84 51 85 52
REMARK SMILES IDX 93 53 86 54 87 55 91 56 94 57 88 58 89 59 92 60 90 61 69 62
REMARK SMILES IDX 70 63 78 64 71 65 72 66 76 67 79 68 73 69 74 70 77 71 75 72
REMARK SMILES IDX 8 73 9 74 10 75 11 76 12 77 13 78 42 79 14 80 41 81 15 82
REMARK SMILES IDX 16 83 17 84 40 85 18 86 39 87 19 88 20 89 21 90 22 91 31 92
REMARK SMILES IDX 23 93 29 94 24 95 28 96 30 97 25 98 27 99 26 100 32 101
REMARK SMILES IDX 33 102 38 103 34 104 37 105 35 106 36 107
REMARK H PARENT 99 25 67 36
REMARK Flexibility Score: inf
ROOT
ATOM      1  C   UNL A   1      33.690  28.692  25.349  1.00  0.00     0.202 C 
ENDROOT
BRANCH   1   2
ATOM      2  O   UNL A   1      33.193  30.004  25.659  1.00  0.00    -0.374 OA
BRANCH   2   3
ATOM      3  C   UNL A   1      32.913  30.260  27.032  1.00  0.00     0.202 C 
BRANCH   3   4
ATOM      4  C   UNL A   1      33.517  31.516  27.660  1.00  0.00     0.261 C 
BRANCH   4   5
ATOM      5  O   UNL A   1      34.947  31.584  27.523  1.00  0.00    -0.460 OA
BRANCH   5   6
ATOM      6  C   UNL A   1      35.819  30.670  28.006  1.00  0.00     0.338 C 
ATOM      7  O   UNL A   1      36.110  29.677  27.342  1.00  0.00    -0.246 OA
BRANCH   6   8
ATOM      8  C   UNL A   1      36.634  31.009  29.196  1.00  0.00     0.060 A 
ATOM      9  C   UNL A   1      37.551  32.056  29.273  1.00  0.00     0.016 A 
ATOM     10  C   UNL A   1      36.520  30.117  30.273  1.00  0.00     0.016 A 
ATOM     11  C   UNL A   1      38.528  32.041  30.248  1.00  0.00     0.010 A 
ATOM     12  C   UNL A   1      37.440  30.149  31.301  1.00  0.00     0.010 A 
ATOM     13  C   UNL A   1      38.500  31.044  31.219  1.00  0.00    -0.014 A 
BRANCH  13  14
ATOM     14  C   UNL A   1      39.560  31.051  32.210  1.00  0.00     0.031 A 
ATOM     15  C   UNL A   1      39.378  32.067  33.281  1.00  0.00     0.074 A 
ATOM     16  C   UNL A   1      40.553  30.141  32.186  1.00  0.00     0.049 A 
ATOM     17  N   UNL A   1      40.181  33.018  33.632  1.00  0.00    -0.248 NA
ATOM     18  C   UNL A   1      38.068  32.108  33.955  1.00  0.00     0.031 C 
ATOM     19  C   UNL A   1      40.684  28.961  31.326  1.00  0.00     0.029 A 
ATOM     20  N   UNL A   1      41.622  30.027  33.016  1.00  0.00    -0.354 N 
ATOM     21  C   UNL A   1      39.554  33.670  34.690  1.00  0.00     0.074 A 
ATOM     22  C   UNL A   1      38.208  33.167  34.752  1.00  0.00     0.031 C 
ATOM     23  C   UNL A   1      41.619  28.134  31.844  1.00  0.00     0.029 A 
ATOM     24  C   UNL A   1      42.241  28.787  32.982  1.00  0.00     0.049 A 
ATOM     25  H   UNL A   1      41.930  30.763  33.595  1.00  0.00     0.167 HD
ATOM     26  C   UNL A   1      40.260  34.407  35.588  1.00  0.00     0.037 A 
ATOM     27  C   UNL A   1      43.132  28.316  33.889  1.00  0.00     0.037 A 
ATOM     28  C   UNL A   1      41.510  34.855  35.038  1.00  0.00     0.049 A 
ATOM     29  C   UNL A   1      43.670  29.484  34.632  1.00  0.00     0.074 A 
ATOM     30  C   UNL A   1      41.853  35.659  33.968  1.00  0.00     0.029 A 
ATOM     31  N   UNL A   1      42.654  34.172  35.367  1.00  0.00    -0.354 N 
ATOM     32  N   UNL A   1      44.436  30.393  34.094  1.00  0.00    -0.248 NA
ATOM     33  C   UNL A   1      42.969  29.893  35.840  1.00  0.00     0.031 C 
ATOM     34  C   UNL A   1      43.011  35.048  33.403  1.00  0.00     0.029 A 
ATOM     35  C   UNL A   1      43.342  33.951  34.199  1.00  0.00     0.049 A 
ATOM     36  H   UNL A   1      42.930  33.894  36.269  1.00  0.00     0.167 HD
ATOM     37  C   UNL A   1      43.993  31.592  34.632  1.00  0.00     0.074 A 
ATOM     38  C   UNL A   1      43.139  31.216  35.755  1.00  0.00     0.031 C 
ATOM     39  C   UNL A   1      44.124  32.765  33.946  1.00  0.00     0.037 A 
BRANCH  26  40
ATOM     40  C   UNL A   1      39.964  34.405  37.065  1.00  0.00     0.064 A 
ATOM     41  C   UNL A   1      39.679  33.191  37.718  1.00  0.00     0.173 A 
ATOM     42  C   UNL A   1      39.660  35.577  37.795  1.00  0.00     0.173 A 
ATOM     43  F   UNL A   1      39.897  32.019  37.104  1.00  0.00    -0.203 F 
ATOM     44  C   UNL A   1      39.079  33.158  38.980  1.00  0.00     0.198 A 
ATOM     45  C   UNL A   1      39.112  35.539  39.074  1.00  0.00     0.198 A 
ATOM     46  F   UNL A   1      39.772  36.798  37.261  1.00  0.00    -0.203 F 
ATOM     47  F   UNL A   1      38.715  31.983  39.512  1.00  0.00    -0.200 F 
ATOM     48  C   UNL A   1      38.793  34.331  39.656  1.00  0.00     0.200 A 
ATOM     49  F   UNL A   1      38.821  36.689  39.700  1.00  0.00    -0.200 F 
ATOM     50  F   UNL A   1      38.165  34.303  40.838  1.00  0.00    -0.200 F 
ENDBRANCH  26  40
BRANCH  27  51
ATOM     51  C   UNL A   1      43.255  26.925  34.389  1.00  0.00     0.064 A 
ATOM     52  C   UNL A   1      42.238  26.340  35.159  1.00  0.00     0.173 A 
ATOM     53  C   UNL A   1      44.246  26.053  33.896  1.00  0.00     0.173 A 
ATOM     54  F   UNL A   1      41.228  27.089  35.624  1.00  0.00    -0.203 F 
ATOM     55  C   UNL A   1      42.206  24.962  35.406  1.00  0.00     0.198 A 
ATOM     56  C   UNL A   1      44.218  24.681  34.149  1.00  0.00     0.198 A 
ATOM     57  F   UNL A   1      45.211  26.497  33.077  1.00  0.00    -0.203 F 
ATOM     58  F   UNL A   1      41.187  24.430  36.095  1.00  0.00    -0.200 F 
ATOM     59  C   UNL A   1      43.191  24.134  34.894  1.00  0.00     0.200 A 
ATOM     60  F   UNL A   1      45.157  23.888  33.615  1.00  0.00    -0.200 F 
ATOM     61  F   UNL A   1      43.129  22.808  35.079  1.00  0.00    -0.200 F 
ENDBRANCH  27  51
BRANCH  39  62
ATOM     62  C   UNL A   1      44.959  32.754  32.695  1.00  0.00     0.064 A 
ATOM     63  C   UNL A   1      44.456  32.449  31.417  1.00  0.00     0.173 A 
ATOM     64  C   UNL A   1      46.282  33.208  32.772  1.00  0.00     0.173 A 
ATOM     65  F   UNL A   1      43.173  32.113  31.244  1.00  0.00    -0.203 F 
ATOM     66  C   UNL A   1      45.256  32.545  30.280  1.00  0.00     0.198 A 
ATOM     67  C   UNL A   1      47.068  33.341  31.630  1.00  0.00     0.198 A 
ATOM     68  F   UNL A   1      46.800  33.573  33.955  1.00  0.00    -0.203 F 
ATOM     69  F   UNL A   1      44.754  32.236  29.075  1.00  0.00    -0.200 F 
ATOM     70  C   UNL A   1      46.560  32.999  30.387  1.00  0.00     0.200 A 
ATOM     71  F   UNL A   1      48.311  33.830  31.731  1.00  0.00    -0.200 F 
ATOM     72  F   UNL A   1      47.318  33.133  29.290  1.00  0.00    -0.200 F 
ENDBRANCH  39  62
ENDBRANCH  13  14
ENDBRANCH   6   8
ENDBRANCH   5   6
ENDBRANCH   4   5
ENDBRANCH   3   4
ENDBRANCH   2   3
ENDBRANCH   1   2
BRANCH   1  73
ATOM     73  C   UNL A   1      32.829  27.757  24.484  1.00  0.00     0.261 C 
BRANCH  73  74
ATOM     74  O   UNL A   1      33.634  26.855  23.701  1.00  0.00    -0.460 OA
BRANCH  74  75
ATOM     75  C   UNL A   1      33.100  25.616  23.534  1.00  0.00     0.338 C 
ATOM     76  O   UNL A   1      32.095  25.326  22.933  1.00  0.00    -0.246 OA
BRANCH  75  77
ATOM     77  C   UNL A   1      34.089  24.612  23.990  1.00  0.00     0.060 A 
ATOM     78  C   UNL A   1      34.653  24.795  25.266  1.00  0.00     0.018 A 
ATOM     79  C   UNL A   1      34.475  23.541  23.186  1.00  0.00     0.018 A 
ATOM     80  C   UNL A   1      35.628  23.926  25.742  1.00  0.00     0.029 A 
ATOM     81  C   UNL A   1      35.520  22.726  23.618  1.00  0.00     0.029 A 
ATOM     82  C   UNL A   1      36.112  22.947  24.878  1.00  0.00     0.066 A 
BRANCH  82  83
ATOM     83  N   UNL A   1      37.384  22.411  25.152  1.00  0.00    -0.220 N 
ATOM     84  C   UNL A   1      38.297  23.030  25.959  1.00  0.00     0.141 A 
ATOM     85  N   UNL A   1      37.761  21.133  24.940  1.00  0.00    -0.062 NA
ATOM     86  C   UNL A   1      39.235  22.076  26.262  1.00  0.00     0.093 A 
ATOM     87  N   UNL A   1      38.929  20.942  25.554  1.00  0.00    -0.134 NA
BRANCH  86  88
ATOM     88  C   UNL A   1      40.499  22.259  27.005  1.00  0.00     0.138 C 
BRANCH  88  89
ATOM     89  S   UNL A   1      41.894  23.185  26.384  1.00  0.00    -0.081 SA
BRANCH  89  90
ATOM     90  C   UNL A   1      41.792  24.917  26.564  1.00  0.00     0.176 A 
ATOM     91  N   UNL A   1      40.724  25.262  27.227  1.00  0.00    -0.223 NA
ATOM     92  N   UNL A   1      42.690  25.866  26.102  1.00  0.00    -0.255 N 
ATOM     93  C   UNL A   1      40.430  26.621  27.370  1.00  0.00     0.079 A 
ATOM     94  C   UNL A   1      42.088  27.054  25.661  1.00  0.00     0.266 A 
ATOM     95  C   UNL A   1      39.515  27.065  28.323  1.00  0.00     0.029 A 
ATOM     96  C   UNL A   1      40.972  27.542  26.487  1.00  0.00     0.066 A 
ATOM     97  O   UNL A   1      42.405  27.704  24.667  1.00  0.00    -0.268 OA
ATOM     98  C   UNL A   1      39.108  28.405  28.341  1.00  0.00     0.002 A 
ATOM     99  C   UNL A   1      40.538  28.871  26.453  1.00  0.00     0.016 A 
ATOM    100  C   UNL A   1      39.593  29.299  27.382  1.00  0.00     0.001 A 
BRANCH  92 101
ATOM    101  C   UNL A   1      44.134  25.764  26.044  1.00  0.00     0.051 A 
ATOM    102  C   UNL A   1      44.940  26.607  26.840  1.00  0.00     0.028 A 
ATOM    103  C   UNL A   1      44.826  24.833  25.260  1.00  0.00     0.028 A 
ATOM    104  C   UNL A   1      46.325  26.697  26.673  1.00  0.00     0.018 A 
ATOM    105  C   UNL A   1      46.208  24.952  25.035  1.00  0.00     0.018 A 
ATOM    106  C   UNL A   1      46.943  25.919  25.709  1.00  0.00     0.018 A 
ATOM    107  Br  UNL A   1      48.758  26.207  25.289  1.00  0.00    -0.051 Br
ENDBRANCH  92 101
ENDBRANCH  89  90
ENDBRANCH  88  89
ENDBRANCH  86  88
ENDBRANCH  82  83
ENDBRANCH  75  77
ENDBRANCH  74  75
ENDBRANCH  73  74
ENDBRANCH   1  73
TORSDOF 19
ENDMDL
