MODEL 1
REMARK VINA RESULT:     -12.2      0.000      0.000
REMARK SMILES O=C(OCCOCCOC(=O)[C@H]1C[C@](O)(c2ccc(F)cc2)[C@@H](c2ccc(F)cc2)O1)c1ccc(-c2c3nc(c(-c4c(F)c(F)c(F)c(F)c4F)c4ccc([nH]4)c(-c4c(F)c(F)c(F)c(F)c4F)c4nc(c(-c5c(F)c(F)c(F)c(F)c5F)c5ccc2[nH]5)C=C4)C=C3)cc1
REMARK SMILES IDX 5 1 4 2 3 3 2 4 1 5 32 6 33 7 94 8 34 9 93 10 35 11 36 12
REMARK SMILES IDX 37 13 87 14 38 15 92 16 86 17 88 18 39 19 91 20 85 21 84 22
REMARK SMILES IDX 40 24 72 25 52 26 71 27 53 28 56 29 70 30 89 31 54 32 55 33
REMARK SMILES IDX 69 35 90 36 57 37 41 38 42 39 50 40 43 41 44 42 48 43 51 44
REMARK SMILES IDX 45 45 46 46 49 47 47 48 73 49 74 50 82 51 75 52 76 53 80 54
REMARK SMILES IDX 83 55 77 56 78 57 81 58 79 59 58 60 59 61 67 62 60 63 61 64
REMARK SMILES IDX 65 65 68 66 62 67 63 68 66 69 64 70 6 71 7 72 8 73 9 74
REMARK SMILES IDX 10 75 11 76 12 77 13 78 31 79 14 80 23 81 16 82 17 83 22 84
REMARK SMILES IDX 18 85 21 86 19 87 20 88 15 89 24 91 25 92 30 93 26 94 29 95
REMARK SMILES IDX 27 96 28 97
REMARK H PARENT 88 23 56 34 15 90
REMARK Flexibility Score: inf
ROOT
ATOM      1  C   UNL A   1      32.195  28.232  27.505  1.00  0.00     0.202 C 
ENDROOT
BRANCH   1   2
ATOM      2  C   UNL A   1      31.762  29.622  26.991  1.00  0.00     0.261 C 
BRANCH   2   3
ATOM      3  O   UNL A   1      32.862  30.468  26.609  1.00  0.00    -0.460 OA
BRANCH   3   4
ATOM      4  C   UNL A   1      33.472  31.420  27.363  1.00  0.00     0.338 C 
ATOM      5  O   UNL A   1      32.983  32.547  27.405  1.00  0.00    -0.246 OA
BRANCH   4   6
ATOM      6  C   UNL A   1      34.795  31.201  28.033  1.00  0.00     0.060 A 
ATOM      7  C   UNL A   1      35.208  29.984  28.563  1.00  0.00     0.016 A 
ATOM      8  C   UNL A   1      35.726  32.259  28.050  1.00  0.00     0.016 A 
ATOM      9  C   UNL A   1      36.488  29.769  29.007  1.00  0.00     0.010 A 
ATOM     10  C   UNL A   1      37.028  32.070  28.539  1.00  0.00     0.010 A 
ATOM     11  C   UNL A   1      37.404  30.808  28.999  1.00  0.00    -0.014 A 
BRANCH  11  12
ATOM     12  C   UNL A   1      38.667  30.472  29.664  1.00  0.00     0.031 A 
ATOM     13  C   UNL A   1      38.807  30.890  31.093  1.00  0.00     0.074 A 
ATOM     14  C   UNL A   1      39.439  29.518  29.111  1.00  0.00     0.049 A 
ATOM     15  N   UNL A   1      39.720  30.562  31.963  1.00  0.00    -0.248 NA
ATOM     16  C   UNL A   1      37.730  31.740  31.638  1.00  0.00     0.031 C 
ATOM     17  C   UNL A   1      39.189  28.886  27.809  1.00  0.00     0.029 A 
ATOM     18  N   UNL A   1      40.524  28.846  29.602  1.00  0.00    -0.354 N 
ATOM     19  C   UNL A   1      39.332  31.168  33.149  1.00  0.00     0.074 A 
ATOM     20  C   UNL A   1      38.100  31.875  32.902  1.00  0.00     0.031 C 
ATOM     21  C   UNL A   1      40.084  27.904  27.618  1.00  0.00     0.029 A 
ATOM     22  C   UNL A   1      41.004  27.881  28.749  1.00  0.00     0.049 A 
ATOM     23  H   UNL A   1      40.923  29.035  30.482  1.00  0.00     0.167 HD
ATOM     24  C   UNL A   1      39.975  31.133  34.336  1.00  0.00     0.037 A 
ATOM     25  C   UNL A   1      42.090  27.095  28.874  1.00  0.00     0.037 A 
ATOM     26  C   UNL A   1      41.208  30.425  34.531  1.00  0.00     0.049 A 
ATOM     27  C   UNL A   1      42.889  27.228  30.143  1.00  0.00     0.074 A 
ATOM     28  C   UNL A   1      42.033  30.415  35.637  1.00  0.00     0.029 A 
ATOM     29  N   UNL A   1      41.789  29.597  33.579  1.00  0.00    -0.354 N 
ATOM     30  N   UNL A   1      42.601  27.904  31.232  1.00  0.00    -0.248 NA
ATOM     31  C   UNL A   1      44.168  26.512  30.201  1.00  0.00     0.031 C 
ATOM     32  C   UNL A   1      43.145  29.626  35.332  1.00  0.00     0.029 A 
ATOM     33  C   UNL A   1      42.981  29.090  34.062  1.00  0.00     0.049 A 
ATOM     34  H   UNL A   1      41.408  29.399  32.693  1.00  0.00     0.167 HD
ATOM     35  C   UNL A   1      43.653  27.686  32.108  1.00  0.00     0.074 A 
ATOM     36  C   UNL A   1      44.571  26.789  31.434  1.00  0.00     0.031 C 
ATOM     37  C   UNL A   1      43.854  28.190  33.351  1.00  0.00     0.037 A 
BRANCH  24  38
ATOM     38  C   UNL A   1      39.412  31.951  35.455  1.00  0.00     0.064 A 
ATOM     39  C   UNL A   1      39.791  33.295  35.594  1.00  0.00     0.173 A 
ATOM     40  C   UNL A   1      38.516  31.419  36.393  1.00  0.00     0.173 A 
ATOM     41  F   UNL A   1      40.628  33.855  34.707  1.00  0.00    -0.203 F 
ATOM     42  C   UNL A   1      39.313  34.070  36.645  1.00  0.00     0.198 A 
ATOM     43  C   UNL A   1      38.022  32.204  37.433  1.00  0.00     0.198 A 
ATOM     44  F   UNL A   1      38.093  30.151  36.279  1.00  0.00    -0.203 F 
ATOM     45  F   UNL A   1      39.707  35.345  36.768  1.00  0.00    -0.200 F 
ATOM     46  C   UNL A   1      38.429  33.524  37.564  1.00  0.00     0.200 A 
ATOM     47  F   UNL A   1      37.143  31.688  38.301  1.00  0.00    -0.200 F 
ATOM     48  F   UNL A   1      37.962  34.275  38.572  1.00  0.00    -0.200 F 
ENDBRANCH  24  38
BRANCH  25  49
ATOM     49  C   UNL A   1      42.522  26.202  27.762  1.00  0.00     0.064 A 
ATOM     50  C   UNL A   1      42.000  24.902  27.633  1.00  0.00     0.173 A 
ATOM     51  C   UNL A   1      43.421  26.632  26.777  1.00  0.00     0.173 A 
ATOM     52  F   UNL A   1      41.125  24.436  28.536  1.00  0.00    -0.203 F 
ATOM     53  C   UNL A   1      42.368  24.071  26.577  1.00  0.00     0.198 A 
ATOM     54  C   UNL A   1      43.762  25.812  25.700  1.00  0.00     0.198 A 
ATOM     55  F   UNL A   1      43.933  27.870  26.831  1.00  0.00    -0.203 F 
ATOM     56  F   UNL A   1      41.866  22.832  26.498  1.00  0.00    -0.200 F 
ATOM     57  C   UNL A   1      43.239  24.530  25.604  1.00  0.00     0.200 A 
ATOM     58  F   UNL A   1      44.576  26.273  24.740  1.00  0.00    -0.200 F 
ATOM     59  F   UNL A   1      43.561  23.746  24.566  1.00  0.00    -0.200 F 
ENDBRANCH  25  49
BRANCH  37  60
ATOM     60  C   UNL A   1      45.102  27.764  34.064  1.00  0.00     0.064 A 
ATOM     61  C   UNL A   1      45.090  26.634  34.896  1.00  0.00     0.173 A 
ATOM     62  C   UNL A   1      46.277  28.525  33.995  1.00  0.00     0.173 A 
ATOM     63  F   UNL A   1      43.982  25.884  35.002  1.00  0.00    -0.203 F 
ATOM     64  C   UNL A   1      46.206  26.292  35.648  1.00  0.00     0.198 A 
ATOM     65  C   UNL A   1      47.404  28.157  34.721  1.00  0.00     0.198 A 
ATOM     66  F   UNL A   1      46.337  29.607  33.204  1.00  0.00    -0.203 F 
ATOM     67  F   UNL A   1      46.158  25.238  36.473  1.00  0.00    -0.200 F 
ATOM     68  C   UNL A   1      47.364  27.050  35.556  1.00  0.00     0.200 A 
ATOM     69  F   UNL A   1      48.532  28.874  34.610  1.00  0.00    -0.200 F 
ATOM     70  F   UNL A   1      48.444  26.712  36.273  1.00  0.00    -0.200 F 
ENDBRANCH  37  60
ENDBRANCH  11  12
ENDBRANCH   4   6
ENDBRANCH   3   4
ENDBRANCH   2   3
ENDBRANCH   1   2
BRANCH   1  71
ATOM     71  O   UNL A   1      31.321  27.127  27.272  1.00  0.00    -0.374 OA
BRANCH  71  72
ATOM     72  C   UNL A   1      30.693  27.039  25.990  1.00  0.00     0.202 C 
BRANCH  72  73
ATOM     73  C   UNL A   1      30.141  25.634  25.753  1.00  0.00     0.261 C 
BRANCH  73  74
ATOM     74  O   UNL A   1      31.025  24.687  26.367  1.00  0.00    -0.461 OA
BRANCH  74  75
ATOM     75  C   UNL A   1      31.505  23.671  25.604  1.00  0.00     0.335 C 
ATOM     76  O   UNL A   1      30.863  23.037  24.785  1.00  0.00    -0.249 OA
BRANCH  75  77
ATOM     77  C   UNL A   1      33.023  23.530  25.828  1.00  0.00     0.232 C 
ATOM     78  C   UNL A   1      33.683  22.828  24.640  1.00  0.00     0.087 C 
ATOM     79  O   UNL A   1      33.689  24.780  26.028  1.00  0.00    -0.355 OA
ATOM     80  C   UNL A   1      34.860  23.698  24.246  1.00  0.00     0.123 C 
ATOM     81  C   UNL A   1      34.482  25.076  24.856  1.00  0.00     0.186 C 
BRANCH  80  82
ATOM     82  C   UNL A   1      36.169  23.070  24.739  1.00  0.00    -0.013 A 
ATOM     83  C   UNL A   1      37.036  23.835  25.552  1.00  0.00     0.010 A 
ATOM     84  C   UNL A   1      36.540  21.747  24.447  1.00  0.00     0.010 A 
ATOM     85  C   UNL A   1      38.177  23.273  26.123  1.00  0.00     0.039 A 
ATOM     86  C   UNL A   1      37.679  21.182  25.029  1.00  0.00     0.039 A 
ATOM     87  C   UNL A   1      38.476  21.943  25.873  1.00  0.00     0.123 A 
ATOM     88  F   UNL A   1      39.546  21.386  26.451  1.00  0.00    -0.207 F 
ENDBRANCH  80  82
BRANCH  80  89
ATOM     89  O   UNL A   1      34.964  23.732  22.819  1.00  0.00    -0.382 OA
ATOM     90  H   UNL A   1      35.738  23.220  22.539  1.00  0.00     0.212 HD
ENDBRANCH  80  89
BRANCH  81  91
ATOM     91  C   UNL A   1      33.734  26.143  24.066  1.00  0.00    -0.016 A 
ATOM     92  C   UNL A   1      32.762  25.888  23.087  1.00  0.00     0.009 A 
ATOM     93  C   UNL A   1      34.003  27.487  24.394  1.00  0.00     0.009 A 
ATOM     94  C   UNL A   1      32.070  26.935  22.473  1.00  0.00     0.039 A 
ATOM     95  C   UNL A   1      33.323  28.534  23.771  1.00  0.00     0.039 A 
ATOM     96  C   UNL A   1      32.355  28.246  22.821  1.00  0.00     0.123 A 
ATOM     97  F   UNL A   1      31.676  29.246  22.246  1.00  0.00    -0.207 F 
ENDBRANCH  81  91
ENDBRANCH  75  77
ENDBRANCH  74  75
ENDBRANCH  73  74
ENDBRANCH  72  73
ENDBRANCH  71  72
ENDBRANCH   1  71
TORSDOF 17
ENDMDL
MODEL 2
REMARK VINA RESULT:     -11.8      0.374      1.594
REMARK SMILES O=C(OCCOCCOC(=O)[C@H]1C[C@](O)(c2ccc(F)cc2)[C@@H](c2ccc(F)cc2)O1)c1ccc(-c2c3nc(c(-c4c(F)c(F)c(F)c(F)c4F)c4ccc([nH]4)c(-c4c(F)c(F)c(F)c(F)c4F)c4nc(c(-c5c(F)c(F)c(F)c(F)c5F)c5ccc2[nH]5)C=C4)C=C3)cc1
REMARK SMILES IDX 5 1 4 2 3 3 2 4 1 5 32 6 33 7 94 8 34 9 93 10 35 11 36 12
REMARK SMILES IDX 37 13 87 14 38 15 92 16 86 17 88 18 39 19 91 20 85 21 84 22
REMARK SMILES IDX 40 24 72 25 52 26 71 27 53 28 56 29 70 30 89 31 54 32 55 33
REMARK SMILES IDX 69 35 90 36 57 37 41 38 42 39 50 40 43 41 44 42 48 43 51 44
REMARK SMILES IDX 45 45 46 46 49 47 47 48 73 49 74 50 82 51 75 52 76 53 80 54
REMARK SMILES IDX 83 55 77 56 78 57 81 58 79 59 58 60 59 61 67 62 60 63 61 64
REMARK SMILES IDX 65 65 68 66 62 67 63 68 66 69 64 70 6 71 7 72 8 73 9 74
REMARK SMILES IDX 10 75 11 76 12 77 13 78 31 79 14 80 23 81 16 82 17 83 22 84
REMARK SMILES IDX 18 85 21 86 19 87 20 88 15 89 24 91 25 92 30 93 26 94 29 95
REMARK SMILES IDX 27 96 28 97
REMARK H PARENT 88 23 56 34 15 90
REMARK Flexibility Score: inf
ROOT
ATOM      1  C   UNL A   1      31.818  28.519  27.550  1.00  0.00     0.202 C 
ENDROOT
BRANCH   1   2
ATOM      2  C   UNL A   1      31.785  29.574  26.422  1.00  0.00     0.261 C 
BRANCH   2   3
ATOM      3  O   UNL A   1      32.987  30.357  26.326  1.00  0.00    -0.460 OA
BRANCH   3   4
ATOM      4  C   UNL A   1      33.492  31.212  27.253  1.00  0.00     0.338 C 
ATOM      5  O   UNL A   1      32.901  32.268  27.471  1.00  0.00    -0.246 OA
BRANCH   4   6
ATOM      6  C   UNL A   1      34.817  30.997  27.922  1.00  0.00     0.060 A 
ATOM      7  C   UNL A   1      35.262  29.766  28.388  1.00  0.00     0.016 A 
ATOM      8  C   UNL A   1      35.715  32.080  28.005  1.00  0.00     0.016 A 
ATOM      9  C   UNL A   1      36.546  29.565  28.831  1.00  0.00     0.010 A 
ATOM     10  C   UNL A   1      37.019  31.903  28.494  1.00  0.00     0.010 A 
ATOM     11  C   UNL A   1      37.430  30.629  28.888  1.00  0.00    -0.014 A 
BRANCH  11  12
ATOM     12  C   UNL A   1      38.697  30.295  29.544  1.00  0.00     0.031 A 
ATOM     13  C   UNL A   1      38.855  30.733  30.965  1.00  0.00     0.074 A 
ATOM     14  C   UNL A   1      39.457  29.327  28.998  1.00  0.00     0.049 A 
ATOM     15  N   UNL A   1      39.775  30.413  31.831  1.00  0.00    -0.248 NA
ATOM     16  C   UNL A   1      37.789  31.598  31.509  1.00  0.00     0.031 C 
ATOM     17  C   UNL A   1      39.189  28.678  27.708  1.00  0.00     0.029 A 
ATOM     18  N   UNL A   1      40.543  28.656  29.487  1.00  0.00    -0.354 N 
ATOM     19  C   UNL A   1      39.404  31.038  33.012  1.00  0.00     0.074 A 
ATOM     20  C   UNL A   1      38.174  31.749  32.767  1.00  0.00     0.031 C 
ATOM     21  C   UNL A   1      40.076  27.687  27.523  1.00  0.00     0.029 A 
ATOM     22  C   UNL A   1      41.008  27.675  28.643  1.00  0.00     0.049 A 
ATOM     23  H   UNL A   1      40.952  28.856  30.360  1.00  0.00     0.167 HD
ATOM     24  C   UNL A   1      40.059  31.017  34.191  1.00  0.00     0.037 A 
ATOM     25  C   UNL A   1      42.090  26.884  28.769  1.00  0.00     0.037 A 
ATOM     26  C   UNL A   1      41.289  30.304  34.385  1.00  0.00     0.049 A 
ATOM     27  C   UNL A   1      42.904  27.030  30.028  1.00  0.00     0.074 A 
ATOM     28  C   UNL A   1      42.127  30.305  35.481  1.00  0.00     0.029 A 
ATOM     29  N   UNL A   1      41.855  29.458  33.439  1.00  0.00    -0.354 N 
ATOM     30  N   UNL A   1      42.631  27.725  31.109  1.00  0.00    -0.248 NA
ATOM     31  C   UNL A   1      44.178  26.308  30.083  1.00  0.00     0.031 C 
ATOM     32  C   UNL A   1      43.230  29.505  35.177  1.00  0.00     0.029 A 
ATOM     33  C   UNL A   1      43.049  28.951  33.917  1.00  0.00     0.049 A 
ATOM     34  H   UNL A   1      41.464  29.249  32.560  1.00  0.00     0.167 HD
ATOM     35  C   UNL A   1      43.691  27.513  31.978  1.00  0.00     0.074 A 
ATOM     36  C   UNL A   1      44.596  26.600  31.307  1.00  0.00     0.031 C 
ATOM     37  C   UNL A   1      43.909  28.034  33.211  1.00  0.00     0.037 A 
BRANCH  24  38
ATOM     38  C   UNL A   1      39.513  31.855  35.304  1.00  0.00     0.064 A 
ATOM     39  C   UNL A   1      39.908  33.197  35.424  1.00  0.00     0.173 A 
ATOM     40  C   UNL A   1      38.618  31.345  36.255  1.00  0.00     0.173 A 
ATOM     41  F   UNL A   1      40.746  33.736  34.525  1.00  0.00    -0.203 F 
ATOM     42  C   UNL A   1      39.447  33.990  36.469  1.00  0.00     0.198 A 
ATOM     43  C   UNL A   1      38.140  32.149  37.288  1.00  0.00     0.198 A 
ATOM     44  F   UNL A   1      38.179  30.081  36.160  1.00  0.00    -0.203 F 
ATOM     45  F   UNL A   1      39.856  35.261  36.573  1.00  0.00    -0.200 F 
ATOM     46  C   UNL A   1      38.563  33.466  37.400  1.00  0.00     0.200 A 
ATOM     47  F   UNL A   1      37.260  31.654  38.169  1.00  0.00    -0.200 F 
ATOM     48  F   UNL A   1      38.112  34.234  38.402  1.00  0.00    -0.200 F 
ENDBRANCH  24  38
BRANCH  25  49
ATOM     49  C   UNL A   1      42.504  25.971  27.666  1.00  0.00     0.064 A 
ATOM     50  C   UNL A   1      43.433  26.385  26.695  1.00  0.00     0.173 A 
ATOM     51  C   UNL A   1      42.028  24.656  27.579  1.00  0.00     0.173 A 
ATOM     52  F   UNL A   1      43.936  27.627  26.730  1.00  0.00    -0.203 F 
ATOM     53  C   UNL A   1      43.856  25.527  25.681  1.00  0.00     0.198 A 
ATOM     54  C   UNL A   1      42.480  23.787  26.585  1.00  0.00     0.198 A 
ATOM     55  F   UNL A   1      41.160  24.196  28.491  1.00  0.00    -0.203 F 
ATOM     56  F   UNL A   1      44.727  25.963  24.761  1.00  0.00    -0.200 F 
ATOM     57  C   UNL A   1      43.389  24.225  25.633  1.00  0.00     0.200 A 
ATOM     58  F   UNL A   1      42.054  22.516  26.564  1.00  0.00    -0.200 F 
ATOM     59  F   UNL A   1      43.828  23.389  24.683  1.00  0.00    -0.200 F 
ENDBRANCH  25  49
BRANCH  37  60
ATOM     60  C   UNL A   1      45.161  27.611  33.916  1.00  0.00     0.064 A 
ATOM     61  C   UNL A   1      46.359  28.311  33.709  1.00  0.00     0.173 A 
ATOM     62  C   UNL A   1      45.194  26.465  34.721  1.00  0.00     0.173 A 
ATOM     63  F   UNL A   1      46.377  29.407  32.934  1.00  0.00    -0.203 F 
ATOM     64  C   UNL A   1      47.550  27.866  34.267  1.00  0.00     0.198 A 
ATOM     65  C   UNL A   1      46.381  26.044  35.310  1.00  0.00     0.198 A 
ATOM     66  F   UNL A   1      44.070  25.771  34.957  1.00  0.00    -0.203 F 
ATOM     67  F   UNL A   1      48.692  28.520  34.017  1.00  0.00    -0.200 F 
ATOM     68  C   UNL A   1      47.560  26.736  35.073  1.00  0.00     0.200 A 
ATOM     69  F   UNL A   1      46.384  24.968  36.111  1.00  0.00    -0.200 F 
ATOM     70  F   UNL A   1      48.706  26.314  35.621  1.00  0.00    -0.200 F 
ENDBRANCH  37  60
ENDBRANCH  11  12
ENDBRANCH   4   6
ENDBRANCH   3   4
ENDBRANCH   2   3
ENDBRANCH   1   2
BRANCH   1  71
ATOM     71  O   UNL A   1      31.337  27.207  27.256  1.00  0.00    -0.374 OA
BRANCH  71  72
ATOM     72  C   UNL A   1      30.508  27.048  26.102  1.00  0.00     0.202 C 
BRANCH  72  73
ATOM     73  C   UNL A   1      30.335  25.569  25.758  1.00  0.00     0.261 C 
BRANCH  73  74
ATOM     74  O   UNL A   1      31.200  24.801  26.605  1.00  0.00    -0.461 OA
BRANCH  74  75
ATOM     75  C   UNL A   1      31.575  23.565  26.185  1.00  0.00     0.335 C 
ATOM     76  O   UNL A   1      30.826  22.709  25.747  1.00  0.00    -0.249 OA
BRANCH  75  77
ATOM     77  C   UNL A   1      33.111  23.453  26.214  1.00  0.00     0.232 C 
ATOM     78  C   UNL A   1      33.612  22.564  25.075  1.00  0.00     0.087 C 
ATOM     79  O   UNL A   1      33.777  24.716  26.113  1.00  0.00    -0.355 OA
ATOM     80  C   UNL A   1      34.707  23.351  24.384  1.00  0.00     0.123 C 
ATOM     81  C   UNL A   1      34.394  24.812  24.809  1.00  0.00     0.186 C 
BRANCH  80  82
ATOM     82  C   UNL A   1      36.082  22.805  24.783  1.00  0.00    -0.013 A 
ATOM     83  C   UNL A   1      36.990  23.653  25.458  1.00  0.00     0.010 A 
ATOM     84  C   UNL A   1      36.479  21.480  24.539  1.00  0.00     0.010 A 
ATOM     85  C   UNL A   1      38.204  23.171  25.947  1.00  0.00     0.039 A 
ATOM     86  C   UNL A   1      37.692  20.996  25.040  1.00  0.00     0.039 A 
ATOM     87  C   UNL A   1      38.534  21.839  25.752  1.00  0.00     0.123 A 
ATOM     88  F   UNL A   1      39.677  21.360  26.256  1.00  0.00    -0.207 F 
ENDBRANCH  80  82
BRANCH  80  89
ATOM     89  O   UNL A   1      34.611  23.152  22.969  1.00  0.00    -0.382 OA
ATOM     90  H   UNL A   1      34.909  23.951  22.509  1.00  0.00     0.212 HD
ENDBRANCH  80  89
BRANCH  81  91
ATOM     91  C   UNL A   1      33.525  25.740  23.970  1.00  0.00    -0.016 A 
ATOM     92  C   UNL A   1      32.575  25.321  23.026  1.00  0.00     0.009 A 
ATOM     93  C   UNL A   1      33.650  27.124  24.209  1.00  0.00     0.009 A 
ATOM     94  C   UNL A   1      31.765  26.246  22.362  1.00  0.00     0.039 A 
ATOM     95  C   UNL A   1      32.852  28.050  23.536  1.00  0.00     0.039 A 
ATOM     96  C   UNL A   1      31.909  27.600  22.624  1.00  0.00     0.123 A 
ATOM     97  F   UNL A   1      31.119  28.483  22.002  1.00  0.00    -0.207 F 
ENDBRANCH  81  91
ENDBRANCH  75  77
ENDBRANCH  74  75
ENDBRANCH  73  74
ENDBRANCH  72  73
ENDBRANCH  71  72
ENDBRANCH   1  71
TORSDOF 17
ENDMDL
MODEL 3
REMARK VINA RESULT:     -11.8      1.309      1.728
REMARK SMILES O=C(OCCOCCOC(=O)[C@H]1C[C@](O)(c2ccc(F)cc2)[C@@H](c2ccc(F)cc2)O1)c1ccc(-c2c3nc(c(-c4c(F)c(F)c(F)c(F)c4F)c4ccc([nH]4)c(-c4c(F)c(F)c(F)c(F)c4F)c4nc(c(-c5c(F)c(F)c(F)c(F)c5F)c5ccc2[nH]5)C=C4)C=C3)cc1
REMARK SMILES IDX 5 1 4 2 3 3 2 4 1 5 32 6 33 7 94 8 34 9 93 10 35 11 36 12
REMARK SMILES IDX 37 13 87 14 38 15 92 16 86 17 88 18 39 19 91 20 85 21 84 22
REMARK SMILES IDX 40 24 72 25 52 26 71 27 53 28 56 29 70 30 89 31 54 32 55 33
REMARK SMILES IDX 69 35 90 36 57 37 41 38 42 39 50 40 43 41 44 42 48 43 51 44
REMARK SMILES IDX 45 45 46 46 49 47 47 48 73 49 74 50 82 51 75 52 76 53 80 54
REMARK SMILES IDX 83 55 77 56 78 57 81 58 79 59 58 60 59 61 67 62 60 63 61 64
REMARK SMILES IDX 65 65 68 66 62 67 63 68 66 69 64 70 6 71 7 72 8 73 9 74
REMARK SMILES IDX 10 75 11 76 12 77 13 78 31 79 14 80 23 81 16 82 17 83 22 84
REMARK SMILES IDX 18 85 21 86 19 87 20 88 15 89 24 91 25 92 30 93 26 94 29 95
REMARK SMILES IDX 27 96 28 97
REMARK H PARENT 88 23 56 34 15 90
REMARK Flexibility Score: inf
ROOT
ATOM      1  C   UNL A   1      31.321  29.722  24.893  1.00  0.00     0.202 C 
ENDROOT
BRANCH   1   2
ATOM      2  C   UNL A   1      31.611  30.437  26.231  1.00  0.00     0.261 C 
BRANCH   2   3
ATOM      3  O   UNL A   1      33.002  30.740  26.436  1.00  0.00    -0.460 OA
BRANCH   3   4
ATOM      4  C   UNL A   1      33.536  31.584  27.358  1.00  0.00     0.338 C 
ATOM      5  O   UNL A   1      32.978  32.659  27.572  1.00  0.00    -0.246 OA
BRANCH   4   6
ATOM      6  C   UNL A   1      34.855  31.331  28.024  1.00  0.00     0.060 A 
ATOM      7  C   UNL A   1      35.231  30.108  28.567  1.00  0.00     0.016 A 
ATOM      8  C   UNL A   1      35.819  32.359  28.024  1.00  0.00     0.016 A 
ATOM      9  C   UNL A   1      36.506  29.857  29.007  1.00  0.00     0.010 A 
ATOM     10  C   UNL A   1      37.117  32.135  28.509  1.00  0.00     0.010 A 
ATOM     11  C   UNL A   1      37.455  30.866  28.982  1.00  0.00    -0.014 A 
BRANCH  11  12
ATOM     12  C   UNL A   1      38.709  30.498  29.645  1.00  0.00     0.031 A 
ATOM     13  C   UNL A   1      38.865  30.917  31.072  1.00  0.00     0.074 A 
ATOM     14  C   UNL A   1      39.454  29.520  29.094  1.00  0.00     0.049 A 
ATOM     15  N   UNL A   1      39.771  30.567  31.942  1.00  0.00    -0.248 NA
ATOM     16  C   UNL A   1      37.813  31.798  31.617  1.00  0.00     0.031 C 
ATOM     17  C   UNL A   1      39.182  28.891  27.795  1.00  0.00     0.029 A 
ATOM     18  N   UNL A   1      40.521  28.821  29.585  1.00  0.00    -0.354 N 
ATOM     19  C   UNL A   1      39.403  31.188  33.126  1.00  0.00     0.074 A 
ATOM     20  C   UNL A   1      38.190  31.928  32.879  1.00  0.00     0.031 C 
ATOM     21  C   UNL A   1      40.050  27.884  27.606  1.00  0.00     0.029 A 
ATOM     22  C   UNL A   1      40.971  27.840  28.734  1.00  0.00     0.049 A 
ATOM     23  H   UNL A   1      40.927  29.002  30.463  1.00  0.00     0.167 HD
ATOM     24  C   UNL A   1      40.048  31.139  34.311  1.00  0.00     0.037 A 
ATOM     25  C   UNL A   1      42.035  27.025  28.859  1.00  0.00     0.037 A 
ATOM     26  C   UNL A   1      41.261  30.398  34.506  1.00  0.00     0.049 A 
ATOM     27  C   UNL A   1      42.842  27.140  30.126  1.00  0.00     0.074 A 
ATOM     28  C   UNL A   1      42.089  30.370  35.609  1.00  0.00     0.029 A 
ATOM     29  N   UNL A   1      41.817  29.551  33.556  1.00  0.00    -0.354 N 
ATOM     30  N   UNL A   1      42.575  27.828  31.213  1.00  0.00    -0.248 NA
ATOM     31  C   UNL A   1      44.100  26.389  30.183  1.00  0.00     0.031 C 
ATOM     32  C   UNL A   1      43.178  29.549  35.305  1.00  0.00     0.029 A 
ATOM     33  C   UNL A   1      42.996  29.013  34.037  1.00  0.00     0.049 A 
ATOM     34  H   UNL A   1      41.428  29.360  32.672  1.00  0.00     0.167 HD
ATOM     35  C   UNL A   1      43.623  27.584  32.087  1.00  0.00     0.074 A 
ATOM     36  C   UNL A   1      44.514  26.659  31.413  1.00  0.00     0.031 C 
ATOM     37  C   UNL A   1      43.841  28.086  33.328  1.00  0.00     0.037 A 
BRANCH  24  38
ATOM     38  C   UNL A   1      39.511  31.977  35.429  1.00  0.00     0.064 A 
ATOM     39  C   UNL A   1      39.928  33.310  35.562  1.00  0.00     0.173 A 
ATOM     40  C   UNL A   1      38.602  31.474  36.370  1.00  0.00     0.173 A 
ATOM     41  F   UNL A   1      40.779  33.843  34.673  1.00  0.00    -0.203 F 
ATOM     42  C   UNL A   1      39.476  34.101  36.612  1.00  0.00     0.198 A 
ATOM     43  C   UNL A   1      38.133  32.276  37.408  1.00  0.00     0.198 A 
ATOM     44  F   UNL A   1      38.142  30.218  36.261  1.00  0.00    -0.203 F 
ATOM     45  F   UNL A   1      39.906  35.365  36.730  1.00  0.00    -0.200 F 
ATOM     46  C   UNL A   1      38.578  33.585  37.535  1.00  0.00     0.200 A 
ATOM     47  F   UNL A   1      37.240  31.788  38.280  1.00  0.00    -0.200 F 
ATOM     48  F   UNL A   1      38.135  34.351  38.541  1.00  0.00    -0.200 F 
ENDBRANCH  24  38
BRANCH  25  49
ATOM     49  C   UNL A   1      42.439  26.115  27.750  1.00  0.00     0.064 A 
ATOM     50  C   UNL A   1      41.840  24.853  27.594  1.00  0.00     0.173 A 
ATOM     51  C   UNL A   1      43.390  26.496  26.792  1.00  0.00     0.173 A 
ATOM     52  F   UNL A   1      40.913  24.435  28.468  1.00  0.00    -0.203 F 
ATOM     53  C   UNL A   1      42.183  24.010  26.539  1.00  0.00     0.198 A 
ATOM     54  C   UNL A   1      43.707  25.666  25.716  1.00  0.00     0.198 A 
ATOM     55  F   UNL A   1      43.978  27.698  26.873  1.00  0.00    -0.203 F 
ATOM     56  F   UNL A   1      41.605  22.805  26.434  1.00  0.00    -0.200 F 
ATOM     57  C   UNL A   1      43.107  24.421  25.594  1.00  0.00     0.200 A 
ATOM     58  F   UNL A   1      44.574  26.082  24.783  1.00  0.00    -0.200 F 
ATOM     59  F   UNL A   1      43.406  23.627  24.556  1.00  0.00    -0.200 F 
ENDBRANCH  25  49
BRANCH  37  60
ATOM     60  C   UNL A   1      45.079  27.629  34.039  1.00  0.00     0.064 A 
ATOM     61  C   UNL A   1      45.037  26.506  34.879  1.00  0.00     0.173 A 
ATOM     62  C   UNL A   1      46.276  28.353  33.959  1.00  0.00     0.173 A 
ATOM     63  F   UNL A   1      43.907  25.791  34.996  1.00  0.00    -0.203 F 
ATOM     64  C   UNL A   1      46.145  26.136  35.630  1.00  0.00     0.198 A 
ATOM     65  C   UNL A   1      47.395  27.958  34.684  1.00  0.00     0.198 A 
ATOM     66  F   UNL A   1      46.365  29.427  33.160  1.00  0.00    -0.203 F 
ATOM     67  F   UNL A   1      46.069  25.090  36.463  1.00  0.00    -0.200 F 
ATOM     68  C   UNL A   1      47.325  26.858  35.528  1.00  0.00     0.200 A 
ATOM     69  F   UNL A   1      48.543  28.639  34.563  1.00  0.00    -0.200 F 
ATOM     70  F   UNL A   1      48.397  26.494  36.243  1.00  0.00    -0.200 F 
ENDBRANCH  37  60
ENDBRANCH  11  12
ENDBRANCH   4   6
ENDBRANCH   3   4
ENDBRANCH   2   3
ENDBRANCH   1   2
BRANCH   1  71
ATOM     71  O   UNL A   1      30.807  28.390  24.942  1.00  0.00    -0.374 OA
BRANCH  71  72
ATOM     72  C   UNL A   1      30.250  27.851  23.740  1.00  0.00     0.202 C 
BRANCH  72  73
ATOM     73  C   UNL A   1      29.292  26.703  24.055  1.00  0.00     0.261 C 
BRANCH  73  74
ATOM     74  O   UNL A   1      30.059  25.504  24.228  1.00  0.00    -0.461 OA
BRANCH  74  75
ATOM     75  C   UNL A   1      30.313  25.083  25.494  1.00  0.00     0.335 C 
ATOM     76  O   UNL A   1      29.797  25.527  26.505  1.00  0.00    -0.249 OA
BRANCH  75  77
ATOM     77  C   UNL A   1      31.249  23.860  25.453  1.00  0.00     0.232 C 
ATOM     78  C   UNL A   1      31.120  23.123  24.118  1.00  0.00     0.087 C 
ATOM     79  O   UNL A   1      32.628  24.190  25.643  1.00  0.00    -0.355 OA
ATOM     80  C   UNL A   1      32.535  22.936  23.609  1.00  0.00     0.123 C 
ATOM     81  C   UNL A   1      33.322  24.028  24.385  1.00  0.00     0.186 C 
BRANCH  80  82
ATOM     82  C   UNL A   1      32.987  21.487  23.826  1.00  0.00    -0.013 A 
ATOM     83  C   UNL A   1      34.140  21.234  24.605  1.00  0.00     0.010 A 
ATOM     84  C   UNL A   1      32.288  20.383  23.312  1.00  0.00     0.010 A 
ATOM     85  C   UNL A   1      34.523  19.934  24.930  1.00  0.00     0.039 A 
ATOM     86  C   UNL A   1      32.667  19.080  23.648  1.00  0.00     0.039 A 
ATOM     87  C   UNL A   1      33.769  18.868  24.466  1.00  0.00     0.123 A 
ATOM     88  F   UNL A   1      34.106  17.619  24.810  1.00  0.00    -0.207 F 
ENDBRANCH  80  82
BRANCH  80  89
ATOM     89  O   UNL A   1      32.557  23.136  22.192  1.00  0.00    -0.382 OA
ATOM     90  H   UNL A   1      33.325  22.680  21.813  1.00  0.00     0.212 HD
ENDBRANCH  80  89
BRANCH  81  91
ATOM     91  C   UNL A   1      33.558  25.423  23.820  1.00  0.00    -0.016 A 
ATOM     92  C   UNL A   1      33.413  25.782  22.471  1.00  0.00     0.009 A 
ATOM     93  C   UNL A   1      33.888  26.439  24.741  1.00  0.00     0.009 A 
ATOM     94  C   UNL A   1      33.571  27.108  22.060  1.00  0.00     0.039 A 
ATOM     95  C   UNL A   1      34.061  27.760  24.329  1.00  0.00     0.039 A 
ATOM     96  C   UNL A   1      33.892  28.084  22.991  1.00  0.00     0.123 A 
ATOM     97  F   UNL A   1      34.023  29.357  22.598  1.00  0.00    -0.207 F 
ENDBRANCH  81  91
ENDBRANCH  75  77
ENDBRANCH  74  75
ENDBRANCH  73  74
ENDBRANCH  72  73
ENDBRANCH  71  72
ENDBRANCH   1  71
TORSDOF 17
ENDMDL
