MODEL 1
REMARK VINA RESULT:     -11.0      0.000      0.000
REMARK SMILES COc1ccccc1CC(=O)NC[C@H]1CC[C@H](C(=O)OCCOCCOC(=O)c2ccc(-c3c4nc(c(-c5c(F)c(F)c(F)c(F)c5F)c5ccc([nH]5)c(-c5c(F)c(F)c(F)c(F)c5F)c5nc(c(-c6c(F)c(F)c(F)c(F)c6F)c6ccc3[nH]6)C=C5)C=C4)cc2)O1
REMARK SMILES IDX 21 1 20 2 18 3 19 4 17 5 14 6 15 7 92 8 16 9 13 10 12 11
REMARK SMILES IDX 10 12 11 13 9 15 8 16 3 17 4 18 5 19 7 20 6 21 2 22 1 23
REMARK SMILES IDX 22 24 23 25 24 26 25 27 26 28 27 29 28 30 29 31 30 32 91 33
REMARK SMILES IDX 31 34 90 35 32 36 33 37 34 38 84 39 35 40 89 41 83 42 85 43
REMARK SMILES IDX 36 44 88 45 82 46 81 47 37 49 69 50 49 51 68 52 50 53 53 54
REMARK SMILES IDX 67 55 86 56 51 57 52 58 66 60 87 61 54 62 38 63 39 64 47 65
REMARK SMILES IDX 40 66 41 67 45 68 48 69 42 70 43 71 46 72 44 73 70 74 71 75
REMARK SMILES IDX 79 76 72 77 73 78 77 79 80 80 74 81 75 82 78 83 76 84 55 85
REMARK SMILES IDX 56 86 64 87 57 88 58 89 62 90 65 91 59 92 60 93 63 94 61 95
REMARK H PARENT 12 14 85 48 53 59
REMARK Flexibility Score: inf
ROOT
ATOM      1  C   UNL A   1      32.160  29.468  25.929  1.00  0.00     0.261 C 
ENDROOT
BRANCH   1   2
ATOM      2  O   UNL A   1      32.141  28.144  25.366  1.00  0.00    -0.461 OA
BRANCH   2   3
ATOM      3  C   UNL A   1      31.777  27.142  26.214  1.00  0.00     0.335 C 
ATOM      4  O   UNL A   1      31.408  27.307  27.371  1.00  0.00    -0.249 OA
BRANCH   3   5
ATOM      5  C   UNL A   1      31.863  25.759  25.556  1.00  0.00     0.228 C 
ATOM      6  C   UNL A   1      30.987  23.747  26.365  1.00  0.00     0.138 C 
ATOM      7  C   UNL A   1      32.370  23.922  26.966  1.00  0.00     0.037 C 
ATOM      8  O   UNL A   1      30.657  25.017  25.778  1.00  0.00    -0.361 OA
ATOM      9  C   UNL A   1      33.022  24.873  25.998  1.00  0.00     0.047 C 
BRANCH   6  10
ATOM     10  C   UNL A   1      30.912  22.665  25.270  1.00  0.00     0.147 C 
BRANCH  10  11
ATOM     11  N   UNL A   1      31.397  21.369  25.713  1.00  0.00    -0.353 N 
ATOM     12  C   UNL A   1      32.249  20.511  25.084  1.00  0.00     0.224 C 
ATOM     13  O   UNL A   1      32.414  19.392  25.571  1.00  0.00    -0.275 OA
ATOM     14  H   UNL A   1      31.065  21.069  26.589  1.00  0.00     0.163 HD
BRANCH  12  15
ATOM     15  C   UNL A   1      33.017  20.962  23.856  1.00  0.00     0.139 C 
BRANCH  15  16
ATOM     16  C   UNL A   1      34.275  21.744  24.143  1.00  0.00     0.003 A 
ATOM     17  C   UNL A   1      34.727  22.840  23.387  1.00  0.00     0.122 A 
ATOM     18  C   UNL A   1      35.970  23.423  23.679  1.00  0.00     0.047 A 
ATOM     19  C   UNL A   1      36.758  22.952  24.728  1.00  0.00     0.004 A 
ATOM     20  C   UNL A   1      35.079  21.297  25.216  1.00  0.00     0.008 A 
ATOM     21  C   UNL A   1      36.311  21.888  25.500  1.00  0.00     0.001 A 
BRANCH  17  22
ATOM     22  O   UNL A   1      34.162  23.316  22.236  1.00  0.00    -0.496 OA
ATOM     23  C   UNL A   1      33.146  24.300  22.370  1.00  0.00     0.278 C 
ENDBRANCH  17  22
ENDBRANCH  15  16
ENDBRANCH  12  15
ENDBRANCH  10  11
ENDBRANCH   6  10
ENDBRANCH   3   5
ENDBRANCH   2   3
ENDBRANCH   1   2
BRANCH   1  24
ATOM     24  C   UNL A   1      31.193  30.397  25.191  1.00  0.00     0.202 C 
BRANCH  24  25
ATOM     25  O   UNL A   1      30.983  31.685  25.768  1.00  0.00    -0.374 OA
BRANCH  25  26
ATOM     26  C   UNL A   1      31.700  32.006  26.958  1.00  0.00     0.202 C 
BRANCH  26  27
ATOM     27  C   UNL A   1      32.229  33.442  27.074  1.00  0.00     0.261 C 
BRANCH  27  28
ATOM     28  O   UNL A   1      32.990  33.661  28.277  1.00  0.00    -0.460 OA
BRANCH  28  29
ATOM     29  C   UNL A   1      34.179  34.282  28.094  1.00  0.00     0.338 C 
ATOM     30  O   UNL A   1      34.366  35.464  27.827  1.00  0.00    -0.246 OA
BRANCH  29  31
ATOM     31  C   UNL A   1      35.290  33.374  28.421  1.00  0.00     0.060 A 
ATOM     32  C   UNL A   1      34.975  32.055  28.777  1.00  0.00     0.016 A 
ATOM     33  C   UNL A   1      36.608  33.829  28.482  1.00  0.00     0.016 A 
ATOM     34  C   UNL A   1      35.970  31.197  29.242  1.00  0.00     0.010 A 
ATOM     35  C   UNL A   1      37.603  32.971  28.962  1.00  0.00     0.010 A 
ATOM     36  C   UNL A   1      37.283  31.665  29.377  1.00  0.00    -0.014 A 
BRANCH  36  37
ATOM     37  C   UNL A   1      38.290  30.861  30.111  1.00  0.00     0.031 A 
ATOM     38  C   UNL A   1      38.516  31.149  31.569  1.00  0.00     0.074 A 
ATOM     39  C   UNL A   1      38.997  29.899  29.494  1.00  0.00     0.049 A 
ATOM     40  N   UNL A   1      39.434  30.685  32.376  1.00  0.00    -0.248 NA
ATOM     41  C   UNL A   1      37.581  32.094  32.199  1.00  0.00     0.031 C 
ATOM     42  C   UNL A   1      38.823  29.481  28.106  1.00  0.00     0.029 A 
ATOM     43  N   UNL A   1      40.022  29.113  29.960  1.00  0.00    -0.354 N 
ATOM     44  C   UNL A   1      39.200  31.295  33.602  1.00  0.00     0.074 A 
ATOM     45  C   UNL A   1      38.062  32.172  33.431  1.00  0.00     0.031 C 
ATOM     46  C   UNL A   1      39.730  28.530  27.822  1.00  0.00     0.029 A 
ATOM     47  C   UNL A   1      40.575  28.308  28.995  1.00  0.00     0.049 A 
ATOM     48  H   UNL A   1      40.330  29.126  30.895  1.00  0.00     0.167 HD
ATOM     49  C   UNL A   1      39.875  31.137  34.765  1.00  0.00     0.037 A 
ATOM     50  C   UNL A   1      41.663  27.515  29.046  1.00  0.00     0.037 A 
ATOM     51  C   UNL A   1      41.003  30.259  34.933  1.00  0.00     0.049 A 
ATOM     52  C   UNL A   1      42.449  27.416  30.329  1.00  0.00     0.074 A 
ATOM     53  C   UNL A   1      41.754  30.026  36.072  1.00  0.00     0.029 A 
ATOM     54  N   UNL A   1      41.543  29.472  33.927  1.00  0.00    -0.354 N 
ATOM     55  N   UNL A   1      42.228  27.997  31.483  1.00  0.00    -0.248 NA
ATOM     56  C   UNL A   1      43.642  26.554  30.315  1.00  0.00     0.031 C 
ATOM     57  C   UNL A   1      42.776  29.130  35.743  1.00  0.00     0.029 A 
ATOM     58  C   UNL A   1      42.629  28.765  34.414  1.00  0.00     0.049 A 
ATOM     59  H   UNL A   1      41.203  29.422  33.004  1.00  0.00     0.167 HD
ATOM     60  C   UNL A   1      43.224  27.544  32.339  1.00  0.00     0.074 A 
ATOM     61  C   UNL A   1      44.055  26.641  31.572  1.00  0.00     0.031 C 
ATOM     62  C   UNL A   1      43.427  27.847  33.644  1.00  0.00     0.037 A 
BRANCH  49  63
ATOM     63  C   UNL A   1      39.436  31.958  35.939  1.00  0.00     0.064 A 
ATOM     64  C   UNL A   1      40.002  33.211  36.219  1.00  0.00     0.173 A 
ATOM     65  C   UNL A   1      38.408  31.499  36.779  1.00  0.00     0.173 A 
ATOM     66  F   UNL A   1      40.996  33.687  35.455  1.00  0.00    -0.203 F 
ATOM     67  C   UNL A   1      39.570  33.964  37.307  1.00  0.00     0.198 A 
ATOM     68  C   UNL A   1      37.962  32.266  37.850  1.00  0.00     0.198 A 
ATOM     69  F   UNL A   1      37.833  30.309  36.553  1.00  0.00    -0.203 F 
ATOM     70  F   UNL A   1      40.153  35.139  37.580  1.00  0.00    -0.200 F 
ATOM     71  C   UNL A   1      38.546  33.495  38.117  1.00  0.00     0.200 A 
ATOM     72  F   UNL A   1      36.965  31.816  38.624  1.00  0.00    -0.200 F 
ATOM     73  F   UNL A   1      38.127  34.224  39.160  1.00  0.00    -0.200 F 
ENDBRANCH  49  63
BRANCH  50  74
ATOM     74  C   UNL A   1      42.094  26.769  27.835  1.00  0.00     0.064 A 
ATOM     75  C   UNL A   1      41.583  25.495  27.550  1.00  0.00     0.173 A 
ATOM     76  C   UNL A   1      43.036  27.308  26.946  1.00  0.00     0.173 A 
ATOM     77  F   UNL A   1      40.700  24.927  28.384  1.00  0.00    -0.203 F 
ATOM     78  C   UNL A   1      42.009  24.783  26.431  1.00  0.00     0.198 A 
ATOM     79  C   UNL A   1      43.441  26.606  25.813  1.00  0.00     0.198 A 
ATOM     80  F   UNL A   1      43.557  28.523  27.173  1.00  0.00    -0.203 F 
ATOM     81  F   UNL A   1      41.538  23.549  26.206  1.00  0.00    -0.200 F 
ATOM     82  C   UNL A   1      42.933  25.341  25.561  1.00  0.00     0.200 A 
ATOM     83  F   UNL A   1      44.324  27.155  24.967  1.00  0.00    -0.200 F 
ATOM     84  F   UNL A   1      43.341  24.656  24.482  1.00  0.00    -0.200 F 
ENDBRANCH  50  74
BRANCH  62  85
ATOM     85  C   UNL A   1      44.551  27.152  34.356  1.00  0.00     0.064 A 
ATOM     86  C   UNL A   1      44.357  25.945  35.041  1.00  0.00     0.173 A 
ATOM     87  C   UNL A   1      45.856  27.664  34.277  1.00  0.00     0.173 A 
ATOM     88  F   UNL A   1      43.128  25.422  35.155  1.00  0.00    -0.203 F 
ATOM     89  C   UNL A   1      45.430  25.281  35.632  1.00  0.00     0.198 A 
ATOM     90  C   UNL A   1      46.928  26.984  34.846  1.00  0.00     0.198 A 
ATOM     91  F   UNL A   1      46.093  28.813  33.625  1.00  0.00    -0.203 F 
ATOM     92  F   UNL A   1      45.220  24.141  36.306  1.00  0.00    -0.200 F 
ATOM     93  C   UNL A   1      46.714  25.795  35.524  1.00  0.00     0.200 A 
ATOM     94  F   UNL A   1      48.170  27.475  34.728  1.00  0.00    -0.200 F 
ATOM     95  F   UNL A   1      47.746  25.143  36.077  1.00  0.00    -0.200 F 
ENDBRANCH  62  85
ENDBRANCH  36  37
ENDBRANCH  29  31
ENDBRANCH  28  29
ENDBRANCH  27  28
ENDBRANCH  26  27
ENDBRANCH  25  26
ENDBRANCH  24  25
ENDBRANCH   1  24
TORSDOF 19
ENDMDL
MODEL 2
REMARK VINA RESULT:     -10.9      4.354      6.585
REMARK SMILES COc1ccccc1CC(=O)NC[C@H]1CC[C@H](C(=O)OCCOCCOC(=O)c2ccc(-c3c4nc(c(-c5c(F)c(F)c(F)c(F)c5F)c5ccc([nH]5)c(-c5c(F)c(F)c(F)c(F)c5F)c5nc(c(-c6c(F)c(F)c(F)c(F)c6F)c6ccc3[nH]6)C=C5)C=C4)cc2)O1
REMARK SMILES IDX 21 1 20 2 18 3 19 4 17 5 14 6 15 7 92 8 16 9 13 10 12 11
REMARK SMILES IDX 10 12 11 13 9 15 8 16 3 17 4 18 5 19 7 20 6 21 2 22 1 23
REMARK SMILES IDX 22 24 23 25 24 26 25 27 26 28 27 29 28 30 29 31 30 32 91 33
REMARK SMILES IDX 31 34 90 35 32 36 33 37 34 38 84 39 35 40 89 41 83 42 85 43
REMARK SMILES IDX 36 44 88 45 82 46 81 47 37 49 69 50 49 51 68 52 50 53 53 54
REMARK SMILES IDX 67 55 86 56 51 57 52 58 66 60 87 61 54 62 38 63 39 64 47 65
REMARK SMILES IDX 40 66 41 67 45 68 48 69 42 70 43 71 46 72 44 73 70 74 71 75
REMARK SMILES IDX 79 76 72 77 73 78 77 79 80 80 74 81 75 82 78 83 76 84 55 85
REMARK SMILES IDX 56 86 64 87 57 88 58 89 62 90 65 91 59 92 60 93 63 94 61 95
REMARK H PARENT 12 14 85 48 53 59
REMARK Flexibility Score: inf
ROOT
ATOM      1  C   UNL A   1      34.002  32.589  28.000  1.00  0.00     0.261 C 
ENDROOT
BRANCH   1   2
ATOM      2  O   UNL A   1      32.986  31.710  27.485  1.00  0.00    -0.461 OA
BRANCH   2   3
ATOM      3  C   UNL A   1      33.374  30.424  27.252  1.00  0.00     0.335 C 
ATOM      4  O   UNL A   1      34.514  30.000  27.409  1.00  0.00    -0.249 OA
BRANCH   3   5
ATOM      5  C   UNL A   1      32.215  29.540  26.778  1.00  0.00     0.228 C 
ATOM      6  C   UNL A   1      32.358  27.465  25.708  1.00  0.00     0.138 C 
ATOM      7  C   UNL A   1      32.422  28.540  24.639  1.00  0.00     0.037 C 
ATOM      8  O   UNL A   1      32.528  28.153  26.959  1.00  0.00    -0.361 OA
ATOM      9  C   UNL A   1      31.781  29.715  25.328  1.00  0.00     0.047 C 
BRANCH   6  10
ATOM     10  C   UNL A   1      31.022  26.698  25.746  1.00  0.00     0.147 C 
BRANCH  10  11
ATOM     11  N   UNL A   1      31.041  25.560  26.648  1.00  0.00    -0.353 N 
ATOM     12  C   UNL A   1      31.029  24.230  26.351  1.00  0.00     0.224 C 
ATOM     13  O   UNL A   1      30.900  23.428  27.277  1.00  0.00    -0.275 OA
ATOM     14  H   UNL A   1      31.067  25.780  27.607  1.00  0.00     0.163 HD
BRANCH  12  15
ATOM     15  C   UNL A   1      31.240  23.765  24.923  1.00  0.00     0.139 C 
BRANCH  15  16
ATOM     16  C   UNL A   1      32.628  23.258  24.616  1.00  0.00     0.003 A 
ATOM     17  C   UNL A   1      33.013  21.906  24.654  1.00  0.00     0.122 A 
ATOM     18  C   UNL A   1      34.358  21.559  24.459  1.00  0.00     0.047 A 
ATOM     19  C   UNL A   1      35.323  22.531  24.199  1.00  0.00     0.004 A 
ATOM     20  C   UNL A   1      33.617  24.225  24.329  1.00  0.00     0.008 A 
ATOM     21  C   UNL A   1      34.952  23.867  24.131  1.00  0.00     0.001 A 
BRANCH  17  22
ATOM     22  O   UNL A   1      32.234  20.855  25.054  1.00  0.00    -0.496 OA
ATOM     23  C   UNL A   1      32.897  19.641  25.377  1.00  0.00     0.278 C 
ENDBRANCH  17  22
ENDBRANCH  15  16
ENDBRANCH  12  15
ENDBRANCH  10  11
ENDBRANCH   6  10
ENDBRANCH   3   5
ENDBRANCH   2   3
ENDBRANCH   1   2
BRANCH   1  24
ATOM     24  C   UNL A   1      33.456  34.005  28.204  1.00  0.00     0.202 C 
BRANCH  24  25
ATOM     25  O   UNL A   1      32.965  34.316  29.506  1.00  0.00    -0.374 OA
BRANCH  25  26
ATOM     26  C   UNL A   1      33.683  35.279  30.275  1.00  0.00     0.202 C 
BRANCH  26  27
ATOM     27  C   UNL A   1      34.469  34.745  31.481  1.00  0.00     0.261 C 
BRANCH  27  28
ATOM     28  O   UNL A   1      35.523  33.838  31.102  1.00  0.00    -0.460 OA
BRANCH  28  29
ATOM     29  C   UNL A   1      35.446  32.609  31.663  1.00  0.00     0.338 C 
ATOM     30  O   UNL A   1      34.577  32.190  32.419  1.00  0.00    -0.246 OA
BRANCH  29  31
ATOM     31  C   UNL A   1      36.492  31.728  31.118  1.00  0.00     0.060 A 
ATOM     32  C   UNL A   1      37.378  31.126  32.024  1.00  0.00     0.016 A 
ATOM     33  C   UNL A   1      36.672  31.575  29.743  1.00  0.00     0.016 A 
ATOM     34  C   UNL A   1      38.477  30.407  31.558  1.00  0.00     0.010 A 
ATOM     35  C   UNL A   1      37.783  30.866  29.276  1.00  0.00     0.010 A 
ATOM     36  C   UNL A   1      38.708  30.309  30.180  1.00  0.00    -0.014 A 
BRANCH  36  37
ATOM     37  C   UNL A   1      40.000  29.783  29.675  1.00  0.00     0.031 A 
ATOM     38  C   UNL A   1      41.170  30.721  29.579  1.00  0.00     0.074 A 
ATOM     39  C   UNL A   1      40.131  28.499  29.301  1.00  0.00     0.049 A 
ATOM     40  N   UNL A   1      42.347  30.532  29.039  1.00  0.00    -0.248 NA
ATOM     41  C   UNL A   1      40.986  32.056  30.170  1.00  0.00     0.031 C 
ATOM     42  C   UNL A   1      39.092  27.477  29.410  1.00  0.00     0.029 A 
ATOM     43  N   UNL A   1      41.194  27.842  28.734  1.00  0.00    -0.354 N 
ATOM     44  C   UNL A   1      43.033  31.728  29.205  1.00  0.00     0.074 A 
ATOM     45  C   UNL A   1      42.141  32.641  29.886  1.00  0.00     0.031 C 
ATOM     46  C   UNL A   1      39.561  26.326  28.900  1.00  0.00     0.029 A 
ATOM     47  C   UNL A   1      40.914  26.544  28.389  1.00  0.00     0.049 A 
ATOM     48  H   UNL A   1      42.073  28.263  28.588  1.00  0.00     0.167 HD
ATOM     49  C   UNL A   1      44.296  32.036  28.823  1.00  0.00     0.037 A 
ATOM     50  C   UNL A   1      41.653  25.649  27.704  1.00  0.00     0.037 A 
ATOM     51  C   UNL A   1      45.182  31.123  28.152  1.00  0.00     0.049 A 
ATOM     52  C   UNL A   1      43.026  26.039  27.217  1.00  0.00     0.074 A 
ATOM     53  C   UNL A   1      46.482  31.338  27.726  1.00  0.00     0.029 A 
ATOM     54  N   UNL A   1      44.856  29.820  27.806  1.00  0.00    -0.354 N 
ATOM     55  N   UNL A   1      43.669  27.171  27.372  1.00  0.00    -0.248 NA
ATOM     56  C   UNL A   1      43.774  25.029  26.452  1.00  0.00     0.031 C 
ATOM     57  C   UNL A   1      46.926  30.178  27.083  1.00  0.00     0.029 A 
ATOM     58  C   UNL A   1      45.923  29.225  27.156  1.00  0.00     0.049 A 
ATOM     59  H   UNL A   1      43.994  29.384  27.997  1.00  0.00     0.167 HD
ATOM     60  C   UNL A   1      44.905  26.997  26.763  1.00  0.00     0.074 A 
ATOM     61  C   UNL A   1      44.924  25.651  26.231  1.00  0.00     0.031 C 
ATOM     62  C   UNL A   1      45.934  27.873  26.659  1.00  0.00     0.037 A 
BRANCH  49  63
ATOM     63  C   UNL A   1      44.781  33.428  29.090  1.00  0.00     0.064 A 
ATOM     64  C   UNL A   1      44.565  34.474  28.181  1.00  0.00     0.173 A 
ATOM     65  C   UNL A   1      45.444  33.728  30.291  1.00  0.00     0.173 A 
ATOM     66  F   UNL A   1      43.948  34.235  27.013  1.00  0.00    -0.203 F 
ATOM     67  C   UNL A   1      45.012  35.764  28.453  1.00  0.00     0.198 A 
ATOM     68  C   UNL A   1      45.867  35.024  30.571  1.00  0.00     0.198 A 
ATOM     69  F   UNL A   1      45.674  32.765  31.195  1.00  0.00    -0.203 F 
ATOM     70  F   UNL A   1      44.830  36.738  27.552  1.00  0.00    -0.200 F 
ATOM     71  C   UNL A   1      45.656  36.039  29.650  1.00  0.00     0.200 A 
ATOM     72  F   UNL A   1      46.478  35.290  31.734  1.00  0.00    -0.200 F 
ATOM     73  F   UNL A   1      46.080  37.283  29.914  1.00  0.00    -0.200 F 
ENDBRANCH  49  63
BRANCH  50  74
ATOM     74  C   UNL A   1      41.101  24.300  27.410  1.00  0.00     0.064 A 
ATOM     75  C   UNL A   1      40.048  24.133  26.500  1.00  0.00     0.173 A 
ATOM     76  C   UNL A   1      41.604  23.155  28.044  1.00  0.00     0.173 A 
ATOM     77  F   UNL A   1      39.516  25.201  25.889  1.00  0.00    -0.203 F 
ATOM     78  C   UNL A   1      39.509  22.874  26.248  1.00  0.00     0.198 A 
ATOM     79  C   UNL A   1      41.082  21.893  27.770  1.00  0.00     0.198 A 
ATOM     80  F   UNL A   1      42.611  23.260  28.924  1.00  0.00    -0.203 F 
ATOM     81  F   UNL A   1      38.473  22.747  25.407  1.00  0.00    -0.200 F 
ATOM     82  C   UNL A   1      40.030  21.754  26.878  1.00  0.00     0.200 A 
ATOM     83  F   UNL A   1      41.598  20.811  28.371  1.00  0.00    -0.200 F 
ATOM     84  F   UNL A   1      39.514  20.542  26.632  1.00  0.00    -0.200 F 
ENDBRANCH  50  74
BRANCH  62  85
ATOM     85  C   UNL A   1      47.197  27.394  26.003  1.00  0.00     0.064 A 
ATOM     86  C   UNL A   1      47.391  27.487  24.619  1.00  0.00     0.173 A 
ATOM     87  C   UNL A   1      48.257  26.913  26.788  1.00  0.00     0.173 A 
ATOM     88  F   UNL A   1      46.403  27.928  23.826  1.00  0.00    -0.203 F 
ATOM     89  C   UNL A   1      48.599  27.105  24.041  1.00  0.00     0.198 A 
ATOM     90  C   UNL A   1      49.472  26.557  26.210  1.00  0.00     0.198 A 
ATOM     91  F   UNL A   1      48.122  26.813  28.119  1.00  0.00    -0.203 F 
ATOM     92  F   UNL A   1      48.755  27.176  22.711  1.00  0.00    -0.200 F 
ATOM     93  C   UNL A   1      49.641  26.651  24.837  1.00  0.00     0.200 A 
ATOM     94  F   UNL A   1      50.481  26.133  26.983  1.00  0.00    -0.200 F 
ATOM     95  F   UNL A   1      50.809  26.303  24.280  1.00  0.00    -0.200 F 
ENDBRANCH  62  85
ENDBRANCH  36  37
ENDBRANCH  29  31
ENDBRANCH  28  29
ENDBRANCH  27  28
ENDBRANCH  26  27
ENDBRANCH  25  26
ENDBRANCH  24  25
ENDBRANCH   1  24
TORSDOF 19
ENDMDL
MODEL 3
REMARK VINA RESULT:     -10.9      3.097      8.807
REMARK SMILES COc1ccccc1CC(=O)NC[C@H]1CC[C@H](C(=O)OCCOCCOC(=O)c2ccc(-c3c4nc(c(-c5c(F)c(F)c(F)c(F)c5F)c5ccc([nH]5)c(-c5c(F)c(F)c(F)c(F)c5F)c5nc(c(-c6c(F)c(F)c(F)c(F)c6F)c6ccc3[nH]6)C=C5)C=C4)cc2)O1
REMARK SMILES IDX 21 1 20 2 18 3 19 4 17 5 14 6 15 7 92 8 16 9 13 10 12 11
REMARK SMILES IDX 10 12 11 13 9 15 8 16 3 17 4 18 5 19 7 20 6 21 2 22 1 23
REMARK SMILES IDX 22 24 23 25 24 26 25 27 26 28 27 29 28 30 29 31 30 32 91 33
REMARK SMILES IDX 31 34 90 35 32 36 33 37 34 38 84 39 35 40 89 41 83 42 85 43
REMARK SMILES IDX 36 44 88 45 82 46 81 47 37 49 69 50 49 51 68 52 50 53 53 54
REMARK SMILES IDX 67 55 86 56 51 57 52 58 66 60 87 61 54 62 38 63 39 64 47 65
REMARK SMILES IDX 40 66 41 67 45 68 48 69 42 70 43 71 46 72 44 73 70 74 71 75
REMARK SMILES IDX 79 76 72 77 73 78 77 79 80 80 74 81 75 82 78 83 76 84 55 85
REMARK SMILES IDX 56 86 64 87 57 88 58 89 62 90 65 91 59 92 60 93 63 94 61 95
REMARK H PARENT 12 14 85 48 53 59
REMARK Flexibility Score: inf
ROOT
ATOM      1  C   UNL A   1      39.985  21.410  26.290  1.00  0.00     0.261 C 
ENDROOT
BRANCH   1   2
ATOM      2  O   UNL A   1      38.591  21.623  26.002  1.00  0.00    -0.461 OA
BRANCH   2   3
ATOM      3  C   UNL A   1      38.172  22.920  26.019  1.00  0.00     0.335 C 
ATOM      4  O   UNL A   1      38.723  23.823  26.637  1.00  0.00    -0.249 OA
BRANCH   3   5
ATOM      5  C   UNL A   1      36.925  23.143  25.155  1.00  0.00     0.228 C 
ATOM      6  C   UNL A   1      34.794  22.234  25.478  1.00  0.00     0.138 C 
ATOM      7  C   UNL A   1      35.600  21.240  24.661  1.00  0.00     0.037 C 
ATOM      8  O   UNL A   1      35.746  23.193  25.968  1.00  0.00    -0.361 OA
ATOM      9  C   UNL A   1      36.670  22.112  24.061  1.00  0.00     0.047 C 
BRANCH   6  10
ATOM     10  C   UNL A   1      33.716  22.981  24.669  1.00  0.00     0.147 C 
BRANCH  10  11
ATOM     11  N   UNL A   1      32.575  23.383  25.473  1.00  0.00    -0.353 N 
ATOM     12  C   UNL A   1      32.389  24.529  26.186  1.00  0.00     0.224 C 
ATOM     13  O   UNL A   1      31.403  24.605  26.921  1.00  0.00    -0.275 OA
ATOM     14  H   UNL A   1      31.832  22.738  25.506  1.00  0.00     0.163 HD
BRANCH  12  15
ATOM     15  C   UNL A   1      33.341  25.697  26.015  1.00  0.00     0.139 C 
BRANCH  15  16
ATOM     16  C   UNL A   1      32.716  26.953  25.459  1.00  0.00     0.003 A 
ATOM     17  C   UNL A   1      32.760  27.338  24.107  1.00  0.00     0.122 A 
ATOM     18  C   UNL A   1      32.240  28.582  23.720  1.00  0.00     0.047 A 
ATOM     19  C   UNL A   1      31.651  29.439  24.649  1.00  0.00     0.004 A 
ATOM     20  C   UNL A   1      32.095  27.825  26.381  1.00  0.00     0.008 A 
ATOM     21  C   UNL A   1      31.576  29.059  25.982  1.00  0.00     0.001 A 
BRANCH  17  22
ATOM     22  O   UNL A   1      33.439  26.699  23.106  1.00  0.00    -0.496 OA
ATOM     23  C   UNL A   1      32.712  25.764  22.322  1.00  0.00     0.278 C 
ENDBRANCH  17  22
ENDBRANCH  15  16
ENDBRANCH  12  15
ENDBRANCH  10  11
ENDBRANCH   6  10
ENDBRANCH   3   5
ENDBRANCH   2   3
ENDBRANCH   1   2
BRANCH   1  24
ATOM     24  C   UNL A   1      40.361  19.934  26.137  1.00  0.00     0.202 C 
BRANCH  24  25
ATOM     25  O   UNL A   1      41.627  19.658  25.541  1.00  0.00    -0.374 OA
BRANCH  25  26
ATOM     26  C   UNL A   1      42.796  20.096  26.230  1.00  0.00     0.202 C 
BRANCH  26  27
ATOM     27  C   UNL A   1      43.728  21.046  25.465  1.00  0.00     0.261 C 
BRANCH  27  28
ATOM     28  O   UNL A   1      44.004  22.260  26.190  1.00  0.00    -0.460 OA
BRANCH  28  29
ATOM     29  C   UNL A   1      43.844  23.398  25.475  1.00  0.00     0.338 C 
ATOM     30  O   UNL A   1      44.088  23.571  24.287  1.00  0.00    -0.246 OA
BRANCH  29  31
ATOM     31  C   UNL A   1      43.162  24.422  26.284  1.00  0.00     0.060 A 
ATOM     32  C   UNL A   1      43.611  25.746  26.178  1.00  0.00     0.016 A 
ATOM     33  C   UNL A   1      42.174  24.080  27.209  1.00  0.00     0.016 A 
ATOM     34  C   UNL A   1      43.107  26.728  27.029  1.00  0.00     0.010 A 
ATOM     35  C   UNL A   1      41.680  25.064  28.072  1.00  0.00     0.010 A 
ATOM     36  C   UNL A   1      42.169  26.382  28.009  1.00  0.00    -0.014 A 
BRANCH  36  37
ATOM     37  C   UNL A   1      41.824  27.344  29.084  1.00  0.00     0.031 A 
ATOM     38  C   UNL A   1      42.630  27.324  30.353  1.00  0.00     0.074 A 
ATOM     39  C   UNL A   1      40.809  28.213  28.942  1.00  0.00     0.049 A 
ATOM     40  N   UNL A   1      42.428  27.961  31.477  1.00  0.00    -0.248 NA
ATOM     41  C   UNL A   1      43.824  26.464  30.353  1.00  0.00     0.031 C 
ATOM     42  C   UNL A   1      39.998  28.375  27.738  1.00  0.00     0.029 A 
ATOM     43  N   UNL A   1      40.276  29.111  29.834  1.00  0.00    -0.354 N 
ATOM     44  C   UNL A   1      43.456  27.565  32.323  1.00  0.00     0.074 A 
ATOM     45  C   UNL A   1      44.273  26.624  31.589  1.00  0.00     0.031 C 
ATOM     46  C   UNL A   1      39.051  29.299  27.974  1.00  0.00     0.029 A 
ATOM     47  C   UNL A   1      39.163  29.758  29.358  1.00  0.00     0.049 A 
ATOM     48  H   UNL A   1      40.656  29.275  30.727  1.00  0.00     0.167 HD
ATOM     49  C   UNL A   1      43.694  27.951  33.600  1.00  0.00     0.037 A 
ATOM     50  C   UNL A   1      38.311  30.594  29.985  1.00  0.00     0.037 A 
ATOM     51  C   UNL A   1      42.882  28.892  34.324  1.00  0.00     0.049 A 
ATOM     52  C   UNL A   1      38.549  30.949  31.430  1.00  0.00     0.074 A 
ATOM     53  C   UNL A   1      43.042  29.352  35.620  1.00  0.00     0.029 A 
ATOM     54  N   UNL A   1      41.753  29.515  33.813  1.00  0.00    -0.354 N 
ATOM     55  N   UNL A   1      39.518  30.568  32.228  1.00  0.00    -0.248 NA
ATOM     56  C   UNL A   1      37.572  31.845  32.067  1.00  0.00     0.031 C 
ATOM     57  C   UNL A   1      41.983  30.220  35.907  1.00  0.00     0.029 A 
ATOM     58  C   UNL A   1      41.195  30.341  34.773  1.00  0.00     0.049 A 
ATOM     59  H   UNL A   1      41.402  29.389  32.902  1.00  0.00     0.167 HD
ATOM     60  C   UNL A   1      39.290  31.206  33.441  1.00  0.00     0.074 A 
ATOM     61  C   UNL A   1      38.088  31.996  33.279  1.00  0.00     0.031 C 
ATOM     62  C   UNL A   1      40.015  31.144  34.584  1.00  0.00     0.037 A 
BRANCH  49  63
ATOM     63  C   UNL A   1      44.860  27.330  34.307  1.00  0.00     0.064 A 
ATOM     64  C   UNL A   1      44.740  26.124  35.013  1.00  0.00     0.173 A 
ATOM     65  C   UNL A   1      46.126  27.933  34.248  1.00  0.00     0.173 A 
ATOM     66  F   UNL A   1      43.548  25.516  35.109  1.00  0.00    -0.203 F 
ATOM     67  C   UNL A   1      45.838  25.556  35.651  1.00  0.00     0.198 A 
ATOM     68  C   UNL A   1      47.228  27.349  34.866  1.00  0.00     0.198 A 
ATOM     69  F   UNL A   1      46.296  29.086  33.584  1.00  0.00    -0.203 F 
ATOM     70  F   UNL A   1      45.691  24.424  36.354  1.00  0.00    -0.200 F 
ATOM     71  C   UNL A   1      47.082  26.164  35.572  1.00  0.00     0.200 A 
ATOM     72  F   UNL A   1      48.431  27.933  34.778  1.00  0.00    -0.200 F 
ATOM     73  F   UNL A   1      48.140  25.612  36.181  1.00  0.00    -0.200 F 
ENDBRANCH  49  63
BRANCH  50  74
ATOM     74  C   UNL A   1      37.133  31.135  29.257  1.00  0.00     0.064 A 
ATOM     75  C   UNL A   1      36.026  30.324  28.969  1.00  0.00     0.173 A 
ATOM     76  C   UNL A   1      37.096  32.468  28.822  1.00  0.00     0.173 A 
ATOM     77  F   UNL A   1      36.026  29.036  29.342  1.00  0.00    -0.203 F 
ATOM     78  C   UNL A   1      34.936  30.821  28.261  1.00  0.00     0.198 A 
ATOM     79  C   UNL A   1      35.993  32.971  28.137  1.00  0.00     0.198 A 
ATOM     80  F   UNL A   1      38.130  33.286  29.070  1.00  0.00    -0.203 F 
ATOM     81  F   UNL A   1      33.909  30.013  27.960  1.00  0.00    -0.200 F 
ATOM     82  C   UNL A   1      34.917  32.146  27.850  1.00  0.00     0.200 A 
ATOM     83  F   UNL A   1      35.973  34.255  27.753  1.00  0.00    -0.200 F 
ATOM     84  F   UNL A   1      33.865  32.625  27.171  1.00  0.00    -0.200 F 
ENDBRANCH  50  74
BRANCH  62  85
ATOM     85  C   UNL A   1      39.577  32.000  35.737  1.00  0.00     0.064 A 
ATOM     86  C   UNL A   1      40.079  33.293  35.930  1.00  0.00     0.173 A 
ATOM     87  C   UNL A   1      38.576  31.543  36.610  1.00  0.00     0.173 A 
ATOM     88  F   UNL A   1      41.045  33.770  35.130  1.00  0.00    -0.203 F 
ATOM     89  C   UNL A   1      39.603  34.096  36.964  1.00  0.00     0.198 A 
ATOM     90  C   UNL A   1      38.085  32.358  37.625  1.00  0.00     0.198 A 
ATOM     91  F   UNL A   1      38.058  30.314  36.461  1.00  0.00    -0.203 F 
ATOM     92  F   UNL A   1      40.116  35.321  37.148  1.00  0.00    -0.200 F 
ATOM     93  C   UNL A   1      38.600  33.632  37.803  1.00  0.00     0.200 A 
ATOM     94  F   UNL A   1      37.106  31.913  38.425  1.00  0.00    -0.200 F 
ATOM     95  F   UNL A   1      38.130  34.415  38.784  1.00  0.00    -0.200 F 
ENDBRANCH  62  85
ENDBRANCH  36  37
ENDBRANCH  29  31
ENDBRANCH  28  29
ENDBRANCH  27  28
ENDBRANCH  26  27
ENDBRANCH  25  26
ENDBRANCH  24  25
ENDBRANCH   1  24
TORSDOF 19
ENDMDL
