MODEL 1
REMARK VINA RESULT:     -12.6      0.000      0.000
REMARK SMILES O=C(OCCOCCOC(=O)[C@]12CCC[NH2+][C@@H]1CCN(C(=O)Cc1c(F)cccc1Cl)C2)c1ccc(-c2c3nc(c(-c4c(F)c(F)c(F)c(F)c4F)c4ccc([nH]4)c(-c4c(F)c(F)c(F)c(F)c4F)c4nc(c(-c5c(F)c(F)c(F)c(F)c5F)c5ccc2[nH]5)C=C4)C=C3)cc1
REMARK SMILES IDX 7 1 6 2 5 3 4 4 3 5 2 6 1 7 33 8 34 9 95 10 35 11 94 12
REMARK SMILES IDX 36 13 37 14 38 15 88 16 39 17 93 18 87 19 89 20 40 21 92 22
REMARK SMILES IDX 86 23 85 24 41 26 73 27 53 28 72 29 54 30 57 31 71 32 90 33
REMARK SMILES IDX 55 34 56 35 70 37 91 38 58 39 42 40 43 41 51 42 44 43 45 44
REMARK SMILES IDX 49 45 52 46 46 47 47 48 50 49 48 50 74 51 75 52 83 53 76 54
REMARK SMILES IDX 77 55 81 56 84 57 78 58 79 59 82 60 80 61 59 62 60 63 68 64
REMARK SMILES IDX 61 65 62 66 66 67 69 68 63 69 64 70 67 71 65 72 8 73 9 74
REMARK SMILES IDX 10 75 11 76 12 77 13 78 17 79 32 80 14 81 16 82 18 83 20 84
REMARK SMILES IDX 15 85 19 88 21 89 22 90 23 91 24 92 25 93 30 94 26 95 27 96
REMARK SMILES IDX 29 97 31 98 28 99
REMARK H PARENT 89 25 57 36 16 86 16 87
REMARK Flexibility Score: inf
ROOT
ATOM      1  C   UNL A   1      33.881  28.815  26.144  1.00  0.00     0.202 C 
ENDROOT
BRANCH   1   2
ATOM      2  O   UNL A   1      32.704  29.527  26.538  1.00  0.00    -0.374 OA
BRANCH   2   3
ATOM      3  C   UNL A   1      32.904  30.743  27.253  1.00  0.00     0.202 C 
BRANCH   3   4
ATOM      4  C   UNL A   1      34.289  31.061  27.868  1.00  0.00     0.261 C 
BRANCH   4   5
ATOM      5  O   UNL A   1      34.400  32.153  28.819  1.00  0.00    -0.460 OA
BRANCH   5   6
ATOM      6  C   UNL A   1      34.916  31.937  30.079  1.00  0.00     0.338 C 
ATOM      7  O   UNL A   1      34.406  32.385  31.092  1.00  0.00    -0.246 OA
BRANCH   6   8
ATOM      8  C   UNL A   1      36.222  31.232  30.104  1.00  0.00     0.060 A 
ATOM      9  C   UNL A   1      37.118  31.665  29.163  1.00  0.00     0.016 A 
ATOM     10  C   UNL A   1      36.637  30.231  30.963  1.00  0.00     0.016 A 
ATOM     11  C   UNL A   1      38.179  30.937  28.739  1.00  0.00     0.010 A 
ATOM     12  C   UNL A   1      37.916  29.673  30.764  1.00  0.00     0.010 A 
ATOM     13  C   UNL A   1      38.679  30.023  29.628  1.00  0.00    -0.014 A 
BRANCH  13  14
ATOM     14  C   UNL A   1      39.995  29.483  29.266  1.00  0.00     0.031 A 
ATOM     15  C   UNL A   1      41.170  30.365  29.465  1.00  0.00     0.074 A 
ATOM     16  C   UNL A   1      40.123  28.173  28.956  1.00  0.00     0.049 A 
ATOM     17  N   UNL A   1      42.378  30.238  29.006  1.00  0.00    -0.248 NA
ATOM     18  C   UNL A   1      40.954  31.567  30.291  1.00  0.00     0.031 C 
ATOM     19  C   UNL A   1      39.040  27.172  28.979  1.00  0.00     0.029 A 
ATOM     20  N   UNL A   1      41.221  27.434  28.610  1.00  0.00    -0.354 N 
ATOM     21  C   UNL A   1      43.037  31.393  29.390  1.00  0.00     0.074 A 
ATOM     22  C   UNL A   1      42.117  32.187  30.169  1.00  0.00     0.031 C 
ATOM     23  C   UNL A   1      39.540  25.959  28.716  1.00  0.00     0.029 A 
ATOM     24  C   UNL A   1      40.929  26.118  28.332  1.00  0.00     0.049 A 
ATOM     25  H   UNL A   1      42.131  27.807  28.565  1.00  0.00     0.167 HD
ATOM     26  C   UNL A   1      44.294  31.748  29.050  1.00  0.00     0.037 A 
ATOM     27  C   UNL A   1      41.683  25.181  27.731  1.00  0.00     0.037 A 
ATOM     28  C   UNL A   1      45.151  30.873  28.298  1.00  0.00     0.049 A 
ATOM     29  C   UNL A   1      43.045  25.625  27.280  1.00  0.00     0.074 A 
ATOM     30  C   UNL A   1      46.416  31.105  27.800  1.00  0.00     0.029 A 
ATOM     31  N   UNL A   1      44.809  29.568  27.951  1.00  0.00    -0.354 N 
ATOM     32  N   UNL A   1      43.638  26.783  27.475  1.00  0.00    -0.248 NA
ATOM     33  C   UNL A   1      43.825  24.672  26.488  1.00  0.00     0.031 C 
ATOM     34  C   UNL A   1      46.816  29.954  27.109  1.00  0.00     0.029 A 
ATOM     35  C   UNL A   1      45.828  28.985  27.226  1.00  0.00     0.049 A 
ATOM     36  H   UNL A   1      43.962  29.125  28.188  1.00  0.00     0.167 HD
ATOM     37  C   UNL A   1      44.861  26.700  26.836  1.00  0.00     0.074 A 
ATOM     38  C   UNL A   1      44.935  25.364  26.270  1.00  0.00     0.031 C 
ATOM     39  C   UNL A   1      45.833  27.637  26.709  1.00  0.00     0.037 A 
BRANCH  26  40
ATOM     40  C   UNL A   1      44.707  33.152  29.361  1.00  0.00     0.064 A 
ATOM     41  C   UNL A   1      45.330  33.511  30.566  1.00  0.00     0.173 A 
ATOM     42  C   UNL A   1      44.383  34.180  28.461  1.00  0.00     0.173 A 
ATOM     43  F   UNL A   1      45.617  32.574  31.482  1.00  0.00    -0.203 F 
ATOM     44  C   UNL A   1      45.583  34.847  30.871  1.00  0.00     0.198 A 
ATOM     45  C   UNL A   1      44.664  35.511  28.756  1.00  0.00     0.198 A 
ATOM     46  F   UNL A   1      43.763  33.897  27.306  1.00  0.00    -0.203 F 
ATOM     47  F   UNL A   1      46.106  35.174  32.061  1.00  0.00    -0.200 F 
ATOM     48  C   UNL A   1      45.253  35.845  29.965  1.00  0.00     0.200 A 
ATOM     49  F   UNL A   1      44.338  36.472  27.881  1.00  0.00    -0.200 F 
ATOM     50  F   UNL A   1      45.481  37.131  30.267  1.00  0.00    -0.200 F 
ENDBRANCH  26  40
BRANCH  27  51
ATOM     51  C   UNL A   1      41.131  23.833  27.408  1.00  0.00     0.064 A 
ATOM     52  C   UNL A   1      41.660  22.671  27.982  1.00  0.00     0.173 A 
ATOM     53  C   UNL A   1      40.068  23.671  26.499  1.00  0.00     0.173 A 
ATOM     54  F   UNL A   1      42.687  22.757  28.842  1.00  0.00    -0.203 F 
ATOM     55  C   UNL A   1      41.168  21.406  27.650  1.00  0.00     0.198 A 
ATOM     56  C   UNL A   1      39.552  22.411  26.197  1.00  0.00     0.198 A 
ATOM     57  F   UNL A   1      39.516  24.741  25.907  1.00  0.00    -0.203 F 
ATOM     58  F   UNL A   1      41.733  20.311  28.175  1.00  0.00    -0.200 F 
ATOM     59  C   UNL A   1      40.110  21.279  26.762  1.00  0.00     0.200 A 
ATOM     60  F   UNL A   1      38.516  22.299  25.353  1.00  0.00    -0.200 F 
ATOM     61  F   UNL A   1      39.638  20.065  26.444  1.00  0.00    -0.200 F 
ENDBRANCH  27  51
BRANCH  39  62
ATOM     62  C   UNL A   1      47.059  27.218  25.964  1.00  0.00     0.064 A 
ATOM     63  C   UNL A   1      47.190  27.439  24.588  1.00  0.00     0.173 A 
ATOM     64  C   UNL A   1      48.140  26.659  26.660  1.00  0.00     0.173 A 
ATOM     65  F   UNL A   1      46.169  27.953  23.885  1.00  0.00    -0.203 F 
ATOM     66  C   UNL A   1      48.365  27.102  23.927  1.00  0.00     0.198 A 
ATOM     67  C   UNL A   1      49.324  26.355  26.003  1.00  0.00     0.198 A 
ATOM     68  F   UNL A   1      48.053  26.437  27.980  1.00  0.00    -0.203 F 
ATOM     69  F   UNL A   1      48.462  27.286  22.604  1.00  0.00    -0.200 F 
ATOM     70  C   UNL A   1      49.434  26.573  24.638  1.00  0.00     0.200 A 
ATOM     71  F   UNL A   1      50.361  25.861  26.692  1.00  0.00    -0.200 F 
ATOM     72  F   UNL A   1      50.574  26.271  24.002  1.00  0.00    -0.200 F 
ENDBRANCH  39  62
ENDBRANCH  13  14
ENDBRANCH   6   8
ENDBRANCH   5   6
ENDBRANCH   4   5
ENDBRANCH   3   4
ENDBRANCH   2   3
ENDBRANCH   1   2
BRANCH   1  73
ATOM     73  C   UNL A   1      33.832  28.535  24.667  1.00  0.00     0.261 C 
BRANCH  73  74
ATOM     74  O   UNL A   1      33.918  27.123  24.539  1.00  0.00    -0.463 OA
BRANCH  74  75
ATOM     75  C   UNL A   1      33.516  26.514  23.398  1.00  0.00     0.320 C 
ATOM     76  O   UNL A   1      33.645  26.979  22.271  1.00  0.00    -0.251 OA
BRANCH  75  77
ATOM     77  C   UNL A   1      32.793  25.208  23.728  1.00  0.00     0.137 C 
ATOM     78  C   UNL A   1      31.626  25.149  22.728  1.00  0.00     0.033 C 
ATOM     79  C   UNL A   1      32.172  25.164  25.133  1.00  0.00     0.203 C 
ATOM     80  C   UNL A   1      33.722  23.987  23.526  1.00  0.00     0.144 C 
ATOM     81  C   UNL A   1      30.711  26.364  22.868  1.00  0.00     0.063 C 
ATOM     82  N   UNL A   1      31.179  26.219  25.423  1.00  0.00    -0.343 N 
ATOM     83  C   UNL A   1      33.275  25.063  26.207  1.00  0.00     0.088 C 
ATOM     84  N   UNL A   1      34.544  23.500  24.659  1.00  0.00    -0.341 N 
ATOM     85  C   UNL A   1      30.627  26.965  24.279  1.00  0.00     0.260 C 
ATOM     86  H   UNL A   1      30.397  25.778  25.907  1.00  0.00     0.346 HD
ATOM     87  H   UNL A   1      31.689  26.916  25.966  1.00  0.00     0.346 HD
ATOM     88  C   UNL A   1      34.132  23.808  26.029  1.00  0.00     0.125 C 
BRANCH  84  89
ATOM     89  C   UNL A   1      35.334  22.362  24.359  1.00  0.00     0.227 C 
ATOM     90  O   UNL A   1      36.060  22.360  23.358  1.00  0.00    -0.275 OA
BRANCH  89  91
ATOM     91  C   UNL A   1      35.260  21.094  25.212  1.00  0.00     0.140 C 
BRANCH  91  92
ATOM     92  C   UNL A   1      34.365  19.936  24.788  1.00  0.00     0.016 A 
ATOM     93  C   UNL A   1      35.019  18.701  24.599  1.00  0.00     0.128 A 
ATOM     94  C   UNL A   1      32.993  19.944  24.513  1.00  0.00     0.047 A 
ATOM     95  F   UNL A   1      36.292  18.564  25.001  1.00  0.00    -0.207 F 
ATOM     96  C   UNL A   1      34.405  17.600  24.002  1.00  0.00     0.039 A 
ATOM     97  C   UNL A   1      32.391  18.873  23.824  1.00  0.00     0.021 A 
ATOM     98  Cl  UNL A   1      31.904  21.192  25.004  1.00  0.00    -0.084 Cl
ATOM     99  C   UNL A   1      33.103  17.712  23.541  1.00  0.00     0.005 A 
ENDBRANCH  91  92
ENDBRANCH  89  91
ENDBRANCH  84  89
ENDBRANCH  75  77
ENDBRANCH  74  75
ENDBRANCH  73  74
ENDBRANCH   1  73
TORSDOF 17
ENDMDL
MODEL 2
REMARK VINA RESULT:     -12.4      4.664      8.970
REMARK SMILES O=C(OCCOCCOC(=O)[C@]12CCC[NH2+][C@@H]1CCN(C(=O)Cc1c(F)cccc1Cl)C2)c1ccc(-c2c3nc(c(-c4c(F)c(F)c(F)c(F)c4F)c4ccc([nH]4)c(-c4c(F)c(F)c(F)c(F)c4F)c4nc(c(-c5c(F)c(F)c(F)c(F)c5F)c5ccc2[nH]5)C=C4)C=C3)cc1
REMARK SMILES IDX 7 1 6 2 5 3 4 4 3 5 2 6 1 7 33 8 34 9 95 10 35 11 94 12
REMARK SMILES IDX 36 13 37 14 38 15 88 16 39 17 93 18 87 19 89 20 40 21 92 22
REMARK SMILES IDX 86 23 85 24 41 26 73 27 53 28 72 29 54 30 57 31 71 32 90 33
REMARK SMILES IDX 55 34 56 35 70 37 91 38 58 39 42 40 43 41 51 42 44 43 45 44
REMARK SMILES IDX 49 45 52 46 46 47 47 48 50 49 48 50 74 51 75 52 83 53 76 54
REMARK SMILES IDX 77 55 81 56 84 57 78 58 79 59 82 60 80 61 59 62 60 63 68 64
REMARK SMILES IDX 61 65 62 66 66 67 69 68 63 69 64 70 67 71 65 72 8 73 9 74
REMARK SMILES IDX 10 75 11 76 12 77 13 78 17 79 32 80 14 81 16 82 18 83 20 84
REMARK SMILES IDX 15 85 19 88 21 89 22 90 23 91 24 92 25 93 30 94 26 95 27 96
REMARK SMILES IDX 29 97 31 98 28 99
REMARK H PARENT 89 25 57 36 16 86 16 87
REMARK Flexibility Score: inf
ROOT
ATOM      1  C   UNL A   1      31.720  25.985  26.708  1.00  0.00     0.202 C 
ENDROOT
BRANCH   1   2
ATOM      2  O   UNL A   1      31.031  27.113  27.256  1.00  0.00    -0.374 OA
BRANCH   2   3
ATOM      3  C   UNL A   1      31.719  28.361  27.216  1.00  0.00     0.202 C 
BRANCH   3   4
ATOM      4  C   UNL A   1      32.976  28.525  26.327  1.00  0.00     0.261 C 
BRANCH   4   5
ATOM      5  O   UNL A   1      33.451  29.864  26.024  1.00  0.00    -0.460 OA
BRANCH   5   6
ATOM      6  C   UNL A   1      33.568  30.809  27.021  1.00  0.00     0.338 C 
ATOM      7  O   UNL A   1      32.691  31.616  27.277  1.00  0.00    -0.246 OA
BRANCH   6   8
ATOM      8  C   UNL A   1      34.899  30.864  27.674  1.00  0.00     0.060 A 
ATOM      9  C   UNL A   1      35.375  29.650  28.094  1.00  0.00     0.016 A 
ATOM     10  C   UNL A   1      35.707  31.967  27.878  1.00  0.00     0.016 A 
ATOM     11  C   UNL A   1      36.338  29.501  29.036  1.00  0.00     0.010 A 
ATOM     12  C   UNL A   1      36.921  31.784  28.570  1.00  0.00     0.010 A 
ATOM     13  C   UNL A   1      37.221  30.539  29.166  1.00  0.00    -0.014 A 
BRANCH  13  14
ATOM     14  C   UNL A   1      38.416  30.222  29.959  1.00  0.00     0.031 A 
ATOM     15  C   UNL A   1      39.490  29.449  29.291  1.00  0.00     0.074 A 
ATOM     16  C   UNL A   1      38.587  30.789  31.175  1.00  0.00     0.049 A 
ATOM     17  N   UNL A   1      40.506  28.835  29.816  1.00  0.00    -0.248 NA
ATOM     18  C   UNL A   1      39.405  29.344  27.823  1.00  0.00     0.031 C 
ATOM     19  C   UNL A   1      37.681  31.768  31.804  1.00  0.00     0.029 A 
ATOM     20  N   UNL A   1      39.602  30.676  32.085  1.00  0.00    -0.354 N 
ATOM     21  C   UNL A   1      41.119  28.178  28.763  1.00  0.00     0.074 A 
ATOM     22  C   UNL A   1      40.398  28.511  27.557  1.00  0.00     0.031 C 
ATOM     23  C   UNL A   1      38.208  32.195  32.958  1.00  0.00     0.029 A 
ATOM     24  C   UNL A   1      39.386  31.398  33.237  1.00  0.00     0.049 A 
ATOM     25  H   UNL A   1      40.407  30.131  31.931  1.00  0.00     0.167 HD
ATOM     26  C   UNL A   1      42.164  27.329  28.848  1.00  0.00     0.037 A 
ATOM     27  C   UNL A   1      40.019  31.333  34.421  1.00  0.00     0.037 A 
ATOM     28  C   UNL A   1      42.842  27.086  30.092  1.00  0.00     0.049 A 
ATOM     29  C   UNL A   1      41.121  30.316  34.520  1.00  0.00     0.074 A 
ATOM     30  C   UNL A   1      43.861  26.199  30.373  1.00  0.00     0.029 A 
ATOM     31  N   UNL A   1      42.557  27.766  31.273  1.00  0.00    -0.354 N 
ATOM     32  N   UNL A   1      41.612  29.543  33.577  1.00  0.00    -0.248 NA
ATOM     33  C   UNL A   1      41.722  30.116  35.840  1.00  0.00     0.031 C 
ATOM     34  C   UNL A   1      44.156  26.311  31.737  1.00  0.00     0.029 A 
ATOM     35  C   UNL A   1      43.364  27.308  32.295  1.00  0.00     0.049 A 
ATOM     36  H   UNL A   1      41.877  28.473  31.367  1.00  0.00     0.167 HD
ATOM     37  C   UNL A   1      42.584  28.768  34.183  1.00  0.00     0.074 A 
ATOM     38  C   UNL A   1      42.628  29.186  35.574  1.00  0.00     0.031 C 
ATOM     39  C   UNL A   1      43.360  27.789  33.656  1.00  0.00     0.037 A 
BRANCH  26  40
ATOM     40  C   UNL A   1      42.495  26.538  27.621  1.00  0.00     0.064 A 
ATOM     41  C   UNL A   1      41.870  25.321  27.312  1.00  0.00     0.173 A 
ATOM     42  C   UNL A   1      43.534  26.972  26.783  1.00  0.00     0.173 A 
ATOM     43  F   UNL A   1      40.904  24.836  28.108  1.00  0.00    -0.203 F 
ATOM     44  C   UNL A   1      42.296  24.553  26.230  1.00  0.00     0.198 A 
ATOM     45  C   UNL A   1      43.936  26.216  25.685  1.00  0.00     0.198 A 
ATOM     46  F   UNL A   1      44.183  28.115  27.046  1.00  0.00    -0.203 F 
ATOM     47  F   UNL A   1      41.738  23.355  26.000  1.00  0.00    -0.200 F 
ATOM     48  C   UNL A   1      43.325  25.002  25.416  1.00  0.00     0.200 A 
ATOM     49  F   UNL A   1      44.936  26.651  24.905  1.00  0.00    -0.200 F 
ATOM     50  F   UNL A   1      43.745  24.254  24.387  1.00  0.00    -0.200 F 
ENDBRANCH  26  40
BRANCH  27  51
ATOM     51  C   UNL A   1      39.548  32.121  35.596  1.00  0.00     0.064 A 
ATOM     52  C   UNL A   1      38.594  31.608  36.485  1.00  0.00     0.173 A 
ATOM     53  C   UNL A   1      40.025  33.420  35.852  1.00  0.00     0.173 A 
ATOM     54  F   UNL A   1      38.086  30.382  36.285  1.00  0.00    -0.203 F 
ATOM     55  C   UNL A   1      38.125  32.362  37.563  1.00  0.00     0.198 A 
ATOM     56  C   UNL A   1      39.585  34.158  36.950  1.00  0.00     0.198 A 
ATOM     57  F   UNL A   1      40.935  33.978  35.038  1.00  0.00    -0.203 F 
ATOM     58  F   UNL A   1      37.173  31.862  38.363  1.00  0.00    -0.200 F 
ATOM     59  C   UNL A   1      38.626  33.633  37.797  1.00  0.00     0.200 A 
ATOM     60  F   UNL A   1      40.089  35.379  37.180  1.00  0.00    -0.200 F 
ATOM     61  F   UNL A   1      38.175  34.355  38.833  1.00  0.00    -0.200 F 
ENDBRANCH  27  51
BRANCH  39  62
ATOM     62  C   UNL A   1      44.339  27.150  34.586  1.00  0.00     0.064 A 
ATOM     63  C   UNL A   1      44.029  25.972  35.276  1.00  0.00     0.173 A 
ATOM     64  C   UNL A   1      45.625  27.690  34.724  1.00  0.00     0.173 A 
ATOM     65  F   UNL A   1      42.802  25.437  35.186  1.00  0.00    -0.203 F 
ATOM     66  C   UNL A   1      44.977  25.358  36.086  1.00  0.00     0.198 A 
ATOM     67  C   UNL A   1      46.579  27.056  35.507  1.00  0.00     0.198 A 
ATOM     68  F   UNL A   1      45.959  28.816  34.074  1.00  0.00    -0.203 F 
ATOM     69  F   UNL A   1      44.655  24.251  36.769  1.00  0.00    -0.200 F 
ATOM     70  C   UNL A   1      46.254  25.893  36.190  1.00  0.00     0.200 A 
ATOM     71  F   UNL A   1      47.816  27.563  35.592  1.00  0.00    -0.200 F 
ATOM     72  F   UNL A   1      47.173  25.287  36.952  1.00  0.00    -0.200 F 
ENDBRANCH  39  62
ENDBRANCH  13  14
ENDBRANCH   6   8
ENDBRANCH   5   6
ENDBRANCH   4   5
ENDBRANCH   3   4
ENDBRANCH   2   3
ENDBRANCH   1   2
BRANCH   1  73
ATOM     73  C   UNL A   1      30.722  24.983  26.197  1.00  0.00     0.261 C 
BRANCH  73  74
ATOM     74  O   UNL A   1      31.350  23.715  26.324  1.00  0.00    -0.463 OA
BRANCH  74  75
ATOM     75  C   UNL A   1      32.588  23.510  25.816  1.00  0.00     0.320 C 
ATOM     76  O   UNL A   1      33.632  23.594  26.453  1.00  0.00    -0.251 OA
BRANCH  75  77
ATOM     77  C   UNL A   1      32.501  23.254  24.311  1.00  0.00     0.137 C 
ATOM     78  C   UNL A   1      31.735  21.926  24.188  1.00  0.00     0.033 C 
ATOM     79  C   UNL A   1      33.860  23.043  23.625  1.00  0.00     0.203 C 
ATOM     80  C   UNL A   1      31.721  24.381  23.594  1.00  0.00     0.144 C 
ATOM     81  C   UNL A   1      32.453  20.797  24.923  1.00  0.00     0.063 C 
ATOM     82  N   UNL A   1      34.668  21.919  24.145  1.00  0.00    -0.343 N 
ATOM     83  C   UNL A   1      34.644  24.370  23.561  1.00  0.00     0.088 C 
ATOM     84  N   UNL A   1      32.455  25.560  23.075  1.00  0.00    -0.341 N 
ATOM     85  C   UNL A   1      33.983  20.924  24.987  1.00  0.00     0.260 C 
ATOM     86  H   UNL A   1      35.058  21.425  23.342  1.00  0.00     0.346 HD
ATOM     87  H   UNL A   1      35.353  22.355  24.763  1.00  0.00     0.346 HD
ATOM     88  C   UNL A   1      33.884  25.445  22.782  1.00  0.00     0.125 C 
BRANCH  84  89
ATOM     89  C   UNL A   1      31.636  26.513  22.417  1.00  0.00     0.227 C 
ATOM     90  O   UNL A   1      31.313  26.339  21.236  1.00  0.00    -0.275 OA
BRANCH  89  91
ATOM     91  C   UNL A   1      31.195  27.801  23.114  1.00  0.00     0.140 C 
BRANCH  91  92
ATOM     92  C   UNL A   1      29.830  28.407  22.813  1.00  0.00     0.016 A 
ATOM     93  C   UNL A   1      29.847  29.578  22.027  1.00  0.00     0.128 A 
ATOM     94  C   UNL A   1      28.569  27.987  23.251  1.00  0.00     0.047 A 
ATOM     95  F   UNL A   1      30.987  29.950  21.427  1.00  0.00    -0.207 F 
ATOM     96  C   UNL A   1      28.723  30.384  21.843  1.00  0.00     0.039 A 
ATOM     97  C   UNL A   1      27.453  28.840  23.151  1.00  0.00     0.021 A 
ATOM     98  Cl  UNL A   1      28.228  26.422  23.897  1.00  0.00    -0.084 Cl
ATOM     99  C   UNL A   1      27.534  30.052  22.474  1.00  0.00     0.005 A 
ENDBRANCH  91  92
ENDBRANCH  89  91
ENDBRANCH  84  89
ENDBRANCH  75  77
ENDBRANCH  74  75
ENDBRANCH  73  74
ENDBRANCH   1  73
TORSDOF 17
ENDMDL
MODEL 3
REMARK VINA RESULT:     -12.3      2.094      4.153
REMARK SMILES O=C(OCCOCCOC(=O)[C@]12CCC[NH2+][C@@H]1CCN(C(=O)Cc1c(F)cccc1Cl)C2)c1ccc(-c2c3nc(c(-c4c(F)c(F)c(F)c(F)c4F)c4ccc([nH]4)c(-c4c(F)c(F)c(F)c(F)c4F)c4nc(c(-c5c(F)c(F)c(F)c(F)c5F)c5ccc2[nH]5)C=C4)C=C3)cc1
REMARK SMILES IDX 7 1 6 2 5 3 4 4 3 5 2 6 1 7 33 8 34 9 95 10 35 11 94 12
REMARK SMILES IDX 36 13 37 14 38 15 88 16 39 17 93 18 87 19 89 20 40 21 92 22
REMARK SMILES IDX 86 23 85 24 41 26 73 27 53 28 72 29 54 30 57 31 71 32 90 33
REMARK SMILES IDX 55 34 56 35 70 37 91 38 58 39 42 40 43 41 51 42 44 43 45 44
REMARK SMILES IDX 49 45 52 46 46 47 47 48 50 49 48 50 74 51 75 52 83 53 76 54
REMARK SMILES IDX 77 55 81 56 84 57 78 58 79 59 82 60 80 61 59 62 60 63 68 64
REMARK SMILES IDX 61 65 62 66 66 67 69 68 63 69 64 70 67 71 65 72 8 73 9 74
REMARK SMILES IDX 10 75 11 76 12 77 13 78 17 79 32 80 14 81 16 82 18 83 20 84
REMARK SMILES IDX 15 85 19 88 21 89 22 90 23 91 24 92 25 93 30 94 26 95 27 96
REMARK SMILES IDX 29 97 31 98 28 99
REMARK H PARENT 89 25 57 36 16 86 16 87
REMARK Flexibility Score: inf
ROOT
ATOM      1  C   UNL A   1      33.312  28.501  27.273  1.00  0.00     0.202 C 
ENDROOT
BRANCH   1   2
ATOM      2  O   UNL A   1      34.349  29.420  27.626  1.00  0.00    -0.374 OA
BRANCH   2   3
ATOM      3  C   UNL A   1      34.197  30.760  27.164  1.00  0.00     0.202 C 
BRANCH   3   4
ATOM      4  C   UNL A   1      33.684  31.859  28.127  1.00  0.00     0.261 C 
BRANCH   4   5
ATOM      5  O   UNL A   1      34.644  32.588  28.935  1.00  0.00    -0.460 OA
BRANCH   5   6
ATOM      6  C   UNL A   1      35.030  32.110  30.170  1.00  0.00     0.338 C 
ATOM      7  O   UNL A   1      34.403  32.328  31.192  1.00  0.00    -0.246 OA
BRANCH   6   8
ATOM      8  C   UNL A   1      36.344  31.422  30.188  1.00  0.00     0.060 A 
ATOM      9  C   UNL A   1      37.180  31.769  29.159  1.00  0.00     0.016 A 
ATOM     10  C   UNL A   1      36.821  30.512  31.114  1.00  0.00     0.016 A 
ATOM     11  C   UNL A   1      38.226  31.014  28.748  1.00  0.00     0.010 A 
ATOM     12  C   UNL A   1      38.095  29.949  30.897  1.00  0.00     0.010 A 
ATOM     13  C   UNL A   1      38.788  30.194  29.691  1.00  0.00    -0.014 A 
BRANCH  13  14
ATOM     14  C   UNL A   1      40.089  29.632  29.308  1.00  0.00     0.031 A 
ATOM     15  C   UNL A   1      41.282  30.495  29.492  1.00  0.00     0.074 A 
ATOM     16  C   UNL A   1      40.191  28.321  28.992  1.00  0.00     0.049 A 
ATOM     17  N   UNL A   1      42.480  30.348  29.014  1.00  0.00    -0.248 NA
ATOM     18  C   UNL A   1      41.098  31.698  30.323  1.00  0.00     0.031 C 
ATOM     19  C   UNL A   1      39.091  27.339  29.029  1.00  0.00     0.029 A 
ATOM     20  N   UNL A   1      41.270  27.565  28.629  1.00  0.00    -0.354 N 
ATOM     21  C   UNL A   1      43.164  31.490  29.391  1.00  0.00     0.074 A 
ATOM     22  C   UNL A   1      42.269  32.298  30.186  1.00  0.00     0.031 C 
ATOM     23  C   UNL A   1      39.567  26.118  28.756  1.00  0.00     0.029 A 
ATOM     24  C   UNL A   1      40.952  26.255  28.352  1.00  0.00     0.049 A 
ATOM     25  H   UNL A   1      42.186  27.923  28.570  1.00  0.00     0.167 HD
ATOM     26  C   UNL A   1      44.422  31.826  29.033  1.00  0.00     0.037 A 
ATOM     27  C   UNL A   1      41.681  25.307  27.737  1.00  0.00     0.037 A 
ATOM     28  C   UNL A   1      45.253  30.938  28.267  1.00  0.00     0.049 A 
ATOM     29  C   UNL A   1      43.044  25.729  27.267  1.00  0.00     0.074 A 
ATOM     30  C   UNL A   1      46.513  31.150  27.750  1.00  0.00     0.029 A 
ATOM     31  N   UNL A   1      44.883  29.640  27.921  1.00  0.00    -0.354 N 
ATOM     32  N   UNL A   1      43.658  26.876  27.455  1.00  0.00    -0.248 NA
ATOM     33  C   UNL A   1      43.795  24.766  26.460  1.00  0.00     0.031 C 
ATOM     34  C   UNL A   1      46.885  29.995  27.051  1.00  0.00     0.029 A 
ATOM     35  C   UNL A   1      45.882  29.042  27.179  1.00  0.00     0.049 A 
ATOM     36  H   UNL A   1      44.032  29.210  28.169  1.00  0.00     0.167 HD
ATOM     37  C   UNL A   1      44.871  26.775  26.799  1.00  0.00     0.074 A 
ATOM     38  C   UNL A   1      44.913  25.439  26.228  1.00  0.00     0.031 C 
ATOM     39  C   UNL A   1      45.856  27.696  26.659  1.00  0.00     0.037 A 
BRANCH  26  40
ATOM     40  C   UNL A   1      44.863  33.222  29.342  1.00  0.00     0.064 A 
ATOM     41  C   UNL A   1      45.535  33.561  30.525  1.00  0.00     0.173 A 
ATOM     42  C   UNL A   1      44.519  34.262  28.464  1.00  0.00     0.173 A 
ATOM     43  F   UNL A   1      45.845  32.612  31.422  1.00  0.00    -0.203 F 
ATOM     44  C   UNL A   1      45.815  34.891  30.833  1.00  0.00     0.198 A 
ATOM     45  C   UNL A   1      44.826  35.587  28.760  1.00  0.00     0.198 A 
ATOM     46  F   UNL A   1      43.852  33.997  27.330  1.00  0.00    -0.203 F 
ATOM     47  F   UNL A   1      46.387  35.200  32.006  1.00  0.00    -0.200 F 
ATOM     48  C   UNL A   1      45.464  35.902  29.950  1.00  0.00     0.200 A 
ATOM     49  F   UNL A   1      44.479  36.560  27.907  1.00  0.00    -0.200 F 
ATOM     50  F   UNL A   1      45.718  37.182  30.255  1.00  0.00    -0.200 F 
ENDBRANCH  26  40
BRANCH  27  51
ATOM     51  C   UNL A   1      41.101  23.970  27.419  1.00  0.00     0.064 A 
ATOM     52  C   UNL A   1      41.599  22.800  28.006  1.00  0.00     0.173 A 
ATOM     53  C   UNL A   1      40.044  23.824  26.502  1.00  0.00     0.173 A 
ATOM     54  F   UNL A   1      42.620  22.869  28.874  1.00  0.00    -0.203 F 
ATOM     55  C   UNL A   1      41.081  21.544  27.678  1.00  0.00     0.198 A 
ATOM     56  C   UNL A   1      39.501  22.575  26.203  1.00  0.00     0.198 A 
ATOM     57  F   UNL A   1      39.521  24.902  25.896  1.00  0.00    -0.203 F 
ATOM     58  F   UNL A   1      41.616  20.440  28.217  1.00  0.00    -0.200 F 
ATOM     59  C   UNL A   1      40.029  21.435  26.782  1.00  0.00     0.200 A 
ATOM     60  F   UNL A   1      38.471  22.480  25.351  1.00  0.00    -0.200 F 
ATOM     61  F   UNL A   1      39.532  20.229  26.469  1.00  0.00    -0.200 F 
ENDBRANCH  27  51
BRANCH  39  62
ATOM     62  C   UNL A   1      47.064  27.258  25.895  1.00  0.00     0.064 A 
ATOM     63  C   UNL A   1      47.206  27.536  24.531  1.00  0.00     0.173 A 
ATOM     64  C   UNL A   1      48.118  26.621  26.564  1.00  0.00     0.173 A 
ATOM     65  F   UNL A   1      46.210  28.126  23.853  1.00  0.00    -0.203 F 
ATOM     66  C   UNL A   1      48.366  27.179  23.854  1.00  0.00     0.198 A 
ATOM     67  C   UNL A   1      49.289  26.296  25.892  1.00  0.00     0.198 A 
ATOM     68  F   UNL A   1      48.020  26.343  27.873  1.00  0.00    -0.203 F 
ATOM     69  F   UNL A   1      48.473  27.418  22.541  1.00  0.00    -0.200 F 
ATOM     70  C   UNL A   1      49.410  26.571  24.539  1.00  0.00     0.200 A 
ATOM     71  F   UNL A   1      50.302  25.726  26.557  1.00  0.00    -0.200 F 
ATOM     72  F   UNL A   1      50.537  26.249  23.890  1.00  0.00    -0.200 F 
ENDBRANCH  39  62
ENDBRANCH  13  14
ENDBRANCH   6   8
ENDBRANCH   5   6
ENDBRANCH   4   5
ENDBRANCH   3   4
ENDBRANCH   2   3
ENDBRANCH   1   2
BRANCH   1  73
ATOM     73  C   UNL A   1      33.783  27.612  26.154  1.00  0.00     0.261 C 
BRANCH  73  74
ATOM     74  O   UNL A   1      33.320  26.309  26.476  1.00  0.00    -0.463 OA
BRANCH  74  75
ATOM     75  C   UNL A   1      33.633  25.257  25.683  1.00  0.00     0.320 C 
ATOM     76  O   UNL A   1      34.774  24.898  25.410  1.00  0.00    -0.251 OA
BRANCH  75  77
ATOM     77  C   UNL A   1      32.361  24.641  25.101  1.00  0.00     0.137 C 
ATOM     78  C   UNL A   1      31.654  24.001  26.309  1.00  0.00     0.033 C 
ATOM     79  C   UNL A   1      32.609  23.512  24.088  1.00  0.00     0.203 C 
ATOM     80  C   UNL A   1      31.452  25.722  24.471  1.00  0.00     0.144 C 
ATOM     81  C   UNL A   1      32.541  22.958  26.985  1.00  0.00     0.063 C 
ATOM     82  N   UNL A   1      33.379  22.358  24.596  1.00  0.00    -0.343 N 
ATOM     83  C   UNL A   1      33.177  24.084  22.773  1.00  0.00     0.088 C 
ATOM     84  N   UNL A   1      31.613  26.066  23.038  1.00  0.00    -0.341 N 
ATOM     85  C   UNL A   1      33.523  22.228  26.056  1.00  0.00     0.260 C 
ATOM     86  H   UNL A   1      32.921  21.512  24.258  1.00  0.00     0.346 HD
ATOM     87  H   UNL A   1      34.328  22.506  24.254  1.00  0.00     0.346 HD
ATOM     88  C   UNL A   1      32.226  25.095  22.131  1.00  0.00     0.125 C 
BRANCH  84  89
ATOM     89  C   UNL A   1      30.709  27.052  22.570  1.00  0.00     0.227 C 
ATOM     90  O   UNL A   1      30.940  27.651  21.513  1.00  0.00    -0.275 OA
BRANCH  89  91
ATOM     91  C   UNL A   1      29.475  27.450  23.381  1.00  0.00     0.140 C 
BRANCH  91  92
ATOM     92  C   UNL A   1      29.074  28.915  23.498  1.00  0.00     0.016 A 
ATOM     93  C   UNL A   1      27.746  29.212  23.124  1.00  0.00     0.128 A 
ATOM     94  C   UNL A   1      29.856  30.011  23.878  1.00  0.00     0.047 A 
ATOM     95  F   UNL A   1      26.883  28.207  22.912  1.00  0.00    -0.207 F 
ATOM     96  C   UNL A   1      27.279  30.516  22.954  1.00  0.00     0.039 A 
ATOM     97  C   UNL A   1      29.425  31.326  23.619  1.00  0.00     0.021 A 
ATOM     98  Cl  UNL A   1      31.362  29.894  24.716  1.00  0.00    -0.084 Cl
ATOM     99  C   UNL A   1      28.149  31.581  23.130  1.00  0.00     0.005 A 
ENDBRANCH  91  92
ENDBRANCH  89  91
ENDBRANCH  84  89
ENDBRANCH  75  77
ENDBRANCH  74  75
ENDBRANCH  73  74
ENDBRANCH   1  73
TORSDOF 17
ENDMDL
