MODEL 1
REMARK VINA RESULT:     -10.8      0.000      0.000
REMARK SMILES O=C(Cc1ccn(-c2ccccc2F)c1)OCCOCCOC(=O)c1ccc(-c2c3nc(c(-c4c(F)c(F)c(F)c(F)c4F)c4ccc([nH]4)c(-c4c(F)c(F)c(F)c(F)c4F)c4nc(c(-c5c(F)c(F)c(F)c(F)c5F)c5ccc2[nH]5)C=C4)C=C3)cc1
REMARK SMILES IDX 19 1 18 2 17 3 16 4 2 5 1 6 3 7 4 8 5 9 15 10 6 11 7 12 8 13
REMARK SMILES IDX 9 14 13 15 10 16 12 17 14 18 11 19 20 20 21 21 22 22 23 23
REMARK SMILES IDX 24 24 25 25 26 26 87 27 27 28 86 29 28 30 29 31 30 32 80 33
REMARK SMILES IDX 31 34 85 35 79 36 81 37 32 38 84 39 78 40 77 41 33 43 65 44
REMARK SMILES IDX 45 45 64 46 46 47 49 48 63 49 82 50 47 51 48 52 62 54 83 55
REMARK SMILES IDX 50 56 34 57 35 58 43 59 36 60 37 61 41 62 44 63 38 64 39 65
REMARK SMILES IDX 42 66 40 67 66 68 67 69 75 70 68 71 69 72 73 73 76 74 70 75
REMARK SMILES IDX 71 76 74 77 72 78 51 79 52 80 60 81 53 82 54 83 58 84 61 85
REMARK SMILES IDX 55 86 56 87 59 88 57 89
REMARK H PARENT 81 42 49 53
REMARK Flexibility Score: inf
ROOT
ATOM      1  O   UNL A   1      34.155  34.678  29.507  1.00  0.00    -0.374 OA
ENDROOT
BRANCH   1   2
ATOM      2  C   UNL A   1      33.641  35.876  28.933  1.00  0.00     0.202 C 
BRANCH   2   3
ATOM      3  C   UNL A   1      33.221  37.017  29.861  1.00  0.00     0.261 C 
BRANCH   3   4
ATOM      4  O   UNL A   1      32.363  36.651  30.943  1.00  0.00    -0.463 OA
BRANCH   4   5
ATOM      5  C   UNL A   1      32.752  36.766  32.239  1.00  0.00     0.310 C 
ATOM      6  O   UNL A   1      31.920  37.084  33.088  1.00  0.00    -0.252 OA
BRANCH   5   7
ATOM      7  C   UNL A   1      34.225  36.634  32.590  1.00  0.00     0.159 C 
BRANCH   7   8
ATOM      8  C   UNL A   1      34.621  35.276  33.038  1.00  0.00    -0.019 A 
ATOM      9  C   UNL A   1      33.839  34.107  32.921  1.00  0.00     0.024 A 
ATOM     10  C   UNL A   1      35.784  34.900  33.691  1.00  0.00     0.095 A 
ATOM     11  C   UNL A   1      34.628  33.054  33.321  1.00  0.00     0.091 A 
ATOM     12  N   UNL A   1      35.894  33.529  33.602  1.00  0.00    -0.321 N 
BRANCH  12  13
ATOM     13  C   UNL A   1      37.091  32.765  33.620  1.00  0.00     0.081 A 
ATOM     14  C   UNL A   1      38.250  33.350  34.156  1.00  0.00     0.030 A 
ATOM     15  C   UNL A   1      37.127  31.420  33.243  1.00  0.00     0.147 A 
ATOM     16  C   UNL A   1      39.411  32.595  34.324  1.00  0.00     0.002 A 
ATOM     17  C   UNL A   1      38.296  30.673  33.389  1.00  0.00     0.041 A 
ATOM     18  F   UNL A   1      36.064  30.802  32.709  1.00  0.00    -0.205 F 
ATOM     19  C   UNL A   1      39.437  31.257  33.939  1.00  0.00     0.003 A 
ENDBRANCH  12  13
ENDBRANCH   7   8
ENDBRANCH   5   7
ENDBRANCH   4   5
ENDBRANCH   3   4
ENDBRANCH   2   3
ENDBRANCH   1   2
BRANCH   1  20
ATOM     20  C   UNL A   1      35.435  34.202  29.080  1.00  0.00     0.202 C 
BRANCH  20  21
ATOM     21  C   UNL A   1      35.942  32.946  29.758  1.00  0.00     0.261 C 
BRANCH  21  22
ATOM     22  O   UNL A   1      34.906  31.981  29.822  1.00  0.00    -0.460 OA
BRANCH  22  23
ATOM     23  C   UNL A   1      34.748  31.283  28.685  1.00  0.00     0.338 C 
ATOM     24  O   UNL A   1      33.827  31.356  27.878  1.00  0.00    -0.246 OA
BRANCH  23  25
ATOM     25  C   UNL A   1      35.811  30.288  28.597  1.00  0.00     0.060 A 
ATOM     26  C   UNL A   1      36.150  29.661  29.798  1.00  0.00     0.016 A 
ATOM     27  C   UNL A   1      36.653  30.292  27.476  1.00  0.00     0.016 A 
ATOM     28  C   UNL A   1      37.450  29.264  29.969  1.00  0.00     0.010 A 
ATOM     29  C   UNL A   1      37.964  29.935  27.660  1.00  0.00     0.010 A 
ATOM     30  C   UNL A   1      38.356  29.499  28.930  1.00  0.00    -0.014 A 
BRANCH  30  31
ATOM     31  C   UNL A   1      39.768  29.255  29.196  1.00  0.00     0.031 A 
ATOM     32  C   UNL A   1      40.461  30.501  29.688  1.00  0.00     0.074 A 
ATOM     33  C   UNL A   1      40.194  27.989  28.924  1.00  0.00     0.049 A 
ATOM     34  N   UNL A   1      41.719  30.803  29.676  1.00  0.00    -0.248 NA
ATOM     35  C   UNL A   1      39.625  31.614  30.221  1.00  0.00     0.031 C 
ATOM     36  C   UNL A   1      39.315  26.907  28.437  1.00  0.00     0.029 A 
ATOM     37  N   UNL A   1      41.414  27.355  28.979  1.00  0.00    -0.354 N 
ATOM     38  C   UNL A   1      41.842  32.014  30.367  1.00  0.00     0.074 A 
ATOM     39  C   UNL A   1      40.524  32.532  30.563  1.00  0.00     0.031 C 
ATOM     40  C   UNL A   1      40.028  25.796  28.176  1.00  0.00     0.029 A 
ATOM     41  C   UNL A   1      41.425  26.030  28.483  1.00  0.00     0.049 A 
ATOM     42  H   UNL A   1      42.220  27.792  29.339  1.00  0.00     0.167 HD
ATOM     43  C   UNL A   1      43.017  32.457  30.880  1.00  0.00     0.037 A 
ATOM     44  C   UNL A   1      42.492  25.194  28.293  1.00  0.00     0.037 A 
ATOM     45  C   UNL A   1      44.103  31.616  30.504  1.00  0.00     0.049 A 
ATOM     46  C   UNL A   1      43.653  25.904  28.872  1.00  0.00     0.074 A 
ATOM     47  C   UNL A   1      44.781  31.445  29.325  1.00  0.00     0.029 A 
ATOM     48  N   UNL A   1      44.399  30.561  31.332  1.00  0.00    -0.354 N 
ATOM     49  N   UNL A   1      43.847  26.100  30.144  1.00  0.00    -0.248 NA
ATOM     50  C   UNL A   1      44.617  26.543  27.967  1.00  0.00     0.031 C 
ATOM     51  C   UNL A   1      45.217  30.099  29.343  1.00  0.00     0.029 A 
ATOM     52  C   UNL A   1      44.829  29.511  30.550  1.00  0.00     0.049 A 
ATOM     53  H   UNL A   1      44.318  30.555  32.313  1.00  0.00     0.167 HD
ATOM     54  C   UNL A   1      44.754  27.139  30.162  1.00  0.00     0.074 A 
ATOM     55  C   UNL A   1      45.380  27.163  28.861  1.00  0.00     0.031 C 
ATOM     56  C   UNL A   1      44.592  28.167  31.032  1.00  0.00     0.037 A 
BRANCH  43  57
ATOM     57  C   UNL A   1      43.230  33.532  31.892  1.00  0.00     0.064 A 
ATOM     58  C   UNL A   1      43.477  34.872  31.551  1.00  0.00     0.173 A 
ATOM     59  C   UNL A   1      42.901  33.272  33.236  1.00  0.00     0.173 A 
ATOM     60  F   UNL A   1      43.730  35.231  30.284  1.00  0.00    -0.203 F 
ATOM     61  C   UNL A   1      43.376  35.893  32.495  1.00  0.00     0.198 A 
ATOM     62  C   UNL A   1      42.756  34.298  34.166  1.00  0.00     0.198 A 
ATOM     63  F   UNL A   1      42.661  32.018  33.650  1.00  0.00    -0.203 F 
ATOM     64  F   UNL A   1      43.596  37.162  32.125  1.00  0.00    -0.200 F 
ATOM     65  C   UNL A   1      42.986  35.610  33.792  1.00  0.00     0.200 A 
ATOM     66  F   UNL A   1      42.342  34.017  35.409  1.00  0.00    -0.200 F 
ATOM     67  F   UNL A   1      42.800  36.604  34.671  1.00  0.00    -0.200 F 
ENDBRANCH  43  57
BRANCH  44  68
ATOM     68  C   UNL A   1      42.744  23.872  27.597  1.00  0.00     0.064 A 
ATOM     69  C   UNL A   1      43.126  23.855  26.226  1.00  0.00     0.173 A 
ATOM     70  C   UNL A   1      42.556  22.593  28.144  1.00  0.00     0.173 A 
ATOM     71  F   UNL A   1      43.475  24.977  25.583  1.00  0.00    -0.203 F 
ATOM     72  C   UNL A   1      43.161  22.695  25.448  1.00  0.00     0.198 A 
ATOM     73  C   UNL A   1      42.622  21.421  27.370  1.00  0.00     0.198 A 
ATOM     74  F   UNL A   1      42.322  22.412  29.444  1.00  0.00    -0.203 F 
ATOM     75  F   UNL A   1      43.439  22.782  24.138  1.00  0.00    -0.200 F 
ATOM     76  C   UNL A   1      42.888  21.474  26.016  1.00  0.00     0.200 A 
ATOM     77  F   UNL A   1      42.408  20.232  27.951  1.00  0.00    -0.200 F 
ATOM     78  F   UNL A   1      42.895  20.362  25.272  1.00  0.00    -0.200 F 
ENDBRANCH  44  68
BRANCH  56  79
ATOM     79  C   UNL A   1      43.760  27.800  32.241  1.00  0.00     0.064 A 
ATOM     80  C   UNL A   1      42.412  28.164  32.382  1.00  0.00     0.173 A 
ATOM     81  C   UNL A   1      44.283  26.952  33.225  1.00  0.00     0.173 A 
ATOM     82  F   UNL A   1      41.833  28.968  31.492  1.00  0.00    -0.203 F 
ATOM     83  C   UNL A   1      41.624  27.718  33.441  1.00  0.00     0.198 A 
ATOM     84  C   UNL A   1      43.495  26.494  34.285  1.00  0.00     0.198 A 
ATOM     85  F   UNL A   1      45.565  26.563  33.162  1.00  0.00    -0.203 F 
ATOM     86  F   UNL A   1      40.345  28.110  33.538  1.00  0.00    -0.200 F 
ATOM     87  C   UNL A   1      42.167  26.877  34.392  1.00  0.00     0.200 A 
ATOM     88  F   UNL A   1      44.027  25.684  35.211  1.00  0.00    -0.200 F 
ATOM     89  F   UNL A   1      41.415  26.445  35.415  1.00  0.00    -0.200 F 
ENDBRANCH  56  79
ENDBRANCH  30  31
ENDBRANCH  23  25
ENDBRANCH  22  23
ENDBRANCH  21  22
ENDBRANCH  20  21
ENDBRANCH   1  20
TORSDOF 16
ENDMDL
MODEL 2
REMARK VINA RESULT:     -10.4      0.548      1.741
REMARK SMILES O=C(Cc1ccn(-c2ccccc2F)c1)OCCOCCOC(=O)c1ccc(-c2c3nc(c(-c4c(F)c(F)c(F)c(F)c4F)c4ccc([nH]4)c(-c4c(F)c(F)c(F)c(F)c4F)c4nc(c(-c5c(F)c(F)c(F)c(F)c5F)c5ccc2[nH]5)C=C4)C=C3)cc1
REMARK SMILES IDX 19 1 18 2 17 3 16 4 2 5 1 6 3 7 4 8 5 9 15 10 6 11 7 12 8 13
REMARK SMILES IDX 9 14 13 15 10 16 12 17 14 18 11 19 20 20 21 21 22 22 23 23
REMARK SMILES IDX 24 24 25 25 26 26 87 27 27 28 86 29 28 30 29 31 30 32 80 33
REMARK SMILES IDX 31 34 85 35 79 36 81 37 32 38 84 39 78 40 77 41 33 43 65 44
REMARK SMILES IDX 45 45 64 46 46 47 49 48 63 49 82 50 47 51 48 52 62 54 83 55
REMARK SMILES IDX 50 56 34 57 35 58 43 59 36 60 37 61 41 62 44 63 38 64 39 65
REMARK SMILES IDX 42 66 40 67 66 68 67 69 75 70 68 71 69 72 73 73 76 74 70 75
REMARK SMILES IDX 71 76 74 77 72 78 51 79 52 80 60 81 53 82 54 83 58 84 61 85
REMARK SMILES IDX 55 86 56 87 59 88 57 89
REMARK H PARENT 81 42 49 53
REMARK Flexibility Score: inf
ROOT
ATOM      1  O   UNL A   1      34.637  35.311  28.710  1.00  0.00    -0.374 OA
ENDROOT
BRANCH   1   2
ATOM      2  C   UNL A   1      33.423  36.053  28.787  1.00  0.00     0.202 C 
BRANCH   2   3
ATOM      3  C   UNL A   1      32.610  36.003  30.081  1.00  0.00     0.261 C 
BRANCH   3   4
ATOM      4  O   UNL A   1      32.838  37.074  30.998  1.00  0.00    -0.463 OA
BRANCH   4   5
ATOM      5  C   UNL A   1      32.909  36.870  32.338  1.00  0.00     0.310 C 
ATOM      6  O   UNL A   1      31.874  36.896  33.004  1.00  0.00    -0.252 OA
BRANCH   5   7
ATOM      7  C   UNL A   1      34.270  36.753  33.004  1.00  0.00     0.159 C 
BRANCH   7   8
ATOM      8  C   UNL A   1      34.651  35.365  33.360  1.00  0.00    -0.019 A 
ATOM      9  C   UNL A   1      33.900  34.203  33.080  1.00  0.00     0.024 A 
ATOM     10  C   UNL A   1      35.766  34.942  34.068  1.00  0.00     0.095 A 
ATOM     11  C   UNL A   1      34.671  33.126  33.447  1.00  0.00     0.091 A 
ATOM     12  N   UNL A   1      35.904  33.586  33.867  1.00  0.00    -0.321 N 
BRANCH  12  13
ATOM     13  C   UNL A   1      37.108  32.834  33.913  1.00  0.00     0.081 A 
ATOM     14  C   UNL A   1      38.239  33.417  34.506  1.00  0.00     0.030 A 
ATOM     15  C   UNL A   1      37.173  31.498  33.507  1.00  0.00     0.147 A 
ATOM     16  C   UNL A   1      39.402  32.670  34.700  1.00  0.00     0.002 A 
ATOM     17  C   UNL A   1      38.344  30.759  33.680  1.00  0.00     0.041 A 
ATOM     18  F   UNL A   1      36.138  30.882  32.919  1.00  0.00    -0.205 F 
ATOM     19  C   UNL A   1      39.457  31.342  34.285  1.00  0.00     0.003 A 
ENDBRANCH  12  13
ENDBRANCH   7   8
ENDBRANCH   5   7
ENDBRANCH   4   5
ENDBRANCH   3   4
ENDBRANCH   2   3
ENDBRANCH   1   2
BRANCH   1  20
ATOM     20  C   UNL A   1      34.704  34.187  27.827  1.00  0.00     0.202 C 
BRANCH  20  21
ATOM     21  C   UNL A   1      33.567  33.191  27.926  1.00  0.00     0.261 C 
BRANCH  21  22
ATOM     22  O   UNL A   1      34.084  31.875  28.016  1.00  0.00    -0.460 OA
BRANCH  22  23
ATOM     23  C   UNL A   1      34.742  31.632  29.163  1.00  0.00     0.338 C 
ATOM     24  O   UNL A   1      34.609  32.198  30.243  1.00  0.00    -0.246 OA
BRANCH  23  25
ATOM     25  C   UNL A   1      35.776  30.636  28.905  1.00  0.00     0.060 A 
ATOM     26  C   UNL A   1      36.109  29.820  29.989  1.00  0.00     0.016 A 
ATOM     27  C   UNL A   1      36.608  30.794  27.788  1.00  0.00     0.016 A 
ATOM     28  C   UNL A   1      37.400  29.368  30.078  1.00  0.00     0.010 A 
ATOM     29  C   UNL A   1      37.910  30.378  27.896  1.00  0.00     0.010 A 
ATOM     30  C   UNL A   1      38.302  29.739  29.077  1.00  0.00    -0.014 A 
BRANCH  30  31
ATOM     31  C   UNL A   1      39.709  29.420  29.282  1.00  0.00     0.031 A 
ATOM     32  C   UNL A   1      40.459  30.586  29.876  1.00  0.00     0.074 A 
ATOM     33  C   UNL A   1      40.081  28.173  28.877  1.00  0.00     0.049 A 
ATOM     34  N   UNL A   1      41.727  30.843  29.862  1.00  0.00    -0.248 NA
ATOM     35  C   UNL A   1      39.677  31.670  30.537  1.00  0.00     0.031 C 
ATOM     36  C   UNL A   1      39.152  27.176  28.308  1.00  0.00     0.029 A 
ATOM     37  N   UNL A   1      41.278  27.495  28.839  1.00  0.00    -0.354 N 
ATOM     38  C   UNL A   1      41.910  31.975  30.665  1.00  0.00     0.074 A 
ATOM     39  C   UNL A   1      40.617  32.518  30.944  1.00  0.00     0.031 C 
ATOM     40  C   UNL A   1      39.817  26.072  27.922  1.00  0.00     0.029 A 
ATOM     41  C   UNL A   1      41.228  26.225  28.215  1.00  0.00     0.049 A 
ATOM     42  H   UNL A   1      42.107  27.865  29.219  1.00  0.00     0.167 HD
ATOM     43  C   UNL A   1      43.111  32.324  31.190  1.00  0.00     0.037 A 
ATOM     44  C   UNL A   1      42.259  25.375  27.918  1.00  0.00     0.037 A 
ATOM     45  C   UNL A   1      44.157  31.486  30.706  1.00  0.00     0.049 A 
ATOM     46  C   UNL A   1      43.458  25.982  28.534  1.00  0.00     0.074 A 
ATOM     47  C   UNL A   1      44.802  31.409  29.499  1.00  0.00     0.029 A 
ATOM     48  N   UNL A   1      44.430  30.344  31.419  1.00  0.00    -0.354 N 
ATOM     49  N   UNL A   1      43.686  26.045  29.813  1.00  0.00    -0.248 NA
ATOM     50  C   UNL A   1      44.425  26.673  27.672  1.00  0.00     0.031 C 
ATOM     51  C   UNL A   1      45.188  30.053  29.374  1.00  0.00     0.029 A 
ATOM     52  C   UNL A   1      44.804  29.362  30.527  1.00  0.00     0.049 A 
ATOM     53  H   UNL A   1      44.371  30.245  32.396  1.00  0.00     0.167 HD
ATOM     54  C   UNL A   1      44.632  27.044  29.911  1.00  0.00     0.074 A 
ATOM     55  C   UNL A   1      45.229  27.175  28.603  1.00  0.00     0.031 C 
ATOM     56  C   UNL A   1      44.527  27.987  30.881  1.00  0.00     0.037 A 
BRANCH  43  57
ATOM     57  C   UNL A   1      43.386  33.285  32.296  1.00  0.00     0.064 A 
ATOM     58  C   UNL A   1      43.688  34.640  32.081  1.00  0.00     0.173 A 
ATOM     59  C   UNL A   1      43.066  32.910  33.615  1.00  0.00     0.173 A 
ATOM     60  F   UNL A   1      43.938  35.109  30.850  1.00  0.00    -0.203 F 
ATOM     61  C   UNL A   1      43.646  35.568  33.122  1.00  0.00     0.198 A 
ATOM     62  C   UNL A   1      42.980  33.846  34.642  1.00  0.00     0.198 A 
ATOM     63  F   UNL A   1      42.777  31.633  33.911  1.00  0.00    -0.203 F 
ATOM     64  F   UNL A   1      43.916  36.856  32.872  1.00  0.00    -0.200 F 
ATOM     65  C   UNL A   1      43.262  35.177  34.392  1.00  0.00     0.200 A 
ATOM     66  F   UNL A   1      42.572  33.463  35.860  1.00  0.00    -0.200 F 
ATOM     67  F   UNL A   1      43.133  36.087  35.366  1.00  0.00    -0.200 F 
ENDBRANCH  43  57
BRANCH  44  68
ATOM     68  C   UNL A   1      42.445  24.120  27.089  1.00  0.00     0.064 A 
ATOM     69  C   UNL A   1      42.220  22.843  27.675  1.00  0.00     0.173 A 
ATOM     70  C   UNL A   1      42.917  24.057  25.768  1.00  0.00     0.173 A 
ATOM     71  F   UNL A   1      41.645  22.718  28.880  1.00  0.00    -0.203 F 
ATOM     72  C   UNL A   1      42.578  21.638  27.066  1.00  0.00     0.198 A 
ATOM     73  C   UNL A   1      43.249  22.843  25.140  1.00  0.00     0.198 A 
ATOM     74  F   UNL A   1      43.062  25.150  25.020  1.00  0.00    -0.203 F 
ATOM     75  F   UNL A   1      42.418  20.484  27.730  1.00  0.00    -0.200 F 
ATOM     76  C   UNL A   1      43.114  21.638  25.800  1.00  0.00     0.200 A 
ATOM     77  F   UNL A   1      43.718  22.855  23.885  1.00  0.00    -0.200 F 
ATOM     78  F   UNL A   1      43.482  20.490  25.219  1.00  0.00    -0.200 F 
ENDBRANCH  44  68
BRANCH  56  79
ATOM     79  C   UNL A   1      43.708  27.532  32.068  1.00  0.00     0.064 A 
ATOM     80  C   UNL A   1      44.216  26.690  33.070  1.00  0.00     0.173 A 
ATOM     81  C   UNL A   1      42.426  28.052  32.283  1.00  0.00     0.173 A 
ATOM     82  F   UNL A   1      45.427  26.150  32.949  1.00  0.00    -0.203 F 
ATOM     83  C   UNL A   1      43.493  26.376  34.220  1.00  0.00     0.198 A 
ATOM     84  C   UNL A   1      41.699  27.748  33.438  1.00  0.00     0.198 A 
ATOM     85  F   UNL A   1      41.870  28.861  31.368  1.00  0.00    -0.203 F 
ATOM     86  F   UNL A   1      44.018  25.552  35.140  1.00  0.00    -0.200 F 
ATOM     87  C   UNL A   1      42.233  26.911  34.406  1.00  0.00     0.200 A 
ATOM     88  F   UNL A   1      40.474  28.263  33.611  1.00  0.00    -0.200 F 
ATOM     89  F   UNL A   1      41.532  26.612  35.508  1.00  0.00    -0.200 F 
ENDBRANCH  56  79
ENDBRANCH  30  31
ENDBRANCH  23  25
ENDBRANCH  22  23
ENDBRANCH  21  22
ENDBRANCH  20  21
ENDBRANCH   1  20
TORSDOF 16
ENDMDL
MODEL 3
REMARK VINA RESULT:      -9.9      3.204      5.887
REMARK SMILES O=C(Cc1ccn(-c2ccccc2F)c1)OCCOCCOC(=O)c1ccc(-c2c3nc(c(-c4c(F)c(F)c(F)c(F)c4F)c4ccc([nH]4)c(-c4c(F)c(F)c(F)c(F)c4F)c4nc(c(-c5c(F)c(F)c(F)c(F)c5F)c5ccc2[nH]5)C=C4)C=C3)cc1
REMARK SMILES IDX 19 1 18 2 17 3 16 4 2 5 1 6 3 7 4 8 5 9 15 10 6 11 7 12 8 13
REMARK SMILES IDX 9 14 13 15 10 16 12 17 14 18 11 19 20 20 21 21 22 22 23 23
REMARK SMILES IDX 24 24 25 25 26 26 87 27 27 28 86 29 28 30 29 31 30 32 80 33
REMARK SMILES IDX 31 34 85 35 79 36 81 37 32 38 84 39 78 40 77 41 33 43 65 44
REMARK SMILES IDX 45 45 64 46 46 47 49 48 63 49 82 50 47 51 48 52 62 54 83 55
REMARK SMILES IDX 50 56 34 57 35 58 43 59 36 60 37 61 41 62 44 63 38 64 39 65
REMARK SMILES IDX 42 66 40 67 66 68 67 69 75 70 68 71 69 72 73 73 76 74 70 75
REMARK SMILES IDX 71 76 74 77 72 78 51 79 52 80 60 81 53 82 54 83 58 84 61 85
REMARK SMILES IDX 55 86 56 87 59 88 57 89
REMARK H PARENT 81 42 49 53
REMARK Flexibility Score: inf
ROOT
ATOM      1  O   UNL A   1      32.610  29.723  24.992  1.00  0.00    -0.374 OA
ENDROOT
BRANCH   1   2
ATOM      2  C   UNL A   1      31.865  28.985  24.028  1.00  0.00     0.202 C 
BRANCH   2   3
ATOM      3  C   UNL A   1      31.858  27.458  24.113  1.00  0.00     0.261 C 
BRANCH   3   4
ATOM      4  O   UNL A   1      30.668  26.872  24.642  1.00  0.00    -0.463 OA
BRANCH   4   5
ATOM      5  C   UNL A   1      30.695  26.011  25.691  1.00  0.00     0.310 C 
ATOM      6  O   UNL A   1      30.709  26.461  26.837  1.00  0.00    -0.252 OA
BRANCH   5   7
ATOM      7  C   UNL A   1      30.846  24.521  25.430  1.00  0.00     0.159 C 
BRANCH   7   8
ATOM      8  C   UNL A   1      32.032  23.911  26.078  1.00  0.00    -0.019 A 
ATOM      9  C   UNL A   1      32.026  23.150  27.266  1.00  0.00     0.024 A 
ATOM     10  C   UNL A   1      33.360  24.005  25.687  1.00  0.00     0.095 A 
ATOM     11  C   UNL A   1      33.297  22.657  27.436  1.00  0.00     0.091 A 
ATOM     12  N   UNL A   1      34.064  23.022  26.348  1.00  0.00    -0.321 N 
BRANCH  12  13
ATOM     13  C   UNL A   1      35.256  22.385  25.911  1.00  0.00     0.081 A 
ATOM     14  C   UNL A   1      35.192  21.035  25.529  1.00  0.00     0.030 A 
ATOM     15  C   UNL A   1      36.454  23.080  25.728  1.00  0.00     0.147 A 
ATOM     16  C   UNL A   1      36.301  20.405  24.962  1.00  0.00     0.002 A 
ATOM     17  C   UNL A   1      37.569  22.443  25.184  1.00  0.00     0.041 A 
ATOM     18  F   UNL A   1      36.592  24.365  26.085  1.00  0.00    -0.205 F 
ATOM     19  C   UNL A   1      37.491  21.108  24.791  1.00  0.00     0.003 A 
ENDBRANCH  12  13
ENDBRANCH   7   8
ENDBRANCH   5   7
ENDBRANCH   4   5
ENDBRANCH   3   4
ENDBRANCH   2   3
ENDBRANCH   1   2
BRANCH   1  20
ATOM     20  C   UNL A   1      32.077  29.870  26.312  1.00  0.00     0.202 C 
BRANCH  20  21
ATOM     21  C   UNL A   1      33.087  29.906  27.440  1.00  0.00     0.261 C 
BRANCH  21  22
ATOM     22  O   UNL A   1      33.841  31.104  27.376  1.00  0.00    -0.460 OA
BRANCH  22  23
ATOM     23  C   UNL A   1      34.617  31.311  28.453  1.00  0.00     0.338 C 
ATOM     24  O   UNL A   1      34.562  32.240  29.253  1.00  0.00    -0.246 OA
BRANCH  23  25
ATOM     25  C   UNL A   1      35.666  30.298  28.475  1.00  0.00     0.060 A 
ATOM     26  C   UNL A   1      36.011  29.817  29.740  1.00  0.00     0.016 A 
ATOM     27  C   UNL A   1      36.495  30.155  27.354  1.00  0.00     0.016 A 
ATOM     28  C   UNL A   1      37.309  29.426  29.945  1.00  0.00     0.010 A 
ATOM     29  C   UNL A   1      37.803  29.804  27.566  1.00  0.00     0.010 A 
ATOM     30  C   UNL A   1      38.205  29.521  28.876  1.00  0.00    -0.014 A 
BRANCH  30  31
ATOM     31  C   UNL A   1      39.617  29.291  29.154  1.00  0.00     0.031 A 
ATOM     32  C   UNL A   1      40.294  30.545  29.649  1.00  0.00     0.074 A 
ATOM     33  C   UNL A   1      40.058  28.029  28.890  1.00  0.00     0.049 A 
ATOM     34  N   UNL A   1      41.549  30.859  29.647  1.00  0.00    -0.248 NA
ATOM     35  C   UNL A   1      39.442  31.651  30.172  1.00  0.00     0.031 C 
ATOM     36  C   UNL A   1      39.194  26.936  28.399  1.00  0.00     0.029 A 
ATOM     37  N   UNL A   1      41.284  27.407  28.957  1.00  0.00    -0.354 N 
ATOM     38  C   UNL A   1      41.654  32.073  30.336  1.00  0.00     0.074 A 
ATOM     39  C   UNL A   1      40.328  32.580  30.518  1.00  0.00     0.031 C 
ATOM     40  C   UNL A   1      39.920  25.833  28.148  1.00  0.00     0.029 A 
ATOM     41  C   UNL A   1      41.312  26.080  28.465  1.00  0.00     0.049 A 
ATOM     42  H   UNL A   1      42.082  27.853  29.323  1.00  0.00     0.167 HD
ATOM     43  C   UNL A   1      42.819  32.530  30.857  1.00  0.00     0.037 A 
ATOM     44  C   UNL A   1      42.389  25.255  28.288  1.00  0.00     0.037 A 
ATOM     45  C   UNL A   1      43.917  31.699  30.494  1.00  0.00     0.049 A 
ATOM     46  C   UNL A   1      43.538  25.978  28.874  1.00  0.00     0.074 A 
ATOM     47  C   UNL A   1      44.607  31.531  29.321  1.00  0.00     0.029 A 
ATOM     48  N   UNL A   1      44.216  30.648  31.327  1.00  0.00    -0.354 N 
ATOM     49  N   UNL A   1      43.719  26.180  30.147  1.00  0.00    -0.248 NA
ATOM     50  C   UNL A   1      44.503  26.623  27.976  1.00  0.00     0.031 C 
ATOM     51  C   UNL A   1      45.056  30.189  29.347  1.00  0.00     0.029 A 
ATOM     52  C   UNL A   1      44.663  29.601  30.551  1.00  0.00     0.049 A 
ATOM     53  H   UNL A   1      44.127  30.645  32.307  1.00  0.00     0.167 HD
ATOM     54  C   UNL A   1      44.615  27.227  30.170  1.00  0.00     0.074 A 
ATOM     55  C   UNL A   1      45.252  27.254  28.874  1.00  0.00     0.031 C 
ATOM     56  C   UNL A   1      44.435  28.256  31.036  1.00  0.00     0.037 A 
BRANCH  43  57
ATOM     57  C   UNL A   1      43.013  33.610  31.868  1.00  0.00     0.064 A 
ATOM     58  C   UNL A   1      43.325  34.936  31.526  1.00  0.00     0.173 A 
ATOM     59  C   UNL A   1      42.602  33.379  33.195  1.00  0.00     0.173 A 
ATOM     60  F   UNL A   1      43.660  35.270  30.272  1.00  0.00    -0.203 F 
ATOM     61  C   UNL A   1      43.207  35.972  32.453  1.00  0.00     0.198 A 
ATOM     62  C   UNL A   1      42.441  34.421  34.104  1.00  0.00     0.198 A 
ATOM     63  F   UNL A   1      42.296  32.139  33.608  1.00  0.00    -0.203 F 
ATOM     64  F   UNL A   1      43.491  37.228  32.082  1.00  0.00    -0.200 F 
ATOM     65  C   UNL A   1      42.736  35.719  33.729  1.00  0.00     0.200 A 
ATOM     66  F   UNL A   1      41.949  34.169  35.325  1.00  0.00    -0.200 F 
ATOM     67  F   UNL A   1      42.536  36.729  34.586  1.00  0.00    -0.200 F 
ENDBRANCH  43  57
BRANCH  44  68
ATOM     68  C   UNL A   1      42.659  23.933  27.597  1.00  0.00     0.064 A 
ATOM     69  C   UNL A   1      43.050  23.915  26.229  1.00  0.00     0.173 A 
ATOM     70  C   UNL A   1      42.483  22.654  28.148  1.00  0.00     0.173 A 
ATOM     71  F   UNL A   1      43.389  25.040  25.583  1.00  0.00    -0.203 F 
ATOM     72  C   UNL A   1      43.102  22.754  25.455  1.00  0.00     0.198 A 
ATOM     73  C   UNL A   1      42.566  21.481  27.378  1.00  0.00     0.198 A 
ATOM     74  F   UNL A   1      42.244  22.475  29.447  1.00  0.00    -0.203 F 
ATOM     75  F   UNL A   1      43.387  22.839  24.146  1.00  0.00    -0.200 F 
ATOM     76  C   UNL A   1      42.840  21.532  26.026  1.00  0.00     0.200 A 
ATOM     77  F   UNL A   1      42.363  20.291  27.962  1.00  0.00    -0.200 F 
ATOM     78  F   UNL A   1      42.864  20.417  25.286  1.00  0.00    -0.200 F 
ENDBRANCH  44  68
BRANCH  56  79
ATOM     79  C   UNL A   1      43.597  27.885  32.238  1.00  0.00     0.064 A 
ATOM     80  C   UNL A   1      42.245  28.240  32.369  1.00  0.00     0.173 A 
ATOM     81  C   UNL A   1      44.117  27.041  33.227  1.00  0.00     0.173 A 
ATOM     82  F   UNL A   1      41.668  29.039  31.474  1.00  0.00    -0.203 F 
ATOM     83  C   UNL A   1      41.452  27.789  33.422  1.00  0.00     0.198 A 
ATOM     84  C   UNL A   1      43.324  26.579  34.282  1.00  0.00     0.198 A 
ATOM     85  F   UNL A   1      45.403  26.661  33.175  1.00  0.00    -0.203 F 
ATOM     86  F   UNL A   1      40.169  28.172  33.508  1.00  0.00    -0.200 F 
ATOM     87  C   UNL A   1      41.993  26.952  34.378  1.00  0.00     0.200 A 
ATOM     88  F   UNL A   1      43.855  25.773  35.212  1.00  0.00    -0.200 F 
ATOM     89  F   UNL A   1      41.236  26.516  35.395  1.00  0.00    -0.200 F 
ENDBRANCH  56  79
ENDBRANCH  30  31
ENDBRANCH  23  25
ENDBRANCH  22  23
ENDBRANCH  21  22
ENDBRANCH  20  21
ENDBRANCH   1  20
TORSDOF 16
ENDMDL
