MODEL 1
REMARK VINA RESULT:     -11.7      0.000      0.000
REMARK SMILES C[C@@H]1CCC[C@H]1NC(=O)c1csc(/C=C/C(=O)OCCOCCOC(=O)c2ccc(-c3c4nc(c(-c5c(F)c(F)c(F)c(F)c5F)c5ccc([nH]5)c(-c5c(F)c(F)c(F)c(F)c5F)c5nc(c(-c6c(F)c(F)c(F)c(F)c6F)c6ccc3[nH]6)C=C5)C=C4)cc2)c1
REMARK SMILES IDX 20 1 19 2 18 3 16 4 17 5 15 6 14 7 13 8 10 9 11 10 90 11
REMARK SMILES IDX 12 12 8 13 7 14 9 16 6 17 1 18 2 19 3 20 4 21 5 22 21 23
REMARK SMILES IDX 22 24 23 25 24 26 25 27 26 28 27 29 28 30 89 31 29 32 88 33
REMARK SMILES IDX 30 34 31 35 32 36 82 37 33 38 87 39 81 40 83 41 34 42 86 43
REMARK SMILES IDX 80 44 79 45 35 47 67 48 47 49 66 50 48 51 51 52 65 53 84 54
REMARK SMILES IDX 49 55 50 56 64 58 85 59 52 60 36 61 37 62 45 63 38 64 39 65
REMARK SMILES IDX 43 66 46 67 40 68 41 69 44 70 42 71 68 72 69 73 77 74 70 75
REMARK SMILES IDX 71 76 75 77 78 78 72 79 73 80 76 81 74 82 53 83 54 84 62 85
REMARK SMILES IDX 55 86 56 87 60 88 63 89 57 90 58 91 61 92 59 93
REMARK H PARENT 7 15 83 46 51 57
REMARK Flexibility Score: inf
ROOT
ATOM      1  C   UNL A   1      34.700  20.990  24.793  1.00  0.00     0.202 C 
ENDROOT
BRANCH   1   2
ATOM      2  C   UNL A   1      33.581  20.877  25.829  1.00  0.00     0.261 C 
BRANCH   2   3
ATOM      3  O   UNL A   1      32.931  22.147  26.019  1.00  0.00    -0.460 OA
BRANCH   3   4
ATOM      4  C   UNL A   1      33.653  23.067  26.700  1.00  0.00     0.330 C 
ATOM      5  O   UNL A   1      34.347  22.862  27.684  1.00  0.00    -0.247 OA
BRANCH   4   6
ATOM      6  C   UNL A   1      33.585  24.406  26.085  1.00  0.00     0.095 C 
ATOM      7  C   UNL A   1      32.472  25.108  25.814  1.00  0.00     0.026 C 
BRANCH   7   8
ATOM      8  C   UNL A   1      32.515  26.415  25.231  1.00  0.00     0.028 A 
ATOM      9  C   UNL A   1      32.045  28.708  24.804  1.00  0.00     0.051 A 
ATOM     10  C   UNL A   1      33.129  28.475  23.984  1.00  0.00     0.079 A 
ATOM     11  C   UNL A   1      31.712  27.506  25.529  1.00  0.00     0.033 A 
ATOM     12  S   UNL A   1      33.625  26.847  23.982  1.00  0.00    -0.144 S 
BRANCH   9  13
ATOM     13  C   UNL A   1      31.402  30.002  25.023  1.00  0.00     0.252 C 
ATOM     14  N   UNL A   1      30.360  30.417  24.232  1.00  0.00    -0.349 N 
ATOM     15  H   UNL A   1      30.147  31.375  24.308  1.00  0.00     0.164 HD
ATOM     16  O   UNL A   1      31.774  30.748  25.926  1.00  0.00    -0.269 OA
BRANCH  14  17
ATOM     17  C   UNL A   1      29.515  29.678  23.297  1.00  0.00     0.085 C 
ATOM     18  C   UNL A   1      27.111  28.924  23.004  1.00  0.00     0.010 C 
ATOM     19  C   UNL A   1      28.035  30.035  23.506  1.00  0.00     0.008 C 
ATOM     20  C   UNL A   1      27.866  31.322  22.699  1.00  0.00     0.005 C 
ATOM     21  C   UNL A   1      28.771  31.157  21.483  1.00  0.00     0.002 C 
ATOM     22  C   UNL A   1      29.813  30.099  21.854  1.00  0.00     0.025 C 
ENDBRANCH  14  17
ENDBRANCH   9  13
ENDBRANCH   7   8
ENDBRANCH   4   6
ENDBRANCH   3   4
ENDBRANCH   2   3
ENDBRANCH   1   2
BRANCH   1  23
ATOM     23  O   UNL A   1      36.013  20.754  25.300  1.00  0.00    -0.374 OA
BRANCH  23  24
ATOM     24  C   UNL A   1      36.745  19.683  24.699  1.00  0.00     0.202 C 
BRANCH  24  25
ATOM     25  C   UNL A   1      38.247  19.677  25.008  1.00  0.00     0.261 C 
BRANCH  25  26
ATOM     26  O   UNL A   1      38.640  20.874  25.710  1.00  0.00    -0.460 OA
BRANCH  26  27
ATOM     27  C   UNL A   1      39.835  20.802  26.338  1.00  0.00     0.338 C 
ATOM     28  O   UNL A   1      40.617  19.860  26.343  1.00  0.00    -0.246 OA
BRANCH  27  29
ATOM     29  C   UNL A   1      40.185  22.114  26.916  1.00  0.00     0.060 A 
ATOM     30  C   UNL A   1      39.521  23.238  26.406  1.00  0.00     0.016 A 
ATOM     31  C   UNL A   1      41.181  22.261  27.885  1.00  0.00     0.016 A 
ATOM     32  C   UNL A   1      39.891  24.515  26.821  1.00  0.00     0.010 A 
ATOM     33  C   UNL A   1      41.554  23.545  28.296  1.00  0.00     0.010 A 
ATOM     34  C   UNL A   1      40.938  24.679  27.738  1.00  0.00    -0.014 A 
BRANCH  34  35
ATOM     35  C   UNL A   1      41.473  26.040  27.990  1.00  0.00     0.031 A 
ATOM     36  C   UNL A   1      42.846  26.389  27.487  1.00  0.00     0.074 A 
ATOM     37  C   UNL A   1      40.727  26.969  28.614  1.00  0.00     0.049 A 
ATOM     38  N   UNL A   1      43.503  27.518  27.575  1.00  0.00    -0.248 NA
ATOM     39  C   UNL A   1      43.578  25.321  26.787  1.00  0.00     0.031 C 
ATOM     40  C   UNL A   1      39.373  26.764  29.120  1.00  0.00     0.029 A 
ATOM     41  N   UNL A   1      41.011  28.275  28.927  1.00  0.00    -0.354 N 
ATOM     42  C   UNL A   1      44.719  27.299  26.941  1.00  0.00     0.074 A 
ATOM     43  C   UNL A   1      44.726  25.919  26.504  1.00  0.00     0.031 C 
ATOM     44  C   UNL A   1      38.941  27.905  29.684  1.00  0.00     0.029 A 
ATOM     45  C   UNL A   1      39.997  28.912  29.597  1.00  0.00     0.049 A 
ATOM     46  H   UNL A   1      41.860  28.714  28.691  1.00  0.00     0.167 HD
ATOM     47  C   UNL A   1      45.733  28.171  26.732  1.00  0.00     0.037 A 
ATOM     48  C   UNL A   1      39.936  30.163  30.094  1.00  0.00     0.037 A 
ATOM     49  C   UNL A   1      45.729  29.543  27.165  1.00  0.00     0.049 A 
ATOM     50  C   UNL A   1      41.105  31.095  29.903  1.00  0.00     0.074 A 
ATOM     51  C   UNL A   1      46.703  30.509  26.986  1.00  0.00     0.029 A 
ATOM     52  N   UNL A   1      44.697  30.142  27.873  1.00  0.00    -0.354 N 
ATOM     53  N   UNL A   1      42.236  30.888  29.275  1.00  0.00    -0.248 NA
ATOM     54  C   UNL A   1      40.981  32.440  30.485  1.00  0.00     0.031 C 
ATOM     55  C   UNL A   1      46.280  31.681  27.622  1.00  0.00     0.029 A 
ATOM     56  C   UNL A   1      45.022  31.459  28.157  1.00  0.00     0.049 A 
ATOM     57  H   UNL A   1      43.858  29.697  28.134  1.00  0.00     0.167 HD
ATOM     58  C   UNL A   1      42.946  32.079  29.361  1.00  0.00     0.074 A 
ATOM     59  C   UNL A   1      42.111  33.010  30.093  1.00  0.00     0.031 C 
ATOM     60  C   UNL A   1      44.176  32.376  28.878  1.00  0.00     0.037 A 
BRANCH  47  61
ATOM     61  C   UNL A   1      46.945  27.660  26.011  1.00  0.00     0.064 A 
ATOM     62  C   UNL A   1      47.049  27.719  24.614  1.00  0.00     0.173 A 
ATOM     63  C   UNL A   1      48.031  27.136  26.730  1.00  0.00     0.173 A 
ATOM     64  F   UNL A   1      46.032  28.199  23.882  1.00  0.00    -0.203 F 
ATOM     65  C   UNL A   1      48.185  27.253  23.960  1.00  0.00     0.198 A 
ATOM     66  C   UNL A   1      49.176  26.693  26.074  1.00  0.00     0.198 A 
ATOM     67  F   UNL A   1      47.983  27.060  28.068  1.00  0.00    -0.203 F 
ATOM     68  F   UNL A   1      48.246  27.281  22.621  1.00  0.00    -0.200 F 
ATOM     69  C   UNL A   1      49.250  26.746  24.690  1.00  0.00     0.200 A 
ATOM     70  F   UNL A   1      50.208  26.215  26.782  1.00  0.00    -0.200 F 
ATOM     71  F   UNL A   1      50.347  26.303  24.060  1.00  0.00    -0.200 F 
ENDBRANCH  47  61
BRANCH  48  72
ATOM     72  C   UNL A   1      38.723  30.613  30.824  1.00  0.00     0.064 A 
ATOM     73  C   UNL A   1      37.630  31.161  30.142  1.00  0.00     0.173 A 
ATOM     74  C   UNL A   1      38.643  30.523  32.222  1.00  0.00     0.173 A 
ATOM     75  F   UNL A   1      37.671  31.293  28.808  1.00  0.00    -0.203 F 
ATOM     76  C   UNL A   1      36.508  31.620  30.830  1.00  0.00     0.198 A 
ATOM     77  C   UNL A   1      37.510  30.958  32.907  1.00  0.00     0.198 A 
ATOM     78  F   UNL A   1      39.665  30.009  32.921  1.00  0.00    -0.203 F 
ATOM     79  F   UNL A   1      35.495  32.182  30.157  1.00  0.00    -0.200 F 
ATOM     80  C   UNL A   1      36.448  31.513  32.211  1.00  0.00     0.200 A 
ATOM     81  F   UNL A   1      37.453  30.845  34.241  1.00  0.00    -0.200 F 
ATOM     82  F   UNL A   1      35.368  31.954  32.873  1.00  0.00    -0.200 F 
ENDBRANCH  48  72
BRANCH  60  83
ATOM     83  C   UNL A   1      44.684  33.772  29.093  1.00  0.00     0.064 A 
ATOM     84  C   UNL A   1      45.417  34.121  30.236  1.00  0.00     0.173 A 
ATOM     85  C   UNL A   1      44.465  34.764  28.124  1.00  0.00     0.173 A 
ATOM     86  F   UNL A   1      45.641  33.213  31.198  1.00  0.00    -0.203 F 
ATOM     87  C   UNL A   1      45.892  35.419  30.413  1.00  0.00     0.198 A 
ATOM     88  C   UNL A   1      44.964  36.052  28.291  1.00  0.00     0.198 A 
ATOM     89  F   UNL A   1      43.776  34.479  27.009  1.00  0.00    -0.203 F 
ATOM     90  F   UNL A   1      46.551  35.742  31.534  1.00  0.00    -0.200 F 
ATOM     91  C   UNL A   1      45.671  36.380  29.438  1.00  0.00     0.200 A 
ATOM     92  F   UNL A   1      44.760  36.977  27.343  1.00  0.00    -0.200 F 
ATOM     93  F   UNL A   1      46.133  37.626  29.608  1.00  0.00    -0.200 F 
ENDBRANCH  60  83
ENDBRANCH  34  35
ENDBRANCH  27  29
ENDBRANCH  26  27
ENDBRANCH  25  26
ENDBRANCH  24  25
ENDBRANCH  23  24
ENDBRANCH   1  23
TORSDOF 17
ENDMDL
MODEL 2
REMARK VINA RESULT:     -11.6      4.430     10.640
REMARK SMILES C[C@@H]1CCC[C@H]1NC(=O)c1csc(/C=C/C(=O)OCCOCCOC(=O)c2ccc(-c3c4nc(c(-c5c(F)c(F)c(F)c(F)c5F)c5ccc([nH]5)c(-c5c(F)c(F)c(F)c(F)c5F)c5nc(c(-c6c(F)c(F)c(F)c(F)c6F)c6ccc3[nH]6)C=C5)C=C4)cc2)c1
REMARK SMILES IDX 20 1 19 2 18 3 16 4 17 5 15 6 14 7 13 8 10 9 11 10 90 11
REMARK SMILES IDX 12 12 8 13 7 14 9 16 6 17 1 18 2 19 3 20 4 21 5 22 21 23
REMARK SMILES IDX 22 24 23 25 24 26 25 27 26 28 27 29 28 30 89 31 29 32 88 33
REMARK SMILES IDX 30 34 31 35 32 36 82 37 33 38 87 39 81 40 83 41 34 42 86 43
REMARK SMILES IDX 80 44 79 45 35 47 67 48 47 49 66 50 48 51 51 52 65 53 84 54
REMARK SMILES IDX 49 55 50 56 64 58 85 59 52 60 36 61 37 62 45 63 38 64 39 65
REMARK SMILES IDX 43 66 46 67 40 68 41 69 44 70 42 71 68 72 69 73 77 74 70 75
REMARK SMILES IDX 71 76 75 77 78 78 72 79 73 80 76 81 74 82 53 83 54 84 62 85
REMARK SMILES IDX 55 86 56 87 60 88 63 89 57 90 58 91 61 92 59 93
REMARK H PARENT 7 15 83 46 51 57
REMARK Flexibility Score: inf
ROOT
ATOM      1  C   UNL A   1      33.448  29.544  26.422  1.00  0.00     0.202 C 
ENDROOT
BRANCH   1   2
ATOM      2  C   UNL A   1      32.756  28.292  26.966  1.00  0.00     0.261 C 
BRANCH   2   3
ATOM      3  O   UNL A   1      31.668  27.899  26.111  1.00  0.00    -0.460 OA
BRANCH   3   4
ATOM      4  C   UNL A   1      31.315  26.595  26.191  1.00  0.00     0.330 C 
ATOM      5  O   UNL A   1      30.268  26.153  26.639  1.00  0.00    -0.247 OA
BRANCH   4   6
ATOM      6  C   UNL A   1      32.327  25.698  25.603  1.00  0.00     0.095 C 
ATOM      7  C   UNL A   1      32.491  24.392  25.868  1.00  0.00     0.026 C 
BRANCH   7   8
ATOM      8  C   UNL A   1      33.498  23.601  25.226  1.00  0.00     0.028 A 
ATOM      9  C   UNL A   1      35.037  21.842  24.779  1.00  0.00     0.051 A 
ATOM     10  C   UNL A   1      35.100  22.586  23.620  1.00  0.00     0.079 A 
ATOM     11  C   UNL A   1      34.092  22.439  25.692  1.00  0.00     0.033 A 
ATOM     12  S   UNL A   1      34.174  24.014  23.692  1.00  0.00    -0.144 S 
BRANCH   9  13
ATOM     13  C   UNL A   1      35.711  20.568  25.013  1.00  0.00     0.252 C 
ATOM     14  N   UNL A   1      35.022  19.382  24.963  1.00  0.00    -0.349 N 
ATOM     15  H   UNL A   1      35.502  18.614  25.349  1.00  0.00     0.164 HD
ATOM     16  O   UNL A   1      36.916  20.524  25.254  1.00  0.00    -0.269 OA
BRANCH  14  17
ATOM     17  C   UNL A   1      33.697  19.068  24.434  1.00  0.00     0.085 C 
ATOM     18  C   UNL A   1      32.596  17.800  22.532  1.00  0.00     0.010 C 
ATOM     19  C   UNL A   1      33.754  17.825  23.530  1.00  0.00     0.008 C 
ATOM     20  C   UNL A   1      33.675  16.665  24.522  1.00  0.00     0.005 C 
ATOM     21  C   UNL A   1      32.746  17.146  25.632  1.00  0.00     0.002 C 
ATOM     22  C   UNL A   1      32.744  18.676  25.568  1.00  0.00     0.025 C 
ENDBRANCH  14  17
ENDBRANCH   9  13
ENDBRANCH   7   8
ENDBRANCH   4   6
ENDBRANCH   3   4
ENDBRANCH   2   3
ENDBRANCH   1   2
BRANCH   1  23
ATOM     23  O   UNL A   1      32.565  30.559  25.947  1.00  0.00    -0.374 OA
BRANCH  23  24
ATOM     24  C   UNL A   1      31.744  31.198  26.927  1.00  0.00     0.202 C 
BRANCH  24  25
ATOM     25  C   UNL A   1      31.742  32.731  26.864  1.00  0.00     0.261 C 
BRANCH  25  26
ATOM     26  O   UNL A   1      33.084  33.256  26.877  1.00  0.00    -0.460 OA
BRANCH  26  27
ATOM     27  C   UNL A   1      33.535  33.644  28.091  1.00  0.00     0.338 C 
ATOM     28  O   UNL A   1      32.970  34.374  28.895  1.00  0.00    -0.246 OA
BRANCH  27  29
ATOM     29  C   UNL A   1      34.779  32.924  28.424  1.00  0.00     0.060 A 
ATOM     30  C   UNL A   1      34.651  31.632  28.955  1.00  0.00     0.016 A 
ATOM     31  C   UNL A   1      36.040  33.510  28.288  1.00  0.00     0.016 A 
ATOM     32  C   UNL A   1      35.778  30.947  29.403  1.00  0.00     0.010 A 
ATOM     33  C   UNL A   1      37.170  32.821  28.745  1.00  0.00     0.010 A 
ATOM     34  C   UNL A   1      37.039  31.554  29.338  1.00  0.00    -0.014 A 
BRANCH  34  35
ATOM     35  C   UNL A   1      38.187  30.913  30.028  1.00  0.00     0.031 A 
ATOM     36  C   UNL A   1      38.464  31.265  31.464  1.00  0.00     0.074 A 
ATOM     37  C   UNL A   1      38.942  29.993  29.402  1.00  0.00     0.049 A 
ATOM     38  N   UNL A   1      39.395  30.814  32.266  1.00  0.00    -0.248 NA
ATOM     39  C   UNL A   1      37.568  32.257  32.079  1.00  0.00     0.031 C 
ATOM     40  C   UNL A   1      38.754  29.544  28.025  1.00  0.00     0.029 A 
ATOM     41  N   UNL A   1      40.019  29.271  29.850  1.00  0.00    -0.354 N 
ATOM     42  C   UNL A   1      39.197  31.464  33.478  1.00  0.00     0.074 A 
ATOM     43  C   UNL A   1      38.079  32.366  33.297  1.00  0.00     0.031 C 
ATOM     44  C   UNL A   1      39.689  28.622  27.737  1.00  0.00     0.029 A 
ATOM     45  C   UNL A   1      40.552  28.434  28.902  1.00  0.00     0.049 A 
ATOM     46  H   UNL A   1      40.375  29.345  30.765  1.00  0.00     0.167 HD
ATOM     47  C   UNL A   1      39.876  31.313  34.640  1.00  0.00     0.037 A 
ATOM     48  C   UNL A   1      41.622  27.618  28.967  1.00  0.00     0.037 A 
ATOM     49  C   UNL A   1      40.986  30.417  34.822  1.00  0.00     0.049 A 
ATOM     50  C   UNL A   1      42.400  27.515  30.254  1.00  0.00     0.074 A 
ATOM     51  C   UNL A   1      41.729  30.183  35.966  1.00  0.00     0.029 A 
ATOM     52  N   UNL A   1      41.519  29.611  33.827  1.00  0.00    -0.354 N 
ATOM     53  N   UNL A   1      42.185  28.109  31.402  1.00  0.00    -0.248 NA
ATOM     54  C   UNL A   1      43.568  26.621  30.252  1.00  0.00     0.031 C 
ATOM     55  C   UNL A   1      42.739  29.266  35.653  1.00  0.00     0.029 A 
ATOM     56  C   UNL A   1      42.596  28.894  34.326  1.00  0.00     0.049 A 
ATOM     57  H   UNL A   1      41.183  29.555  32.903  1.00  0.00     0.167 HD
ATOM     58  C   UNL A   1      43.168  27.642  32.265  1.00  0.00     0.074 A 
ATOM     59  C   UNL A   1      43.974  26.704  31.510  1.00  0.00     0.031 C 
ATOM     60  C   UNL A   1      43.383  27.958  33.565  1.00  0.00     0.037 A 
BRANCH  47  61
ATOM     61  C   UNL A   1      39.443  32.151  35.806  1.00  0.00     0.064 A 
ATOM     62  C   UNL A   1      39.992  33.419  36.043  1.00  0.00     0.173 A 
ATOM     63  C   UNL A   1      38.441  31.694  36.676  1.00  0.00     0.173 A 
ATOM     64  F   UNL A   1      40.961  33.894  35.247  1.00  0.00    -0.203 F 
ATOM     65  C   UNL A   1      39.570  34.192  37.121  1.00  0.00     0.198 A 
ATOM     66  C   UNL A   1      38.004  32.480  37.739  1.00  0.00     0.198 A 
ATOM     67  F   UNL A   1      37.882  30.489  36.491  1.00  0.00    -0.203 F 
ATOM     68  F   UNL A   1      40.138  35.383  37.353  1.00  0.00    -0.200 F 
ATOM     69  C   UNL A   1      38.573  33.724  37.964  1.00  0.00     0.200 A 
ATOM     70  F   UNL A   1      37.033  32.031  38.546  1.00  0.00    -0.200 F 
ATOM     71  F   UNL A   1      38.163  34.472  39.000  1.00  0.00    -0.200 F 
ENDBRANCH  47  61
BRANCH  48  72
ATOM     72  C   UNL A   1      42.026  26.829  27.776  1.00  0.00     0.064 A 
ATOM     73  C   UNL A   1      41.478  25.564  27.525  1.00  0.00     0.173 A 
ATOM     74  C   UNL A   1      42.986  27.315  26.875  1.00  0.00     0.173 A 
ATOM     75  F   UNL A   1      40.577  25.046  28.372  1.00  0.00    -0.203 F 
ATOM     76  C   UNL A   1      41.886  24.807  26.429  1.00  0.00     0.198 A 
ATOM     77  C   UNL A   1      43.375  26.568  25.765  1.00  0.00     0.198 A 
ATOM     78  F   UNL A   1      43.544  28.518  27.073  1.00  0.00    -0.203 F 
ATOM     79  F   UNL A   1      41.379  23.582  26.238  1.00  0.00    -0.200 F 
ATOM     80  C   UNL A   1      42.831  25.312  25.548  1.00  0.00     0.200 A 
ATOM     81  F   UNL A   1      44.282  27.063  24.912  1.00  0.00    -0.200 F 
ATOM     82  F   UNL A   1      43.223  24.583  24.493  1.00  0.00    -0.200 F 
ENDBRANCH  48  72
BRANCH  60  83
ATOM     83  C   UNL A   1      44.514  27.263  34.266  1.00  0.00     0.064 A 
ATOM     84  C   UNL A   1      44.366  25.977  34.806  1.00  0.00     0.173 A 
ATOM     85  C   UNL A   1      45.772  27.878  34.366  1.00  0.00     0.173 A 
ATOM     86  F   UNL A   1      43.179  25.353  34.748  1.00  0.00    -0.203 F 
ATOM     87  C   UNL A   1      45.430  25.342  35.441  1.00  0.00     0.198 A 
ATOM     88  C   UNL A   1      46.840  27.229  34.978  1.00  0.00     0.198 A 
ATOM     89  F   UNL A   1      45.967  29.104  33.860  1.00  0.00    -0.203 F 
ATOM     90  F   UNL A   1      45.254  24.132  35.990  1.00  0.00    -0.200 F 
ATOM     91  C   UNL A   1      46.667  25.965  35.521  1.00  0.00     0.200 A 
ATOM     92  F   UNL A   1      48.037  27.827  35.044  1.00  0.00    -0.200 F 
ATOM     93  F   UNL A   1      47.690  25.350  36.129  1.00  0.00    -0.200 F 
ENDBRANCH  60  83
ENDBRANCH  34  35
ENDBRANCH  27  29
ENDBRANCH  26  27
ENDBRANCH  25  26
ENDBRANCH  24  25
ENDBRANCH  23  24
ENDBRANCH   1  23
TORSDOF 17
ENDMDL
MODEL 3
REMARK VINA RESULT:     -11.5      4.442     10.457
REMARK SMILES C[C@@H]1CCC[C@H]1NC(=O)c1csc(/C=C/C(=O)OCCOCCOC(=O)c2ccc(-c3c4nc(c(-c5c(F)c(F)c(F)c(F)c5F)c5ccc([nH]5)c(-c5c(F)c(F)c(F)c(F)c5F)c5nc(c(-c6c(F)c(F)c(F)c(F)c6F)c6ccc3[nH]6)C=C5)C=C4)cc2)c1
REMARK SMILES IDX 20 1 19 2 18 3 16 4 17 5 15 6 14 7 13 8 10 9 11 10 90 11
REMARK SMILES IDX 12 12 8 13 7 14 9 16 6 17 1 18 2 19 3 20 4 21 5 22 21 23
REMARK SMILES IDX 22 24 23 25 24 26 25 27 26 28 27 29 28 30 89 31 29 32 88 33
REMARK SMILES IDX 30 34 31 35 32 36 82 37 33 38 87 39 81 40 83 41 34 42 86 43
REMARK SMILES IDX 80 44 79 45 35 47 67 48 47 49 66 50 48 51 51 52 65 53 84 54
REMARK SMILES IDX 49 55 50 56 64 58 85 59 52 60 36 61 37 62 45 63 38 64 39 65
REMARK SMILES IDX 43 66 46 67 40 68 41 69 44 70 42 71 68 72 69 73 77 74 70 75
REMARK SMILES IDX 71 76 75 77 78 78 72 79 73 80 76 81 74 82 53 83 54 84 62 85
REMARK SMILES IDX 55 86 56 87 60 88 63 89 57 90 58 91 61 92 59 93
REMARK H PARENT 7 15 83 46 51 57
REMARK Flexibility Score: inf
ROOT
ATOM      1  C   UNL A   1      33.604  28.528  23.742  1.00  0.00     0.202 C 
ENDROOT
BRANCH   1   2
ATOM      2  C   UNL A   1      32.730  27.751  22.756  1.00  0.00     0.261 C 
BRANCH   2   3
ATOM      3  O   UNL A   1      33.509  27.287  21.639  1.00  0.00    -0.460 OA
BRANCH   3   4
ATOM      4  C   UNL A   1      33.282  26.004  21.272  1.00  0.00     0.330 C 
ATOM      5  O   UNL A   1      32.891  25.620  20.179  1.00  0.00    -0.247 OA
BRANCH   4   6
ATOM      6  C   UNL A   1      33.623  25.042  22.337  1.00  0.00     0.095 C 
ATOM      7  C   UNL A   1      32.774  24.222  22.977  1.00  0.00     0.026 C 
BRANCH   7   8
ATOM      8  C   UNL A   1      33.211  23.308  23.989  1.00  0.00     0.028 A 
ATOM      9  C   UNL A   1      34.303  21.483  25.057  1.00  0.00     0.051 A 
ATOM     10  C   UNL A   1      33.774  22.173  26.127  1.00  0.00     0.079 A 
ATOM     11  C   UNL A   1      33.978  22.164  23.827  1.00  0.00     0.033 A 
ATOM     12  S   UNL A   1      32.809  23.494  25.657  1.00  0.00    -0.144 S 
BRANCH   9  13
ATOM     13  C   UNL A   1      35.177  20.316  25.142  1.00  0.00     0.252 C 
ATOM     14  N   UNL A   1      34.673  19.044  25.027  1.00  0.00    -0.349 N 
ATOM     15  H   UNL A   1      35.289  18.333  25.317  1.00  0.00     0.164 HD
ATOM     16  O   UNL A   1      36.389  20.443  25.311  1.00  0.00    -0.269 OA
BRANCH  14  17
ATOM     17  C   UNL A   1      33.378  18.568  24.547  1.00  0.00     0.085 C 
ATOM     18  C   UNL A   1      32.157  18.058  22.383  1.00  0.00     0.010 C 
ATOM     19  C   UNL A   1      33.499  18.019  23.116  1.00  0.00     0.008 C 
ATOM     20  C   UNL A   1      33.988  16.587  23.330  1.00  0.00     0.005 C 
ATOM     21  C   UNL A   1      33.306  16.114  24.609  1.00  0.00     0.002 C 
ATOM     22  C   UNL A   1      32.902  17.374  25.380  1.00  0.00     0.025 C 
ENDBRANCH  14  17
ENDBRANCH   9  13
ENDBRANCH   7   8
ENDBRANCH   4   6
ENDBRANCH   3   4
ENDBRANCH   2   3
ENDBRANCH   1   2
BRANCH   1  23
ATOM     23  O   UNL A   1      33.007  29.713  24.268  1.00  0.00    -0.374 OA
BRANCH  23  24
ATOM     24  C   UNL A   1      32.011  29.531  25.276  1.00  0.00     0.202 C 
BRANCH  24  25
ATOM     25  C   UNL A   1      31.869  30.699  26.259  1.00  0.00     0.261 C 
BRANCH  25  26
ATOM     26  O   UNL A   1      32.817  30.590  27.340  1.00  0.00    -0.460 OA
BRANCH  26  27
ATOM     27  C   UNL A   1      33.579  31.687  27.547  1.00  0.00     0.338 C 
ATOM     28  O   UNL A   1      33.217  32.856  27.530  1.00  0.00    -0.246 OA
BRANCH  27  29
ATOM     29  C   UNL A   1      34.934  31.291  27.975  1.00  0.00     0.060 A 
ATOM     30  C   UNL A   1      35.209  29.919  28.049  1.00  0.00     0.016 A 
ATOM     31  C   UNL A   1      35.898  32.227  28.360  1.00  0.00     0.016 A 
ATOM     32  C   UNL A   1      36.427  29.477  28.562  1.00  0.00     0.010 A 
ATOM     33  C   UNL A   1      37.118  31.780  28.880  1.00  0.00     0.010 A 
ATOM     34  C   UNL A   1      37.373  30.405  29.018  1.00  0.00    -0.014 A 
BRANCH  34  35
ATOM     35  C   UNL A   1      38.557  29.920  29.771  1.00  0.00     0.031 A 
ATOM     36  C   UNL A   1      38.787  30.421  31.171  1.00  0.00     0.074 A 
ATOM     37  C   UNL A   1      39.388  29.008  29.237  1.00  0.00     0.049 A 
ATOM     38  N   UNL A   1      39.739  30.119  32.017  1.00  0.00    -0.248 NA
ATOM     39  C   UNL A   1      37.809  31.393  31.687  1.00  0.00     0.031 C 
ATOM     40  C   UNL A   1      39.254  28.423  27.906  1.00  0.00     0.029 A 
ATOM     41  N   UNL A   1      40.512  28.416  29.756  1.00  0.00    -0.354 N 
ATOM     42  C   UNL A   1      39.475  30.858  33.162  1.00  0.00     0.074 A 
ATOM     43  C   UNL A   1      38.293  31.651  32.892  1.00  0.00     0.031 C 
ATOM     44  C   UNL A   1      40.261  27.554  27.709  1.00  0.00     0.029 A 
ATOM     45  C   UNL A   1      41.119  27.540  28.892  1.00  0.00     0.049 A 
ATOM     46  H   UNL A   1      40.848  28.600  30.663  1.00  0.00     0.167 HD
ATOM     47  C   UNL A   1      40.147  30.867  34.338  1.00  0.00     0.037 A 
ATOM     48  C   UNL A   1      42.248  26.819  29.039  1.00  0.00     0.037 A 
ATOM     49  C   UNL A   1      41.321  30.080  34.608  1.00  0.00     0.049 A 
ATOM     50  C   UNL A   1      43.015  26.894  30.334  1.00  0.00     0.074 A 
ATOM     51  C   UNL A   1      42.064  30.009  35.773  1.00  0.00     0.029 A 
ATOM     52  N   UNL A   1      41.927  29.230  33.695  1.00  0.00    -0.354 N 
ATOM     53  N   UNL A   1      42.739  27.571  31.422  1.00  0.00    -0.248 NA
ATOM     54  C   UNL A   1      44.247  26.096  30.422  1.00  0.00     0.031 C 
ATOM     55  C   UNL A   1      43.145  29.148  35.552  1.00  0.00     0.029 A 
ATOM     56  C   UNL A   1      43.049  28.647  34.265  1.00  0.00     0.049 A 
ATOM     57  H   UNL A   1      41.609  29.065  32.778  1.00  0.00     0.167 HD
ATOM     58  C   UNL A   1      43.743  27.261  32.330  1.00  0.00     0.074 A 
ATOM     59  C   UNL A   1      44.629  26.325  31.670  1.00  0.00     0.031 C 
ATOM     60  C   UNL A   1      43.916  27.710  33.597  1.00  0.00     0.037 A 
BRANCH  47  61
ATOM     61  C   UNL A   1      39.636  31.771  35.419  1.00  0.00     0.064 A 
ATOM     62  C   UNL A   1      40.100  33.088  35.556  1.00  0.00     0.173 A 
ATOM     63  C   UNL A   1      38.644  31.327  36.307  1.00  0.00     0.173 A 
ATOM     64  F   UNL A   1      41.056  33.554  34.740  1.00  0.00    -0.203 F 
ATOM     65  C   UNL A   1      39.605  33.920  36.556  1.00  0.00     0.198 A 
ATOM     66  C   UNL A   1      38.135  32.171  37.291  1.00  0.00     0.198 A 
ATOM     67  F   UNL A   1      38.165  30.078  36.216  1.00  0.00    -0.203 F 
ATOM     68  F   UNL A   1      40.093  35.161  36.695  1.00  0.00    -0.200 F 
ATOM     69  C   UNL A   1      38.620  33.463  37.418  1.00  0.00     0.200 A 
ATOM     70  F   UNL A   1      37.174  31.731  38.115  1.00  0.00    -0.200 F 
ATOM     71  F   UNL A   1      38.140  34.268  38.378  1.00  0.00    -0.200 F 
ENDBRANCH  47  61
BRANCH  48  72
ATOM     72  C   UNL A   1      42.728  25.958  27.927  1.00  0.00     0.064 A 
ATOM     73  C   UNL A   1      43.570  26.467  26.930  1.00  0.00     0.173 A 
ATOM     74  C   UNL A   1      42.335  24.615  27.828  1.00  0.00     0.173 A 
ATOM     75  F   UNL A   1      43.951  27.752  26.967  1.00  0.00    -0.203 F 
ATOM     76  C   UNL A   1      43.988  25.670  25.865  1.00  0.00     0.198 A 
ATOM     77  C   UNL A   1      42.774  23.812  26.778  1.00  0.00     0.198 A 
ATOM     78  F   UNL A   1      41.526  24.082  28.756  1.00  0.00    -0.203 F 
ATOM     79  F   UNL A   1      44.756  26.194  24.900  1.00  0.00    -0.200 F 
ATOM     80  C   UNL A   1      43.593  24.342  25.793  1.00  0.00     0.200 A 
ATOM     81  F   UNL A   1      42.397  22.528  26.717  1.00  0.00    -0.200 F 
ATOM     82  F   UNL A   1      43.996  23.577  24.769  1.00  0.00    -0.200 F 
ENDBRANCH  48  72
BRANCH  60  83
ATOM     83  C   UNL A   1      45.087  27.172  34.367  1.00  0.00     0.064 A 
ATOM     84  C   UNL A   1      46.315  27.846  34.405  1.00  0.00     0.173 A 
ATOM     85  C   UNL A   1      44.964  25.984  35.105  1.00  0.00     0.173 A 
ATOM     86  F   UNL A   1      46.486  28.977  33.705  1.00  0.00    -0.203 F 
ATOM     87  C   UNL A   1      47.387  27.338  35.136  1.00  0.00     0.198 A 
ATOM     88  C   UNL A   1      46.029  25.494  35.856  1.00  0.00     0.198 A 
ATOM     89  F   UNL A   1      43.807  25.305  35.108  1.00  0.00    -0.203 F 
ATOM     90  F   UNL A   1      48.566  27.975  35.122  1.00  0.00    -0.200 F 
ATOM     91  C   UNL A   1      47.241  26.167  35.865  1.00  0.00     0.200 A 
ATOM     92  F   UNL A   1      45.882  24.369  36.570  1.00  0.00    -0.200 F 
ATOM     93  F   UNL A   1      48.272  25.683  36.571  1.00  0.00    -0.200 F 
ENDBRANCH  60  83
ENDBRANCH  34  35
ENDBRANCH  27  29
ENDBRANCH  26  27
ENDBRANCH  25  26
ENDBRANCH  24  25
ENDBRANCH  23  24
ENDBRANCH   1  23
TORSDOF 17
ENDMDL
