MODEL 1
REMARK VINA RESULT:     -12.6      0.000      0.000
REMARK SMILES Cc1cc2nc(NC3=[NH+][C@H](CC(=O)OCCOCCOC(=O)c4ccc(-c5c6nc(c(-c7c(F)c(F)c(F)c(F)c7F)c7ccc([nH]7)c(-c7c(F)c(F)c(F)c(F)c7F)c7nc(c(-c8c(F)c(F)c(F)c(F)c8F)c8ccc5[nH]8)C=C7)C=C6)cc4)C(=O)N3)nc(C)c2cc1C
REMARK SMILES IDX 17 1 16 2 15 3 14 4 12 5 13 6 11 7 10 8 7 9 8 10 9 12 88 13
REMARK SMILES IDX 86 15 87 17 6 18 1 19 2 20 3 21 94 22 4 23 93 24 95 25 5 26
REMARK SMILES IDX 92 27 90 28 89 29 91 30 18 31 19 32 20 33 21 34 22 35 23 36
REMARK SMILES IDX 24 37 85 38 25 39 84 40 26 41 27 42 28 43 78 44 29 45 83 46
REMARK SMILES IDX 77 47 79 48 30 49 82 50 76 51 75 52 31 54 63 55 43 56 62 57
REMARK SMILES IDX 44 58 47 59 61 60 80 61 45 62 46 63 60 65 81 66 48 67 32 68
REMARK SMILES IDX 33 69 41 70 34 71 35 72 39 73 42 74 36 75 37 76 40 77 38 78
REMARK SMILES IDX 64 79 65 80 73 81 66 82 67 83 71 84 74 85 68 86 69 87 72 88
REMARK SMILES IDX 70 89 49 90 50 91 58 92 51 93 52 94 56 95 59 96 53 97 54 98
REMARK SMILES IDX 57 99 55 100
REMARK H PARENT 7 11 9 14 88 16 79 53 47 64
REMARK Flexibility Score: inf
ROOT
ATOM      1  O   UNL A   1      32.066  28.066  25.819  1.00  0.00    -0.374 OA
ENDROOT
BRANCH   1   2
ATOM      2  C   UNL A   1      33.208  27.236  25.618  1.00  0.00     0.202 C 
BRANCH   2   3
ATOM      3  C   UNL A   1      33.701  27.068  24.179  1.00  0.00     0.261 C 
BRANCH   3   4
ATOM      4  O   UNL A   1      33.731  25.683  23.797  1.00  0.00    -0.463 OA
BRANCH   4   5
ATOM      5  C   UNL A   1      33.205  25.365  22.589  1.00  0.00     0.310 C 
ATOM      6  O   UNL A   1      33.756  24.645  21.763  1.00  0.00    -0.252 OA
BRANCH   5   7
ATOM      7  C   UNL A   1      31.872  26.021  22.311  1.00  0.00     0.175 C 
BRANCH   7   8
ATOM      8  C   UNL A   1      30.620  25.243  22.701  1.00  0.00     0.262 C 
ATOM      9  N   UNL A   1      31.175  22.939  25.335  1.00  0.00    -0.212 N 
ATOM     10  C   UNL A   1      30.775  23.903  24.473  1.00  0.00     0.358 C 
ATOM     11  H   UNL A   1      30.547  22.601  26.013  1.00  0.00     0.270 HD
ATOM     12  N   UNL A   1      31.002  23.907  23.198  1.00  0.00    -0.263 N 
ATOM     13  N   UNL A   1      30.102  24.978  24.924  1.00  0.00    -0.211 N 
ATOM     14  H   UNL A   1      31.361  23.162  22.663  1.00  0.00     0.261 HD
ATOM     15  C   UNL A   1      29.971  25.875  23.914  1.00  0.00     0.320 C 
ATOM     16  H   UNL A   1      29.759  25.095  25.839  1.00  0.00     0.270 HD
ATOM     17  O   UNL A   1      29.481  26.986  23.999  1.00  0.00    -0.252 OA
BRANCH   9  18
ATOM     18  C   UNL A   1      32.467  22.420  25.277  1.00  0.00     0.291 A 
ATOM     19  C   UNL A   1      38.156  24.183  26.265  1.00  0.00     0.044 C 
ATOM     20  C   UNL A   1      37.102  23.150  25.977  1.00  0.00    -0.046 A 
ATOM     21  C   UNL A   1      35.763  23.565  25.945  1.00  0.00     0.033 A 
ATOM     22  C   UNL A   1      37.400  21.814  25.668  1.00  0.00    -0.047 A 
ATOM     23  C   UNL A   1      34.726  22.706  25.621  1.00  0.00     0.078 A 
ATOM     24  C   UNL A   1      36.347  20.938  25.341  1.00  0.00     0.016 A 
ATOM     25  C   UNL A   1      38.816  21.312  25.653  1.00  0.00     0.044 C 
ATOM     26  N   UNL A   1      33.497  23.204  25.614  1.00  0.00    -0.198 NA
ATOM     27  C   UNL A   1      35.000  21.379  25.313  1.00  0.00     0.022 A 
ATOM     28  C   UNL A   1      33.862  20.615  24.994  1.00  0.00     0.052 A 
ATOM     29  N   UNL A   1      32.603  21.122  24.990  1.00  0.00    -0.203 NA
ATOM     30  C   UNL A   1      33.971  19.163  24.629  1.00  0.00     0.067 C 
ENDBRANCH   9  18
ENDBRANCH   7   8
ENDBRANCH   5   7
ENDBRANCH   4   5
ENDBRANCH   3   4
ENDBRANCH   2   3
ENDBRANCH   1   2
BRANCH   1  31
ATOM     31  C   UNL A   1      31.963  29.248  25.028  1.00  0.00     0.202 C 
BRANCH  31  32
ATOM     32  C   UNL A   1      31.743  30.573  25.770  1.00  0.00     0.261 C 
BRANCH  32  33
ATOM     33  O   UNL A   1      32.393  30.611  27.051  1.00  0.00    -0.460 OA
BRANCH  33  34
ATOM     34  C   UNL A   1      33.127  31.724  27.289  1.00  0.00     0.338 C 
ATOM     35  O   UNL A   1      32.741  32.884  27.252  1.00  0.00    -0.246 OA
BRANCH  34  36
ATOM     36  C   UNL A   1      34.468  31.353  27.784  1.00  0.00     0.060 A 
ATOM     37  C   UNL A   1      35.455  32.309  28.026  1.00  0.00     0.016 A 
ATOM     38  C   UNL A   1      34.711  30.001  28.057  1.00  0.00     0.016 A 
ATOM     39  C   UNL A   1      36.670  31.910  28.591  1.00  0.00     0.010 A 
ATOM     40  C   UNL A   1      35.921  29.604  28.627  1.00  0.00     0.010 A 
ATOM     41  C   UNL A   1      36.900  30.561  28.926  1.00  0.00    -0.014 A 
BRANCH  41  42
ATOM     42  C   UNL A   1      38.095  30.187  29.723  1.00  0.00     0.031 A 
ATOM     43  C   UNL A   1      38.324  30.715  31.106  1.00  0.00     0.074 A 
ATOM     44  C   UNL A   1      39.004  29.369  29.158  1.00  0.00     0.049 A 
ATOM     45  N   UNL A   1      39.278  30.410  31.951  1.00  0.00    -0.248 NA
ATOM     46  C   UNL A   1      37.380  31.725  31.602  1.00  0.00     0.031 C 
ATOM     47  C   UNL A   1      38.924  28.851  27.793  1.00  0.00     0.029 A 
ATOM     48  N   UNL A   1      40.162  28.825  29.655  1.00  0.00    -0.354 N 
ATOM     49  C   UNL A   1      39.048  31.182  33.079  1.00  0.00     0.074 A 
ATOM     50  C   UNL A   1      37.887  32.002  32.797  1.00  0.00     0.031 C 
ATOM     51  C   UNL A   1      39.960  28.030  27.574  1.00  0.00     0.029 A 
ATOM     52  C   UNL A   1      40.796  27.987  28.771  1.00  0.00     0.049 A 
ATOM     53  H   UNL A   1      40.505  29.016  30.557  1.00  0.00     0.167 HD
ATOM     54  C   UNL A   1      39.735  31.185  34.247  1.00  0.00     0.037 A 
ATOM     55  C   UNL A   1      41.919  27.254  28.907  1.00  0.00     0.037 A 
ATOM     56  C   UNL A   1      40.881  30.356  34.524  1.00  0.00     0.049 A 
ATOM     57  C   UNL A   1      42.653  27.268  30.218  1.00  0.00     0.074 A 
ATOM     58  C   UNL A   1      41.583  30.230  35.710  1.00  0.00     0.029 A 
ATOM     59  N   UNL A   1      41.506  29.526  33.602  1.00  0.00    -0.354 N 
ATOM     60  N   UNL A   1      42.361  27.914  31.319  1.00  0.00    -0.248 NA
ATOM     61  C   UNL A   1      43.867  26.444  30.309  1.00  0.00     0.031 C 
ATOM     62  C   UNL A   1      42.666  29.374  35.491  1.00  0.00     0.029 A 
ATOM     63  C   UNL A   1      42.607  28.916  34.185  1.00  0.00     0.049 A 
ATOM     64  H   UNL A   1      41.211  29.392  32.672  1.00  0.00     0.167 HD
ATOM     65  C   UNL A   1      43.343  27.570  32.238  1.00  0.00     0.074 A 
ATOM     66  C   UNL A   1      44.228  26.637  31.572  1.00  0.00     0.031 C 
ATOM     67  C   UNL A   1      43.493  27.995  33.517  1.00  0.00     0.037 A 
BRANCH  54  68
ATOM     68  C   UNL A   1      39.263  32.100  35.338  1.00  0.00     0.064 A 
ATOM     69  C   UNL A   1      38.429  31.637  36.365  1.00  0.00     0.173 A 
ATOM     70  C   UNL A   1      39.730  33.422  35.417  1.00  0.00     0.173 A 
ATOM     71  F   UNL A   1      37.955  30.383  36.339  1.00  0.00    -0.203 F 
ATOM     72  C   UNL A   1      38.067  32.467  37.422  1.00  0.00     0.198 A 
ATOM     73  C   UNL A   1      39.379  34.244  36.484  1.00  0.00     0.198 A 
ATOM     74  F   UNL A   1      40.549  33.906  34.471  1.00  0.00    -0.203 F 
ATOM     75  F   UNL A   1      37.262  32.001  38.386  1.00  0.00    -0.200 F 
ATOM     76  C   UNL A   1      38.544  33.767  37.484  1.00  0.00     0.200 A 
ATOM     77  F   UNL A   1      39.860  35.492  36.555  1.00  0.00    -0.200 F 
ATOM     78  F   UNL A   1      38.199  34.559  38.508  1.00  0.00    -0.200 F 
ENDBRANCH  54  68
BRANCH  55  79
ATOM     79  C   UNL A   1      42.372  26.412  27.771  1.00  0.00     0.064 A 
ATOM     80  C   UNL A   1      41.784  25.167  27.517  1.00  0.00     0.173 A 
ATOM     81  C   UNL A   1      43.352  26.867  26.876  1.00  0.00     0.173 A 
ATOM     82  F   UNL A   1      40.856  24.682  28.356  1.00  0.00    -0.203 F 
ATOM     83  C   UNL A   1      42.155  24.409  26.409  1.00  0.00     0.198 A 
ATOM     84  C   UNL A   1      43.701  26.122  25.752  1.00  0.00     0.198 A 
ATOM     85  F   UNL A   1      43.941  28.056  27.072  1.00  0.00    -0.203 F 
ATOM     86  F   UNL A   1      41.591  23.211  26.199  1.00  0.00    -0.200 F 
ATOM     87  C   UNL A   1      43.104  24.892  25.520  1.00  0.00     0.200 A 
ATOM     88  F   UNL A   1      44.605  26.602  24.886  1.00  0.00    -0.200 F 
ATOM     89  F   UNL A   1      43.441  24.174  24.440  1.00  0.00    -0.200 F 
ENDBRANCH  55  79
BRANCH  67  90
ATOM     90  C   UNL A   1      44.662  27.464  34.298  1.00  0.00     0.064 A 
ATOM     91  C   UNL A   1      45.873  28.167  34.374  1.00  0.00     0.173 A 
ATOM     92  C   UNL A   1      44.542  26.283  35.049  1.00  0.00     0.173 A 
ATOM     93  F   UNL A   1      46.044  29.294  33.668  1.00  0.00    -0.203 F 
ATOM     94  C   UNL A   1      46.923  27.703  35.163  1.00  0.00     0.198 A 
ATOM     95  C   UNL A   1      45.582  25.839  35.861  1.00  0.00     0.198 A 
ATOM     96  F   UNL A   1      43.402  25.575  35.018  1.00  0.00    -0.203 F 
ATOM     97  F   UNL A   1      48.082  28.375  35.194  1.00  0.00    -0.200 F 
ATOM     98  C   UNL A   1      46.773  26.547  35.914  1.00  0.00     0.200 A 
ATOM     99  F   UNL A   1      45.427  24.733  36.602  1.00  0.00    -0.200 F 
ATOM    100  F   UNL A   1      47.775  26.116  36.691  1.00  0.00    -0.200 F 
ENDBRANCH  67  90
ENDBRANCH  41  42
ENDBRANCH  34  36
ENDBRANCH  33  34
ENDBRANCH  32  33
ENDBRANCH  31  32
ENDBRANCH   1  31
TORSDOF 16
ENDMDL
MODEL 2
REMARK VINA RESULT:     -12.1      1.675      7.565
REMARK SMILES Cc1cc2nc(NC3=[NH+][C@H](CC(=O)OCCOCCOC(=O)c4ccc(-c5c6nc(c(-c7c(F)c(F)c(F)c(F)c7F)c7ccc([nH]7)c(-c7c(F)c(F)c(F)c(F)c7F)c7nc(c(-c8c(F)c(F)c(F)c(F)c8F)c8ccc5[nH]8)C=C7)C=C6)cc4)C(=O)N3)nc(C)c2cc1C
REMARK SMILES IDX 17 1 16 2 15 3 14 4 12 5 13 6 11 7 10 8 7 9 8 10 9 12 88 13
REMARK SMILES IDX 86 15 87 17 6 18 1 19 2 20 3 21 94 22 4 23 93 24 95 25 5 26
REMARK SMILES IDX 92 27 90 28 89 29 91 30 18 31 19 32 20 33 21 34 22 35 23 36
REMARK SMILES IDX 24 37 85 38 25 39 84 40 26 41 27 42 28 43 78 44 29 45 83 46
REMARK SMILES IDX 77 47 79 48 30 49 82 50 76 51 75 52 31 54 63 55 43 56 62 57
REMARK SMILES IDX 44 58 47 59 61 60 80 61 45 62 46 63 60 65 81 66 48 67 32 68
REMARK SMILES IDX 33 69 41 70 34 71 35 72 39 73 42 74 36 75 37 76 40 77 38 78
REMARK SMILES IDX 64 79 65 80 73 81 66 82 67 83 71 84 74 85 68 86 69 87 72 88
REMARK SMILES IDX 70 89 49 90 50 91 58 92 51 93 52 94 56 95 59 96 53 97 54 98
REMARK SMILES IDX 57 99 55 100
REMARK H PARENT 7 11 9 14 88 16 79 53 47 64
REMARK Flexibility Score: inf
ROOT
ATOM      1  O   UNL A   1      32.022  30.711  26.142  1.00  0.00    -0.374 OA
ENDROOT
BRANCH   1   2
ATOM      2  C   UNL A   1      32.683  29.721  26.928  1.00  0.00     0.202 C 
BRANCH   2   3
ATOM      3  C   UNL A   1      31.833  28.551  27.432  1.00  0.00     0.261 C 
BRANCH   3   4
ATOM      4  O   UNL A   1      32.034  27.378  26.628  1.00  0.00    -0.463 OA
BRANCH   4   5
ATOM      5  C   UNL A   1      30.940  26.844  26.032  1.00  0.00     0.310 C 
ATOM      6  O   UNL A   1      30.366  25.832  26.422  1.00  0.00    -0.252 OA
BRANCH   5   7
ATOM      7  C   UNL A   1      30.497  27.582  24.791  1.00  0.00     0.175 C 
BRANCH   7   8
ATOM      8  C   UNL A   1      31.561  27.873  23.738  1.00  0.00     0.262 C 
ATOM      9  N   UNL A   1      32.754  24.955  22.119  1.00  0.00    -0.212 N 
ATOM     10  C   UNL A   1      32.258  26.154  22.504  1.00  0.00     0.358 C 
ATOM     11  H   UNL A   1      33.120  24.849  21.212  1.00  0.00     0.270 HD
ATOM     12  N   UNL A   1      32.489  26.729  23.641  1.00  0.00    -0.263 N 
ATOM     13  N   UNL A   1      31.435  26.840  21.689  1.00  0.00    -0.211 N 
ATOM     14  H   UNL A   1      33.154  26.455  24.313  1.00  0.00     0.261 HD
ATOM     15  C   UNL A   1      30.935  27.908  22.360  1.00  0.00     0.320 C 
ATOM     16  H   UNL A   1      31.229  26.605  20.755  1.00  0.00     0.270 HD
ATOM     17  O   UNL A   1      30.103  28.694  21.943  1.00  0.00    -0.252 OA
BRANCH   9  18
ATOM     18  C   UNL A   1      32.751  23.867  22.990  1.00  0.00     0.291 A 
ATOM     19  C   UNL A   1      32.159  17.862  22.808  1.00  0.00     0.044 C 
ATOM     20  C   UNL A   1      32.470  19.159  23.502  1.00  0.00    -0.046 A 
ATOM     21  C   UNL A   1      32.442  20.337  22.741  1.00  0.00     0.033 A 
ATOM     22  C   UNL A   1      32.713  19.254  24.881  1.00  0.00    -0.047 A 
ATOM     23  C   UNL A   1      32.645  21.588  23.300  1.00  0.00     0.078 A 
ATOM     24  C   UNL A   1      32.923  20.525  25.450  1.00  0.00     0.016 A 
ATOM     25  C   UNL A   1      32.726  18.035  25.758  1.00  0.00     0.044 C 
ATOM     26  N   UNL A   1      32.590  22.637  22.490  1.00  0.00    -0.198 NA
ATOM     27  C   UNL A   1      32.889  21.704  24.663  1.00  0.00     0.022 A 
ATOM     28  C   UNL A   1      33.071  23.027  25.105  1.00  0.00     0.052 A 
ATOM     29  N   UNL A   1      33.018  24.102  24.277  1.00  0.00    -0.203 NA
ATOM     30  C   UNL A   1      33.336  23.340  26.549  1.00  0.00     0.067 C 
ENDBRANCH   9  18
ENDBRANCH   7   8
ENDBRANCH   5   7
ENDBRANCH   4   5
ENDBRANCH   3   4
ENDBRANCH   2   3
ENDBRANCH   1   2
BRANCH   1  31
ATOM     31  C   UNL A   1      31.359  31.767  26.834  1.00  0.00     0.202 C 
BRANCH  31  32
ATOM     32  C   UNL A   1      32.028  33.147  26.814  1.00  0.00     0.261 C 
BRANCH  32  33
ATOM     33  O   UNL A   1      32.576  33.522  28.088  1.00  0.00    -0.460 OA
BRANCH  33  34
ATOM     34  C   UNL A   1      33.726  34.236  28.030  1.00  0.00     0.338 C 
ATOM     35  O   UNL A   1      33.841  35.431  27.800  1.00  0.00    -0.246 OA
BRANCH  34  36
ATOM     36  C   UNL A   1      34.865  33.401  28.462  1.00  0.00     0.060 A 
ATOM     37  C   UNL A   1      36.178  33.872  28.430  1.00  0.00     0.016 A 
ATOM     38  C   UNL A   1      34.584  32.122  28.962  1.00  0.00     0.016 A 
ATOM     39  C   UNL A   1      37.203  33.075  28.948  1.00  0.00     0.010 A 
ATOM     40  C   UNL A   1      35.607  31.330  29.483  1.00  0.00     0.010 A 
ATOM     41  C   UNL A   1      36.922  31.813  29.508  1.00  0.00    -0.014 A 
BRANCH  41  42
ATOM     42  C   UNL A   1      37.977  31.078  30.249  1.00  0.00     0.031 A 
ATOM     43  C   UNL A   1      38.857  30.066  29.584  1.00  0.00     0.074 A 
ATOM     44  C   UNL A   1      38.113  31.322  31.568  1.00  0.00     0.049 A 
ATOM     45  N   UNL A   1      39.874  29.409  30.086  1.00  0.00    -0.248 NA
ATOM     46  C   UNL A   1      38.554  29.731  28.186  1.00  0.00     0.031 C 
ATOM     47  C   UNL A   1      37.265  32.232  32.339  1.00  0.00     0.029 A 
ATOM     48  N   UNL A   1      39.009  30.839  32.489  1.00  0.00    -0.354 N 
ATOM     49  C   UNL A   1      40.336  28.589  29.068  1.00  0.00     0.074 A 
ATOM     50  C   UNL A   1      39.464  28.799  27.930  1.00  0.00     0.031 C 
ATOM     51  C   UNL A   1      37.707  32.277  33.603  1.00  0.00     0.029 A 
ATOM     52  C   UNL A   1      38.849  31.377  33.742  1.00  0.00     0.049 A 
ATOM     53  H   UNL A   1      39.699  30.172  32.272  1.00  0.00     0.167 HD
ATOM     54  C   UNL A   1      41.405  27.756  29.084  1.00  0.00     0.037 A 
ATOM     55  C   UNL A   1      39.548  31.179  34.877  1.00  0.00     0.037 A 
ATOM     56  C   UNL A   1      42.275  27.563  30.216  1.00  0.00     0.049 A 
ATOM     57  C   UNL A   1      40.735  30.258  34.862  1.00  0.00     0.074 A 
ATOM     58  C   UNL A   1      43.432  26.806  30.291  1.00  0.00     0.029 A 
ATOM     59  N   UNL A   1      42.078  28.113  31.476  1.00  0.00    -0.354 N 
ATOM     60  N   UNL A   1      41.234  29.575  33.861  1.00  0.00    -0.248 NA
ATOM     61  C   UNL A   1      41.461  30.087  36.127  1.00  0.00     0.031 C 
ATOM     62  C   UNL A   1      43.900  26.848  31.606  1.00  0.00     0.029 A 
ATOM     63  C   UNL A   1      43.072  27.681  32.342  1.00  0.00     0.049 A 
ATOM     64  H   UNL A   1      41.342  28.720  31.718  1.00  0.00     0.167 HD
ATOM     65  C   UNL A   1      42.337  28.903  34.369  1.00  0.00     0.074 A 
ATOM     66  C   UNL A   1      42.449  29.279  35.763  1.00  0.00     0.031 C 
ATOM     67  C   UNL A   1      43.176  28.049  33.732  1.00  0.00     0.037 A 
BRANCH  54  68
ATOM     68  C   UNL A   1      41.718  26.991  27.831  1.00  0.00     0.064 A 
ATOM     69  C   UNL A   1      42.527  27.542  26.828  1.00  0.00     0.173 A 
ATOM     70  C   UNL A   1      41.294  25.662  27.678  1.00  0.00     0.173 A 
ATOM     71  F   UNL A   1      42.960  28.807  26.924  1.00  0.00    -0.203 F 
ATOM     72  C   UNL A   1      42.888  26.795  25.710  1.00  0.00     0.198 A 
ATOM     73  C   UNL A   1      41.671  24.913  26.566  1.00  0.00     0.198 A 
ATOM     74  F   UNL A   1      40.538  25.081  28.621  1.00  0.00    -0.203 F 
ATOM     75  F   UNL A   1      43.656  27.349  24.761  1.00  0.00    -0.200 F 
ATOM     76  C   UNL A   1      42.464  25.482  25.580  1.00  0.00     0.200 A 
ATOM     77  F   UNL A   1      41.280  23.637  26.455  1.00  0.00    -0.200 F 
ATOM     78  F   UNL A   1      42.820  24.766  24.506  1.00  0.00    -0.200 F 
ENDBRANCH  54  68
BRANCH  55  79
ATOM     79  C   UNL A   1      39.154  31.918  36.103  1.00  0.00     0.064 A 
ATOM     80  C   UNL A   1      39.675  33.189  36.378  1.00  0.00     0.173 A 
ATOM     81  C   UNL A   1      38.195  31.400  36.988  1.00  0.00     0.173 A 
ATOM     82  F   UNL A   1      40.607  33.718  35.572  1.00  0.00    -0.203 F 
ATOM     83  C   UNL A   1      39.251  33.915  37.488  1.00  0.00     0.198 A 
ATOM     84  C   UNL A   1      37.751  32.139  38.081  1.00  0.00     0.198 A 
ATOM     85  F   UNL A   1      37.662  30.189  36.765  1.00  0.00    -0.203 F 
ATOM     86  F   UNL A   1      39.779  35.122  37.739  1.00  0.00    -0.200 F 
ATOM     87  C   UNL A   1      38.279  33.396  38.332  1.00  0.00     0.200 A 
ATOM     88  F   UNL A   1      36.799  31.641  38.882  1.00  0.00    -0.200 F 
ATOM     89  F   UNL A   1      37.853  34.108  39.384  1.00  0.00    -0.200 F 
ENDBRANCH  55  79
BRANCH  67  90
ATOM     90  C   UNL A   1      44.300  27.448  34.529  1.00  0.00     0.064 A 
ATOM     91  C   UNL A   1      45.524  28.114  34.686  1.00  0.00     0.173 A 
ATOM     92  C   UNL A   1      44.121  26.236  35.214  1.00  0.00     0.173 A 
ATOM     93  F   UNL A   1      45.751  29.270  34.044  1.00  0.00    -0.203 F 
ATOM     94  C   UNL A   1      46.531  27.583  35.489  1.00  0.00     0.198 A 
ATOM     95  C   UNL A   1      45.118  25.724  36.041  1.00  0.00     0.198 A 
ATOM     96  F   UNL A   1      42.967  25.561  35.106  1.00  0.00    -0.203 F 
ATOM     97  F   UNL A   1      47.705  28.222  35.598  1.00  0.00    -0.200 F 
ATOM     98  C   UNL A   1      46.323  26.397  36.175  1.00  0.00     0.200 A 
ATOM     99  F   UNL A   1      44.907  24.588  36.719  1.00  0.00    -0.200 F 
ATOM    100  F   UNL A   1      47.284  25.900  36.966  1.00  0.00    -0.200 F 
ENDBRANCH  67  90
ENDBRANCH  41  42
ENDBRANCH  34  36
ENDBRANCH  33  34
ENDBRANCH  32  33
ENDBRANCH  31  32
ENDBRANCH   1  31
TORSDOF 16
ENDMDL
MODEL 3
REMARK VINA RESULT:     -12.1      3.947      9.035
REMARK SMILES Cc1cc2nc(NC3=[NH+][C@H](CC(=O)OCCOCCOC(=O)c4ccc(-c5c6nc(c(-c7c(F)c(F)c(F)c(F)c7F)c7ccc([nH]7)c(-c7c(F)c(F)c(F)c(F)c7F)c7nc(c(-c8c(F)c(F)c(F)c(F)c8F)c8ccc5[nH]8)C=C7)C=C6)cc4)C(=O)N3)nc(C)c2cc1C
REMARK SMILES IDX 17 1 16 2 15 3 14 4 12 5 13 6 11 7 10 8 7 9 8 10 9 12 88 13
REMARK SMILES IDX 86 15 87 17 6 18 1 19 2 20 3 21 94 22 4 23 93 24 95 25 5 26
REMARK SMILES IDX 92 27 90 28 89 29 91 30 18 31 19 32 20 33 21 34 22 35 23 36
REMARK SMILES IDX 24 37 85 38 25 39 84 40 26 41 27 42 28 43 78 44 29 45 83 46
REMARK SMILES IDX 77 47 79 48 30 49 82 50 76 51 75 52 31 54 63 55 43 56 62 57
REMARK SMILES IDX 44 58 47 59 61 60 80 61 45 62 46 63 60 65 81 66 48 67 32 68
REMARK SMILES IDX 33 69 41 70 34 71 35 72 39 73 42 74 36 75 37 76 40 77 38 78
REMARK SMILES IDX 64 79 65 80 73 81 66 82 67 83 71 84 74 85 68 86 69 87 72 88
REMARK SMILES IDX 70 89 49 90 50 91 58 92 51 93 52 94 56 95 59 96 53 97 54 98
REMARK SMILES IDX 57 99 55 100
REMARK H PARENT 7 11 9 14 88 16 79 53 47 64
REMARK Flexibility Score: inf
ROOT
ATOM      1  O   UNL A   1      35.683  23.302  24.792  1.00  0.00    -0.374 OA
ENDROOT
BRANCH   1   2
ATOM      2  C   UNL A   1      34.997  24.444  24.282  1.00  0.00     0.202 C 
BRANCH   2   3
ATOM      3  C   UNL A   1      33.868  24.188  23.281  1.00  0.00     0.261 C 
BRANCH   3   4
ATOM      4  O   UNL A   1      34.029  24.989  22.099  1.00  0.00    -0.463 OA
BRANCH   4   5
ATOM      5  C   UNL A   1      32.948  25.688  21.676  1.00  0.00     0.310 C 
ATOM      6  O   UNL A   1      32.442  25.574  20.564  1.00  0.00    -0.252 OA
BRANCH   5   7
ATOM      7  C   UNL A   1      32.425  26.680  22.690  1.00  0.00     0.175 C 
BRANCH   7   8
ATOM      8  C   UNL A   1      30.942  26.600  23.039  1.00  0.00     0.262 C 
ATOM      9  N   UNL A   1      30.270  24.462  25.784  1.00  0.00    -0.212 N 
ATOM     10  C   UNL A   1      30.395  25.449  24.865  1.00  0.00     0.358 C 
ATOM     11  H   UNL A   1      29.536  24.497  26.437  1.00  0.00     0.270 HD
ATOM     12  N   UNL A   1      30.637  25.272  23.605  1.00  0.00    -0.263 N 
ATOM     13  N   UNL A   1      30.291  26.738  25.238  1.00  0.00    -0.211 N 
ATOM     14  H   UNL A   1      30.622  24.416  23.119  1.00  0.00     0.261 HD
ATOM     15  C   UNL A   1      30.628  27.532  24.190  1.00  0.00     0.320 C 
ATOM     16  H   UNL A   1      30.014  27.055  26.128  1.00  0.00     0.270 HD
ATOM     17  O   UNL A   1      30.713  28.747  24.206  1.00  0.00    -0.252 OA
BRANCH   9  18
ATOM     18  C   UNL A   1      31.168  23.398  25.816  1.00  0.00     0.291 A 
ATOM     19  C   UNL A   1      32.522  18.452  22.630  1.00  0.00     0.044 C 
ATOM     20  C   UNL A   1      32.778  19.461  23.715  1.00  0.00    -0.046 A 
ATOM     21  C   UNL A   1      31.901  20.549  23.824  1.00  0.00     0.033 A 
ATOM     22  C   UNL A   1      33.804  19.326  24.663  1.00  0.00    -0.047 A 
ATOM     23  C   UNL A   1      32.009  21.494  24.831  1.00  0.00     0.078 A 
ATOM     24  C   UNL A   1      33.919  20.288  25.685  1.00  0.00     0.016 A 
ATOM     25  C   UNL A   1      34.760  18.168  24.621  1.00  0.00     0.044 C 
ATOM     26  N   UNL A   1      31.121  22.479  24.846  1.00  0.00    -0.198 NA
ATOM     27  C   UNL A   1      33.019  21.380  25.779  1.00  0.00     0.022 A 
ATOM     28  C   UNL A   1      33.015  22.397  26.750  1.00  0.00     0.052 A 
ATOM     29  N   UNL A   1      32.109  23.409  26.765  1.00  0.00    -0.203 NA
ATOM     30  C   UNL A   1      34.030  22.428  27.856  1.00  0.00     0.067 C 
ENDBRANCH   9  18
ENDBRANCH   7   8
ENDBRANCH   5   7
ENDBRANCH   4   5
ENDBRANCH   3   4
ENDBRANCH   2   3
ENDBRANCH   1   2
BRANCH   1  31
ATOM     31  C   UNL A   1      36.285  22.420  23.847  1.00  0.00     0.202 C 
BRANCH  31  32
ATOM     32  C   UNL A   1      37.359  21.458  24.371  1.00  0.00     0.261 C 
BRANCH  32  33
ATOM     33  O   UNL A   1      37.639  21.640  25.769  1.00  0.00    -0.460 OA
BRANCH  33  34
ATOM     34  C   UNL A   1      38.933  21.449  26.124  1.00  0.00     0.338 C 
ATOM     35  O   UNL A   1      39.629  20.475  25.877  1.00  0.00    -0.246 OA
BRANCH  34  36
ATOM     36  C   UNL A   1      39.482  22.681  26.725  1.00  0.00     0.060 A 
ATOM     37  C   UNL A   1      40.607  22.661  27.550  1.00  0.00     0.016 A 
ATOM     38  C   UNL A   1      38.865  23.897  26.400  1.00  0.00     0.016 A 
ATOM     39  C   UNL A   1      41.142  23.869  28.006  1.00  0.00     0.010 A 
ATOM     40  C   UNL A   1      39.403  25.102  26.851  1.00  0.00     0.010 A 
ATOM     41  C   UNL A   1      40.565  25.099  27.634  1.00  0.00    -0.014 A 
BRANCH  41  42
ATOM     42  C   UNL A   1      41.266  26.371  27.939  1.00  0.00     0.031 A 
ATOM     43  C   UNL A   1      42.674  26.628  27.497  1.00  0.00     0.074 A 
ATOM     44  C   UNL A   1      40.610  27.301  28.662  1.00  0.00     0.049 A 
ATOM     45  N   UNL A   1      43.383  27.723  27.619  1.00  0.00    -0.248 NA
ATOM     46  C   UNL A   1      43.386  25.517  26.853  1.00  0.00     0.031 C 
ATOM     47  C   UNL A   1      39.264  27.133  29.209  1.00  0.00     0.029 A 
ATOM     48  N   UNL A   1      40.975  28.564  29.054  1.00  0.00    -0.354 N 
ATOM     49  C   UNL A   1      44.621  27.437  27.062  1.00  0.00     0.074 A 
ATOM     50  C   UNL A   1      44.582  26.052  26.640  1.00  0.00     0.031 C 
ATOM     51  C   UNL A   1      38.897  28.264  29.827  1.00  0.00     0.029 A 
ATOM     52  C   UNL A   1      39.993  29.227  29.747  1.00  0.00     0.049 A 
ATOM     53  H   UNL A   1      41.856  28.957  28.857  1.00  0.00     0.167 HD
ATOM     54  C   UNL A   1      45.680  28.268  26.905  1.00  0.00     0.037 A 
ATOM     55  C   UNL A   1      39.967  30.475  30.255  1.00  0.00     0.037 A 
ATOM     56  C   UNL A   1      45.705  29.649  27.317  1.00  0.00     0.049 A 
ATOM     57  C   UNL A   1      41.152  31.377  30.055  1.00  0.00     0.074 A 
ATOM     58  C   UNL A   1      46.704  30.587  27.116  1.00  0.00     0.029 A 
ATOM     59  N   UNL A   1      44.698  30.287  28.029  1.00  0.00    -0.354 N 
ATOM     60  N   UNL A   1      42.275  31.134  29.426  1.00  0.00    -0.248 NA
ATOM     61  C   UNL A   1      41.063  32.729  30.625  1.00  0.00     0.031 C 
ATOM     62  C   UNL A   1      46.330  31.771  27.756  1.00  0.00     0.029 A 
ATOM     63  C   UNL A   1      45.070  31.594  28.306  1.00  0.00     0.049 A 
ATOM     64  H   UNL A   1      43.846  29.872  28.296  1.00  0.00     0.167 HD
ATOM     65  C   UNL A   1      43.023  32.301  29.512  1.00  0.00     0.074 A 
ATOM     66  C   UNL A   1      42.215  33.261  30.235  1.00  0.00     0.031 C 
ATOM     67  C   UNL A   1      44.268  32.546  29.035  1.00  0.00     0.037 A 
BRANCH  54  68
ATOM     68  C   UNL A   1      46.909  27.721  26.239  1.00  0.00     0.064 A 
ATOM     69  C   UNL A   1      47.941  27.139  26.987  1.00  0.00     0.173 A 
ATOM     70  C   UNL A   1      47.009  27.684  24.840  1.00  0.00     0.173 A 
ATOM     71  F   UNL A   1      47.896  27.147  28.327  1.00  0.00    -0.203 F 
ATOM     72  C   UNL A   1      49.037  26.554  26.359  1.00  0.00     0.198 A 
ATOM     73  C   UNL A   1      48.099  27.083  24.215  1.00  0.00     0.198 A 
ATOM     74  F   UNL A   1      46.036  28.207  24.078  1.00  0.00    -0.203 F 
ATOM     75  F   UNL A   1      50.015  26.012  27.098  1.00  0.00    -0.200 F 
ATOM     76  C   UNL A   1      49.115  26.523  24.976  1.00  0.00     0.200 A 
ATOM     77  F   UNL A   1      48.160  27.033  22.878  1.00  0.00    -0.200 F 
ATOM     78  F   UNL A   1      50.167  25.952  24.376  1.00  0.00    -0.200 F 
ENDBRANCH  54  68
BRANCH  55  79
ATOM     79  C   UNL A   1      38.745  30.942  30.958  1.00  0.00     0.064 A 
ATOM     80  C   UNL A   1      38.628  30.833  32.349  1.00  0.00     0.173 A 
ATOM     81  C   UNL A   1      37.701  31.570  30.262  1.00  0.00     0.173 A 
ATOM     82  F   UNL A   1      39.592  30.225  33.056  1.00  0.00    -0.203 F 
ATOM     83  C   UNL A   1      37.516  31.337  33.019  1.00  0.00     0.198 A 
ATOM     84  C   UNL A   1      36.603  32.099  30.935  1.00  0.00     0.198 A 
ATOM     85  F   UNL A   1      37.769  31.703  28.928  1.00  0.00    -0.203 F 
ATOM     86  F   UNL A   1      37.419  31.204  34.350  1.00  0.00    -0.200 F 
ATOM     87  C   UNL A   1      36.510  31.982  32.313  1.00  0.00     0.200 A 
ATOM     88  F   UNL A   1      35.644  32.738  30.251  1.00  0.00    -0.200 F 
ATOM     89  F   UNL A   1      35.453  32.490  32.962  1.00  0.00    -0.200 F 
ENDBRANCH  55  79
BRANCH  67  90
ATOM     90  C   UNL A   1      44.854  33.909  29.276  1.00  0.00     0.064 A 
ATOM     91  C   UNL A   1      44.627  34.971  28.389  1.00  0.00     0.173 A 
ATOM     92  C   UNL A   1      45.575  34.179  30.450  1.00  0.00     0.173 A 
ATOM     93  F   UNL A   1      43.953  34.764  27.247  1.00  0.00    -0.203 F 
ATOM     94  C   UNL A   1      45.111  36.249  28.661  1.00  0.00     0.198 A 
ATOM     95  C   UNL A   1      46.030  35.464  30.734  1.00  0.00     0.198 A 
ATOM     96  F   UNL A   1      45.814  33.201  31.337  1.00  0.00    -0.203 F 
ATOM     97  F   UNL A   1      44.910  37.240  27.782  1.00  0.00    -0.200 F 
ATOM     98  C   UNL A   1      45.800  36.497  29.838  1.00  0.00     0.200 A 
ATOM     99  F   UNL A   1      46.678  35.706  31.882  1.00  0.00    -0.200 F 
ATOM    100  F   UNL A   1      46.244  37.731  30.110  1.00  0.00    -0.200 F 
ENDBRANCH  67  90
ENDBRANCH  41  42
ENDBRANCH  34  36
ENDBRANCH  33  34
ENDBRANCH  32  33
ENDBRANCH  31  32
ENDBRANCH   1  31
TORSDOF 16
ENDMDL
