MODEL 1
REMARK VINA RESULT:     -13.6      0.000      0.000
REMARK SMILES O=C(OCCOCCOC(=O)c1ccc(-c2c3nc(c(-c4c(F)c(F)c(F)c(F)c4F)c4ccc([nH]4)c(-c4c(F)c(F)c(F)c(F)c4F)c4nc(c(-c5c(F)c(F)c(F)c(F)c5F)c5ccc2[nH]5)C=C4)C=C3)cc1)C1=Cc2cc(Cl)cc(-c3ccc(Cl)cc3)c2O[C@@H]1C(F)(F)F
REMARK SMILES IDX 7 1 6 2 5 3 4 4 3 5 2 6 1 7 75 8 76 9 92 10 77 11 91 12
REMARK SMILES IDX 78 13 90 14 79 15 82 16 80 17 81 18 93 19 94 20 95 21 96 22
REMARK SMILES IDX 83 23 84 24 89 25 85 26 88 27 86 28 87 29 8 30 9 31 10 32
REMARK SMILES IDX 11 33 12 34 13 35 74 36 14 37 73 38 15 39 16 40 17 41 67 42
REMARK SMILES IDX 18 43 72 44 66 45 68 46 19 47 71 48 65 49 64 50 20 52 52 53
REMARK SMILES IDX 32 54 51 55 33 56 36 57 50 58 69 59 34 60 35 61 49 63 70 64
REMARK SMILES IDX 37 65 21 66 22 67 30 68 23 69 24 70 28 71 31 72 25 73 26 74
REMARK SMILES IDX 29 75 27 76 53 77 54 78 62 79 55 80 56 81 60 82 63 83 57 84
REMARK SMILES IDX 58 85 61 86 59 87 38 88 39 89 47 90 40 91 41 92 45 93 48 94
REMARK SMILES IDX 42 95 43 96 46 97 44 98
REMARK H PARENT 68 51 36 62
REMARK Flexibility Score: inf
ROOT
ATOM      1  C   UNL A   1      37.216  20.327  24.621  1.00  0.00     0.202 C 
ENDROOT
BRANCH   1   2
ATOM      2  O   UNL A   1      35.905  20.318  25.228  1.00  0.00    -0.374 OA
BRANCH   2   3
ATOM      3  C   UNL A   1      34.395  20.090  24.701  1.00  0.00     0.202 C 
BRANCH   3   4
ATOM      4  C   UNL A   1      32.503  20.950  25.345  1.00  0.00     0.261 C 
BRANCH   4   5
ATOM      5  O   UNL A   1      31.805  22.211  24.709  1.00  0.00    -0.460 OA
BRANCH   5   6
ATOM      6  C   UNL A   1      31.792  23.281  25.512  1.00  0.00     0.338 C 
ATOM      7  O   UNL A   1      31.158  23.524  26.505  1.00  0.00    -0.246 OA
BRANCH   6   8
ATOM      8  C   UNL A   1      32.590  24.090  24.634  1.00  0.00     0.087 C 
ATOM      9  C   UNL A   1      31.704  24.822  23.713  1.00  0.00     0.027 C 
ATOM     10  C   UNL A   1      33.732  24.914  25.964  1.00  0.00     0.316 C 
ATOM     11  C   UNL A   1      31.444  26.609  23.802  1.00  0.00     0.019 A 
ATOM     12  O   UNL A   1      33.445  26.839  26.071  1.00  0.00    -0.475 OA
ATOM     13  C   UNL A   1      30.413  27.069  23.024  1.00  0.00     0.032 A 
ATOM     14  C   UNL A   1      32.195  27.646  25.006  1.00  0.00     0.135 A 
ATOM     15  C   UNL A   1      29.999  28.360  23.319  1.00  0.00     0.042 A 
ATOM     16  C   UNL A   1      31.761  28.985  25.154  1.00  0.00     0.026 A 
ATOM     17  Cl  UNL A   1      28.655  28.991  22.427  1.00  0.00    -0.084 Cl
ATOM     18  C   UNL A   1      30.602  29.214  24.317  1.00  0.00     0.033 A 
BRANCH  10  19
ATOM     19  C   UNL A   1      35.006  23.986  25.709  1.00  0.00     0.430 C 
ATOM     20  F   UNL A   1      36.190  24.595  25.910  1.00  0.00    -0.167 F 
ATOM     21  F   UNL A   1      34.979  22.989  26.650  1.00  0.00    -0.167 F 
ATOM     22  F   UNL A   1      35.027  23.319  24.534  1.00  0.00    -0.167 F 
ENDBRANCH  10  19
BRANCH  16  23
ATOM     23  C   UNL A   1      32.210  30.306  25.962  1.00  0.00    -0.015 A 
ATOM     24  C   UNL A   1      33.876  29.976  26.605  1.00  0.00     0.010 A 
ATOM     25  C   UNL A   1      31.402  32.091  26.493  1.00  0.00     0.010 A 
ATOM     26  C   UNL A   1      34.676  31.197  27.614  1.00  0.00     0.021 A 
ATOM     27  C   UNL A   1      32.353  33.250  27.485  1.00  0.00     0.021 A 
ATOM     28  C   UNL A   1      33.941  32.759  28.023  1.00  0.00     0.041 A 
ATOM     29  Cl  UNL A   1      34.843  33.878  28.975  1.00  0.00    -0.084 Cl
ENDBRANCH  16  23
ENDBRANCH   6   8
ENDBRANCH   5   6
ENDBRANCH   4   5
ENDBRANCH   3   4
ENDBRANCH   2   3
ENDBRANCH   1   2
BRANCH   1  30
ATOM     30  C   UNL A   1      38.184  19.209  25.008  1.00  0.00     0.261 C 
BRANCH  30  31
ATOM     31  O   UNL A   1      38.836  19.513  26.217  1.00  0.00    -0.460 OA
BRANCH  31  32
ATOM     32  C   UNL A   1      40.165  19.651  26.088  1.00  0.00     0.338 C 
ATOM     33  O   UNL A   1      40.967  18.919  25.549  1.00  0.00    -0.246 OA
BRANCH  32  34
ATOM     34  C   UNL A   1      40.447  20.911  26.757  1.00  0.00     0.060 A 
ATOM     35  C   UNL A   1      39.708  22.368  26.061  1.00  0.00     0.016 A 
ATOM     36  C   UNL A   1      41.721  20.931  27.986  1.00  0.00     0.016 A 
ATOM     37  C   UNL A   1      40.213  23.995  26.504  1.00  0.00     0.010 A 
ATOM     38  C   UNL A   1      42.343  22.529  28.505  1.00  0.00     0.010 A 
ATOM     39  C   UNL A   1      41.544  24.215  27.704  1.00  0.00    -0.014 A 
BRANCH  39  40
ATOM     40  C   UNL A   1      41.853  25.828  27.624  1.00  0.00     0.031 A 
ATOM     41  C   UNL A   1      43.119  26.345  26.926  1.00  0.00     0.074 A 
ATOM     42  C   UNL A   1      41.054  26.800  28.124  1.00  0.00     0.049 A 
ATOM     43  N   UNL A   1      43.815  27.442  27.144  1.00  0.00    -0.248 NA
ATOM     44  C   UNL A   1      43.692  25.498  25.876  1.00  0.00     0.031 C 
ATOM     45  C   UNL A   1      39.694  26.642  28.614  1.00  0.00     0.029 A 
ATOM     46  N   UNL A   1      41.344  28.125  28.399  1.00  0.00    -0.354 N 
ATOM     47  C   UNL A   1      44.970  27.330  26.368  1.00  0.00     0.074 A 
ATOM     48  C   UNL A   1      44.881  26.053  25.693  1.00  0.00     0.031 C 
ATOM     49  C   UNL A   1      39.327  27.748  29.279  1.00  0.00     0.029 A 
ATOM     50  C   UNL A   1      40.418  28.718  29.230  1.00  0.00     0.049 A 
ATOM     51  H   UNL A   1      42.130  28.597  28.039  1.00  0.00     0.167 HD
ATOM     52  C   UNL A   1      45.999  28.204  26.206  1.00  0.00     0.037 A 
ATOM     53  C   UNL A   1      40.438  29.885  29.908  1.00  0.00     0.037 A 
ATOM     54  C   UNL A   1      46.016  29.552  26.721  1.00  0.00     0.049 A 
ATOM     55  C   UNL A   1      41.580  30.853  29.742  1.00  0.00     0.074 A 
ATOM     56  C   UNL A   1      46.952  30.551  26.495  1.00  0.00     0.029 A 
ATOM     57  N   UNL A   1      45.037  30.106  27.527  1.00  0.00    -0.354 N 
ATOM     58  N   UNL A   1      42.687  30.719  29.059  1.00  0.00    -0.248 NA
ATOM     59  C   UNL A   1      41.445  32.161  30.406  1.00  0.00     0.031 C 
ATOM     60  C   UNL A   1      46.558  31.695  27.196  1.00  0.00     0.029 A 
ATOM     61  C   UNL A   1      45.345  31.430  27.807  1.00  0.00     0.049 A 
ATOM     62  H   UNL A   1      44.239  29.631  27.855  1.00  0.00     0.167 HD
ATOM     63  C   UNL A   1      43.345  31.941  29.153  1.00  0.00     0.074 A 
ATOM     64  C   UNL A   1      42.519  32.801  29.969  1.00  0.00     0.031 C 
ATOM     65  C   UNL A   1      44.520  32.312  28.590  1.00  0.00     0.037 A 
BRANCH  52  66
ATOM     66  C   UNL A   1      47.210  27.751  25.424  1.00  0.00     0.064 A 
ATOM     67  C   UNL A   1      47.303  27.877  24.030  1.00  0.00     0.173 A 
ATOM     68  C   UNL A   1      48.328  27.222  26.097  1.00  0.00     0.173 A 
ATOM     69  F   UNL A   1      46.282  28.392  23.328  1.00  0.00    -0.203 F 
ATOM     70  C   UNL A   1      48.427  27.431  23.336  1.00  0.00     0.198 A 
ATOM     71  C   UNL A   1      49.472  26.828  25.406  1.00  0.00     0.198 A 
ATOM     72  F   UNL A   1      48.322  27.106  27.434  1.00  0.00    -0.203 F 
ATOM     73  F   UNL A   1      48.449  27.486  21.997  1.00  0.00    -0.200 F 
ATOM     74  C   UNL A   1      49.513  26.913  24.024  1.00  0.00     0.200 A 
ATOM     75  F   UNL A   1      50.535  26.364  26.079  1.00  0.00    -0.200 F 
ATOM     76  F   UNL A   1      50.596  26.496  23.355  1.00  0.00    -0.200 F 
ENDBRANCH  52  66
BRANCH  53  77
ATOM     77  C   UNL A   1      39.301  30.233  30.805  1.00  0.00     0.064 A 
ATOM     78  C   UNL A   1      38.154  30.856  30.294  1.00  0.00     0.173 A 
ATOM     79  C   UNL A   1      39.348  29.975  32.183  1.00  0.00     0.173 A 
ATOM     80  F   UNL A   1      38.079  31.146  28.988  1.00  0.00    -0.203 F 
ATOM     81  C   UNL A   1      37.107  31.231  31.131  1.00  0.00     0.198 A 
ATOM     82  C   UNL A   1      38.288  30.329  33.016  1.00  0.00     0.198 A 
ATOM     83  F   UNL A   1      40.423  29.380  32.721  1.00  0.00    -0.203 F 
ATOM     84  F   UNL A   1      36.045  31.872  30.623  1.00  0.00    -0.200 F 
ATOM     85  C   UNL A   1      37.171  30.964  32.490  1.00  0.00     0.200 A 
ATOM     86  F   UNL A   1      38.347  30.060  34.327  1.00  0.00    -0.200 F 
ATOM     87  F   UNL A   1      36.162  31.325  33.294  1.00  0.00    -0.200 F 
ENDBRANCH  53  77
BRANCH  65  88
ATOM     88  C   UNL A   1      44.962  33.742  28.751  1.00  0.00     0.064 A 
ATOM     89  C   UNL A   1      45.711  34.175  29.854  1.00  0.00     0.173 A 
ATOM     90  C   UNL A   1      44.663  34.687  27.755  1.00  0.00     0.173 A 
ATOM     91  F   UNL A   1      46.014  33.321  30.843  1.00  0.00    -0.203 F 
ATOM     92  C   UNL A   1      46.123  35.503  29.967  1.00  0.00     0.198 A 
ATOM     93  C   UNL A   1      45.104  36.004  27.854  1.00  0.00     0.198 A 
ATOM     94  F   UNL A   1      43.952  34.329  26.675  1.00  0.00    -0.203 F 
ATOM     95  F   UNL A   1      46.795  35.904  31.055  1.00  0.00    -0.200 F 
ATOM     96  C   UNL A   1      45.828  36.413  28.963  1.00  0.00     0.200 A 
ATOM     97  F   UNL A   1      44.830  36.877  26.875  1.00  0.00    -0.200 F 
ATOM     98  F   UNL A   1      46.233  37.686  29.069  1.00  0.00    -0.200 F 
ENDBRANCH  65  88
ENDBRANCH  39  40
ENDBRANCH  32  34
ENDBRANCH  31  32
ENDBRANCH  30  31
ENDBRANCH   1  30
TORSDOF 16
ENDMDL
MODEL 2
REMARK VINA RESULT:     -13.4      4.665     10.588
REMARK SMILES O=C(OCCOCCOC(=O)c1ccc(-c2c3nc(c(-c4c(F)c(F)c(F)c(F)c4F)c4ccc([nH]4)c(-c4c(F)c(F)c(F)c(F)c4F)c4nc(c(-c5c(F)c(F)c(F)c(F)c5F)c5ccc2[nH]5)C=C4)C=C3)cc1)C1=Cc2cc(Cl)cc(-c3ccc(Cl)cc3)c2O[C@@H]1C(F)(F)F
REMARK SMILES IDX 7 1 6 2 5 3 4 4 3 5 2 6 1 7 75 8 76 9 92 10 77 11 91 12
REMARK SMILES IDX 78 13 90 14 79 15 82 16 80 17 81 18 93 19 94 20 95 21 96 22
REMARK SMILES IDX 83 23 84 24 89 25 85 26 88 27 86 28 87 29 8 30 9 31 10 32
REMARK SMILES IDX 11 33 12 34 13 35 74 36 14 37 73 38 15 39 16 40 17 41 67 42
REMARK SMILES IDX 18 43 72 44 66 45 68 46 19 47 71 48 65 49 64 50 20 52 52 53
REMARK SMILES IDX 32 54 51 55 33 56 36 57 50 58 69 59 34 60 35 61 49 63 70 64
REMARK SMILES IDX 37 65 21 66 22 67 30 68 23 69 24 70 28 71 31 72 25 73 26 74
REMARK SMILES IDX 29 75 27 76 53 77 54 78 62 79 55 80 56 81 60 82 63 83 57 84
REMARK SMILES IDX 58 85 61 86 59 87 38 88 39 89 47 90 40 91 41 92 45 93 48 94
REMARK SMILES IDX 42 95 43 96 46 97 44 98
REMARK H PARENT 68 51 36 62
REMARK Flexibility Score: inf
ROOT
ATOM      1  C   UNL A   1      30.598  31.613  25.397  1.00  0.00     0.202 C 
ENDROOT
BRANCH   1   2
ATOM      2  O   UNL A   1      29.546  31.841  24.433  1.00  0.00    -0.374 OA
BRANCH   2   3
ATOM      3  C   UNL A   1      28.772  30.939  23.340  1.00  0.00     0.202 C 
BRANCH   3   4
ATOM      4  C   UNL A   1      29.124  28.908  22.643  1.00  0.00     0.261 C 
BRANCH   4   5
ATOM      5  O   UNL A   1      29.755  27.742  23.494  1.00  0.00    -0.460 OA
BRANCH   5   6
ATOM      6  C   UNL A   1      30.936  28.054  24.042  1.00  0.00     0.338 C 
ATOM      7  O   UNL A   1      31.824  28.772  23.664  1.00  0.00    -0.246 OA
BRANCH   6   8
ATOM      8  C   UNL A   1      30.850  27.055  25.069  1.00  0.00     0.087 C 
ATOM      9  C   UNL A   1      30.554  25.751  24.452  1.00  0.00     0.027 C 
ATOM     10  C   UNL A   1      32.480  27.486  26.023  1.00  0.00     0.316 C 
ATOM     11  C   UNL A   1      31.755  24.401  24.368  1.00  0.00     0.019 A 
ATOM     12  O   UNL A   1      33.781  26.038  25.924  1.00  0.00    -0.475 OA
ATOM     13  C   UNL A   1      31.381  23.364  23.553  1.00  0.00     0.032 A 
ATOM     14  C   UNL A   1      33.397  24.515  24.985  1.00  0.00     0.135 A 
ATOM     15  C   UNL A   1      32.407  22.487  23.229  1.00  0.00     0.042 A 
ATOM     16  C   UNL A   1      34.339  23.507  24.674  1.00  0.00     0.026 A 
ATOM     17  Cl  UNL A   1      32.034  21.187  22.147  1.00  0.00    -0.084 Cl
ATOM     18  C   UNL A   1      33.763  22.582  23.720  1.00  0.00     0.033 A 
BRANCH  10  19
ATOM     19  C   UNL A   1      31.784  28.284  27.219  1.00  0.00     0.430 C 
ATOM     20  F   UNL A   1      30.670  27.703  27.704  1.00  0.00    -0.167 F 
ATOM     21  F   UNL A   1      32.654  28.272  28.277  1.00  0.00    -0.167 F 
ATOM     22  F   UNL A   1      31.559  29.598  27.002  1.00  0.00    -0.167 F 
ENDBRANCH  10  19
BRANCH  16  23
ATOM     23  C   UNL A   1      35.840  23.100  25.099  1.00  0.00    -0.015 A 
ATOM     24  C   UNL A   1      36.048  21.352  24.651  1.00  0.00     0.010 A 
ATOM     25  C   UNL A   1      37.424  23.959  26.036  1.00  0.00     0.010 A 
ATOM     26  C   UNL A   1      37.573  20.531  25.036  1.00  0.00     0.021 A 
ATOM     27  C   UNL A   1      38.926  23.012  26.318  1.00  0.00     0.021 A 
ATOM     28  C   UNL A   1      38.943  21.336  25.826  1.00  0.00     0.041 A 
ATOM     29  Cl  UNL A   1      40.387  20.438  26.103  1.00  0.00    -0.084 Cl
ENDBRANCH  16  23
ENDBRANCH   6   8
ENDBRANCH   5   6
ENDBRANCH   4   5
ENDBRANCH   3   4
ENDBRANCH   2   3
ENDBRANCH   1   2
BRANCH   1  30
ATOM     30  C   UNL A   1      31.163  32.829  26.130  1.00  0.00     0.261 C 
BRANCH  30  31
ATOM     31  O   UNL A   1      32.071  32.431  27.129  1.00  0.00    -0.460 OA
BRANCH  31  32
ATOM     32  C   UNL A   1      32.732  33.455  27.691  1.00  0.00     0.338 C 
ATOM     33  O   UNL A   1      32.341  34.571  27.959  1.00  0.00    -0.246 OA
BRANCH  32  34
ATOM     34  C   UNL A   1      34.066  32.921  27.917  1.00  0.00     0.060 A 
ATOM     35  C   UNL A   1      34.174  31.206  28.364  1.00  0.00     0.016 A 
ATOM     36  C   UNL A   1      35.409  34.067  28.034  1.00  0.00     0.016 A 
ATOM     37  C   UNL A   1      35.640  30.484  29.018  1.00  0.00     0.010 A 
ATOM     38  C   UNL A   1      36.954  33.462  28.712  1.00  0.00     0.010 A 
ATOM     39  C   UNL A   1      37.102  31.515  29.265  1.00  0.00    -0.014 A 
BRANCH  39  40
ATOM     40  C   UNL A   1      38.114  30.529  30.107  1.00  0.00     0.031 A 
ATOM     41  C   UNL A   1      38.325  30.732  31.614  1.00  0.00     0.074 A 
ATOM     42  C   UNL A   1      38.804  29.489  29.581  1.00  0.00     0.049 A 
ATOM     43  N   UNL A   1      39.369  30.450  32.366  1.00  0.00    -0.248 NA
ATOM     44  C   UNL A   1      37.234  31.369  32.357  1.00  0.00     0.031 C 
ATOM     45  C   UNL A   1      38.626  28.905  28.261  1.00  0.00     0.029 A 
ATOM     46  N   UNL A   1      39.896  28.807  30.091  1.00  0.00    -0.354 N 
ATOM     47  C   UNL A   1      39.109  31.010  33.617  1.00  0.00     0.074 A 
ATOM     48  C   UNL A   1      37.820  31.658  33.511  1.00  0.00     0.031 C 
ATOM     49  C   UNL A   1      39.658  28.091  27.989  1.00  0.00     0.029 A 
ATOM     50  C   UNL A   1      40.559  28.063  29.139  1.00  0.00     0.049 A 
ATOM     51  H   UNL A   1      40.171  28.849  31.036  1.00  0.00     0.167 HD
ATOM     52  C   UNL A   1      39.850  30.977  34.758  1.00  0.00     0.037 A 
ATOM     53  C   UNL A   1      41.762  27.452  29.156  1.00  0.00     0.037 A 
ATOM     54  C   UNL A   1      41.042  30.184  34.936  1.00  0.00     0.049 A 
ATOM     55  C   UNL A   1      42.593  27.421  30.412  1.00  0.00     0.074 A 
ATOM     56  C   UNL A   1      41.781  29.984  36.093  1.00  0.00     0.029 A 
ATOM     57  N   UNL A   1      41.646  29.427  33.947  1.00  0.00    -0.354 N 
ATOM     58  N   UNL A   1      42.372  27.996  31.567  1.00  0.00    -0.248 NA
ATOM     59  C   UNL A   1      43.820  26.608  30.378  1.00  0.00     0.031 C 
ATOM     60  C   UNL A   1      42.853  29.137  35.794  1.00  0.00     0.029 A 
ATOM     61  C   UNL A   1      42.747  28.759  34.467  1.00  0.00     0.049 A 
ATOM     62  H   UNL A   1      41.342  29.370  33.013  1.00  0.00     0.167 HD
ATOM     63  C   UNL A   1      43.389  27.563  32.410  1.00  0.00     0.074 A 
ATOM     64  C   UNL A   1      44.235  26.685  31.634  1.00  0.00     0.031 C 
ATOM     65  C   UNL A   1      43.582  27.856  33.719  1.00  0.00     0.037 A 
BRANCH  52  66
ATOM     66  C   UNL A   1      39.399  31.815  35.932  1.00  0.00     0.064 A 
ATOM     67  C   UNL A   1      38.406  31.391  36.828  1.00  0.00     0.173 A 
ATOM     68  C   UNL A   1      40.015  33.053  36.194  1.00  0.00     0.173 A 
ATOM     69  F   UNL A   1      37.792  30.212  36.649  1.00  0.00    -0.203 F 
ATOM     70  C   UNL A   1      37.998  32.198  37.890  1.00  0.00     0.198 A 
ATOM     71  C   UNL A   1      39.644  33.832  37.288  1.00  0.00     0.198 A 
ATOM     72  F   UNL A   1      40.998  33.504  35.398  1.00  0.00    -0.203 F 
ATOM     73  F   UNL A   1      36.988  31.803  38.677  1.00  0.00    -0.200 F 
ATOM     74  C   UNL A   1      38.622  33.413  38.124  1.00  0.00     0.200 A 
ATOM     75  F   UNL A   1      40.276  34.989  37.533  1.00  0.00    -0.200 F 
ATOM     76  F   UNL A   1      38.236  34.180  39.153  1.00  0.00    -0.200 F 
ENDBRANCH  52  66
BRANCH  53  77
ATOM     77  C   UNL A   1      42.258  26.772  27.928  1.00  0.00     0.064 A 
ATOM     78  C   UNL A   1      41.959  25.424  27.689  1.00  0.00     0.173 A 
ATOM     79  C   UNL A   1      43.056  27.443  26.989  1.00  0.00     0.173 A 
ATOM     80  F   UNL A   1      41.223  24.737  28.574  1.00  0.00    -0.203 F 
ATOM     81  C   UNL A   1      42.459  24.764  26.569  1.00  0.00     0.198 A 
ATOM     82  C   UNL A   1      43.534  26.788  25.855  1.00  0.00     0.198 A 
ATOM     83  F   UNL A   1      43.369  28.734  27.171  1.00  0.00    -0.203 F 
ATOM     84  F   UNL A   1      42.200  23.462  26.392  1.00  0.00    -0.200 F 
ATOM     85  C   UNL A   1      43.242  25.446  25.651  1.00  0.00     0.200 A 
ATOM     86  F   UNL A   1      44.283  27.452  24.963  1.00  0.00    -0.200 F 
ATOM     87  F   UNL A   1      43.721  24.810  24.573  1.00  0.00    -0.200 F 
ENDBRANCH  53  77
BRANCH  65  88
ATOM     88  C   UNL A   1      44.702  27.159  34.444  1.00  0.00     0.064 A 
ATOM     89  C   UNL A   1      45.970  27.738  34.598  1.00  0.00     0.173 A 
ATOM     90  C   UNL A   1      44.484  25.902  35.032  1.00  0.00     0.173 A 
ATOM     91  F   UNL A   1      46.240  28.930  34.045  1.00  0.00    -0.203 F 
ATOM     92  C   UNL A   1      46.983  27.076  35.290  1.00  0.00     0.198 A 
ATOM     93  C   UNL A   1      45.488  25.258  35.752  1.00  0.00     0.198 A 
ATOM     94  F   UNL A   1      43.290  25.300  34.921  1.00  0.00    -0.203 F 
ATOM     95  F   UNL A   1      48.201  27.628  35.381  1.00  0.00    -0.200 F 
ATOM     96  C   UNL A   1      46.739  25.843  35.875  1.00  0.00     0.200 A 
ATOM     97  F   UNL A   1      45.244  24.073  36.328  1.00  0.00    -0.200 F 
ATOM     98  F   UNL A   1      47.711  25.213  36.549  1.00  0.00    -0.200 F 
ENDBRANCH  65  88
ENDBRANCH  39  40
ENDBRANCH  32  34
ENDBRANCH  31  32
ENDBRANCH  30  31
ENDBRANCH   1  30
TORSDOF 16
ENDMDL
MODEL 3
REMARK VINA RESULT:     -13.4      4.620     10.563
REMARK SMILES O=C(OCCOCCOC(=O)c1ccc(-c2c3nc(c(-c4c(F)c(F)c(F)c(F)c4F)c4ccc([nH]4)c(-c4c(F)c(F)c(F)c(F)c4F)c4nc(c(-c5c(F)c(F)c(F)c(F)c5F)c5ccc2[nH]5)C=C4)C=C3)cc1)C1=Cc2cc(Cl)cc(-c3ccc(Cl)cc3)c2O[C@@H]1C(F)(F)F
REMARK SMILES IDX 7 1 6 2 5 3 4 4 3 5 2 6 1 7 75 8 76 9 92 10 77 11 91 12
REMARK SMILES IDX 78 13 90 14 79 15 82 16 80 17 81 18 93 19 94 20 95 21 96 22
REMARK SMILES IDX 83 23 84 24 89 25 85 26 88 27 86 28 87 29 8 30 9 31 10 32
REMARK SMILES IDX 11 33 12 34 13 35 74 36 14 37 73 38 15 39 16 40 17 41 67 42
REMARK SMILES IDX 18 43 72 44 66 45 68 46 19 47 71 48 65 49 64 50 20 52 52 53
REMARK SMILES IDX 32 54 51 55 33 56 36 57 50 58 69 59 34 60 35 61 49 63 70 64
REMARK SMILES IDX 37 65 21 66 22 67 30 68 23 69 24 70 28 71 31 72 25 73 26 74
REMARK SMILES IDX 29 75 27 76 53 77 54 78 62 79 55 80 56 81 60 82 63 83 57 84
REMARK SMILES IDX 58 85 61 86 59 87 38 88 39 89 47 90 40 91 41 92 45 93 48 94
REMARK SMILES IDX 42 95 43 96 46 97 44 98
REMARK H PARENT 68 51 36 62
REMARK Flexibility Score: inf
ROOT
ATOM      1  C   UNL A   1      30.638  31.458  25.283  1.00  0.00     0.202 C 
ENDROOT
BRANCH   1   2
ATOM      2  O   UNL A   1      29.626  31.839  24.324  1.00  0.00    -0.374 OA
BRANCH   2   3
ATOM      3  C   UNL A   1      28.462  31.070  23.512  1.00  0.00     0.202 C 
BRANCH   3   4
ATOM      4  C   UNL A   1      28.283  28.998  22.872  1.00  0.00     0.261 C 
BRANCH   4   5
ATOM      5  O   UNL A   1      29.157  27.797  23.396  1.00  0.00    -0.460 OA
BRANCH   5   6
ATOM      6  C   UNL A   1      30.352  27.701  22.799  1.00  0.00     0.338 C 
ATOM      7  O   UNL A   1      30.656  27.478  21.657  1.00  0.00    -0.246 OA
BRANCH   6   8
ATOM      8  C   UNL A   1      31.092  27.706  24.030  1.00  0.00     0.087 C 
ATOM      9  C   UNL A   1      30.353  26.933  25.042  1.00  0.00     0.027 C 
ATOM     10  C   UNL A   1      32.830  27.228  23.319  1.00  0.00     0.316 C 
ATOM     11  C   UNL A   1      30.908  25.326  25.658  1.00  0.00     0.019 A 
ATOM     12  O   UNL A   1      33.425  25.491  23.972  1.00  0.00    -0.475 OA
ATOM     13  C   UNL A   1      29.977  24.657  26.410  1.00  0.00     0.032 A 
ATOM     14  C   UNL A   1      32.362  24.513  25.095  1.00  0.00     0.135 A 
ATOM     15  C   UNL A   1      30.258  23.314  26.616  1.00  0.00     0.042 A 
ATOM     16  C   UNL A   1      32.600  23.165  25.451  1.00  0.00     0.026 A 
ATOM     17  Cl  UNL A   1      29.096  22.381  27.499  1.00  0.00    -0.084 Cl
ATOM     18  C   UNL A   1      31.444  22.635  26.145  1.00  0.00     0.033 A 
BRANCH  10  19
ATOM     19  C   UNL A   1      33.446  28.702  23.341  1.00  0.00     0.430 C 
ATOM     20  F   UNL A   1      33.350  29.329  24.529  1.00  0.00    -0.167 F 
ATOM     21  F   UNL A   1      34.795  28.582  23.134  1.00  0.00    -0.167 F 
ATOM     22  F   UNL A   1      33.040  29.528  22.352  1.00  0.00    -0.167 F 
ENDBRANCH  10  19
BRANCH  16  23
ATOM     23  C   UNL A   1      33.791  22.085  25.322  1.00  0.00    -0.015 A 
ATOM     24  C   UNL A   1      35.335  22.975  25.668  1.00  0.00     0.010 A 
ATOM     25  C   UNL A   1      34.000  20.132  24.808  1.00  0.00     0.010 A 
ATOM     26  C   UNL A   1      36.881  22.113  25.553  1.00  0.00     0.021 A 
ATOM     27  C   UNL A   1      35.633  19.379  24.778  1.00  0.00     0.021 A 
ATOM     28  C   UNL A   1      37.010  20.393  25.132  1.00  0.00     0.041 A 
ATOM     29  Cl  UNL A   1      38.570  19.662  25.099  1.00  0.00    -0.084 Cl
ENDBRANCH  16  23
ENDBRANCH   6   8
ENDBRANCH   5   6
ENDBRANCH   4   5
ENDBRANCH   3   4
ENDBRANCH   2   3
ENDBRANCH   1   2
BRANCH   1  30
ATOM     30  C   UNL A   1      31.054  32.496  26.324  1.00  0.00     0.261 C 
BRANCH  30  31
ATOM     31  O   UNL A   1      32.271  32.132  26.929  1.00  0.00    -0.460 OA
BRANCH  31  32
ATOM     32  C   UNL A   1      32.852  33.135  27.607  1.00  0.00     0.338 C 
ATOM     33  O   UNL A   1      32.393  34.206  27.943  1.00  0.00    -0.246 OA
BRANCH  32  34
ATOM     34  C   UNL A   1      34.197  32.644  27.863  1.00  0.00     0.060 A 
ATOM     35  C   UNL A   1      34.349  30.936  28.324  1.00  0.00     0.016 A 
ATOM     36  C   UNL A   1      35.502  33.831  27.998  1.00  0.00     0.016 A 
ATOM     37  C   UNL A   1      35.825  30.264  29.010  1.00  0.00     0.010 A 
ATOM     38  C   UNL A   1      37.052  33.280  28.709  1.00  0.00     0.010 A 
ATOM     39  C   UNL A   1      37.249  31.341  29.278  1.00  0.00    -0.014 A 
BRANCH  39  40
ATOM     40  C   UNL A   1      38.274  30.392  30.145  1.00  0.00     0.031 A 
ATOM     41  C   UNL A   1      38.482  30.637  31.646  1.00  0.00     0.074 A 
ATOM     42  C   UNL A   1      38.981  29.350  29.647  1.00  0.00     0.049 A 
ATOM     43  N   UNL A   1      39.529  30.390  32.405  1.00  0.00    -0.248 NA
ATOM     44  C   UNL A   1      37.381  31.277  32.373  1.00  0.00     0.031 C 
ATOM     45  C   UNL A   1      38.812  28.728  28.342  1.00  0.00     0.029 A 
ATOM     46  N   UNL A   1      40.082  28.697  30.174  1.00  0.00    -0.354 N 
ATOM     47  C   UNL A   1      39.260  30.978  33.642  1.00  0.00     0.074 A 
ATOM     48  C   UNL A   1      37.962  31.605  33.518  1.00  0.00     0.031 C 
ATOM     49  C   UNL A   1      39.856  27.923  28.092  1.00  0.00     0.029 A 
ATOM     50  C   UNL A   1      40.756  27.938  29.243  1.00  0.00     0.049 A 
ATOM     51  H   UNL A   1      40.355  28.767  31.118  1.00  0.00     0.167 HD
ATOM     52  C   UNL A   1      40.000  30.986  34.783  1.00  0.00     0.037 A 
ATOM     53  C   UNL A   1      41.968  27.346  29.276  1.00  0.00     0.037 A 
ATOM     54  C   UNL A   1      41.204  30.215  34.982  1.00  0.00     0.049 A 
ATOM     55  C   UNL A   1      42.798  27.359  30.533  1.00  0.00     0.074 A 
ATOM     56  C   UNL A   1      41.945  30.057  36.144  1.00  0.00     0.029 A 
ATOM     57  N   UNL A   1      41.820  29.442  34.014  1.00  0.00    -0.354 N 
ATOM     58  N   UNL A   1      42.569  27.961  31.671  1.00  0.00    -0.248 NA
ATOM     59  C   UNL A   1      44.038  26.564  30.520  1.00  0.00     0.031 C 
ATOM     60  C   UNL A   1      43.029  29.218  35.868  1.00  0.00     0.029 A 
ATOM     61  C   UNL A   1      42.929  28.804  34.551  1.00  0.00     0.049 A 
ATOM     62  H   UNL A   1      41.517  29.357  33.082  1.00  0.00     0.167 HD
ATOM     63  C   UNL A   1      43.591  27.564  32.526  1.00  0.00     0.074 A 
ATOM     64  C   UNL A   1      44.450  26.679  31.774  1.00  0.00     0.031 C 
ATOM     65  C   UNL A   1      43.779  27.895  33.827  1.00  0.00     0.037 A 
BRANCH  52  66
ATOM     66  C   UNL A   1      39.536  31.848  35.935  1.00  0.00     0.064 A 
ATOM     67  C   UNL A   1      40.053  33.129  36.180  1.00  0.00     0.173 A 
ATOM     68  C   UNL A   1      38.510  31.396  36.786  1.00  0.00     0.173 A 
ATOM     69  F   UNL A   1      41.019  33.629  35.395  1.00  0.00    -0.203 F 
ATOM     70  C   UNL A   1      39.618  33.890  37.264  1.00  0.00     0.198 A 
ATOM     71  C   UNL A   1      38.038  32.182  37.836  1.00  0.00     0.198 A 
ATOM     72  F   UNL A   1      37.944  30.194  36.589  1.00  0.00    -0.203 F 
ATOM     73  F   UNL A   1      40.193  35.073  37.521  1.00  0.00    -0.200 F 
ATOM     74  C   UNL A   1      38.607  33.420  38.086  1.00  0.00     0.200 A 
ATOM     75  F   UNL A   1      37.034  31.740  38.605  1.00  0.00    -0.200 F 
ATOM     76  F   UNL A   1      38.183  34.159  39.120  1.00  0.00    -0.200 F 
ENDBRANCH  52  66
BRANCH  53  77
ATOM     77  C   UNL A   1      42.475  26.641  28.066  1.00  0.00     0.064 A 
ATOM     78  C   UNL A   1      43.224  27.328  27.101  1.00  0.00     0.173 A 
ATOM     79  C   UNL A   1      42.202  25.284  27.839  1.00  0.00     0.173 A 
ATOM     80  F   UNL A   1      43.485  28.633  27.264  1.00  0.00    -0.203 F 
ATOM     81  C   UNL A   1      43.660  26.692  25.942  1.00  0.00     0.198 A 
ATOM     82  C   UNL A   1      42.660  24.642  26.690  1.00  0.00     0.198 A 
ATOM     83  F   UNL A   1      41.490  24.582  28.733  1.00  0.00    -0.203 F 
ATOM     84  F   UNL A   1      44.330  27.386  25.012  1.00  0.00    -0.200 F 
ATOM     85  C   UNL A   1      43.382  25.349  25.738  1.00  0.00     0.200 A 
ATOM     86  F   UNL A   1      42.400  23.341  26.500  1.00  0.00    -0.200 F 
ATOM     87  F   UNL A   1      43.804  24.737  24.623  1.00  0.00    -0.200 F 
ENDBRANCH  53  77
BRANCH  65  88
ATOM     88  C   UNL A   1      44.908  27.233  34.570  1.00  0.00     0.064 A 
ATOM     89  C   UNL A   1      46.207  27.762  34.584  1.00  0.00     0.173 A 
ATOM     90  C   UNL A   1      44.671  26.068  35.319  1.00  0.00     0.173 A 
ATOM     91  F   UNL A   1      46.495  28.864  33.876  1.00  0.00    -0.203 F 
ATOM     92  C   UNL A   1      47.230  27.136  35.297  1.00  0.00     0.198 A 
ATOM     93  C   UNL A   1      45.686  25.464  36.056  1.00  0.00     0.198 A 
ATOM     94  F   UNL A   1      43.447  25.518  35.346  1.00  0.00    -0.203 F 
ATOM     95  F   UNL A   1      48.474  27.633  35.254  1.00  0.00    -0.200 F 
ATOM     96  C   UNL A   1      46.967  25.995  36.040  1.00  0.00     0.200 A 
ATOM     97  F   UNL A   1      45.426  24.370  36.785  1.00  0.00    -0.200 F 
ATOM     98  F   UNL A   1      47.949  25.403  36.732  1.00  0.00    -0.200 F 
ENDBRANCH  65  88
ENDBRANCH  39  40
ENDBRANCH  32  34
ENDBRANCH  31  32
ENDBRANCH  30  31
ENDBRANCH   1  30
TORSDOF 16
ENDMDL
