MODEL 1
REMARK VINA RESULT:     -11.1      0.000      0.000
REMARK SMILES COc1cc(Br)c(OC)c(C(=O)NCCC(=O)OCCOCCOC(=O)c2ccc(-c3c4nc(c(-c5c(F)c(F)c(F)c(F)c5F)c5ccc([nH]5)c(-c5c(F)c(F)c(F)c(F)c5F)c5nc(c(-c6c(F)c(F)c(F)c(F)c6F)c6ccc3[nH]6)C=C5)C=C4)cc2)c1
REMARK SMILES IDX 20 1 19 2 18 3 16 4 17 5 15 6 14 7 13 8 11 9 12 10 10 12
REMARK SMILES IDX 3 13 4 14 90 15 5 16 6 17 7 18 2 19 1 20 8 21 9 22 21 23
REMARK SMILES IDX 22 24 23 25 24 26 25 27 26 28 27 29 28 30 89 31 29 32 88 33
REMARK SMILES IDX 30 34 31 35 32 36 82 37 33 38 87 39 81 40 83 41 34 42 86 43
REMARK SMILES IDX 80 44 79 45 35 47 67 48 47 49 66 50 48 51 51 52 65 53 84 54
REMARK SMILES IDX 49 55 50 56 64 58 85 59 52 60 36 61 37 62 45 63 38 64 39 65
REMARK SMILES IDX 43 66 46 67 40 68 41 69 44 70 42 71 68 72 69 73 77 74 70 75
REMARK SMILES IDX 71 76 75 77 78 78 72 79 73 80 76 81 74 82 53 83 54 84 62 85
REMARK SMILES IDX 55 86 56 87 60 88 63 89 57 90 58 91 61 92 59 93
REMARK H PARENT 13 11 83 46 51 57
REMARK Flexibility Score: inf
ROOT
ATOM      1  C   UNL A   1      32.304  28.243  26.869  1.00  0.00     0.202 C 
ENDROOT
BRANCH   1   2
ATOM      2  C   UNL A   1      31.490  27.272  26.009  1.00  0.00     0.261 C 
BRANCH   2   3
ATOM      3  O   UNL A   1      31.093  26.088  26.731  1.00  0.00    -0.463 OA
BRANCH   3   4
ATOM      4  C   UNL A   1      30.532  25.105  25.976  1.00  0.00     0.307 C 
ATOM      5  O   UNL A   1      30.145  24.024  26.402  1.00  0.00    -0.252 OA
BRANCH   4   6
ATOM      6  C   UNL A   1      30.495  25.454  24.512  1.00  0.00     0.144 C 
BRANCH   6   7
ATOM      7  C   UNL A   1      30.411  24.271  23.561  1.00  0.00     0.128 C 
BRANCH   7   8
ATOM      8  N   UNL A   1      31.530  24.165  22.631  1.00  0.00    -0.351 N 
ATOM      9  C   UNL A   1      32.605  23.299  22.585  1.00  0.00     0.255 C 
ATOM     10  O   UNL A   1      33.401  23.397  21.652  1.00  0.00    -0.269 OA
ATOM     11  H   UNL A   1      31.517  24.831  21.906  1.00  0.00     0.163 HD
BRANCH   9  12
ATOM     12  C   UNL A   1      32.804  22.246  23.618  1.00  0.00     0.086 A 
ATOM     13  C   UNL A   1      32.505  19.944  24.311  1.00  0.00     0.121 A 
ATOM     14  C   UNL A   1      33.043  20.238  25.559  1.00  0.00     0.066 A 
ATOM     15  C   UNL A   1      32.464  20.919  23.319  1.00  0.00     0.064 A 
ATOM     16  C   UNL A   1      33.467  21.538  25.845  1.00  0.00     0.064 A 
ATOM     17  Br  UNL A   1      34.090  21.849  27.615  1.00  0.00    -0.047 Br
ATOM     18  C   UNL A   1      33.354  22.554  24.878  1.00  0.00     0.146 A 
BRANCH  13  19
ATOM     19  O   UNL A   1      31.983  18.721  23.992  1.00  0.00    -0.497 OA
ATOM     20  C   UNL A   1      32.426  18.252  22.715  1.00  0.00     0.278 C 
ENDBRANCH  13  19
BRANCH  18  21
ATOM     21  O   UNL A   1      33.643  23.861  25.179  1.00  0.00    -0.495 OA
ATOM     22  C   UNL A   1      35.022  24.189  24.980  1.00  0.00     0.278 C 
ENDBRANCH  18  21
ENDBRANCH   9  12
ENDBRANCH   7   8
ENDBRANCH   6   7
ENDBRANCH   4   6
ENDBRANCH   3   4
ENDBRANCH   2   3
ENDBRANCH   1   2
BRANCH   1  23
ATOM     23  O   UNL A   1      31.668  29.472  27.206  1.00  0.00    -0.374 OA
BRANCH  23  24
ATOM     24  C   UNL A   1      31.554  30.453  26.177  1.00  0.00     0.202 C 
BRANCH  24  25
ATOM     25  C   UNL A   1      31.958  31.881  26.563  1.00  0.00     0.261 C 
BRANCH  25  26
ATOM     26  O   UNL A   1      32.744  31.911  27.769  1.00  0.00    -0.460 OA
BRANCH  26  27
ATOM     27  C   UNL A   1      33.636  32.927  27.829  1.00  0.00     0.338 C 
ATOM     28  O   UNL A   1      33.389  34.126  27.867  1.00  0.00    -0.246 OA
BRANCH  27  29
ATOM     29  C   UNL A   1      35.006  32.420  28.023  1.00  0.00     0.060 A 
ATOM     30  C   UNL A   1      35.162  31.029  28.083  1.00  0.00     0.016 A 
ATOM     31  C   UNL A   1      36.090  33.267  28.270  1.00  0.00     0.016 A 
ATOM     32  C   UNL A   1      36.379  30.481  28.479  1.00  0.00     0.010 A 
ATOM     33  C   UNL A   1      37.312  32.712  28.675  1.00  0.00     0.010 A 
ATOM     34  C   UNL A   1      37.442  31.321  28.836  1.00  0.00    -0.014 A 
BRANCH  34  35
ATOM     35  C   UNL A   1      38.590  30.724  29.565  1.00  0.00     0.031 A 
ATOM     36  C   UNL A   1      38.779  31.064  31.021  1.00  0.00     0.074 A 
ATOM     37  C   UNL A   1      39.388  29.815  28.979  1.00  0.00     0.049 A 
ATOM     38  N   UNL A   1      39.639  30.583  31.885  1.00  0.00    -0.248 NA
ATOM     39  C   UNL A   1      37.872  32.079  31.583  1.00  0.00     0.031 C 
ATOM     40  C   UNL A   1      39.290  29.376  27.590  1.00  0.00     0.029 A 
ATOM     41  N   UNL A   1      40.433  29.085  29.491  1.00  0.00    -0.354 N 
ATOM     42  C   UNL A   1      39.376  31.234  33.084  1.00  0.00     0.074 A 
ATOM     43  C   UNL A   1      38.299  32.167  32.834  1.00  0.00     0.031 C 
ATOM     44  C   UNL A   1      40.233  28.444  27.360  1.00  0.00     0.029 A 
ATOM     45  C   UNL A   1      41.007  28.232  28.582  1.00  0.00     0.049 A 
ATOM     46  H   UNL A   1      40.742  29.167  30.423  1.00  0.00     0.167 HD
ATOM     47  C   UNL A   1      39.968  31.061  34.289  1.00  0.00     0.037 A 
ATOM     48  C   UNL A   1      42.040  27.379  28.723  1.00  0.00     0.037 A 
ATOM     49  C   UNL A   1      41.027  30.123  34.549  1.00  0.00     0.049 A 
ATOM     50  C   UNL A   1      42.711  27.243  30.066  1.00  0.00     0.074 A 
ATOM     51  C   UNL A   1      41.663  29.849  35.747  1.00  0.00     0.029 A 
ATOM     52  N   UNL A   1      41.611  29.309  33.590  1.00  0.00    -0.354 N 
ATOM     53  N   UNL A   1      42.418  27.822  31.205  1.00  0.00    -0.248 NA
ATOM     54  C   UNL A   1      43.855  26.321  30.143  1.00  0.00     0.031 C 
ATOM     55  C   UNL A   1      42.665  28.903  35.504  1.00  0.00     0.029 A 
ATOM     56  C   UNL A   1      42.620  28.553  34.165  1.00  0.00     0.049 A 
ATOM     57  H   UNL A   1      41.347  29.275  32.642  1.00  0.00     0.167 HD
ATOM     58  C   UNL A   1      43.315  27.313  32.136  1.00  0.00     0.074 A 
ATOM     59  C   UNL A   1      44.153  26.365  31.433  1.00  0.00     0.031 C 
ATOM     60  C   UNL A   1      43.437  27.605  33.454  1.00  0.00     0.037 A 
BRANCH  47  61
ATOM     61  C   UNL A   1      39.494  31.919  35.425  1.00  0.00     0.064 A 
ATOM     62  C   UNL A   1      38.547  31.460  36.351  1.00  0.00     0.173 A 
ATOM     63  C   UNL A   1      40.035  33.200  35.615  1.00  0.00     0.173 A 
ATOM     64  F   UNL A   1      37.992  30.247  36.204  1.00  0.00    -0.203 F 
ATOM     65  C   UNL A   1      38.145  32.258  37.418  1.00  0.00     0.198 A 
ATOM     66  C   UNL A   1      39.648  33.986  36.697  1.00  0.00     0.198 A 
ATOM     67  F   UNL A   1      40.947  33.684  34.759  1.00  0.00    -0.203 F 
ATOM     68  F   UNL A   1      37.213  31.814  38.273  1.00  0.00    -0.200 F 
ATOM     69  C   UNL A   1      38.700  33.517  37.595  1.00  0.00     0.200 A 
ATOM     70  F   UNL A   1      40.194  35.197  36.873  1.00  0.00    -0.200 F 
ATOM     71  F   UNL A   1      38.320  34.279  38.629  1.00  0.00    -0.200 F 
ENDBRANCH  47  61
BRANCH  48  72
ATOM     72  C   UNL A   1      42.512  26.573  27.566  1.00  0.00     0.064 A 
ATOM     73  C   UNL A   1      42.008  25.287  27.326  1.00  0.00     0.173 A 
ATOM     74  C   UNL A   1      43.514  27.051  26.710  1.00  0.00     0.173 A 
ATOM     75  F   UNL A   1      41.069  24.774  28.135  1.00  0.00    -0.203 F 
ATOM     76  C   UNL A   1      42.508  24.500  26.291  1.00  0.00     0.198 A 
ATOM     77  C   UNL A   1      43.994  26.275  25.659  1.00  0.00     0.198 A 
ATOM     78  F   UNL A   1      44.033  28.273  26.901  1.00  0.00    -0.203 F 
ATOM     79  F   UNL A   1      42.051  23.251  26.121  1.00  0.00    -0.200 F 
ATOM     80  C   UNL A   1      43.498  24.995  25.456  1.00  0.00     0.200 A 
ATOM     81  F   UNL A   1      44.946  26.759  24.850  1.00  0.00    -0.200 F 
ATOM     82  F   UNL A   1      43.986  24.234  24.466  1.00  0.00    -0.200 F 
ENDBRANCH  48  72
BRANCH  60  83
ATOM     83  C   UNL A   1      44.488  26.863  34.228  1.00  0.00     0.064 A 
ATOM     84  C   UNL A   1      45.783  27.378  34.391  1.00  0.00     0.173 A 
ATOM     85  C   UNL A   1      44.190  25.632  34.833  1.00  0.00     0.173 A 
ATOM     86  F   UNL A   1      46.121  28.544  33.821  1.00  0.00    -0.203 F 
ATOM     87  C   UNL A   1      46.750  26.672  35.101  1.00  0.00     0.198 A 
ATOM     88  C   UNL A   1      45.151  24.943  35.568  1.00  0.00     0.198 A 
ATOM     89  F   UNL A   1      42.965  25.100  34.715  1.00  0.00    -0.203 F 
ATOM     90  F   UNL A   1      47.996  27.157  35.196  1.00  0.00    -0.200 F 
ATOM     91  C   UNL A   1      46.432  25.459  35.693  1.00  0.00     0.200 A 
ATOM     92  F   UNL A   1      44.839  23.778  36.150  1.00  0.00    -0.200 F 
ATOM     93  F   UNL A   1      47.365  24.781  36.376  1.00  0.00    -0.200 F 
ENDBRANCH  60  83
ENDBRANCH  34  35
ENDBRANCH  27  29
ENDBRANCH  26  27
ENDBRANCH  25  26
ENDBRANCH  24  25
ENDBRANCH  23  24
ENDBRANCH   1  23
TORSDOF 19
ENDMDL
MODEL 2
REMARK VINA RESULT:     -10.6      4.389     10.100
REMARK SMILES COc1cc(Br)c(OC)c(C(=O)NCCC(=O)OCCOCCOC(=O)c2ccc(-c3c4nc(c(-c5c(F)c(F)c(F)c(F)c5F)c5ccc([nH]5)c(-c5c(F)c(F)c(F)c(F)c5F)c5nc(c(-c6c(F)c(F)c(F)c(F)c6F)c6ccc3[nH]6)C=C5)C=C4)cc2)c1
REMARK SMILES IDX 20 1 19 2 18 3 16 4 17 5 15 6 14 7 13 8 11 9 12 10 10 12
REMARK SMILES IDX 3 13 4 14 90 15 5 16 6 17 7 18 2 19 1 20 8 21 9 22 21 23
REMARK SMILES IDX 22 24 23 25 24 26 25 27 26 28 27 29 28 30 89 31 29 32 88 33
REMARK SMILES IDX 30 34 31 35 32 36 82 37 33 38 87 39 81 40 83 41 34 42 86 43
REMARK SMILES IDX 80 44 79 45 35 47 67 48 47 49 66 50 48 51 51 52 65 53 84 54
REMARK SMILES IDX 49 55 50 56 64 58 85 59 52 60 36 61 37 62 45 63 38 64 39 65
REMARK SMILES IDX 43 66 46 67 40 68 41 69 44 70 42 71 68 72 69 73 77 74 70 75
REMARK SMILES IDX 71 76 75 77 78 78 72 79 73 80 76 81 74 82 53 83 54 84 62 85
REMARK SMILES IDX 55 86 56 87 60 88 63 89 57 90 58 91 61 92 59 93
REMARK H PARENT 13 11 83 46 51 57
REMARK Flexibility Score: inf
ROOT
ATOM      1  C   UNL A   1      36.502  22.169  25.029  1.00  0.00     0.202 C 
ENDROOT
BRANCH   1   2
ATOM      2  C   UNL A   1      35.485  21.417  25.890  1.00  0.00     0.261 C 
BRANCH   2   3
ATOM      3  O   UNL A   1      34.121  21.680  25.499  1.00  0.00    -0.463 OA
BRANCH   3   4
ATOM      4  C   UNL A   1      33.537  20.717  24.736  1.00  0.00     0.307 C 
ATOM      5  O   UNL A   1      33.984  19.590  24.562  1.00  0.00    -0.252 OA
BRANCH   4   6
ATOM      6  C   UNL A   1      32.289  21.204  24.049  1.00  0.00     0.144 C 
BRANCH   6   7
ATOM      7  C   UNL A   1      32.515  21.999  22.772  1.00  0.00     0.128 C 
BRANCH   7   8
ATOM      8  N   UNL A   1      33.655  22.907  22.823  1.00  0.00    -0.351 N 
ATOM      9  C   UNL A   1      33.773  24.207  23.274  1.00  0.00     0.255 C 
ATOM     10  O   UNL A   1      34.879  24.743  23.245  1.00  0.00    -0.269 OA
ATOM     11  H   UNL A   1      34.492  22.524  22.473  1.00  0.00     0.163 HD
BRANCH   9  12
ATOM     12  C   UNL A   1      32.604  24.956  23.811  1.00  0.00     0.086 A 
ATOM     13  C   UNL A   1      30.856  25.147  25.477  1.00  0.00     0.121 A 
ATOM     14  C   UNL A   1      30.329  26.250  24.814  1.00  0.00     0.066 A 
ATOM     15  C   UNL A   1      32.033  24.557  25.027  1.00  0.00     0.064 A 
ATOM     16  C   UNL A   1      30.936  26.715  23.645  1.00  0.00     0.064 A 
ATOM     17  Br  UNL A   1      30.072  28.163  22.767  1.00  0.00    -0.047 Br
ATOM     18  C   UNL A   1      32.079  26.075  23.133  1.00  0.00     0.146 A 
BRANCH  13  19
ATOM     19  O   UNL A   1      30.262  24.579  26.571  1.00  0.00    -0.497 OA
ATOM     20  C   UNL A   1      30.715  23.243  26.807  1.00  0.00     0.278 C 
ENDBRANCH  13  19
BRANCH  18  21
ATOM     21  O   UNL A   1      32.615  26.433  21.921  1.00  0.00    -0.495 OA
ATOM     22  C   UNL A   1      32.075  25.685  20.827  1.00  0.00     0.278 C 
ENDBRANCH  18  21
ENDBRANCH   9  12
ENDBRANCH   7   8
ENDBRANCH   6   7
ENDBRANCH   4   6
ENDBRANCH   3   4
ENDBRANCH   2   3
ENDBRANCH   1   2
BRANCH   1  23
ATOM     23  O   UNL A   1      37.658  21.434  24.632  1.00  0.00    -0.374 OA
BRANCH  23  24
ATOM     24  C   UNL A   1      37.720  20.060  25.008  1.00  0.00     0.202 C 
BRANCH  24  25
ATOM     25  C   UNL A   1      39.116  19.516  25.335  1.00  0.00     0.261 C 
BRANCH  25  26
ATOM     26  O   UNL A   1      39.651  20.097  26.539  1.00  0.00    -0.460 OA
BRANCH  26  27
ATOM     27  C   UNL A   1      40.896  20.612  26.404  1.00  0.00     0.338 C 
ATOM     28  O   UNL A   1      41.810  20.168  25.722  1.00  0.00    -0.246 OA
BRANCH  27  29
ATOM     29  C   UNL A   1      41.000  21.926  27.064  1.00  0.00     0.060 A 
ATOM     30  C   UNL A   1      40.440  23.019  26.390  1.00  0.00     0.016 A 
ATOM     31  C   UNL A   1      41.733  22.117  28.239  1.00  0.00     0.016 A 
ATOM     32  C   UNL A   1      40.686  24.314  26.836  1.00  0.00     0.010 A 
ATOM     33  C   UNL A   1      41.985  23.423  28.682  1.00  0.00     0.010 A 
ATOM     34  C   UNL A   1      41.511  24.526  27.949  1.00  0.00    -0.014 A 
BRANCH  34  35
ATOM     35  C   UNL A   1      42.021  25.900  28.189  1.00  0.00     0.031 A 
ATOM     36  C   UNL A   1      43.352  26.292  27.600  1.00  0.00     0.074 A 
ATOM     37  C   UNL A   1      41.273  26.817  28.827  1.00  0.00     0.049 A 
ATOM     38  N   UNL A   1      43.945  27.460  27.585  1.00  0.00    -0.248 NA
ATOM     39  C   UNL A   1      44.113  25.226  26.930  1.00  0.00     0.031 C 
ATOM     40  C   UNL A   1      39.957  26.574  29.413  1.00  0.00     0.029 A 
ATOM     41  N   UNL A   1      41.512  28.147  29.073  1.00  0.00    -0.354 N 
ATOM     42  C   UNL A   1      45.143  27.267  26.908  1.00  0.00     0.074 A 
ATOM     43  C   UNL A   1      45.210  25.866  26.554  1.00  0.00     0.031 C 
ATOM     44  C   UNL A   1      39.499  27.722  29.945  1.00  0.00     0.029 A 
ATOM     45  C   UNL A   1      40.494  28.774  29.748  1.00  0.00     0.049 A 
ATOM     46  H   UNL A   1      42.335  28.607  28.791  1.00  0.00     0.167 HD
ATOM     47  C   UNL A   1      46.096  28.178  26.596  1.00  0.00     0.037 A 
ATOM     48  C   UNL A   1      40.383  30.052  30.158  1.00  0.00     0.037 A 
ATOM     49  C   UNL A   1      46.026  29.575  26.931  1.00  0.00     0.049 A 
ATOM     50  C   UNL A   1      41.482  31.032  29.838  1.00  0.00     0.074 A 
ATOM     51  C   UNL A   1      46.925  30.582  26.623  1.00  0.00     0.029 A 
ATOM     52  N   UNL A   1      45.000  30.162  27.655  1.00  0.00    -0.354 N 
ATOM     53  N   UNL A   1      42.583  30.852  29.150  1.00  0.00    -0.248 NA
ATOM     54  C   UNL A   1      41.314  32.403  30.346  1.00  0.00     0.031 C 
ATOM     55  C   UNL A   1      46.466  31.770  27.202  1.00  0.00     0.029 A 
ATOM     56  C   UNL A   1      45.258  31.512  27.828  1.00  0.00     0.049 A 
ATOM     57  H   UNL A   1      44.206  29.689  27.995  1.00  0.00     0.167 HD
ATOM     58  C   UNL A   1      43.220  32.087  29.115  1.00  0.00     0.074 A 
ATOM     59  C   UNL A   1      42.374  33.013  29.837  1.00  0.00     0.031 C 
ATOM     60  C   UNL A   1      44.400  32.424  28.539  1.00  0.00     0.037 A 
BRANCH  47  61
ATOM     61  C   UNL A   1      47.311  27.689  25.867  1.00  0.00     0.064 A 
ATOM     62  C   UNL A   1      47.362  27.641  24.467  1.00  0.00     0.173 A 
ATOM     63  C   UNL A   1      48.458  27.309  26.581  1.00  0.00     0.173 A 
ATOM     64  F   UNL A   1      46.286  27.982  23.740  1.00  0.00    -0.203 F 
ATOM     65  C   UNL A   1      48.511  27.216  23.806  1.00  0.00     0.198 A 
ATOM     66  C   UNL A   1      49.614  26.907  25.916  1.00  0.00     0.198 A 
ATOM     67  F   UNL A   1      48.462  27.340  27.922  1.00  0.00    -0.203 F 
ATOM     68  F   UNL A   1      48.527  27.145  22.468  1.00  0.00    -0.200 F 
ATOM     69  C   UNL A   1      49.639  26.857  24.530  1.00  0.00     0.200 A 
ATOM     70  F   UNL A   1      50.705  26.571  26.617  1.00  0.00    -0.200 F 
ATOM     71  F   UNL A   1      50.747  26.458  23.893  1.00  0.00    -0.200 F 
ENDBRANCH  47  61
BRANCH  48  72
ATOM     72  C   UNL A   1      39.183  30.495  30.916  1.00  0.00     0.064 A 
ATOM     73  C   UNL A   1      39.109  30.345  32.308  1.00  0.00     0.173 A 
ATOM     74  C   UNL A   1      38.066  31.027  30.257  1.00  0.00     0.173 A 
ATOM     75  F   UNL A   1      40.141  29.813  32.980  1.00  0.00    -0.203 F 
ATOM     76  C   UNL A   1      37.953  30.684  33.008  1.00  0.00     0.198 A 
ATOM     77  C   UNL A   1      36.921  31.392  30.961  1.00  0.00     0.198 A 
ATOM     78  F   UNL A   1      38.084  31.186  28.925  1.00  0.00    -0.203 F 
ATOM     79  F   UNL A   1      37.887  30.475  34.330  1.00  0.00    -0.200 F 
ATOM     80  C   UNL A   1      36.861  31.210  32.335  1.00  0.00     0.200 A 
ATOM     81  F   UNL A   1      35.869  31.907  30.307  1.00  0.00    -0.200 F 
ATOM     82  F   UNL A   1      35.746  31.528  33.007  1.00  0.00    -0.200 F 
ENDBRANCH  48  72
BRANCH  60  83
ATOM     83  C   UNL A   1      44.826  33.861  28.634  1.00  0.00     0.064 A 
ATOM     84  C   UNL A   1      45.651  34.317  29.673  1.00  0.00     0.173 A 
ATOM     85  C   UNL A   1      44.420  34.788  27.662  1.00  0.00     0.173 A 
ATOM     86  F   UNL A   1      46.054  33.473  30.634  1.00  0.00    -0.203 F 
ATOM     87  C   UNL A   1      46.026  35.655  29.753  1.00  0.00     0.198 A 
ATOM     88  C   UNL A   1      44.822  36.119  27.729  1.00  0.00     0.198 A 
ATOM     89  F   UNL A   1      43.638  34.402  26.643  1.00  0.00    -0.203 F 
ATOM     90  F   UNL A   1      46.769  36.080  30.785  1.00  0.00    -0.200 F 
ATOM     91  C   UNL A   1      45.617  36.553  28.779  1.00  0.00     0.200 A 
ATOM     92  F   UNL A   1      44.436  36.982  26.780  1.00  0.00    -0.200 F 
ATOM     93  F   UNL A   1      45.979  37.841  28.859  1.00  0.00    -0.200 F 
ENDBRANCH  60  83
ENDBRANCH  34  35
ENDBRANCH  27  29
ENDBRANCH  26  27
ENDBRANCH  25  26
ENDBRANCH  24  25
ENDBRANCH  23  24
ENDBRANCH   1  23
TORSDOF 19
ENDMDL
MODEL 3
REMARK VINA RESULT:     -10.5      4.669     10.391
REMARK SMILES COc1cc(Br)c(OC)c(C(=O)NCCC(=O)OCCOCCOC(=O)c2ccc(-c3c4nc(c(-c5c(F)c(F)c(F)c(F)c5F)c5ccc([nH]5)c(-c5c(F)c(F)c(F)c(F)c5F)c5nc(c(-c6c(F)c(F)c(F)c(F)c6F)c6ccc3[nH]6)C=C5)C=C4)cc2)c1
REMARK SMILES IDX 20 1 19 2 18 3 16 4 17 5 15 6 14 7 13 8 11 9 12 10 10 12
REMARK SMILES IDX 3 13 4 14 90 15 5 16 6 17 7 18 2 19 1 20 8 21 9 22 21 23
REMARK SMILES IDX 22 24 23 25 24 26 25 27 26 28 27 29 28 30 89 31 29 32 88 33
REMARK SMILES IDX 30 34 31 35 32 36 82 37 33 38 87 39 81 40 83 41 34 42 86 43
REMARK SMILES IDX 80 44 79 45 35 47 67 48 47 49 66 50 48 51 51 52 65 53 84 54
REMARK SMILES IDX 49 55 50 56 64 58 85 59 52 60 36 61 37 62 45 63 38 64 39 65
REMARK SMILES IDX 43 66 46 67 40 68 41 69 44 70 42 71 68 72 69 73 77 74 70 75
REMARK SMILES IDX 71 76 75 77 78 78 72 79 73 80 76 81 74 82 53 83 54 84 62 85
REMARK SMILES IDX 55 86 56 87 60 88 63 89 57 90 58 91 61 92 59 93
REMARK H PARENT 13 11 83 46 51 57
REMARK Flexibility Score: inf
ROOT
ATOM      1  C   UNL A   1      36.057  21.502  25.803  1.00  0.00     0.202 C 
ENDROOT
BRANCH   1   2
ATOM      2  C   UNL A   1      34.700  20.961  25.346  1.00  0.00     0.261 C 
BRANCH   2   3
ATOM      3  O   UNL A   1      33.723  22.004  25.146  1.00  0.00    -0.463 OA
BRANCH   3   4
ATOM      4  C   UNL A   1      33.563  22.414  23.859  1.00  0.00     0.307 C 
ATOM      5  O   UNL A   1      34.472  22.729  23.102  1.00  0.00    -0.252 OA
BRANCH   4   6
ATOM      6  C   UNL A   1      32.113  22.516  23.463  1.00  0.00     0.144 C 
BRANCH   6   7
ATOM      7  C   UNL A   1      31.640  23.907  23.073  1.00  0.00     0.128 C 
BRANCH   7   8
ATOM      8  N   UNL A   1      32.559  24.634  22.204  1.00  0.00    -0.351 N 
ATOM      9  C   UNL A   1      32.769  25.986  22.018  1.00  0.00     0.255 C 
ATOM     10  O   UNL A   1      33.653  26.344  21.241  1.00  0.00    -0.269 OA
ATOM     11  H   UNL A   1      33.133  24.056  21.651  1.00  0.00     0.163 HD
BRANCH   9  12
ATOM     12  C   UNL A   1      31.971  27.008  22.750  1.00  0.00     0.086 A 
ATOM     13  C   UNL A   1      30.153  28.609  22.743  1.00  0.00     0.121 A 
ATOM     14  C   UNL A   1      30.496  29.021  24.026  1.00  0.00     0.066 A 
ATOM     15  C   UNL A   1      30.831  27.553  22.142  1.00  0.00     0.064 A 
ATOM     16  C   UNL A   1      31.578  28.429  24.681  1.00  0.00     0.064 A 
ATOM     17  Br  UNL A   1      32.020  29.139  26.389  1.00  0.00    -0.047 Br
ATOM     18  C   UNL A   1      32.325  27.416  24.052  1.00  0.00     0.146 A 
BRANCH  13  19
ATOM     19  O   UNL A   1      29.169  29.207  22.005  1.00  0.00    -0.497 OA
ATOM     20  C   UNL A   1      28.069  29.643  22.810  1.00  0.00     0.278 C 
ENDBRANCH  13  19
BRANCH  18  21
ATOM     21  O   UNL A   1      33.466  26.911  24.622  1.00  0.00    -0.495 OA
ATOM     22  C   UNL A   1      33.202  25.907  25.607  1.00  0.00     0.278 C 
ENDBRANCH  18  21
ENDBRANCH   9  12
ENDBRANCH   7   8
ENDBRANCH   6   7
ENDBRANCH   4   6
ENDBRANCH   3   4
ENDBRANCH   2   3
ENDBRANCH   1   2
BRANCH   1  23
ATOM     23  O   UNL A   1      37.132  21.374  24.877  1.00  0.00    -0.374 OA
BRANCH  23  24
ATOM     24  C   UNL A   1      38.453  21.328  25.410  1.00  0.00     0.202 C 
BRANCH  24  25
ATOM     25  C   UNL A   1      39.090  19.937  25.509  1.00  0.00     0.261 C 
BRANCH  25  26
ATOM     26  O   UNL A   1      39.998  19.838  26.622  1.00  0.00    -0.460 OA
BRANCH  26  27
ATOM     27  C   UNL A   1      41.289  19.631  26.273  1.00  0.00     0.338 C 
ATOM     28  O   UNL A   1      41.759  18.636  25.736  1.00  0.00    -0.246 OA
BRANCH  27  29
ATOM     29  C   UNL A   1      42.091  20.852  26.460  1.00  0.00     0.060 A 
ATOM     30  C   UNL A   1      42.438  21.187  27.775  1.00  0.00     0.016 A 
ATOM     31  C   UNL A   1      42.390  21.720  25.406  1.00  0.00     0.016 A 
ATOM     32  C   UNL A   1      43.002  22.428  28.054  1.00  0.00     0.010 A 
ATOM     33  C   UNL A   1      42.952  22.973  25.691  1.00  0.00     0.010 A 
ATOM     34  C   UNL A   1      43.205  23.352  27.021  1.00  0.00    -0.014 A 
BRANCH  34  35
ATOM     35  C   UNL A   1      43.483  24.764  27.390  1.00  0.00     0.031 A 
ATOM     36  C   UNL A   1      44.835  25.345  27.063  1.00  0.00     0.074 A 
ATOM     37  C   UNL A   1      42.523  25.548  27.910  1.00  0.00     0.049 A 
ATOM     38  N   UNL A   1      45.265  26.576  27.189  1.00  0.00    -0.248 NA
ATOM     39  C   UNL A   1      45.834  24.416  26.510  1.00  0.00     0.031 C 
ATOM     40  C   UNL A   1      41.168  25.117  28.241  1.00  0.00     0.029 A 
ATOM     41  N   UNL A   1      42.541  26.883  28.233  1.00  0.00    -0.354 N 
ATOM     42  C   UNL A   1      46.578  26.566  26.735  1.00  0.00     0.074 A 
ATOM     43  C   UNL A   1      46.887  25.204  26.357  1.00  0.00     0.031 C 
ATOM     44  C   UNL A   1      40.479  26.171  28.715  1.00  0.00     0.029 A 
ATOM     45  C   UNL A   1      41.349  27.345  28.732  1.00  0.00     0.049 A 
ATOM     46  H   UNL A   1      43.335  27.454  28.118  1.00  0.00     0.167 HD
ATOM     47  C   UNL A   1      47.445  27.601  26.627  1.00  0.00     0.037 A 
ATOM     48  C   UNL A   1      41.003  28.577  29.153  1.00  0.00     0.037 A 
ATOM     49  C   UNL A   1      47.138  28.960  26.984  1.00  0.00     0.049 A 
ATOM     50  C   UNL A   1      42.006  29.699  29.065  1.00  0.00     0.074 A 
ATOM     51  C   UNL A   1      47.940  30.083  26.874  1.00  0.00     0.029 A 
ATOM     52  N   UNL A   1      45.934  29.379  27.528  1.00  0.00    -0.354 N 
ATOM     53  N   UNL A   1      43.224  29.691  28.582  1.00  0.00    -0.248 NA
ATOM     54  C   UNL A   1      41.575  31.011  29.575  1.00  0.00     0.031 C 
ATOM     55  C   UNL A   1      47.236  31.175  27.395  1.00  0.00     0.029 A 
ATOM     56  C   UNL A   1      45.981  30.740  27.785  1.00  0.00     0.049 A 
ATOM     57  H   UNL A   1      45.161  28.795  27.706  1.00  0.00     0.167 HD
ATOM     58  C   UNL A   1      43.693  30.994  28.699  1.00  0.00     0.074 A 
ATOM     59  C   UNL A   1      42.621  31.772  29.284  1.00  0.00     0.031 C 
ATOM     60  C   UNL A   1      44.901  31.502  28.356  1.00  0.00     0.037 A 
BRANCH  47  61
ATOM     61  C   UNL A   1      48.823  27.302  26.115  1.00  0.00     0.064 A 
ATOM     62  C   UNL A   1      49.866  26.935  26.976  1.00  0.00     0.173 A 
ATOM     63  C   UNL A   1      49.087  27.336  24.737  1.00  0.00     0.173 A 
ATOM     64  F   UNL A   1      49.667  26.901  28.302  1.00  0.00    -0.203 F 
ATOM     65  C   UNL A   1      51.130  26.629  26.479  1.00  0.00     0.198 A 
ATOM     66  C   UNL A   1      50.345  27.005  24.241  1.00  0.00     0.198 A 
ATOM     67  F   UNL A   1      48.121  27.677  23.871  1.00  0.00    -0.203 F 
ATOM     68  F   UNL A   1      52.123  26.314  27.322  1.00  0.00    -0.200 F 
ATOM     69  C   UNL A   1      51.367  26.656  25.112  1.00  0.00     0.200 A 
ATOM     70  F   UNL A   1      50.569  27.022  22.920  1.00  0.00    -0.200 F 
ATOM     71  F   UNL A   1      52.580  26.351  24.635  1.00  0.00    -0.200 F 
ENDBRANCH  47  61
BRANCH  48  72
ATOM     72  C   UNL A   1      39.641  28.831  29.694  1.00  0.00     0.064 A 
ATOM     73  C   UNL A   1      38.613  29.310  28.871  1.00  0.00     0.173 A 
ATOM     74  C   UNL A   1      39.358  28.651  31.055  1.00  0.00     0.173 A 
ATOM     75  F   UNL A   1      38.844  29.526  27.567  1.00  0.00    -0.203 F 
ATOM     76  C   UNL A   1      37.361  29.625  29.394  1.00  0.00     0.198 A 
ATOM     77  C   UNL A   1      38.098  28.940  31.572  1.00  0.00     0.198 A 
ATOM     78  F   UNL A   1      40.310  28.200  31.886  1.00  0.00    -0.203 F 
ATOM     79  F   UNL A   1      36.414  30.138  28.597  1.00  0.00    -0.200 F 
ATOM     80  C   UNL A   1      37.103  29.437  30.744  1.00  0.00     0.200 A 
ATOM     81  F   UNL A   1      37.850  28.751  32.876  1.00  0.00    -0.200 F 
ATOM     82  F   UNL A   1      35.901  29.749  31.248  1.00  0.00    -0.200 F 
ENDBRANCH  48  72
BRANCH  60  83
ATOM     83  C   UNL A   1      45.114  32.973  28.569  1.00  0.00     0.064 A 
ATOM     84  C   UNL A   1      45.718  33.469  29.734  1.00  0.00     0.173 A 
ATOM     85  C   UNL A   1      44.729  33.896  27.585  1.00  0.00     0.173 A 
ATOM     86  F   UNL A   1      46.093  32.628  30.709  1.00  0.00    -0.203 F 
ATOM     87  C   UNL A   1      45.897  34.836  29.921  1.00  0.00     0.198 A 
ATOM     88  C   UNL A   1      44.937  35.261  27.762  1.00  0.00     0.198 A 
ATOM     89  F   UNL A   1      44.155  33.475  26.448  1.00  0.00    -0.203 F 
ATOM     90  F   UNL A   1      46.426  35.291  31.066  1.00  0.00    -0.200 F 
ATOM     91  C   UNL A   1      45.512  35.731  28.933  1.00  0.00     0.200 A 
ATOM     92  F   UNL A   1      44.575  36.123  26.802  1.00  0.00    -0.200 F 
ATOM     93  F   UNL A   1      45.685  37.047  29.115  1.00  0.00    -0.200 F 
ENDBRANCH  60  83
ENDBRANCH  34  35
ENDBRANCH  27  29
ENDBRANCH  26  27
ENDBRANCH  25  26
ENDBRANCH  24  25
ENDBRANCH  23  24
ENDBRANCH   1  23
TORSDOF 19
ENDMDL
