MODEL 1
REMARK VINA RESULT:     -14.0      0.000      0.000
REMARK SMILES Cc1cccc(N2CCN(c3ncc(NC(=O)c4ccccc4F)cc3C(=O)OCCOCCOC(=O)c3ccc(-c4c5nc(c(-c6c(F)c(F)c(F)c(F)c6F)c6ccc([nH]6)c(-c6c(F)c(F)c(F)c(F)c6F)c6nc(c(-c7c(F)c(F)c(F)c(F)c7F)c7ccc4[nH]7)C=C6)C=C5)cc3)C[C@@H]2C)c1
REMARK SMILES IDX 32 1 31 2 30 3 29 4 27 5 28 6 26 7 11 8 12 9 13 10 25 11
REMARK SMILES IDX 14 12 10 13 7 14 8 15 102 16 9 17 101 18 103 19 6 20 1 21
REMARK SMILES IDX 2 22 3 23 104 24 4 25 5 26 15 27 16 28 17 30 18 31 19 32
REMARK SMILES IDX 23 33 20 34 22 35 24 36 21 37 33 38 34 39 35 40 36 41 37 42
REMARK SMILES IDX 38 43 39 44 100 45 40 46 99 47 41 48 42 49 43 50 93 51 44 52
REMARK SMILES IDX 98 53 92 54 94 55 45 56 97 57 91 58 90 59 46 61 78 62 58 63
REMARK SMILES IDX 77 64 59 65 62 66 76 67 95 68 60 69 61 70 75 72 96 73 63 74
REMARK SMILES IDX 47 75 48 76 56 77 49 78 50 79 54 80 57 81 51 82 52 83 55 84
REMARK SMILES IDX 53 85 79 86 80 87 88 88 81 89 82 90 86 91 89 92 83 93 84 94
REMARK SMILES IDX 87 95 85 96 64 97 65 98 73 99 66 100 67 101 71 102 74 103
REMARK SMILES IDX 68 104 69 105 72 106 70 107
REMARK H PARENT 15 29 94 60 62 71
REMARK Flexibility Score: inf
ROOT
ATOM      1  O   UNL A   1      31.933  29.204  27.632  1.00  0.00    -0.374 OA
ENDROOT
BRANCH   1   2
ATOM      2  C   UNL A   1      31.594  27.831  27.760  1.00  0.00     0.202 C 
BRANCH   2   3
ATOM      3  C   UNL A   1      31.513  27.322  26.357  1.00  0.00     0.261 C 
BRANCH   3   4
ATOM      4  O   UNL A   1      31.825  25.922  26.327  1.00  0.00    -0.460 OA
BRANCH   4   5
ATOM      5  C   UNL A   1      30.831  25.032  26.016  1.00  0.00     0.342 C 
ATOM      6  O   UNL A   1      29.769  24.941  26.579  1.00  0.00    -0.246 OA
BRANCH   5   7
ATOM      7  C   UNL A   1      31.285  24.264  24.837  1.00  0.00     0.104 A 
ATOM      8  C   UNL A   1      31.295  24.781  23.533  1.00  0.00     0.143 A 
ATOM      9  N   UNL A   1      31.835  24.043  22.526  1.00  0.00    -0.236 NA
ATOM     10  C   UNL A   1      32.387  22.824  22.818  1.00  0.00     0.139 A 
ATOM     11  C   UNL A   1      31.768  22.967  25.075  1.00  0.00     0.047 A 
ATOM     12  C   UNL A   1      32.385  22.246  24.078  1.00  0.00     0.061 A 
BRANCH   8  13
ATOM     13  N   UNL A   1      30.721  26.002  23.215  1.00  0.00    -0.352 N 
ATOM     14  N   UNL A   1      29.446  28.534  22.585  1.00  0.00    -0.365 N 
ATOM     15  C   UNL A   1      28.998  27.678  23.714  1.00  0.00     0.138 C 
ATOM     16  C   UNL A   1      30.839  28.267  22.107  1.00  0.00     0.098 C 
ATOM     17  C   UNL A   1      29.287  26.178  23.459  1.00  0.00     0.139 C 
ATOM     18  C   UNL A   1      31.196  26.741  22.037  1.00  0.00     0.142 C 
ATOM     19  C   UNL A   1      31.822  28.999  23.005  1.00  0.00     0.033 C 
BRANCH  14  20
ATOM     20  C   UNL A   1      29.049  29.882  22.566  1.00  0.00     0.037 A 
ATOM     21  C   UNL A   1      27.854  32.488  20.016  1.00  0.00     0.044 C 
ATOM     22  C   UNL A   1      28.308  31.859  21.298  1.00  0.00    -0.049 A 
ATOM     23  C   UNL A   1      28.319  32.623  22.463  1.00  0.00     0.003 A 
ATOM     24  C   UNL A   1      28.676  30.501  21.360  1.00  0.00     0.029 A 
ATOM     25  C   UNL A   1      28.715  32.044  23.660  1.00  0.00     0.002 A 
ATOM     26  C   UNL A   1      29.060  30.688  23.714  1.00  0.00     0.026 A 
ENDBRANCH  14  20
ENDBRANCH   8  13
BRANCH  12  27
ATOM     27  N   UNL A   1      32.944  21.024  24.487  1.00  0.00    -0.320 N 
ATOM     28  C   UNL A   1      34.227  20.661  24.798  1.00  0.00     0.258 C 
ATOM     29  H   UNL A   1      32.291  20.291  24.564  1.00  0.00     0.170 HD
ATOM     30  O   UNL A   1      34.505  19.475  24.969  1.00  0.00    -0.269 OA
BRANCH  28  31
ATOM     31  C   UNL A   1      35.271  21.670  24.992  1.00  0.00     0.075 A 
ATOM     32  C   UNL A   1      36.091  21.986  23.908  1.00  0.00     0.017 A 
ATOM     33  C   UNL A   1      35.467  22.287  26.228  1.00  0.00     0.135 A 
ATOM     34  C   UNL A   1      37.049  22.988  24.046  1.00  0.00     0.001 A 
ATOM     35  C   UNL A   1      36.409  23.299  26.362  1.00  0.00     0.040 A 
ATOM     36  F   UNL A   1      34.747  21.934  27.304  1.00  0.00    -0.206 F 
ATOM     37  C   UNL A   1      37.191  23.659  25.263  1.00  0.00     0.003 A 
ENDBRANCH  28  31
ENDBRANCH  12  27
ENDBRANCH   5   7
ENDBRANCH   4   5
ENDBRANCH   3   4
ENDBRANCH   2   3
ENDBRANCH   1   2
BRANCH   1  38
ATOM     38  C   UNL A   1      32.828  29.501  26.580  1.00  0.00     0.202 C 
BRANCH  38  39
ATOM     39  C   UNL A   1      33.264  30.970  26.584  1.00  0.00     0.261 C 
BRANCH  39  40
ATOM     40  O   UNL A   1      33.759  31.307  27.901  1.00  0.00    -0.460 OA
BRANCH  40  41
ATOM     41  C   UNL A   1      35.073  31.664  27.989  1.00  0.00     0.338 C 
ATOM     42  O   UNL A   1      35.531  32.747  27.665  1.00  0.00    -0.246 OA
BRANCH  41  43
ATOM     43  C   UNL A   1      35.911  30.452  28.253  1.00  0.00     0.060 A 
ATOM     44  C   UNL A   1      36.064  29.938  29.557  1.00  0.00     0.016 A 
ATOM     45  C   UNL A   1      36.778  30.022  27.263  1.00  0.00     0.016 A 
ATOM     46  C   UNL A   1      37.192  29.150  29.896  1.00  0.00     0.010 A 
ATOM     47  C   UNL A   1      37.906  29.315  27.632  1.00  0.00     0.010 A 
ATOM     48  C   UNL A   1      38.184  28.922  28.946  1.00  0.00    -0.014 A 
BRANCH  48  49
ATOM     49  C   UNL A   1      39.587  28.487  29.161  1.00  0.00     0.031 A 
ATOM     50  C   UNL A   1      40.017  27.116  28.726  1.00  0.00     0.074 A 
ATOM     51  C   UNL A   1      40.571  29.406  29.387  1.00  0.00     0.049 A 
ATOM     52  N   UNL A   1      41.202  26.646  28.914  1.00  0.00    -0.248 NA
ATOM     53  C   UNL A   1      39.165  26.146  28.035  1.00  0.00     0.031 C 
ATOM     54  C   UNL A   1      41.998  29.308  29.036  1.00  0.00     0.029 A 
ATOM     55  N   UNL A   1      40.507  30.699  29.937  1.00  0.00    -0.354 N 
ATOM     56  C   UNL A   1      41.369  25.520  28.141  1.00  0.00     0.074 A 
ATOM     57  C   UNL A   1      40.051  25.221  27.644  1.00  0.00     0.031 C 
ATOM     58  C   UNL A   1      42.692  30.283  29.647  1.00  0.00     0.029 A 
ATOM     59  C   UNL A   1      41.762  30.983  30.507  1.00  0.00     0.049 A 
ATOM     60  H   UNL A   1      39.725  31.298  29.924  1.00  0.00     0.167 HD
ATOM     61  C   UNL A   1      42.635  25.043  27.953  1.00  0.00     0.037 A 
ATOM     62  C   UNL A   1      41.892  31.251  31.832  1.00  0.00     0.037 A 
ATOM     63  C   UNL A   1      43.598  25.844  28.705  1.00  0.00     0.049 A 
ATOM     64  C   UNL A   1      42.732  30.177  32.452  1.00  0.00     0.074 A 
ATOM     65  C   UNL A   1      44.498  26.839  28.359  1.00  0.00     0.029 A 
ATOM     66  N   UNL A   1      43.462  25.901  30.086  1.00  0.00    -0.354 N 
ATOM     67  N   UNL A   1      42.870  29.005  31.892  1.00  0.00    -0.248 NA
ATOM     68  C   UNL A   1      43.569  30.333  33.634  1.00  0.00     0.031 C 
ATOM     69  C   UNL A   1      44.883  27.510  29.552  1.00  0.00     0.029 A 
ATOM     70  C   UNL A   1      44.224  26.917  30.619  1.00  0.00     0.049 A 
ATOM     71  H   UNL A   1      42.895  25.295  30.615  1.00  0.00     0.167 HD
ATOM     72  C   UNL A   1      43.849  28.310  32.527  1.00  0.00     0.074 A 
ATOM     73  C   UNL A   1      44.222  29.156  33.645  1.00  0.00     0.031 C 
ATOM     74  C   UNL A   1      44.292  27.110  32.060  1.00  0.00     0.037 A 
BRANCH  61  75
ATOM     75  C   UNL A   1      43.050  23.968  26.974  1.00  0.00     0.064 A 
ATOM     76  C   UNL A   1      42.710  22.611  27.185  1.00  0.00     0.173 A 
ATOM     77  C   UNL A   1      43.786  24.209  25.802  1.00  0.00     0.173 A 
ATOM     78  F   UNL A   1      41.939  22.233  28.211  1.00  0.00    -0.203 F 
ATOM     79  C   UNL A   1      43.156  21.580  26.352  1.00  0.00     0.198 A 
ATOM     80  C   UNL A   1      44.267  23.173  24.989  1.00  0.00     0.198 A 
ATOM     81  F   UNL A   1      44.055  25.457  25.397  1.00  0.00    -0.203 F 
ATOM     82  F   UNL A   1      42.803  20.313  26.615  1.00  0.00    -0.200 F 
ATOM     83  C   UNL A   1      43.965  21.856  25.273  1.00  0.00     0.200 A 
ATOM     84  F   UNL A   1      45.048  23.462  23.938  1.00  0.00    -0.200 F 
ATOM     85  F   UNL A   1      44.435  20.866  24.502  1.00  0.00    -0.200 F 
ENDBRANCH  61  75
BRANCH  62  86
ATOM     86  C   UNL A   1      40.707  32.000  32.344  1.00  0.00     0.064 A 
ATOM     87  C   UNL A   1      40.564  33.317  31.848  1.00  0.00     0.173 A 
ATOM     88  C   UNL A   1      39.534  31.336  32.736  1.00  0.00     0.173 A 
ATOM     89  F   UNL A   1      41.649  33.998  31.441  1.00  0.00    -0.203 F 
ATOM     90  C   UNL A   1      39.308  33.864  31.579  1.00  0.00     0.198 A 
ATOM     91  C   UNL A   1      38.276  31.901  32.480  1.00  0.00     0.198 A 
ATOM     92  F   UNL A   1      39.591  30.079  33.195  1.00  0.00    -0.203 F 
ATOM     93  F   UNL A   1      39.213  35.032  30.925  1.00  0.00    -0.200 F 
ATOM     94  C   UNL A   1      38.166  33.134  31.853  1.00  0.00     0.200 A 
ATOM     95  F   UNL A   1      37.163  31.195  32.729  1.00  0.00    -0.200 F 
ATOM     96  F   UNL A   1      36.970  33.580  31.439  1.00  0.00    -0.200 F 
ENDBRANCH  62  86
BRANCH  74  97
ATOM     97  C   UNL A   1      44.885  26.030  32.921  1.00  0.00     0.064 A 
ATOM     98  C   UNL A   1      46.232  25.645  32.841  1.00  0.00     0.173 A 
ATOM     99  C   UNL A   1      44.158  25.490  34.010  1.00  0.00     0.173 A 
ATOM    100  F   UNL A   1      47.068  26.185  31.945  1.00  0.00    -0.203 F 
ATOM    101  C   UNL A   1      46.792  24.732  33.733  1.00  0.00     0.198 A 
ATOM    102  C   UNL A   1      44.743  24.643  34.946  1.00  0.00     0.198 A 
ATOM    103  F   UNL A   1      42.872  25.799  34.232  1.00  0.00    -0.203 F 
ATOM    104  F   UNL A   1      48.068  24.358  33.576  1.00  0.00    -0.200 F 
ATOM    105  C   UNL A   1      46.054  24.245  34.794  1.00  0.00     0.200 A 
ATOM    106  F   UNL A   1      44.036  24.242  36.011  1.00  0.00    -0.200 F 
ATOM    107  F   UNL A   1      46.612  23.411  35.679  1.00  0.00    -0.200 F 
ENDBRANCH  74  97
ENDBRANCH  48  49
ENDBRANCH  41  43
ENDBRANCH  40  41
ENDBRANCH  39  40
ENDBRANCH  38  39
ENDBRANCH   1  38
TORSDOF 18
ENDMDL
MODEL 2
REMARK VINA RESULT:     -13.3      2.042      2.994
REMARK SMILES Cc1cccc(N2CCN(c3ncc(NC(=O)c4ccccc4F)cc3C(=O)OCCOCCOC(=O)c3ccc(-c4c5nc(c(-c6c(F)c(F)c(F)c(F)c6F)c6ccc([nH]6)c(-c6c(F)c(F)c(F)c(F)c6F)c6nc(c(-c7c(F)c(F)c(F)c(F)c7F)c7ccc4[nH]7)C=C6)C=C5)cc3)C[C@@H]2C)c1
REMARK SMILES IDX 32 1 31 2 30 3 29 4 27 5 28 6 26 7 11 8 12 9 13 10 25 11
REMARK SMILES IDX 14 12 10 13 7 14 8 15 102 16 9 17 101 18 103 19 6 20 1 21
REMARK SMILES IDX 2 22 3 23 104 24 4 25 5 26 15 27 16 28 17 30 18 31 19 32
REMARK SMILES IDX 23 33 20 34 22 35 24 36 21 37 33 38 34 39 35 40 36 41 37 42
REMARK SMILES IDX 38 43 39 44 100 45 40 46 99 47 41 48 42 49 43 50 93 51 44 52
REMARK SMILES IDX 98 53 92 54 94 55 45 56 97 57 91 58 90 59 46 61 78 62 58 63
REMARK SMILES IDX 77 64 59 65 62 66 76 67 95 68 60 69 61 70 75 72 96 73 63 74
REMARK SMILES IDX 47 75 48 76 56 77 49 78 50 79 54 80 57 81 51 82 52 83 55 84
REMARK SMILES IDX 53 85 79 86 80 87 88 88 81 89 82 90 86 91 89 92 83 93 84 94
REMARK SMILES IDX 87 95 85 96 64 97 65 98 73 99 66 100 67 101 71 102 74 103
REMARK SMILES IDX 68 104 69 105 72 106 70 107
REMARK H PARENT 15 29 94 60 62 71
REMARK Flexibility Score: inf
ROOT
ATOM      1  O   UNL A   1      32.479  29.109  26.680  1.00  0.00    -0.374 OA
ENDROOT
BRANCH   1   2
ATOM      2  C   UNL A   1      32.741  27.720  26.535  1.00  0.00     0.202 C 
BRANCH   2   3
ATOM      3  C   UNL A   1      31.438  27.051  26.829  1.00  0.00     0.261 C 
BRANCH   3   4
ATOM      4  O   UNL A   1      31.573  25.631  26.674  1.00  0.00    -0.460 OA
BRANCH   4   5
ATOM      5  C   UNL A   1      30.526  24.924  26.145  1.00  0.00     0.342 C 
ATOM      6  O   UNL A   1      29.384  24.970  26.526  1.00  0.00    -0.246 OA
BRANCH   5   7
ATOM      7  C   UNL A   1      31.053  24.157  24.995  1.00  0.00     0.104 A 
ATOM      8  C   UNL A   1      31.163  24.683  23.699  1.00  0.00     0.143 A 
ATOM      9  N   UNL A   1      31.763  23.943  22.728  1.00  0.00    -0.236 NA
ATOM     10  C   UNL A   1      32.276  22.715  23.050  1.00  0.00     0.139 A 
ATOM     11  C   UNL A   1      31.500  22.852  25.258  1.00  0.00     0.047 A 
ATOM     12  C   UNL A   1      32.177  22.129  24.302  1.00  0.00     0.061 A 
BRANCH   8  13
ATOM     13  N   UNL A   1      30.630  25.913  23.350  1.00  0.00    -0.352 N 
ATOM     14  N   UNL A   1      29.437  28.467  22.649  1.00  0.00    -0.365 N 
ATOM     15  C   UNL A   1      28.900  27.611  23.740  1.00  0.00     0.138 C 
ATOM     16  C   UNL A   1      30.855  28.182  22.267  1.00  0.00     0.098 C 
ATOM     17  C   UNL A   1      29.185  26.109  23.496  1.00  0.00     0.139 C 
ATOM     18  C   UNL A   1      31.195  26.651  22.212  1.00  0.00     0.142 C 
ATOM     19  C   UNL A   1      31.785  28.894  23.234  1.00  0.00     0.033 C 
BRANCH  14  20
ATOM     20  C   UNL A   1      29.062  29.821  22.612  1.00  0.00     0.037 A 
ATOM     21  C   UNL A   1      27.881  32.402  20.030  1.00  0.00     0.044 C 
ATOM     22  C   UNL A   1      28.338  31.787  21.318  1.00  0.00    -0.049 A 
ATOM     23  C   UNL A   1      28.375  32.571  22.470  1.00  0.00     0.003 A 
ATOM     24  C   UNL A   1      28.686  30.424  21.400  1.00  0.00     0.029 A 
ATOM     25  C   UNL A   1      28.774  32.006  23.672  1.00  0.00     0.002 A 
ATOM     26  C   UNL A   1      29.099  30.646  23.745  1.00  0.00     0.026 A 
ENDBRANCH  14  20
ENDBRANCH   8  13
BRANCH  12  27
ATOM     27  N   UNL A   1      32.689  20.896  24.741  1.00  0.00    -0.320 N 
ATOM     28  C   UNL A   1      33.959  20.488  25.050  1.00  0.00     0.258 C 
ATOM     29  H   UNL A   1      32.007  20.194  24.845  1.00  0.00     0.170 HD
ATOM     30  O   UNL A   1      34.189  19.298  25.253  1.00  0.00    -0.269 OA
BRANCH  28  31
ATOM     31  C   UNL A   1      35.046  21.458  25.205  1.00  0.00     0.075 A 
ATOM     32  C   UNL A   1      36.060  21.468  24.246  1.00  0.00     0.017 A 
ATOM     33  C   UNL A   1      35.092  22.335  26.289  1.00  0.00     0.135 A 
ATOM     34  C   UNL A   1      37.072  22.422  24.332  1.00  0.00     0.001 A 
ATOM     35  C   UNL A   1      36.089  23.298  26.366  1.00  0.00     0.040 A 
ATOM     36  F   UNL A   1      34.174  22.281  27.266  1.00  0.00    -0.206 F 
ATOM     37  C   UNL A   1      37.073  23.350  25.377  1.00  0.00     0.003 A 
ENDBRANCH  28  31
ENDBRANCH  12  27
ENDBRANCH   5   7
ENDBRANCH   4   5
ENDBRANCH   3   4
ENDBRANCH   2   3
ENDBRANCH   1   2
BRANCH   1  38
ATOM     38  C   UNL A   1      33.622  29.911  26.897  1.00  0.00     0.202 C 
BRANCH  38  39
ATOM     39  C   UNL A   1      33.266  31.289  27.465  1.00  0.00     0.261 C 
BRANCH  39  40
ATOM     40  O   UNL A   1      34.486  32.044  27.658  1.00  0.00    -0.460 OA
BRANCH  40  41
ATOM     41  C   UNL A   1      34.450  33.035  28.595  1.00  0.00     0.338 C 
ATOM     42  O   UNL A   1      33.630  33.936  28.635  1.00  0.00    -0.246 OA
BRANCH  41  43
ATOM     43  C   UNL A   1      35.725  33.035  29.381  1.00  0.00     0.060 A 
ATOM     44  C   UNL A   1      36.879  33.689  28.904  1.00  0.00     0.016 A 
ATOM     45  C   UNL A   1      35.854  32.135  30.425  1.00  0.00     0.016 A 
ATOM     46  C   UNL A   1      38.167  33.298  29.347  1.00  0.00     0.010 A 
ATOM     47  C   UNL A   1      37.121  31.721  30.789  1.00  0.00     0.010 A 
ATOM     48  C   UNL A   1      38.298  32.226  30.226  1.00  0.00    -0.014 A 
BRANCH  48  49
ATOM     49  C   UNL A   1      39.502  31.406  30.511  1.00  0.00     0.031 A 
ATOM     50  C   UNL A   1      39.744  30.143  29.737  1.00  0.00     0.074 A 
ATOM     51  C   UNL A   1      40.568  31.947  31.170  1.00  0.00     0.049 A 
ATOM     52  N   UNL A   1      40.740  29.354  29.952  1.00  0.00    -0.248 NA
ATOM     53  C   UNL A   1      38.899  29.648  28.648  1.00  0.00     0.031 C 
ATOM     54  C   UNL A   1      41.991  31.588  31.037  1.00  0.00     0.029 A 
ATOM     55  N   UNL A   1      40.634  33.014  32.084  1.00  0.00    -0.354 N 
ATOM     56  C   UNL A   1      40.855  28.476  28.898  1.00  0.00     0.074 A 
ATOM     57  C   UNL A   1      39.653  28.670  28.129  1.00  0.00     0.031 C 
ATOM     58  C   UNL A   1      42.704  32.150  32.028  1.00  0.00     0.029 A 
ATOM     59  C   UNL A   1      41.757  32.803  32.906  1.00  0.00     0.049 A 
ATOM     60  H   UNL A   1      40.008  33.773  32.138  1.00  0.00     0.167 HD
ATOM     61  C   UNL A   1      42.013  27.762  28.772  1.00  0.00     0.037 A 
ATOM     62  C   UNL A   1      41.631  32.658  34.251  1.00  0.00     0.037 A 
ATOM     63  C   UNL A   1      42.916  28.056  29.881  1.00  0.00     0.049 A 
ATOM     64  C   UNL A   1      42.081  31.279  34.623  1.00  0.00     0.074 A 
ATOM     65  C   UNL A   1      44.047  28.843  30.017  1.00  0.00     0.029 A 
ATOM     66  N   UNL A   1      42.483  27.768  31.170  1.00  0.00    -0.354 N 
ATOM     67  N   UNL A   1      42.112  30.308  33.749  1.00  0.00    -0.248 NA
ATOM     68  C   UNL A   1      42.640  30.889  35.910  1.00  0.00     0.031 C 
ATOM     69  C   UNL A   1      44.274  29.044  31.407  1.00  0.00     0.029 A 
ATOM     70  C   UNL A   1      43.286  28.371  32.111  1.00  0.00     0.049 A 
ATOM     71  H   UNL A   1      41.703  27.206  31.381  1.00  0.00     0.167 HD
ATOM     72  C   UNL A   1      42.765  29.241  34.277  1.00  0.00     0.074 A 
ATOM     73  C   UNL A   1      43.032  29.627  35.651  1.00  0.00     0.031 C 
ATOM     74  C   UNL A   1      43.061  28.141  33.531  1.00  0.00     0.037 A 
BRANCH  61  75
ATOM     75  C   UNL A   1      42.422  26.925  27.581  1.00  0.00     0.064 A 
ATOM     76  C   UNL A   1      41.834  25.663  27.333  1.00  0.00     0.173 A 
ATOM     77  C   UNL A   1      43.392  27.311  26.640  1.00  0.00     0.173 A 
ATOM     78  F   UNL A   1      40.835  25.194  28.090  1.00  0.00    -0.203 F 
ATOM     79  C   UNL A   1      42.253  24.821  26.298  1.00  0.00     0.198 A 
ATOM     80  C   UNL A   1      43.841  26.452  25.627  1.00  0.00     0.198 A 
ATOM     81  F   UNL A   1      43.930  28.537  26.664  1.00  0.00    -0.203 F 
ATOM     82  F   UNL A   1      41.657  23.632  26.124  1.00  0.00    -0.200 F 
ATOM     83  C   UNL A   1      43.282  25.200  25.465  1.00  0.00     0.200 A 
ATOM     84  F   UNL A   1      44.840  26.842  24.822  1.00  0.00    -0.200 F 
ATOM     85  F   UNL A   1      43.720  24.376  24.504  1.00  0.00    -0.200 F 
ENDBRANCH  61  75
BRANCH  62  86
ATOM     86  C   UNL A   1      40.530  33.516  34.780  1.00  0.00     0.064 A 
ATOM     87  C   UNL A   1      39.395  32.816  35.255  1.00  0.00     0.173 A 
ATOM     88  C   UNL A   1      40.788  34.771  35.351  1.00  0.00     0.173 A 
ATOM     89  F   UNL A   1      39.104  31.601  34.759  1.00  0.00    -0.203 F 
ATOM     90  C   UNL A   1      38.675  33.260  36.366  1.00  0.00     0.198 A 
ATOM     91  C   UNL A   1      40.049  35.219  36.454  1.00  0.00     0.198 A 
ATOM     92  F   UNL A   1      41.858  35.479  34.965  1.00  0.00    -0.203 F 
ATOM     93  F   UNL A   1      37.733  32.475  36.910  1.00  0.00    -0.200 F 
ATOM     94  C   UNL A   1      39.035  34.439  36.993  1.00  0.00     0.200 A 
ATOM     95  F   UNL A   1      40.399  36.353  37.079  1.00  0.00    -0.200 F 
ATOM     96  F   UNL A   1      38.463  34.780  38.157  1.00  0.00    -0.200 F 
ENDBRANCH  62  86
BRANCH  74  97
ATOM     97  C   UNL A   1      43.219  26.754  34.087  1.00  0.00     0.064 A 
ATOM     98  C   UNL A   1      42.180  26.072  34.740  1.00  0.00     0.173 A 
ATOM     99  C   UNL A   1      44.368  25.981  33.792  1.00  0.00     0.173 A 
ATOM    100  F   UNL A   1      40.989  26.643  34.957  1.00  0.00    -0.203 F 
ATOM    101  C   UNL A   1      42.307  24.743  35.137  1.00  0.00     0.198 A 
ATOM    102  C   UNL A   1      44.458  24.631  34.117  1.00  0.00     0.198 A 
ATOM    103  F   UNL A   1      45.423  26.491  33.140  1.00  0.00    -0.203 F 
ATOM    104  F   UNL A   1      41.305  24.158  35.806  1.00  0.00    -0.200 F 
ATOM    105  C   UNL A   1      43.437  24.018  34.811  1.00  0.00     0.200 A 
ATOM    106  F   UNL A   1      45.526  23.924  33.725  1.00  0.00    -0.200 F 
ATOM    107  F   UNL A   1      43.531  22.726  35.146  1.00  0.00    -0.200 F 
ENDBRANCH  74  97
ENDBRANCH  48  49
ENDBRANCH  41  43
ENDBRANCH  40  41
ENDBRANCH  39  40
ENDBRANCH  38  39
ENDBRANCH   1  38
TORSDOF 18
ENDMDL
MODEL 3
REMARK VINA RESULT:     -13.3      1.316      2.147
REMARK SMILES Cc1cccc(N2CCN(c3ncc(NC(=O)c4ccccc4F)cc3C(=O)OCCOCCOC(=O)c3ccc(-c4c5nc(c(-c6c(F)c(F)c(F)c(F)c6F)c6ccc([nH]6)c(-c6c(F)c(F)c(F)c(F)c6F)c6nc(c(-c7c(F)c(F)c(F)c(F)c7F)c7ccc4[nH]7)C=C6)C=C5)cc3)C[C@@H]2C)c1
REMARK SMILES IDX 32 1 31 2 30 3 29 4 27 5 28 6 26 7 11 8 12 9 13 10 25 11
REMARK SMILES IDX 14 12 10 13 7 14 8 15 102 16 9 17 101 18 103 19 6 20 1 21
REMARK SMILES IDX 2 22 3 23 104 24 4 25 5 26 15 27 16 28 17 30 18 31 19 32
REMARK SMILES IDX 23 33 20 34 22 35 24 36 21 37 33 38 34 39 35 40 36 41 37 42
REMARK SMILES IDX 38 43 39 44 100 45 40 46 99 47 41 48 42 49 43 50 93 51 44 52
REMARK SMILES IDX 98 53 92 54 94 55 45 56 97 57 91 58 90 59 46 61 78 62 58 63
REMARK SMILES IDX 77 64 59 65 62 66 76 67 95 68 60 69 61 70 75 72 96 73 63 74
REMARK SMILES IDX 47 75 48 76 56 77 49 78 50 79 54 80 57 81 51 82 52 83 55 84
REMARK SMILES IDX 53 85 79 86 80 87 88 88 81 89 82 90 86 91 89 92 83 93 84 94
REMARK SMILES IDX 87 95 85 96 64 97 65 98 73 99 66 100 67 101 71 102 74 103
REMARK SMILES IDX 68 104 69 105 72 106 70 107
REMARK H PARENT 15 29 94 60 62 71
REMARK Flexibility Score: inf
ROOT
ATOM      1  O   UNL A   1      33.607  29.534  27.320  1.00  0.00    -0.374 OA
ENDROOT
BRANCH   1   2
ATOM      2  C   UNL A   1      34.195  28.909  26.188  1.00  0.00     0.202 C 
BRANCH   2   3
ATOM      3  C   UNL A   1      33.811  27.470  26.300  1.00  0.00     0.261 C 
BRANCH   3   4
ATOM      4  O   UNL A   1      32.589  27.234  25.586  1.00  0.00    -0.460 OA
BRANCH   4   5
ATOM      5  C   UNL A   1      31.557  26.612  26.235  1.00  0.00     0.342 C 
ATOM      6  O   UNL A   1      30.977  27.036  27.203  1.00  0.00    -0.246 OA
BRANCH   5   7
ATOM      7  C   UNL A   1      31.258  25.368  25.491  1.00  0.00     0.104 A 
ATOM      8  C   UNL A   1      30.699  25.353  24.204  1.00  0.00     0.143 A 
ATOM      9  N   UNL A   1      30.563  24.168  23.551  1.00  0.00    -0.236 NA
ATOM     10  C   UNL A   1      31.007  23.021  24.154  1.00  0.00     0.139 A 
ATOM     11  C   UNL A   1      31.606  24.159  26.114  1.00  0.00     0.047 A 
ATOM     12  C   UNL A   1      31.543  22.967  25.430  1.00  0.00     0.061 A 
BRANCH   8  13
ATOM     13  N   UNL A   1      30.223  26.499  23.588  1.00  0.00    -0.352 N 
ATOM     14  N   UNL A   1      29.147  28.885  22.330  1.00  0.00    -0.365 N 
ATOM     15  C   UNL A   1      28.545  28.291  23.552  1.00  0.00     0.138 C 
ATOM     16  C   UNL A   1      30.565  28.486  22.068  1.00  0.00     0.098 C 
ATOM     17  C   UNL A   1      28.782  26.764  23.635  1.00  0.00     0.139 C 
ATOM     18  C   UNL A   1      30.849  26.968  22.344  1.00  0.00     0.142 C 
ATOM     19  C   UNL A   1      31.490  29.356  22.903  1.00  0.00     0.033 C 
BRANCH  14  20
ATOM     20  C   UNL A   1      28.823  30.212  21.999  1.00  0.00     0.037 A 
ATOM     21  C   UNL A   1      29.215  33.723  23.496  1.00  0.00     0.044 C 
ATOM     22  C   UNL A   1      28.807  32.603  22.587  1.00  0.00    -0.049 A 
ATOM     23  C   UNL A   1      28.118  32.898  21.413  1.00  0.00     0.003 A 
ATOM     24  C   UNL A   1      29.148  31.266  22.870  1.00  0.00     0.029 A 
ATOM     25  C   UNL A   1      27.756  31.871  20.553  1.00  0.00     0.002 A 
ATOM     26  C   UNL A   1      28.117  30.549  20.834  1.00  0.00     0.026 A 
ENDBRANCH  14  20
ENDBRANCH   8  13
BRANCH  12  27
ATOM     27  N   UNL A   1      32.051  21.856  26.125  1.00  0.00    -0.320 N 
ATOM     28  C   UNL A   1      33.306  21.313  26.194  1.00  0.00     0.258 C 
ATOM     29  H   UNL A   1      31.379  21.378  26.663  1.00  0.00     0.170 HD
ATOM     30  O   UNL A   1      33.475  20.225  26.743  1.00  0.00    -0.269 OA
BRANCH  28  31
ATOM     31  C   UNL A   1      34.471  22.036  25.677  1.00  0.00     0.075 A 
ATOM     32  C   UNL A   1      34.956  21.686  24.416  1.00  0.00     0.017 A 
ATOM     33  C   UNL A   1      35.102  23.030  26.425  1.00  0.00     0.135 A 
ATOM     34  C   UNL A   1      36.021  22.401  23.872  1.00  0.00     0.001 A 
ATOM     35  C   UNL A   1      36.152  23.755  25.876  1.00  0.00     0.040 A 
ATOM     36  F   UNL A   1      34.706  23.319  27.674  1.00  0.00    -0.206 F 
ATOM     37  C   UNL A   1      36.602  23.448  24.591  1.00  0.00     0.003 A 
ENDBRANCH  28  31
ENDBRANCH  12  27
ENDBRANCH   5   7
ENDBRANCH   4   5
ENDBRANCH   3   4
ENDBRANCH   2   3
ENDBRANCH   1   2
BRANCH   1  38
ATOM     38  C   UNL A   1      32.925  30.740  27.047  1.00  0.00     0.202 C 
BRANCH  38  39
ATOM     39  C   UNL A   1      33.592  31.950  27.710  1.00  0.00     0.261 C 
BRANCH  39  40
ATOM     40  O   UNL A   1      35.028  31.804  27.610  1.00  0.00    -0.460 OA
BRANCH  40  41
ATOM     41  C   UNL A   1      35.721  31.748  28.785  1.00  0.00     0.338 C 
ATOM     42  O   UNL A   1      35.860  32.674  29.565  1.00  0.00    -0.246 OA
BRANCH  41  43
ATOM     43  C   UNL A   1      36.531  30.489  28.834  1.00  0.00     0.060 A 
ATOM     44  C   UNL A   1      36.570  29.689  29.995  1.00  0.00     0.016 A 
ATOM     45  C   UNL A   1      37.480  30.277  27.848  1.00  0.00     0.016 A 
ATOM     46  C   UNL A   1      37.663  28.821  30.238  1.00  0.00     0.010 A 
ATOM     47  C   UNL A   1      38.570  29.481  28.139  1.00  0.00     0.010 A 
ATOM     48  C   UNL A   1      38.733  28.793  29.347  1.00  0.00    -0.014 A 
BRANCH  48  49
ATOM     49  C   UNL A   1      40.112  28.291  29.574  1.00  0.00     0.031 A 
ATOM     50  C   UNL A   1      40.507  26.941  29.051  1.00  0.00     0.074 A 
ATOM     51  C   UNL A   1      41.118  29.154  29.899  1.00  0.00     0.049 A 
ATOM     52  N   UNL A   1      41.668  26.414  29.242  1.00  0.00    -0.248 NA
ATOM     53  C   UNL A   1      39.646  26.057  28.263  1.00  0.00     0.031 C 
ATOM     54  C   UNL A   1      42.553  29.028  29.587  1.00  0.00     0.029 A 
ATOM     55  N   UNL A   1      41.081  30.405  30.541  1.00  0.00    -0.354 N 
ATOM     56  C   UNL A   1      41.822  25.342  28.393  1.00  0.00     0.074 A 
ATOM     57  C   UNL A   1      40.512  25.130  27.832  1.00  0.00     0.031 C 
ATOM     58  C   UNL A   1      43.259  29.929  30.292  1.00  0.00     0.029 A 
ATOM     59  C   UNL A   1      42.325  30.598  31.171  1.00  0.00     0.049 A 
ATOM     60  H   UNL A   1      40.322  31.032  30.549  1.00  0.00     0.167 HD
ATOM     61  C   UNL A   1      43.076  24.833  28.210  1.00  0.00     0.037 A 
ATOM     62  C   UNL A   1      42.418  30.763  32.516  1.00  0.00     0.037 A 
ATOM     63  C   UNL A   1      44.040  25.540  29.050  1.00  0.00     0.049 A 
ATOM     64  C   UNL A   1      43.198  29.615  33.081  1.00  0.00     0.074 A 
ATOM     65  C   UNL A   1      44.986  26.522  28.809  1.00  0.00     0.029 A 
ATOM     66  N   UNL A   1      43.858  25.500  30.427  1.00  0.00    -0.354 N 
ATOM     67  N   UNL A   1      43.314  28.483  32.439  1.00  0.00    -0.248 NA
ATOM     68  C   UNL A   1      43.998  29.652  34.297  1.00  0.00     0.031 C 
ATOM     69  C   UNL A   1      45.353  27.089  30.060  1.00  0.00     0.029 A 
ATOM     70  C   UNL A   1      44.637  26.445  31.058  1.00  0.00     0.049 A 
ATOM     71  H   UNL A   1      43.252  24.878  30.890  1.00  0.00     0.167 HD
ATOM     72  C   UNL A   1      44.245  27.707  33.052  1.00  0.00     0.074 A 
ATOM     73  C   UNL A   1      44.609  28.453  34.242  1.00  0.00     0.031 C 
ATOM     74  C   UNL A   1      44.662  26.528  32.511  1.00  0.00     0.037 A 
BRANCH  61  75
ATOM     75  C   UNL A   1      43.487  23.818  27.167  1.00  0.00     0.064 A 
ATOM     76  C   UNL A   1      44.229  24.199  26.024  1.00  0.00     0.173 A 
ATOM     77  C   UNL A   1      43.180  22.449  27.234  1.00  0.00     0.173 A 
ATOM     78  F   UNL A   1      44.671  25.452  25.860  1.00  0.00    -0.203 F 
ATOM     79  C   UNL A   1      44.544  23.307  24.994  1.00  0.00     0.198 A 
ATOM     80  C   UNL A   1      43.461  21.563  26.183  1.00  0.00     0.198 A 
ATOM     81  F   UNL A   1      42.608  21.919  28.323  1.00  0.00    -0.203 F 
ATOM     82  F   UNL A   1      45.245  23.737  23.934  1.00  0.00    -0.200 F 
ATOM     83  C   UNL A   1      44.129  21.996  25.056  1.00  0.00     0.200 A 
ATOM     84  F   UNL A   1      43.054  20.288  26.264  1.00  0.00    -0.200 F 
ATOM     85  F   UNL A   1      44.386  21.152  24.047  1.00  0.00    -0.200 F 
ENDBRANCH  61  75
BRANCH  62  86
ATOM     86  C   UNL A   1      41.243  31.516  33.045  1.00  0.00     0.064 A 
ATOM     87  C   UNL A   1      40.311  30.744  33.778  1.00  0.00     0.173 A 
ATOM     88  C   UNL A   1      41.330  32.880  33.363  1.00  0.00     0.173 A 
ATOM     89  F   UNL A   1      40.194  29.428  33.532  1.00  0.00    -0.203 F 
ATOM     90  C   UNL A   1      39.647  31.264  34.891  1.00  0.00     0.198 A 
ATOM     91  C   UNL A   1      40.644  33.399  34.470  1.00  0.00     0.198 A 
ATOM     92  F   UNL A   1      42.206  33.667  32.724  1.00  0.00    -0.203 F 
ATOM     93  F   UNL A   1      38.927  30.453  35.679  1.00  0.00    -0.200 F 
ATOM     94  C   UNL A   1      39.853  32.580  35.263  1.00  0.00     0.200 A 
ATOM     95  F   UNL A   1      40.848  34.670  34.848  1.00  0.00    -0.200 F 
ATOM     96  F   UNL A   1      39.356  33.034  36.423  1.00  0.00    -0.200 F 
ENDBRANCH  62  86
BRANCH  74  97
ATOM     97  C   UNL A   1      45.185  25.367  33.308  1.00  0.00     0.064 A 
ATOM     98  C   UNL A   1      46.552  25.063  33.404  1.00  0.00     0.173 A 
ATOM     99  C   UNL A   1      44.336  24.641  34.178  1.00  0.00     0.173 A 
ATOM    100  F   UNL A   1      47.479  25.766  32.740  1.00  0.00    -0.203 F 
ATOM    101  C   UNL A   1      47.027  24.061  34.247  1.00  0.00     0.198 A 
ATOM    102  C   UNL A   1      44.823  23.699  35.078  1.00  0.00     0.198 A 
ATOM    103  F   UNL A   1      43.011  24.852  34.221  1.00  0.00    -0.203 F 
ATOM    104  F   UNL A   1      48.336  23.775  34.257  1.00  0.00    -0.200 F 
ATOM    105  C   UNL A   1      46.166  23.391  35.095  1.00  0.00     0.200 A 
ATOM    106  F   UNL A   1      43.986  23.116  35.946  1.00  0.00    -0.200 F 
ATOM    107  F   UNL A   1      46.635  22.467  35.942  1.00  0.00    -0.200 F 
ENDBRANCH  74  97
ENDBRANCH  48  49
ENDBRANCH  41  43
ENDBRANCH  40  41
ENDBRANCH  39  40
ENDBRANCH  38  39
ENDBRANCH   1  38
TORSDOF 18
ENDMDL
