MODEL 1
REMARK VINA RESULT:     -10.0      0.000      0.000
REMARK SMILES CC1=C(CC(=O)OCCOCCOC(=O)c2ccc(-c3c4nc(c(-c5c(F)c(F)c(F)c(F)c5F)c5ccc([nH]5)c(-c5c(F)c(F)c(F)c(F)c5F)c5nc(c(-c6c(F)c(F)c(F)c(F)c6F)c6ccc3[nH]6)C=C5)C=C4)cc2)c2cc(F)ccc2/C1=C\c1cccc(OCc2ccccc2)c1
REMARK SMILES IDX 8 1 7 2 5 3 6 4 4 5 3 6 1 7 2 8 86 9 79 10 85 11 87 12 80 13
REMARK SMILES IDX 84 14 81 15 83 16 82 17 88 18 89 19 101 20 90 21 92 22 91 23
REMARK SMILES IDX 93 24 94 25 95 26 96 27 100 28 97 29 99 30 98 31 9 32 10 33
REMARK SMILES IDX 11 34 12 35 13 36 14 37 15 38 16 39 17 40 78 41 18 42 77 43
REMARK SMILES IDX 19 44 20 45 21 46 71 47 22 48 76 49 70 50 72 51 23 52 75 53
REMARK SMILES IDX 69 54 68 55 24 57 56 58 36 59 55 60 37 61 40 62 54 63 73 64
REMARK SMILES IDX 38 65 39 66 53 68 74 69 41 70 25 71 26 72 34 73 27 74 28 75
REMARK SMILES IDX 32 76 35 77 29 78 30 79 33 80 31 81 57 82 58 83 66 84 59 85
REMARK SMILES IDX 60 86 64 87 67 88 61 89 62 90 65 91 63 92 42 93 43 94 51 95
REMARK SMILES IDX 44 96 45 97 49 98 52 99 46 100 47 101 50 102 48 103
REMARK H PARENT 72 56 40 67
REMARK Flexibility Score: inf
ROOT
ATOM      1  C   UNL A   1      32.430  36.147  30.485  1.00  0.00     0.261 C 
ENDROOT
BRANCH   1   2
ATOM      2  O   UNL A   1      33.045  35.635  29.285  1.00  0.00    -0.463 OA
BRANCH   2   3
ATOM      3  C   UNL A   1      33.841  34.544  29.462  1.00  0.00     0.310 C 
ATOM      4  O   UNL A   1      33.836  33.842  30.469  1.00  0.00    -0.252 OA
BRANCH   3   5
ATOM      5  C   UNL A   1      34.761  34.210  28.290  1.00  0.00     0.159 C 
BRANCH   5   6
ATOM      6  C   UNL A   1      35.587  32.963  28.328  1.00  0.00    -0.025 C 
ATOM      7  C   UNL A   1      37.732  33.848  29.381  1.00  0.00     0.045 C 
ATOM      8  C   UNL A   1      36.853  32.799  28.780  1.00  0.00    -0.039 C 
ATOM      9  C   UNL A   1      37.237  31.380  28.685  1.00  0.00    -0.014 C 
ATOM     10  C   UNL A   1      35.063  31.623  27.990  1.00  0.00    -0.011 A 
ATOM     11  C   UNL A   1      36.071  30.656  28.153  1.00  0.00    -0.010 A 
ATOM     12  C   UNL A   1      38.419  30.877  29.085  1.00  0.00     0.017 C 
ATOM     13  C   UNL A   1      33.791  31.244  27.583  1.00  0.00     0.048 A 
ATOM     14  C   UNL A   1      35.843  29.323  27.828  1.00  0.00     0.012 A 
ATOM     15  C   UNL A   1      33.571  29.905  27.260  1.00  0.00     0.123 A 
ATOM     16  C   UNL A   1      34.583  28.952  27.359  1.00  0.00     0.040 A 
ATOM     17  F   UNL A   1      32.372  29.535  26.789  1.00  0.00    -0.207 F 
BRANCH  12  18
ATOM     18  C   UNL A   1      38.788  29.461  29.147  1.00  0.00    -0.021 A 
ATOM     19  C   UNL A   1      38.485  28.674  30.259  1.00  0.00     0.008 A 
ATOM     20  C   UNL A   1      39.469  28.895  28.059  1.00  0.00     0.054 A 
ATOM     21  C   UNL A   1      38.881  27.337  30.286  1.00  0.00     0.004 A 
ATOM     22  C   UNL A   1      39.803  27.542  28.048  1.00  0.00     0.120 A 
ATOM     23  C   UNL A   1      39.530  26.774  29.183  1.00  0.00     0.046 A 
BRANCH  22  24
ATOM     24  O   UNL A   1      40.378  26.861  27.010  1.00  0.00    -0.489 OA
BRANCH  24  25
ATOM     25  C   UNL A   1      41.801  26.678  27.000  1.00  0.00     0.265 C 
BRANCH  25  26
ATOM     26  C   UNL A   1      42.570  27.913  27.422  1.00  0.00    -0.011 A 
ATOM     27  C   UNL A   1      43.121  28.004  28.707  1.00  0.00     0.007 A 
ATOM     28  C   UNL A   1      42.764  28.978  26.528  1.00  0.00     0.007 A 
ATOM     29  C   UNL A   1      43.872  29.122  29.077  1.00  0.00     0.000 A 
ATOM     30  C   UNL A   1      43.537  30.081  26.890  1.00  0.00     0.000 A 
ATOM     31  C   UNL A   1      44.092  30.153  28.164  1.00  0.00     0.000 A 
ENDBRANCH  25  26
ENDBRANCH  24  25
ENDBRANCH  22  24
ENDBRANCH  12  18
ENDBRANCH   5   6
ENDBRANCH   3   5
ENDBRANCH   2   3
ENDBRANCH   1   2
BRANCH   1  32
ATOM     32  C   UNL A   1      33.238  37.243  31.196  1.00  0.00     0.202 C 
BRANCH  32  33
ATOM     33  O   UNL A   1      32.911  37.557  32.545  1.00  0.00    -0.374 OA
BRANCH  33  34
ATOM     34  C   UNL A   1      33.642  36.905  33.578  1.00  0.00     0.202 C 
BRANCH  34  35
ATOM     35  C   UNL A   1      34.697  35.870  33.172  1.00  0.00     0.261 C 
BRANCH  35  36
ATOM     36  O   UNL A   1      35.080  34.985  34.228  1.00  0.00    -0.460 OA
BRANCH  36  37
ATOM     37  C   UNL A   1      34.996  33.674  33.913  1.00  0.00     0.338 C 
ATOM     38  O   UNL A   1      33.990  33.010  33.708  1.00  0.00    -0.246 OA
BRANCH  37  39
ATOM     39  C   UNL A   1      36.348  33.158  33.680  1.00  0.00     0.060 A 
ATOM     40  C   UNL A   1      36.585  32.185  32.709  1.00  0.00     0.016 A 
ATOM     41  C   UNL A   1      37.392  33.703  34.434  1.00  0.00     0.016 A 
ATOM     42  C   UNL A   1      37.895  31.773  32.472  1.00  0.00     0.010 A 
ATOM     43  C   UNL A   1      38.699  33.293  34.194  1.00  0.00     0.010 A 
ATOM     44  C   UNL A   1      38.959  32.340  33.199  1.00  0.00    -0.014 A 
BRANCH  44  45
ATOM     45  C   UNL A   1      40.360  32.029  32.842  1.00  0.00     0.031 A 
ATOM     46  C   UNL A   1      41.080  30.884  33.479  1.00  0.00     0.074 A 
ATOM     47  C   UNL A   1      40.987  32.838  31.970  1.00  0.00     0.049 A 
ATOM     48  N   UNL A   1      42.308  30.475  33.285  1.00  0.00    -0.248 NA
ATOM     49  C   UNL A   1      40.332  30.103  34.474  1.00  0.00     0.031 C 
ATOM     50  C   UNL A   1      40.380  34.005  31.329  1.00  0.00     0.029 A 
ATOM     51  N   UNL A   1      42.264  32.809  31.476  1.00  0.00    -0.354 N 
ATOM     52  C   UNL A   1      42.478  29.383  34.122  1.00  0.00     0.074 A 
ATOM     53  C   UNL A   1      41.245  29.224  34.865  1.00  0.00     0.031 C 
ATOM     54  C   UNL A   1      41.276  34.564  30.502  1.00  0.00     0.029 A 
ATOM     55  C   UNL A   1      42.528  33.819  30.586  1.00  0.00     0.049 A 
ATOM     56  H   UNL A   1      42.928  32.129  31.735  1.00  0.00     0.167 HD
ATOM     57  C   UNL A   1      43.560  28.577  34.239  1.00  0.00     0.037 A 
ATOM     58  C   UNL A   1      43.657  34.114  29.915  1.00  0.00     0.037 A 
ATOM     59  C   UNL A   1      44.786  28.764  33.501  1.00  0.00     0.049 A 
ATOM     60  C   UNL A   1      44.861  33.233  30.098  1.00  0.00     0.074 A 
ATOM     61  C   UNL A   1      45.928  27.984  33.517  1.00  0.00     0.029 A 
ATOM     62  N   UNL A   1      45.033  29.816  32.627  1.00  0.00    -0.354 N 
ATOM     63  N   UNL A   1      44.991  32.157  30.836  1.00  0.00    -0.248 NA
ATOM     64  C   UNL A   1      46.071  33.605  29.354  1.00  0.00     0.031 C 
ATOM     65  C   UNL A   1      46.886  28.596  32.702  1.00  0.00     0.029 A 
ATOM     66  C   UNL A   1      46.323  29.724  32.127  1.00  0.00     0.049 A 
ATOM     67  H   UNL A   1      44.386  30.521  32.397  1.00  0.00     0.167 HD
ATOM     68  C   UNL A   1      46.290  31.714  30.637  1.00  0.00     0.074 A 
ATOM     69  C   UNL A   1      46.901  32.626  29.691  1.00  0.00     0.031 C 
ATOM     70  C   UNL A   1      46.920  30.649  31.194  1.00  0.00     0.037 A 
BRANCH  57  71
ATOM     71  C   UNL A   1      43.473  27.425  35.198  1.00  0.00     0.064 A 
ATOM     72  C   UNL A   1      43.069  26.149  34.776  1.00  0.00     0.173 A 
ATOM     73  C   UNL A   1      43.839  27.583  36.543  1.00  0.00     0.173 A 
ATOM     74  F   UNL A   1      42.699  25.943  33.502  1.00  0.00    -0.203 F 
ATOM     75  C   UNL A   1      43.007  25.083  35.669  1.00  0.00     0.198 A 
ATOM     76  C   UNL A   1      43.807  26.506  37.426  1.00  0.00     0.198 A 
ATOM     77  F   UNL A   1      44.239  28.778  37.000  1.00  0.00    -0.203 F 
ATOM     78  F   UNL A   1      42.571  23.886  35.252  1.00  0.00    -0.200 F 
ATOM     79  C   UNL A   1      43.385  25.259  36.992  1.00  0.00     0.200 A 
ATOM     80  F   UNL A   1      44.187  26.676  38.701  1.00  0.00    -0.200 F 
ATOM     81  F   UNL A   1      43.333  24.230  37.848  1.00  0.00    -0.200 F 
ENDBRANCH  57  71
BRANCH  58  82
ATOM     82  C   UNL A   1      43.664  35.268  28.982  1.00  0.00     0.064 A 
ATOM     83  C   UNL A   1      43.412  35.083  27.617  1.00  0.00     0.173 A 
ATOM     84  C   UNL A   1      43.849  36.580  29.442  1.00  0.00     0.173 A 
ATOM     85  F   UNL A   1      43.244  33.846  27.128  1.00  0.00    -0.203 F 
ATOM     86  C   UNL A   1      43.340  36.168  26.746  1.00  0.00     0.198 A 
ATOM     87  C   UNL A   1      43.749  37.666  28.575  1.00  0.00     0.198 A 
ATOM     88  F   UNL A   1      44.084  36.809  30.743  1.00  0.00    -0.203 F 
ATOM     89  F   UNL A   1      43.115  35.964  25.441  1.00  0.00    -0.200 F 
ATOM     90  C   UNL A   1      43.497  37.460  27.228  1.00  0.00     0.200 A 
ATOM     91  F   UNL A   1      43.880  38.913  29.050  1.00  0.00    -0.200 F 
ATOM     92  F   UNL A   1      43.401  38.504  26.395  1.00  0.00    -0.200 F 
ENDBRANCH  58  82
BRANCH  70  93
ATOM     93  C   UNL A   1      48.349  30.406  30.796  1.00  0.00     0.064 A 
ATOM     94  C   UNL A   1      49.415  30.928  31.543  1.00  0.00     0.173 A 
ATOM     95  C   UNL A   1      48.655  29.587  29.698  1.00  0.00     0.173 A 
ATOM     96  F   UNL A   1      49.177  31.729  32.592  1.00  0.00    -0.203 F 
ATOM     97  C   UNL A   1      50.735  30.650  31.198  1.00  0.00     0.198 A 
ATOM     98  C   UNL A   1      49.975  29.284  29.377  1.00  0.00     0.198 A 
ATOM     99  F   UNL A   1      47.673  29.056  28.955  1.00  0.00    -0.203 F 
ATOM    100  F   UNL A   1      51.738  31.192  31.903  1.00  0.00    -0.200 F 
ATOM    101  C   UNL A   1      51.013  29.819  30.123  1.00  0.00     0.200 A 
ATOM    102  F   UNL A   1      50.242  28.466  28.349  1.00  0.00    -0.200 F 
ATOM    103  F   UNL A   1      52.285  29.537  29.803  1.00  0.00    -0.200 F 
ENDBRANCH  70  93
ENDBRANCH  44  45
ENDBRANCH  37  39
ENDBRANCH  36  37
ENDBRANCH  35  36
ENDBRANCH  34  35
ENDBRANCH  33  34
ENDBRANCH  32  33
ENDBRANCH   1  32
TORSDOF 19
ENDMDL
MODEL 2
REMARK VINA RESULT:      -9.7      7.647     13.472
REMARK SMILES CC1=C(CC(=O)OCCOCCOC(=O)c2ccc(-c3c4nc(c(-c5c(F)c(F)c(F)c(F)c5F)c5ccc([nH]5)c(-c5c(F)c(F)c(F)c(F)c5F)c5nc(c(-c6c(F)c(F)c(F)c(F)c6F)c6ccc3[nH]6)C=C5)C=C4)cc2)c2cc(F)ccc2/C1=C\c1cccc(OCc2ccccc2)c1
REMARK SMILES IDX 8 1 7 2 5 3 6 4 4 5 3 6 1 7 2 8 86 9 79 10 85 11 87 12 80 13
REMARK SMILES IDX 84 14 81 15 83 16 82 17 88 18 89 19 101 20 90 21 92 22 91 23
REMARK SMILES IDX 93 24 94 25 95 26 96 27 100 28 97 29 99 30 98 31 9 32 10 33
REMARK SMILES IDX 11 34 12 35 13 36 14 37 15 38 16 39 17 40 78 41 18 42 77 43
REMARK SMILES IDX 19 44 20 45 21 46 71 47 22 48 76 49 70 50 72 51 23 52 75 53
REMARK SMILES IDX 69 54 68 55 24 57 56 58 36 59 55 60 37 61 40 62 54 63 73 64
REMARK SMILES IDX 38 65 39 66 53 68 74 69 41 70 25 71 26 72 34 73 27 74 28 75
REMARK SMILES IDX 32 76 35 77 29 78 30 79 33 80 31 81 57 82 58 83 66 84 59 85
REMARK SMILES IDX 60 86 64 87 67 88 61 89 62 90 65 91 63 92 42 93 43 94 51 95
REMARK SMILES IDX 44 96 45 97 49 98 52 99 46 100 47 101 50 102 48 103
REMARK H PARENT 72 56 40 67
REMARK Flexibility Score: inf
ROOT
ATOM      1  C   UNL A   1      45.834  42.212  26.813  1.00  0.00     0.261 C 
ENDROOT
BRANCH   1   2
ATOM      2  O   UNL A   1      45.376  41.554  25.614  1.00  0.00    -0.463 OA
BRANCH   2   3
ATOM      3  C   UNL A   1      44.071  41.775  25.293  1.00  0.00     0.310 C 
ATOM      4  O   UNL A   1      43.183  40.934  25.401  1.00  0.00    -0.252 OA
BRANCH   3   5
ATOM      5  C   UNL A   1      43.750  43.182  24.796  1.00  0.00     0.159 C 
BRANCH   5   6
ATOM      6  C   UNL A   1      43.660  43.446  23.326  1.00  0.00    -0.025 C 
ATOM      7  C   UNL A   1      41.398  42.399  22.794  1.00  0.00     0.045 C 
ATOM      8  C   UNL A   1      42.671  43.110  22.464  1.00  0.00    -0.039 C 
ATOM      9  C   UNL A   1      42.979  43.636  21.123  1.00  0.00    -0.014 C 
ATOM     10  C   UNL A   1      44.625  44.284  22.585  1.00  0.00    -0.011 A 
ATOM     11  C   UNL A   1      44.252  44.366  21.231  1.00  0.00    -0.010 A 
ATOM     12  C   UNL A   1      42.182  43.504  20.047  1.00  0.00     0.017 C 
ATOM     13  C   UNL A   1      45.751  44.956  23.040  1.00  0.00     0.048 A 
ATOM     14  C   UNL A   1      45.044  45.043  20.310  1.00  0.00     0.012 A 
ATOM     15  C   UNL A   1      46.539  45.633  22.110  1.00  0.00     0.123 A 
ATOM     16  C   UNL A   1      46.209  45.666  20.756  1.00  0.00     0.040 A 
ATOM     17  F   UNL A   1      47.672  46.220  22.518  1.00  0.00    -0.207 F 
BRANCH  12  18
ATOM     18  C   UNL A   1      42.373  44.132  18.738  1.00  0.00    -0.021 A 
ATOM     19  C   UNL A   1      43.049  43.480  17.705  1.00  0.00     0.008 A 
ATOM     20  C   UNL A   1      41.866  45.424  18.529  1.00  0.00     0.054 A 
ATOM     21  C   UNL A   1      43.232  44.128  16.483  1.00  0.00     0.004 A 
ATOM     22  C   UNL A   1      41.982  46.048  17.290  1.00  0.00     0.120 A 
ATOM     23  C   UNL A   1      42.695  45.401  16.277  1.00  0.00     0.046 A 
BRANCH  22  24
ATOM     24  O   UNL A   1      41.446  47.258  16.942  1.00  0.00    -0.489 OA
BRANCH  24  25
ATOM     25  C   UNL A   1      42.295  48.252  16.351  1.00  0.00     0.265 C 
BRANCH  25  26
ATOM     26  C   UNL A   1      43.378  48.752  17.285  1.00  0.00    -0.011 A 
ATOM     27  C   UNL A   1      43.054  49.550  18.390  1.00  0.00     0.007 A 
ATOM     28  C   UNL A   1      44.723  48.409  17.073  1.00  0.00     0.007 A 
ATOM     29  C   UNL A   1      44.047  49.968  19.278  1.00  0.00     0.000 A 
ATOM     30  C   UNL A   1      45.711  48.805  17.975  1.00  0.00     0.000 A 
ATOM     31  C   UNL A   1      45.373  49.584  19.078  1.00  0.00     0.000 A 
ENDBRANCH  25  26
ENDBRANCH  24  25
ENDBRANCH  22  24
ENDBRANCH  12  18
ENDBRANCH   5   6
ENDBRANCH   3   5
ENDBRANCH   2   3
ENDBRANCH   1   2
BRANCH   1  32
ATOM     32  C   UNL A   1      44.740  42.454  27.863  1.00  0.00     0.202 C 
BRANCH  32  33
ATOM     33  O   UNL A   1      44.681  41.589  28.991  1.00  0.00    -0.374 OA
BRANCH  33  34
ATOM     34  C   UNL A   1      44.530  40.193  28.755  1.00  0.00     0.202 C 
BRANCH  34  35
ATOM     35  C   UNL A   1      45.382  39.225  29.583  1.00  0.00     0.261 C 
BRANCH  35  36
ATOM     36  O   UNL A   1      45.204  37.850  29.234  1.00  0.00    -0.460 OA
BRANCH  36  37
ATOM     37  C   UNL A   1      46.272  37.065  29.500  1.00  0.00     0.338 C 
ATOM     38  O   UNL A   1      47.337  37.386  30.007  1.00  0.00    -0.246 OA
BRANCH  37  39
ATOM     39  C   UNL A   1      45.910  35.670  29.232  1.00  0.00     0.060 A 
ATOM     40  C   UNL A   1      46.273  34.654  30.117  1.00  0.00     0.016 A 
ATOM     41  C   UNL A   1      45.156  35.401  28.086  1.00  0.00     0.016 A 
ATOM     42  C   UNL A   1      45.848  33.352  29.860  1.00  0.00     0.010 A 
ATOM     43  C   UNL A   1      44.731  34.102  27.833  1.00  0.00     0.010 A 
ATOM     44  C   UNL A   1      45.059  33.074  28.729  1.00  0.00    -0.014 A 
BRANCH  44  45
ATOM     45  C   UNL A   1      44.470  31.731  28.537  1.00  0.00     0.031 A 
ATOM     46  C   UNL A   1      43.151  31.375  29.143  1.00  0.00     0.074 A 
ATOM     47  C   UNL A   1      45.180  30.820  27.848  1.00  0.00     0.049 A 
ATOM     48  N   UNL A   1      42.494  30.245  29.076  1.00  0.00    -0.248 NA
ATOM     49  C   UNL A   1      42.486  32.416  29.939  1.00  0.00     0.031 C 
ATOM     50  C   UNL A   1      46.496  31.062  27.255  1.00  0.00     0.029 A 
ATOM     51  N   UNL A   1      44.903  29.517  27.532  1.00  0.00    -0.354 N 
ATOM     52  C   UNL A   1      41.334  30.440  29.810  1.00  0.00     0.074 A 
ATOM     53  C   UNL A   1      41.400  31.780  30.357  1.00  0.00     0.031 C 
ATOM     54  C   UNL A   1      46.900  29.951  26.621  1.00  0.00     0.029 A 
ATOM     55  C   UNL A   1      45.891  28.911  26.797  1.00  0.00     0.049 A 
ATOM     56  H   UNL A   1      44.076  29.059  27.807  1.00  0.00     0.167 HD
ATOM     57  C   UNL A   1      40.301  29.582  29.988  1.00  0.00     0.037 A 
ATOM     58  C   UNL A   1      45.975  27.655  26.321  1.00  0.00     0.037 A 
ATOM     59  C   UNL A   1      40.263  28.245  29.448  1.00  0.00     0.049 A 
ATOM     60  C   UNL A   1      44.838  26.706  26.574  1.00  0.00     0.074 A 
ATOM     61  C   UNL A   1      39.249  27.308  29.538  1.00  0.00     0.029 A 
ATOM     62  N   UNL A   1      41.294  27.650  28.731  1.00  0.00    -0.354 N 
ATOM     63  N   UNL A   1      43.709  26.920  27.206  1.00  0.00    -0.248 NA
ATOM     64  C   UNL A   1      44.984  25.344  26.045  1.00  0.00     0.031 C 
ATOM     65  C   UNL A   1      39.690  26.128  28.931  1.00  0.00     0.029 A 
ATOM     66  C   UNL A   1      40.954  26.346  28.405  1.00  0.00     0.049 A 
ATOM     67  H   UNL A   1      42.140  28.091  28.490  1.00  0.00     0.167 HD
ATOM     68  C   UNL A   1      43.004  25.728  27.142  1.00  0.00     0.074 A 
ATOM     69  C   UNL A   1      43.823  24.801  26.388  1.00  0.00     0.031 C 
ATOM     70  C   UNL A   1      41.788  25.431  27.664  1.00  0.00     0.037 A 
BRANCH  57  71
ATOM     71  C   UNL A   1      39.131  30.058  30.801  1.00  0.00     0.064 A 
ATOM     72  C   UNL A   1      38.022  30.674  30.199  1.00  0.00     0.173 A 
ATOM     73  C   UNL A   1      39.093  29.857  32.189  1.00  0.00     0.173 A 
ATOM     74  F   UNL A   1      38.010  30.900  28.876  1.00  0.00    -0.203 F 
ATOM     75  C   UNL A   1      36.935  31.097  30.959  1.00  0.00     0.198 A 
ATOM     76  C   UNL A   1      37.989  30.250  32.941  1.00  0.00     0.198 A 
ATOM     77  F   UNL A   1      40.120  29.266  32.816  1.00  0.00    -0.203 F 
ATOM     78  F   UNL A   1      35.911  31.727  30.367  1.00  0.00    -0.200 F 
ATOM     79  C   UNL A   1      36.914  30.876  32.328  1.00  0.00     0.200 A 
ATOM     80  F   UNL A   1      37.964  30.023  34.262  1.00  0.00    -0.200 F 
ATOM     81  F   UNL A   1      35.863  31.275  33.056  1.00  0.00    -0.200 F 
ENDBRANCH  57  71
BRANCH  58  82
ATOM     82  C   UNL A   1      47.163  27.261  25.523  1.00  0.00     0.064 A 
ATOM     83  C   UNL A   1      47.254  27.594  24.166  1.00  0.00     0.173 A 
ATOM     84  C   UNL A   1      48.259  26.612  26.113  1.00  0.00     0.173 A 
ATOM     85  F   UNL A   1      46.226  28.201  23.556  1.00  0.00    -0.203 F 
ATOM     86  C   UNL A   1      48.397  27.296  23.428  1.00  0.00     0.198 A 
ATOM     87  C   UNL A   1      49.412  26.340  25.381  1.00  0.00     0.198 A 
ATOM     88  F   UNL A   1      48.223  26.281  27.413  1.00  0.00    -0.203 F 
ATOM     89  F   UNL A   1      48.452  27.610  22.127  1.00  0.00    -0.200 F 
ATOM     90  C   UNL A   1      49.480  26.681  24.039  1.00  0.00     0.200 A 
ATOM     91  F   UNL A   1      50.463  25.765  25.981  1.00  0.00    -0.200 F 
ATOM     92  F   UNL A   1      50.590  26.419  23.335  1.00  0.00    -0.200 F 
ENDBRANCH  58  82
BRANCH  70  93
ATOM     93  C   UNL A   1      41.262  24.040  27.442  1.00  0.00     0.064 A 
ATOM     94  C   UNL A   1      40.197  23.792  26.563  1.00  0.00     0.173 A 
ATOM     95  C   UNL A   1      41.873  22.938  28.060  1.00  0.00     0.173 A 
ATOM     96  F   UNL A   1      39.569  24.811  25.958  1.00  0.00    -0.203 F 
ATOM     97  C   UNL A   1      39.755  22.494  26.322  1.00  0.00     0.198 A 
ATOM     98  C   UNL A   1      41.450  21.640  27.790  1.00  0.00     0.198 A 
ATOM     99  F   UNL A   1      42.900  23.119  28.904  1.00  0.00    -0.203 F 
ATOM    100  F   UNL A   1      38.711  22.284  25.509  1.00  0.00    -0.200 F 
ATOM    101  C   UNL A   1      40.389  21.419  26.926  1.00  0.00     0.200 A 
ATOM    102  F   UNL A   1      42.076  20.601  28.361  1.00  0.00    -0.200 F 
ATOM    103  F   UNL A   1      39.974  20.168  26.679  1.00  0.00    -0.200 F 
ENDBRANCH  70  93
ENDBRANCH  44  45
ENDBRANCH  37  39
ENDBRANCH  36  37
ENDBRANCH  35  36
ENDBRANCH  34  35
ENDBRANCH  33  34
ENDBRANCH  32  33
ENDBRANCH   1  32
TORSDOF 19
ENDMDL
MODEL 3
REMARK VINA RESULT:      -9.6      2.078      2.999
REMARK SMILES CC1=C(CC(=O)OCCOCCOC(=O)c2ccc(-c3c4nc(c(-c5c(F)c(F)c(F)c(F)c5F)c5ccc([nH]5)c(-c5c(F)c(F)c(F)c(F)c5F)c5nc(c(-c6c(F)c(F)c(F)c(F)c6F)c6ccc3[nH]6)C=C5)C=C4)cc2)c2cc(F)ccc2/C1=C\c1cccc(OCc2ccccc2)c1
REMARK SMILES IDX 8 1 7 2 5 3 6 4 4 5 3 6 1 7 2 8 86 9 79 10 85 11 87 12 80 13
REMARK SMILES IDX 84 14 81 15 83 16 82 17 88 18 89 19 101 20 90 21 92 22 91 23
REMARK SMILES IDX 93 24 94 25 95 26 96 27 100 28 97 29 99 30 98 31 9 32 10 33
REMARK SMILES IDX 11 34 12 35 13 36 14 37 15 38 16 39 17 40 78 41 18 42 77 43
REMARK SMILES IDX 19 44 20 45 21 46 71 47 22 48 76 49 70 50 72 51 23 52 75 53
REMARK SMILES IDX 69 54 68 55 24 57 56 58 36 59 55 60 37 61 40 62 54 63 73 64
REMARK SMILES IDX 38 65 39 66 53 68 74 69 41 70 25 71 26 72 34 73 27 74 28 75
REMARK SMILES IDX 32 76 35 77 29 78 30 79 33 80 31 81 57 82 58 83 66 84 59 85
REMARK SMILES IDX 60 86 64 87 67 88 61 89 62 90 65 91 63 92 42 93 43 94 51 95
REMARK SMILES IDX 44 96 45 97 49 98 52 99 46 100 47 101 50 102 48 103
REMARK H PARENT 72 56 40 67
REMARK Flexibility Score: inf
ROOT
ATOM      1  C   UNL A   1      32.964  35.779  31.206  1.00  0.00     0.261 C 
ENDROOT
BRANCH   1   2
ATOM      2  O   UNL A   1      33.481  35.384  29.919  1.00  0.00    -0.463 OA
BRANCH   2   3
ATOM      3  C   UNL A   1      34.171  34.210  29.906  1.00  0.00     0.310 C 
ATOM      4  O   UNL A   1      33.949  33.272  30.666  1.00  0.00    -0.252 OA
BRANCH   3   5
ATOM      5  C   UNL A   1      35.262  34.104  28.844  1.00  0.00     0.159 C 
BRANCH   5   6
ATOM      6  C   UNL A   1      36.024  32.826  28.688  1.00  0.00    -0.025 C 
ATOM      7  C   UNL A   1      38.184  33.412  29.908  1.00  0.00     0.045 C 
ATOM      8  C   UNL A   1      37.270  32.524  29.127  1.00  0.00    -0.039 C 
ATOM      9  C   UNL A   1      37.585  31.122  28.804  1.00  0.00    -0.014 C 
ATOM     10  C   UNL A   1      35.444  31.590  28.124  1.00  0.00    -0.011 A 
ATOM     11  C   UNL A   1      36.399  30.558  28.141  1.00  0.00    -0.010 A 
ATOM     12  C   UNL A   1      38.731  30.499  29.135  1.00  0.00     0.017 C 
ATOM     13  C   UNL A   1      34.165  31.350  27.640  1.00  0.00     0.048 A 
ATOM     14  C   UNL A   1      36.114  29.310  27.596  1.00  0.00     0.012 A 
ATOM     15  C   UNL A   1      33.888  30.097  27.095  1.00  0.00     0.123 A 
ATOM     16  C   UNL A   1      34.850  29.088  27.052  1.00  0.00     0.040 A 
ATOM     17  F   UNL A   1      32.685  29.873  26.550  1.00  0.00    -0.207 F 
BRANCH  12  18
ATOM     18  C   UNL A   1      39.029  29.075  28.967  1.00  0.00    -0.021 A 
ATOM     19  C   UNL A   1      38.699  28.139  29.948  1.00  0.00     0.008 A 
ATOM     20  C   UNL A   1      39.668  28.654  27.792  1.00  0.00     0.054 A 
ATOM     21  C   UNL A   1      39.026  26.795  29.758  1.00  0.00     0.004 A 
ATOM     22  C   UNL A   1      39.933  27.306  27.563  1.00  0.00     0.120 A 
ATOM     23  C   UNL A   1      39.634  26.383  28.569  1.00  0.00     0.046 A 
BRANCH  22  24
ATOM     24  O   UNL A   1      40.461  26.770  26.420  1.00  0.00    -0.489 OA
BRANCH  24  25
ATOM     25  C   UNL A   1      41.887  26.673  26.290  1.00  0.00     0.265 C 
BRANCH  25  26
ATOM     26  C   UNL A   1      42.577  26.207  27.556  1.00  0.00    -0.011 A 
ATOM     27  C   UNL A   1      42.708  24.840  27.833  1.00  0.00     0.007 A 
ATOM     28  C   UNL A   1      43.114  27.134  28.463  1.00  0.00     0.007 A 
ATOM     29  C   UNL A   1      43.389  24.411  28.975  1.00  0.00     0.000 A 
ATOM     30  C   UNL A   1      43.816  26.705  29.589  1.00  0.00     0.000 A 
ATOM     31  C   UNL A   1      43.955  25.343  29.845  1.00  0.00     0.000 A 
ENDBRANCH  25  26
ENDBRANCH  24  25
ENDBRANCH  22  24
ENDBRANCH  12  18
ENDBRANCH   5   6
ENDBRANCH   3   5
ENDBRANCH   2   3
ENDBRANCH   1   2
BRANCH   1  32
ATOM     32  C   UNL A   1      34.039  36.177  32.228  1.00  0.00     0.202 C 
BRANCH  32  33
ATOM     33  O   UNL A   1      34.061  35.506  33.483  1.00  0.00    -0.374 OA
BRANCH  33  34
ATOM     34  C   UNL A   1      35.275  34.879  33.884  1.00  0.00     0.202 C 
BRANCH  34  35
ATOM     35  C   UNL A   1      35.387  33.358  33.723  1.00  0.00     0.261 C 
BRANCH  35  36
ATOM     36  O   UNL A   1      36.712  32.901  33.441  1.00  0.00    -0.460 OA
BRANCH  36  37
ATOM     37  C   UNL A   1      37.381  32.436  34.520  1.00  0.00     0.338 C 
ATOM     38  O   UNL A   1      37.027  32.446  35.689  1.00  0.00    -0.246 OA
BRANCH  37  39
ATOM     39  C   UNL A   1      38.584  31.735  34.061  1.00  0.00     0.060 A 
ATOM     40  C   UNL A   1      38.496  30.687  33.145  1.00  0.00     0.016 A 
ATOM     41  C   UNL A   1      39.820  32.180  34.541  1.00  0.00     0.016 A 
ATOM     42  C   UNL A   1      39.670  30.095  32.683  1.00  0.00     0.010 A 
ATOM     43  C   UNL A   1      40.990  31.590  34.076  1.00  0.00     0.010 A 
ATOM     44  C   UNL A   1      40.922  30.557  33.130  1.00  0.00    -0.014 A 
BRANCH  44  45
ATOM     45  C   UNL A   1      42.170  30.046  32.525  1.00  0.00     0.031 A 
ATOM     46  C   UNL A   1      42.886  28.872  33.111  1.00  0.00     0.074 A 
ATOM     47  C   UNL A   1      42.675  30.701  31.464  1.00  0.00     0.049 A 
ATOM     48  N   UNL A   1      43.991  28.298  32.709  1.00  0.00    -0.248 NA
ATOM     49  C   UNL A   1      42.293  28.270  34.314  1.00  0.00     0.031 C 
ATOM     50  C   UNL A   1      42.071  31.883  30.847  1.00  0.00     0.029 A 
ATOM     51  N   UNL A   1      43.803  30.473  30.721  1.00  0.00    -0.354 N 
ATOM     52  C   UNL A   1      44.222  27.260  33.599  1.00  0.00     0.074 A 
ATOM     53  C   UNL A   1      43.171  27.315  34.594  1.00  0.00     0.031 C 
ATOM     54  C   UNL A   1      42.820  32.259  29.800  1.00  0.00     0.029 A 
ATOM     55  C   UNL A   1      43.973  31.371  29.698  1.00  0.00     0.049 A 
ATOM     56  H   UNL A   1      44.431  29.737  30.905  1.00  0.00     0.167 HD
ATOM     57  C   UNL A   1      45.212  26.336  33.570  1.00  0.00     0.037 A 
ATOM     58  C   UNL A   1      44.954  31.470  28.782  1.00  0.00     0.037 A 
ATOM     59  C   UNL A   1      46.260  26.310  32.579  1.00  0.00     0.049 A 
ATOM     60  C   UNL A   1      46.068  30.461  28.799  1.00  0.00     0.074 A 
ATOM     61  C   UNL A   1      47.288  25.396  32.437  1.00  0.00     0.029 A 
ATOM     62  N   UNL A   1      46.421  27.252  31.571  1.00  0.00    -0.354 N 
ATOM     63  N   UNL A   1      46.240  29.437  29.599  1.00  0.00    -0.248 NA
ATOM     64  C   UNL A   1      47.120  30.620  27.787  1.00  0.00     0.031 C 
ATOM     65  C   UNL A   1      48.106  25.819  31.384  1.00  0.00     0.029 A 
ATOM     66  C   UNL A   1      47.554  26.961  30.826  1.00  0.00     0.049 A 
ATOM     67  H   UNL A   1      45.819  28.014  31.410  1.00  0.00     0.167 HD
ATOM     68  C   UNL A   1      47.410  28.820  29.182  1.00  0.00     0.074 A 
ATOM     69  C   UNL A   1      47.893  29.573  28.042  1.00  0.00     0.031 C 
ATOM     70  C   UNL A   1      48.028  27.730  29.701  1.00  0.00     0.037 A 
BRANCH  57  71
ATOM     71  C   UNL A   1      45.212  25.281  34.638  1.00  0.00     0.064 A 
ATOM     72  C   UNL A   1      44.681  24.002  34.407  1.00  0.00     0.173 A 
ATOM     73  C   UNL A   1      45.790  25.530  35.893  1.00  0.00     0.173 A 
ATOM     74  F   UNL A   1      44.109  23.711  33.228  1.00  0.00    -0.203 F 
ATOM     75  C   UNL A   1      44.702  23.025  35.398  1.00  0.00     0.198 A 
ATOM     76  C   UNL A   1      45.838  24.540  36.871  1.00  0.00     0.198 A 
ATOM     77  F   UNL A   1      46.319  26.732  36.167  1.00  0.00    -0.203 F 
ATOM     78  F   UNL A   1      44.144  21.828  35.168  1.00  0.00    -0.200 F 
ATOM     79  C   UNL A   1      45.289  23.291  36.626  1.00  0.00     0.200 A 
ATOM     80  F   UNL A   1      46.420  24.794  38.052  1.00  0.00    -0.200 F 
ATOM     81  F   UNL A   1      45.316  22.346  37.576  1.00  0.00    -0.200 F 
ENDBRANCH  57  71
BRANCH  58  82
ATOM     82  C   UNL A   1      44.880  32.539  27.755  1.00  0.00     0.064 A 
ATOM     83  C   UNL A   1      44.230  32.314  26.535  1.00  0.00     0.173 A 
ATOM     84  C   UNL A   1      45.390  33.824  27.998  1.00  0.00     0.173 A 
ATOM     85  F   UNL A   1      43.741  31.099  26.252  1.00  0.00    -0.203 F 
ATOM     86  C   UNL A   1      44.089  33.334  25.597  1.00  0.00     0.198 A 
ATOM     87  C   UNL A   1      45.224  34.850  27.071  1.00  0.00     0.198 A 
ATOM     88  F   UNL A   1      46.012  34.091  29.156  1.00  0.00    -0.203 F 
ATOM     89  F   UNL A   1      43.478  33.088  24.430  1.00  0.00    -0.200 F 
ATOM     90  C   UNL A   1      44.575  34.605  25.871  1.00  0.00     0.200 A 
ATOM     91  F   UNL A   1      45.676  36.081  27.349  1.00  0.00    -0.200 F 
ATOM     92  F   UNL A   1      44.415  35.592  24.979  1.00  0.00    -0.200 F 
ENDBRANCH  58  82
BRANCH  70  93
ATOM     93  C   UNL A   1      49.302  27.279  29.042  1.00  0.00     0.064 A 
ATOM     94  C   UNL A   1      49.289  26.404  27.945  1.00  0.00     0.173 A 
ATOM     95  C   UNL A   1      50.542  27.780  29.467  1.00  0.00     0.173 A 
ATOM     96  F   UNL A   1      48.132  25.885  27.509  1.00  0.00    -0.203 F 
ATOM     97  C   UNL A   1      50.471  26.037  27.308  1.00  0.00     0.198 A 
ATOM     98  C   UNL A   1      51.718  27.438  28.806  1.00  0.00     0.198 A 
ATOM     99  F   UNL A   1      50.610  28.626  30.506  1.00  0.00    -0.203 F 
ATOM    100  F   UNL A   1      50.438  25.170  26.287  1.00  0.00    -0.200 F 
ATOM    101  C   UNL A   1      51.682  26.564  27.731  1.00  0.00     0.200 A 
ATOM    102  F   UNL A   1      52.885  27.962  29.204  1.00  0.00    -0.200 F 
ATOM    103  F   UNL A   1      52.818  26.224  27.104  1.00  0.00    -0.200 F 
ENDBRANCH  70  93
ENDBRANCH  44  45
ENDBRANCH  37  39
ENDBRANCH  36  37
ENDBRANCH  35  36
ENDBRANCH  34  35
ENDBRANCH  33  34
ENDBRANCH  32  33
ENDBRANCH   1  32
TORSDOF 19
ENDMDL
