MODEL 1
REMARK VINA RESULT:     -11.5      0.000      0.000
REMARK SMILES CCCc1cc(O[C@@H]2CCOC3(CCC3)C2)c(C(=O)OCCOCCOC(=O)c2ccc(-c3c4nc(c(-c5c(F)c(F)c(F)c(F)c5F)c5ccc([nH]5)c(-c5c(F)c(F)c(F)c(F)c5F)c5nc(c(-c6c(F)c(F)c(F)c(F)c6F)c6ccc3[nH]6)C=C5)C=C4)cc2)s1
REMARK SMILES IDX 23 1 22 2 21 3 20 4 18 5 19 6 17 7 4 8 5 9 92 10 6 11 3 12
REMARK SMILES IDX 2 13 1 14 7 15 8 16 9 17 16 18 10 19 12 20 11 21 13 22 15 23
REMARK SMILES IDX 14 24 24 25 25 26 26 27 27 28 28 29 29 30 30 31 91 32 31 33
REMARK SMILES IDX 90 34 32 35 33 36 34 37 84 38 35 39 89 40 83 41 85 42 36 43
REMARK SMILES IDX 88 44 82 45 81 46 37 48 69 49 49 50 68 51 50 52 53 53 67 54
REMARK SMILES IDX 86 55 51 56 52 57 66 59 87 60 54 61 38 62 39 63 47 64 40 65
REMARK SMILES IDX 41 66 45 67 48 68 42 69 43 70 46 71 44 72 70 73 71 74 79 75
REMARK SMILES IDX 72 76 73 77 77 78 80 79 74 80 75 81 78 82 76 83 55 84 56 85
REMARK SMILES IDX 64 86 57 87 58 88 62 89 65 90 59 91 60 92 63 93 61 94
REMARK H PARENT 85 47 53 58
REMARK Flexibility Score: inf
ROOT
ATOM      1  O   UNL A   1      32.593  30.496  25.761  1.00  0.00    -0.374 OA
ENDROOT
BRANCH   1   2
ATOM      2  C   UNL A   1      32.766  29.110  26.068  1.00  0.00     0.202 C 
BRANCH   2   3
ATOM      3  C   UNL A   1      33.457  28.317  24.956  1.00  0.00     0.261 C 
BRANCH   3   4
ATOM      4  O   UNL A   1      33.055  28.861  23.690  1.00  0.00    -0.459 OA
BRANCH   4   5
ATOM      5  C   UNL A   1      33.441  28.139  22.596  1.00  0.00     0.352 C 
ATOM      6  O   UNL A   1      34.368  28.446  21.868  1.00  0.00    -0.245 OA
BRANCH   5   7
ATOM      7  C   UNL A   1      32.697  26.894  22.554  1.00  0.00     0.155 A 
ATOM      8  C   UNL A   1      32.253  24.468  22.688  1.00  0.00     0.009 A 
ATOM      9  C   UNL A   1      31.104  25.227  22.606  1.00  0.00     0.062 A 
ATOM     10  S   UNL A   1      33.626  25.463  22.747  1.00  0.00    -0.130 S 
ATOM     11  C   UNL A   1      31.341  26.625  22.455  1.00  0.00     0.145 A 
BRANCH   8  12
ATOM     12  C   UNL A   1      32.346  22.970  22.755  1.00  0.00     0.046 C 
BRANCH  12  13
ATOM     13  C   UNL A   1      32.807  22.442  24.118  1.00  0.00     0.002 C 
ATOM     14  C   UNL A   1      32.746  20.922  24.227  1.00  0.00     0.004 C 
ENDBRANCH  12  13
ENDBRANCH   8  12
BRANCH  11  15
ATOM     15  O   UNL A   1      30.463  27.653  22.294  1.00  0.00    -0.488 OA
BRANCH  15  16
ATOM     16  C   UNL A   1      29.617  28.122  23.356  1.00  0.00     0.178 C 
ATOM     17  C   UNL A   1      28.253  27.459  23.559  1.00  0.00     0.074 C 
ATOM     18  C   UNL A   1      29.569  29.645  23.524  1.00  0.00     0.080 C 
ATOM     19  C   UNL A   1      27.104  28.458  23.404  1.00  0.00     0.165 C 
ATOM     20  C   UNL A   1      28.552  30.281  22.580  1.00  0.00     0.072 C 
ATOM     21  O   UNL A   1      27.387  29.429  22.398  1.00  0.00    -0.375 OA
ATOM     22  C   UNL A   1      28.191  31.768  22.899  1.00  0.00     0.036 C 
ATOM     23  C   UNL A   1      29.194  30.840  21.268  1.00  0.00     0.036 C 
ATOM     24  C   UNL A   1      28.258  32.048  21.385  1.00  0.00     0.006 C 
ENDBRANCH  15  16
ENDBRANCH  11  15
ENDBRANCH   5   7
ENDBRANCH   4   5
ENDBRANCH   3   4
ENDBRANCH   2   3
ENDBRANCH   1   2
BRANCH   1  25
ATOM     25  C   UNL A   1      31.523  31.160  26.442  1.00  0.00     0.202 C 
BRANCH  25  26
ATOM     26  C   UNL A   1      31.850  32.592  26.876  1.00  0.00     0.261 C 
BRANCH  26  27
ATOM     27  O   UNL A   1      32.775  32.583  27.979  1.00  0.00    -0.460 OA
BRANCH  27  28
ATOM     28  C   UNL A   1      33.815  33.440  27.862  1.00  0.00     0.338 C 
ATOM     29  O   UNL A   1      33.770  34.636  27.629  1.00  0.00    -0.246 OA
BRANCH  28  30
ATOM     30  C   UNL A   1      35.066  32.752  28.238  1.00  0.00     0.060 A 
ATOM     31  C   UNL A   1      34.976  31.392  28.559  1.00  0.00     0.016 A 
ATOM     32  C   UNL A   1      36.293  33.418  28.315  1.00  0.00     0.016 A 
ATOM     33  C   UNL A   1      36.098  30.705  29.014  1.00  0.00     0.010 A 
ATOM     34  C   UNL A   1      37.418  32.730  28.781  1.00  0.00     0.010 A 
ATOM     35  C   UNL A   1      37.315  31.382  29.168  1.00  0.00    -0.014 A 
BRANCH  35  36
ATOM     36  C   UNL A   1      38.424  30.717  29.891  1.00  0.00     0.031 A 
ATOM     37  C   UNL A   1      38.651  31.063  31.336  1.00  0.00     0.074 A 
ATOM     38  C   UNL A   1      39.185  29.789  29.287  1.00  0.00     0.049 A 
ATOM     39  N   UNL A   1      39.554  30.608  32.168  1.00  0.00    -0.248 NA
ATOM     40  C   UNL A   1      37.738  32.055  31.923  1.00  0.00     0.031 C 
ATOM     41  C   UNL A   1      39.036  29.343  27.905  1.00  0.00     0.029 A 
ATOM     42  N   UNL A   1      40.240  29.055  29.769  1.00  0.00    -0.354 N 
ATOM     43  C   UNL A   1      39.315  31.256  33.373  1.00  0.00     0.074 A 
ATOM     44  C   UNL A   1      38.204  32.158  33.158  1.00  0.00     0.031 C 
ATOM     45  C   UNL A   1      39.973  28.415  27.644  1.00  0.00     0.029 A 
ATOM     46  C   UNL A   1      40.799  28.220  28.835  1.00  0.00     0.049 A 
ATOM     47  H   UNL A   1      40.564  29.121  30.695  1.00  0.00     0.167 HD
ATOM     48  C   UNL A   1      39.958  31.104  34.554  1.00  0.00     0.037 A 
ATOM     49  C   UNL A   1      41.866  27.403  28.930  1.00  0.00     0.037 A 
ATOM     50  C   UNL A   1      41.060  30.207  34.768  1.00  0.00     0.049 A 
ATOM     51  C   UNL A   1      42.604  27.299  30.239  1.00  0.00     0.074 A 
ATOM     52  C   UNL A   1      41.768  29.969  35.934  1.00  0.00     0.029 A 
ATOM     53  N   UNL A   1      41.621  29.402  33.788  1.00  0.00    -0.354 N 
ATOM     54  N   UNL A   1      42.356  27.896  31.379  1.00  0.00    -0.248 NA
ATOM     55  C   UNL A   1      43.771  26.404  30.273  1.00  0.00     0.031 C 
ATOM     56  C   UNL A   1      42.784  29.050  35.649  1.00  0.00     0.029 A 
ATOM     57  C   UNL A   1      42.681  28.684  34.317  1.00  0.00     0.049 A 
ATOM     58  H   UNL A   1      41.311  29.349  32.856  1.00  0.00     0.167 HD
ATOM     59  C   UNL A   1      43.315  27.432  32.271  1.00  0.00     0.074 A 
ATOM     60  C   UNL A   1      44.145  26.496  31.542  1.00  0.00     0.031 C 
ATOM     61  C   UNL A   1      43.492  27.752  33.576  1.00  0.00     0.037 A 
BRANCH  48  62
ATOM     62  C   UNL A   1      39.493  31.946  35.704  1.00  0.00     0.064 A 
ATOM     63  C   UNL A   1      40.029  33.220  35.945  1.00  0.00     0.173 A 
ATOM     64  C   UNL A   1      38.480  31.485  36.558  1.00  0.00     0.173 A 
ATOM     65  F   UNL A   1      41.012  33.697  35.167  1.00  0.00    -0.203 F 
ATOM     66  C   UNL A   1      39.582  33.993  37.014  1.00  0.00     0.198 A 
ATOM     67  C   UNL A   1      38.019  32.270  37.611  1.00  0.00     0.198 A 
ATOM     68  F   UNL A   1      37.935  30.275  36.368  1.00  0.00    -0.203 F 
ATOM     69  F   UNL A   1      40.137  35.189  37.251  1.00  0.00    -0.200 F 
ATOM     70  C   UNL A   1      38.574  33.521  37.842  1.00  0.00     0.200 A 
ATOM     71  F   UNL A   1      37.040  31.816  38.404  1.00  0.00    -0.200 F 
ATOM     72  F   UNL A   1      38.142  34.267  38.867  1.00  0.00    -0.200 F 
ENDBRANCH  48  62
BRANCH  49  73
ATOM     73  C   UNL A   1      42.308  26.621  27.747  1.00  0.00     0.064 A 
ATOM     74  C   UNL A   1      41.773  25.355  27.475  1.00  0.00     0.173 A 
ATOM     75  C   UNL A   1      43.286  27.120  26.875  1.00  0.00     0.173 A 
ATOM     76  F   UNL A   1      40.854  24.826  28.297  1.00  0.00    -0.203 F 
ATOM     77  C   UNL A   1      42.210  24.610  26.382  1.00  0.00     0.198 A 
ATOM     78  C   UNL A   1      43.705  26.384  25.768  1.00  0.00     0.198 A 
ATOM     79  F   UNL A   1      43.831  28.325  27.095  1.00  0.00    -0.203 F 
ATOM     80  F   UNL A   1      41.714  23.385  26.167  1.00  0.00    -0.200 F 
ATOM     81  C   UNL A   1      43.172  25.128  25.526  1.00  0.00     0.200 A 
ATOM     82  F   UNL A   1      44.629  26.892  24.940  1.00  0.00    -0.200 F 
ATOM     83  F   UNL A   1      43.591  24.411  24.474  1.00  0.00    -0.200 F 
ENDBRANCH  49  73
BRANCH  61  84
ATOM     84  C   UNL A   1      44.606  27.065  34.309  1.00  0.00     0.064 A 
ATOM     85  C   UNL A   1      44.421  25.820  34.926  1.00  0.00     0.173 A 
ATOM     86  C   UNL A   1      45.886  27.638  34.353  1.00  0.00     0.173 A 
ATOM     87  F   UNL A   1      43.211  25.238  34.923  1.00  0.00    -0.203 F 
ATOM     88  C   UNL A   1      45.472  25.182  35.580  1.00  0.00     0.198 A 
ATOM     89  C   UNL A   1      46.941  26.987  34.986  1.00  0.00     0.198 A 
ATOM     90  F   UNL A   1      46.116  28.825  33.771  1.00  0.00    -0.203 F 
ATOM     91  F   UNL A   1      45.263  24.012  36.197  1.00  0.00    -0.200 F 
ATOM     92  C   UNL A   1      46.732  25.763  35.602  1.00  0.00     0.200 A 
ATOM     93  F   UNL A   1      48.160  27.543  34.997  1.00  0.00    -0.200 F 
ATOM     94  F   UNL A   1      47.744  25.144  36.226  1.00  0.00    -0.200 F 
ENDBRANCH  61  84
ENDBRANCH  35  36
ENDBRANCH  28  30
ENDBRANCH  27  28
ENDBRANCH  26  27
ENDBRANCH  25  26
ENDBRANCH   1  25
TORSDOF 18
ENDMDL
MODEL 2
REMARK VINA RESULT:     -11.3      1.358      8.020
REMARK SMILES CCCc1cc(O[C@@H]2CCOC3(CCC3)C2)c(C(=O)OCCOCCOC(=O)c2ccc(-c3c4nc(c(-c5c(F)c(F)c(F)c(F)c5F)c5ccc([nH]5)c(-c5c(F)c(F)c(F)c(F)c5F)c5nc(c(-c6c(F)c(F)c(F)c(F)c6F)c6ccc3[nH]6)C=C5)C=C4)cc2)s1
REMARK SMILES IDX 23 1 22 2 21 3 20 4 18 5 19 6 17 7 4 8 5 9 92 10 6 11 3 12
REMARK SMILES IDX 2 13 1 14 7 15 8 16 9 17 16 18 10 19 12 20 11 21 13 22 15 23
REMARK SMILES IDX 14 24 24 25 25 26 26 27 27 28 28 29 29 30 30 31 91 32 31 33
REMARK SMILES IDX 90 34 32 35 33 36 34 37 84 38 35 39 89 40 83 41 85 42 36 43
REMARK SMILES IDX 88 44 82 45 81 46 37 48 69 49 49 50 68 51 50 52 53 53 67 54
REMARK SMILES IDX 86 55 51 56 52 57 66 59 87 60 54 61 38 62 39 63 47 64 40 65
REMARK SMILES IDX 41 66 45 67 48 68 42 69 43 70 46 71 44 72 70 73 71 74 79 75
REMARK SMILES IDX 72 76 73 77 77 78 80 79 74 80 75 81 78 82 76 83 55 84 56 85
REMARK SMILES IDX 64 86 57 87 58 88 62 89 65 90 59 91 60 92 63 93 61 94
REMARK H PARENT 85 47 53 58
REMARK Flexibility Score: inf
ROOT
ATOM      1  O   UNL A   1      33.065  30.495  26.117  1.00  0.00    -0.374 OA
ENDROOT
BRANCH   1   2
ATOM      2  C   UNL A   1      33.339  29.102  26.297  1.00  0.00     0.202 C 
BRANCH   2   3
ATOM      3  C   UNL A   1      33.872  28.413  25.038  1.00  0.00     0.261 C 
BRANCH   3   4
ATOM      4  O   UNL A   1      33.341  29.089  23.888  1.00  0.00    -0.459 OA
BRANCH   4   5
ATOM      5  C   UNL A   1      32.854  28.274  22.907  1.00  0.00     0.352 C 
ATOM      6  O   UNL A   1      33.549  27.705  22.085  1.00  0.00    -0.245 OA
BRANCH   5   7
ATOM      7  C   UNL A   1      31.432  28.069  23.111  1.00  0.00     0.155 A 
ATOM      8  C   UNL A   1      29.000  28.469  22.961  1.00  0.00     0.009 A 
ATOM      9  C   UNL A   1      29.315  27.234  23.488  1.00  0.00     0.062 A 
ATOM     10  S   UNL A   1      30.405  29.304  22.506  1.00  0.00    -0.130 S 
ATOM     11  C   UNL A   1      30.715  27.012  23.651  1.00  0.00     0.145 A 
BRANCH   8  12
ATOM     12  C   UNL A   1      27.625  29.042  22.756  1.00  0.00     0.046 C 
BRANCH  12  13
ATOM     13  C   UNL A   1      27.621  30.548  22.475  1.00  0.00     0.002 C 
ATOM     14  C   UNL A   1      27.587  31.397  23.740  1.00  0.00     0.004 C 
ENDBRANCH  12  13
ENDBRANCH   8  12
BRANCH  11  15
ATOM     15  O   UNL A   1      31.381  25.948  24.178  1.00  0.00    -0.488 OA
BRANCH  15  16
ATOM     16  C   UNL A   1      30.709  24.769  24.646  1.00  0.00     0.178 C 
ATOM     17  C   UNL A   1      30.437  24.621  26.145  1.00  0.00     0.074 C 
ATOM     18  C   UNL A   1      31.166  23.459  23.993  1.00  0.00     0.080 C 
ATOM     19  C   UNL A   1      31.120  23.383  26.729  1.00  0.00     0.165 C 
ATOM     20  C   UNL A   1      32.406  22.893  24.679  1.00  0.00     0.072 C 
ATOM     21  O   UNL A   1      32.383  23.141  26.112  1.00  0.00    -0.375 OA
ATOM     22  C   UNL A   1      32.751  21.414  24.310  1.00  0.00     0.036 C 
ATOM     23  C   UNL A   1      33.738  23.264  23.948  1.00  0.00     0.036 C 
ATOM     24  C   UNL A   1      34.230  21.839  24.231  1.00  0.00     0.006 C 
ENDBRANCH  15  16
ENDBRANCH  11  15
ENDBRANCH   5   7
ENDBRANCH   4   5
ENDBRANCH   3   4
ENDBRANCH   2   3
ENDBRANCH   1   2
BRANCH   1  25
ATOM     25  C   UNL A   1      31.736  30.918  26.433  1.00  0.00     0.202 C 
BRANCH  25  26
ATOM     26  C   UNL A   1      31.633  32.381  26.874  1.00  0.00     0.261 C 
BRANCH  26  27
ATOM     27  O   UNL A   1      32.912  33.031  26.757  1.00  0.00    -0.460 OA
BRANCH  27  28
ATOM     28  C   UNL A   1      33.342  33.656  27.878  1.00  0.00     0.338 C 
ATOM     29  O   UNL A   1      32.766  34.523  28.513  1.00  0.00    -0.246 OA
BRANCH  28  30
ATOM     30  C   UNL A   1      34.578  33.009  28.360  1.00  0.00     0.060 A 
ATOM     31  C   UNL A   1      34.457  31.723  28.903  1.00  0.00     0.016 A 
ATOM     32  C   UNL A   1      35.821  33.647  28.323  1.00  0.00     0.016 A 
ATOM     33  C   UNL A   1      35.565  31.094  29.463  1.00  0.00     0.010 A 
ATOM     34  C   UNL A   1      36.932  33.018  28.895  1.00  0.00     0.010 A 
ATOM     35  C   UNL A   1      36.798  31.757  29.500  1.00  0.00    -0.014 A 
BRANCH  35  36
ATOM     36  C   UNL A   1      37.896  31.194  30.321  1.00  0.00     0.031 A 
ATOM     37  C   UNL A   1      38.833  30.203  29.690  1.00  0.00     0.074 A 
ATOM     38  C   UNL A   1      38.083  31.591  31.592  1.00  0.00     0.049 A 
ATOM     39  N   UNL A   1      39.861  29.582  30.211  1.00  0.00    -0.248 NA
ATOM     40  C   UNL A   1      38.576  29.864  28.282  1.00  0.00     0.031 C 
ATOM     41  C   UNL A   1      37.265  32.572  32.298  1.00  0.00     0.029 A 
ATOM     42  N   UNL A   1      39.027  31.211  32.511  1.00  0.00    -0.354 N 
ATOM     43  C   UNL A   1      40.373  28.786  29.195  1.00  0.00     0.074 A 
ATOM     44  C   UNL A   1      39.527  28.975  28.037  1.00  0.00     0.031 C 
ATOM     45  C   UNL A   1      37.738  32.713  33.549  1.00  0.00     0.029 A 
ATOM     46  C   UNL A   1      38.878  31.815  33.734  1.00  0.00     0.049 A 
ATOM     47  H   UNL A   1      39.744  30.567  32.313  1.00  0.00     0.167 HD
ATOM     48  C   UNL A   1      41.459  27.977  29.223  1.00  0.00     0.037 A 
ATOM     49  C   UNL A   1      39.574  31.649  34.875  1.00  0.00     0.037 A 
ATOM     50  C   UNL A   1      42.301  27.790  30.373  1.00  0.00     0.049 A 
ATOM     51  C   UNL A   1      40.740  30.695  34.898  1.00  0.00     0.074 A 
ATOM     52  C   UNL A   1      43.434  27.005  30.495  1.00  0.00     0.029 A 
ATOM     53  N   UNL A   1      42.097  28.393  31.605  1.00  0.00    -0.354 N 
ATOM     54  N   UNL A   1      41.232  29.965  33.927  1.00  0.00    -0.248 NA
ATOM     55  C   UNL A   1      41.448  30.544  36.178  1.00  0.00     0.031 C 
ATOM     56  C   UNL A   1      43.892  27.100  31.814  1.00  0.00     0.029 A 
ATOM     57  C   UNL A   1      43.069  27.979  32.500  1.00  0.00     0.049 A 
ATOM     58  H   UNL A   1      41.369  29.023  31.811  1.00  0.00     0.167 HD
ATOM     59  C   UNL A   1      42.319  29.290  34.467  1.00  0.00     0.074 A 
ATOM     60  C   UNL A   1      42.421  29.704  35.851  1.00  0.00     0.031 C 
ATOM     61  C   UNL A   1      43.158  28.408  33.872  1.00  0.00     0.037 A 
BRANCH  48  62
ATOM     62  C   UNL A   1      41.783  27.217  27.972  1.00  0.00     0.064 A 
ATOM     63  C   UNL A   1      42.648  27.739  26.999  1.00  0.00     0.173 A 
ATOM     64  C   UNL A   1      41.242  25.941  27.757  1.00  0.00     0.173 A 
ATOM     65  F   UNL A   1      43.177  28.962  27.152  1.00  0.00    -0.203 F 
ATOM     66  C   UNL A   1      42.945  27.017  25.845  1.00  0.00     0.198 A 
ATOM     67  C   UNL A   1      41.559  25.213  26.614  1.00  0.00     0.198 A 
ATOM     68  F   UNL A   1      40.410  25.399  28.658  1.00  0.00    -0.203 F 
ATOM     69  F   UNL A   1      43.741  27.551  24.910  1.00  0.00    -0.200 F 
ATOM     70  C   UNL A   1      42.405  25.753  25.656  1.00  0.00     0.200 A 
ATOM     71  F   UNL A   1      41.043  23.990  26.437  1.00  0.00    -0.200 F 
ATOM     72  F   UNL A   1      42.693  25.059  24.548  1.00  0.00    -0.200 F 
ENDBRANCH  48  62
BRANCH  49  73
ATOM     73  C   UNL A   1      39.185  32.399  36.096  1.00  0.00     0.064 A 
ATOM     74  C   UNL A   1      39.701  33.674  36.358  1.00  0.00     0.173 A 
ATOM     75  C   UNL A   1      38.299  31.845  37.033  1.00  0.00     0.173 A 
ATOM     76  F   UNL A   1      40.572  34.232  35.505  1.00  0.00    -0.203 F 
ATOM     77  C   UNL A   1      39.358  34.363  37.520  1.00  0.00     0.198 A 
ATOM     78  C   UNL A   1      37.938  32.546  38.182  1.00  0.00     0.198 A 
ATOM     79  F   UNL A   1      37.781  30.625  36.828  1.00  0.00    -0.203 F 
ATOM     80  F   UNL A   1      39.897  35.564  37.768  1.00  0.00    -0.200 F 
ATOM     81  C   UNL A   1      38.472  33.800  38.428  1.00  0.00     0.200 A 
ATOM     82  F   UNL A   1      37.076  32.001  39.052  1.00  0.00    -0.200 F 
ATOM     83  F   UNL A   1      38.142  34.464  39.544  1.00  0.00    -0.200 F 
ENDBRANCH  49  73
BRANCH  61  84
ATOM     84  C   UNL A   1      44.276  27.851  34.703  1.00  0.00     0.064 A 
ATOM     85  C   UNL A   1      45.505  28.515  34.817  1.00  0.00     0.173 A 
ATOM     86  C   UNL A   1      44.097  26.665  35.430  1.00  0.00     0.173 A 
ATOM     87  F   UNL A   1      45.728  29.646  34.131  1.00  0.00    -0.203 F 
ATOM     88  C   UNL A   1      46.524  28.000  35.615  1.00  0.00     0.198 A 
ATOM     89  C   UNL A   1      45.109  26.166  36.245  1.00  0.00     0.198 A 
ATOM     90  F   UNL A   1      42.937  25.996  35.358  1.00  0.00    -0.203 F 
ATOM     91  F   UNL A   1      47.705  28.630  35.679  1.00  0.00    -0.200 F 
ATOM     92  C   UNL A   1      46.322  26.830  36.333  1.00  0.00     0.200 A 
ATOM     93  F   UNL A   1      44.909  25.041  36.946  1.00  0.00    -0.200 F 
ATOM     94  F   UNL A   1      47.303  26.340  37.105  1.00  0.00    -0.200 F 
ENDBRANCH  61  84
ENDBRANCH  35  36
ENDBRANCH  28  30
ENDBRANCH  27  28
ENDBRANCH  26  27
ENDBRANCH  25  26
ENDBRANCH   1  25
TORSDOF 18
ENDMDL
MODEL 3
REMARK VINA RESULT:     -11.2      1.171      3.906
REMARK SMILES CCCc1cc(O[C@@H]2CCOC3(CCC3)C2)c(C(=O)OCCOCCOC(=O)c2ccc(-c3c4nc(c(-c5c(F)c(F)c(F)c(F)c5F)c5ccc([nH]5)c(-c5c(F)c(F)c(F)c(F)c5F)c5nc(c(-c6c(F)c(F)c(F)c(F)c6F)c6ccc3[nH]6)C=C5)C=C4)cc2)s1
REMARK SMILES IDX 23 1 22 2 21 3 20 4 18 5 19 6 17 7 4 8 5 9 92 10 6 11 3 12
REMARK SMILES IDX 2 13 1 14 7 15 8 16 9 17 16 18 10 19 12 20 11 21 13 22 15 23
REMARK SMILES IDX 14 24 24 25 25 26 26 27 27 28 28 29 29 30 30 31 91 32 31 33
REMARK SMILES IDX 90 34 32 35 33 36 34 37 84 38 35 39 89 40 83 41 85 42 36 43
REMARK SMILES IDX 88 44 82 45 81 46 37 48 69 49 49 50 68 51 50 52 53 53 67 54
REMARK SMILES IDX 86 55 51 56 52 57 66 59 87 60 54 61 38 62 39 63 47 64 40 65
REMARK SMILES IDX 41 66 45 67 48 68 42 69 43 70 46 71 44 72 70 73 71 74 79 75
REMARK SMILES IDX 72 76 73 77 77 78 80 79 74 80 75 81 78 82 76 83 55 84 56 85
REMARK SMILES IDX 64 86 57 87 58 88 62 89 65 90 59 91 60 92 63 93 61 94
REMARK H PARENT 85 47 53 58
REMARK Flexibility Score: inf
ROOT
ATOM      1  O   UNL A   1      32.911  29.985  25.345  1.00  0.00    -0.374 OA
ENDROOT
BRANCH   1   2
ATOM      2  C   UNL A   1      33.694  28.890  25.828  1.00  0.00     0.202 C 
BRANCH   2   3
ATOM      3  C   UNL A   1      33.676  27.669  24.905  1.00  0.00     0.261 C 
BRANCH   3   4
ATOM      4  O   UNL A   1      33.968  28.102  23.568  1.00  0.00    -0.459 OA
BRANCH   4   5
ATOM      5  C   UNL A   1      33.264  27.470  22.584  1.00  0.00     0.352 C 
ATOM      6  O   UNL A   1      33.775  26.836  21.679  1.00  0.00    -0.245 OA
BRANCH   5   7
ATOM      7  C   UNL A   1      31.846  27.532  22.889  1.00  0.00     0.155 A 
ATOM      8  C   UNL A   1      29.555  28.444  23.023  1.00  0.00     0.009 A 
ATOM      9  C   UNL A   1      29.625  27.103  23.338  1.00  0.00     0.062 A 
ATOM     10  S   UNL A   1      31.078  29.033  22.563  1.00  0.00    -0.130 S 
ATOM     11  C   UNL A   1      30.950  26.574  23.337  1.00  0.00     0.145 A 
BRANCH   8  12
ATOM     12  C   UNL A   1      28.329  29.313  23.031  1.00  0.00     0.046 C 
BRANCH  12  13
ATOM     13  C   UNL A   1      28.623  30.792  23.298  1.00  0.00     0.002 C 
ATOM     14  C   UNL A   1      27.370  31.619  23.559  1.00  0.00     0.004 C 
ENDBRANCH  12  13
ENDBRANCH   8  12
BRANCH  11  15
ATOM     15  O   UNL A   1      31.400  25.326  23.644  1.00  0.00    -0.488 OA
BRANCH  15  16
ATOM     16  C   UNL A   1      30.842  24.543  24.710  1.00  0.00     0.178 C 
ATOM     17  C   UNL A   1      31.122  24.960  26.156  1.00  0.00     0.074 C 
ATOM     18  C   UNL A   1      30.910  23.025  24.506  1.00  0.00     0.080 C 
ATOM     19  C   UNL A   1      31.857  23.867  26.933  1.00  0.00     0.165 C 
ATOM     20  C   UNL A   1      32.260  22.461  24.944  1.00  0.00     0.072 C 
ATOM     21  O   UNL A   1      32.782  23.167  26.104  1.00  0.00    -0.375 OA
ATOM     22  C   UNL A   1      32.313  20.906  25.086  1.00  0.00     0.036 C 
ATOM     23  C   UNL A   1      33.262  22.271  23.758  1.00  0.00     0.036 C 
ATOM     24  C   UNL A   1      33.694  20.948  24.403  1.00  0.00     0.006 C 
ENDBRANCH  15  16
ENDBRANCH  11  15
ENDBRANCH   5   7
ENDBRANCH   4   5
ENDBRANCH   3   4
ENDBRANCH   2   3
ENDBRANCH   1   2
BRANCH   1  25
ATOM     25  C   UNL A   1      31.733  30.293  26.097  1.00  0.00     0.202 C 
BRANCH  25  26
ATOM     26  C   UNL A   1      31.814  31.607  26.879  1.00  0.00     0.261 C 
BRANCH  26  27
ATOM     27  O   UNL A   1      33.063  32.272  26.614  1.00  0.00    -0.460 OA
BRANCH  27  28
ATOM     28  C   UNL A   1      33.579  32.960  27.659  1.00  0.00     0.338 C 
ATOM     29  O   UNL A   1      33.043  33.848  28.301  1.00  0.00    -0.246 OA
BRANCH  28  30
ATOM     30  C   UNL A   1      34.868  32.360  28.057  1.00  0.00     0.060 A 
ATOM     31  C   UNL A   1      34.864  31.000  28.393  1.00  0.00     0.016 A 
ATOM     32  C   UNL A   1      36.047  33.106  28.141  1.00  0.00     0.016 A 
ATOM     33  C   UNL A   1      36.023  30.394  28.869  1.00  0.00     0.010 A 
ATOM     34  C   UNL A   1      37.209  32.499  28.628  1.00  0.00     0.010 A 
ATOM     35  C   UNL A   1      37.190  31.152  29.029  1.00  0.00    -0.014 A 
BRANCH  35  36
ATOM     36  C   UNL A   1      38.332  30.570  29.773  1.00  0.00     0.031 A 
ATOM     37  C   UNL A   1      38.539  30.973  31.206  1.00  0.00     0.074 A 
ATOM     38  C   UNL A   1      39.142  29.664  29.199  1.00  0.00     0.049 A 
ATOM     39  N   UNL A   1      39.464  30.593  32.051  1.00  0.00    -0.248 NA
ATOM     40  C   UNL A   1      37.574  31.935  31.761  1.00  0.00     0.031 C 
ATOM     41  C   UNL A   1      39.017  29.167  27.832  1.00  0.00     0.029 A 
ATOM     42  N   UNL A   1      40.233  29.002  29.703  1.00  0.00    -0.354 N 
ATOM     43  C   UNL A   1      39.189  31.266  33.235  1.00  0.00     0.074 A 
ATOM     44  C   UNL A   1      38.033  32.101  32.992  1.00  0.00     0.031 C 
ATOM     45  C   UNL A   1      40.002  28.281  27.600  1.00  0.00     0.029 A 
ATOM     46  C   UNL A   1      40.836  28.167  28.796  1.00  0.00     0.049 A 
ATOM     47  H   UNL A   1      40.552  29.115  30.627  1.00  0.00     0.167 HD
ATOM     48  C   UNL A   1      39.838  31.185  34.420  1.00  0.00     0.037 A 
ATOM     49  C   UNL A   1      41.944  27.411  28.917  1.00  0.00     0.037 A 
ATOM     50  C   UNL A   1      40.986  30.355  34.662  1.00  0.00     0.049 A 
ATOM     51  C   UNL A   1      42.685  27.388  30.228  1.00  0.00     0.074 A 
ATOM     52  C   UNL A   1      41.703  30.192  35.835  1.00  0.00     0.029 A 
ATOM     53  N   UNL A   1      41.589  29.549  33.709  1.00  0.00    -0.354 N 
ATOM     54  N   UNL A   1      42.405  28.007  31.348  1.00  0.00    -0.248 NA
ATOM     55  C   UNL A   1      43.897  26.557  30.291  1.00  0.00     0.031 C 
ATOM     56  C   UNL A   1      42.766  29.319  35.579  1.00  0.00     0.029 A 
ATOM     57  C   UNL A   1      42.684  28.905  34.259  1.00  0.00     0.049 A 
ATOM     58  H   UNL A   1      41.284  29.450  32.778  1.00  0.00     0.167 HD
ATOM     59  C   UNL A   1      43.385  27.624  32.255  1.00  0.00     0.074 A 
ATOM     60  C   UNL A   1      44.264  26.709  31.556  1.00  0.00     0.031 C 
ATOM     61  C   UNL A   1      43.544  27.993  33.549  1.00  0.00     0.037 A 
BRANCH  48  62
ATOM     62  C   UNL A   1      39.328  32.039  35.543  1.00  0.00     0.064 A 
ATOM     63  C   UNL A   1      38.448  31.531  36.510  1.00  0.00     0.173 A 
ATOM     64  C   UNL A   1      39.746  33.372  35.667  1.00  0.00     0.173 A 
ATOM     65  F   UNL A   1      38.006  30.267  36.424  1.00  0.00    -0.203 F 
ATOM     66  C   UNL A   1      37.988  32.335  37.550  1.00  0.00     0.198 A 
ATOM     67  C   UNL A   1      39.303  34.165  36.722  1.00  0.00     0.198 A 
ATOM     68  F   UNL A   1      40.587  33.903  34.768  1.00  0.00    -0.203 F 
ATOM     69  F   UNL A   1      37.115  31.842  38.439  1.00  0.00    -0.200 F 
ATOM     70  C   UNL A   1      38.420  33.648  37.659  1.00  0.00     0.200 A 
ATOM     71  F   UNL A   1      39.727  35.431  36.829  1.00  0.00    -0.200 F 
ATOM     72  F   UNL A   1      37.980  34.419  38.662  1.00  0.00    -0.200 F 
ENDBRANCH  48  62
BRANCH  49  73
ATOM     73  C   UNL A   1      42.427  26.616  27.759  1.00  0.00     0.064 A 
ATOM     74  C   UNL A   1      43.368  27.139  26.864  1.00  0.00     0.173 A 
ATOM     75  C   UNL A   1      41.944  25.321  27.519  1.00  0.00     0.173 A 
ATOM     76  F   UNL A   1      43.839  28.383  27.037  1.00  0.00    -0.203 F 
ATOM     77  C   UNL A   1      43.798  26.403  25.762  1.00  0.00     0.198 A 
ATOM     78  C   UNL A   1      42.393  24.576  26.431  1.00  0.00     0.198 A 
ATOM     79  F   UNL A   1      41.039  24.778  28.346  1.00  0.00    -0.203 F 
ATOM     80  F   UNL A   1      44.668  26.941  24.896  1.00  0.00    -0.200 F 
ATOM     81  C   UNL A   1      43.314  25.120  25.549  1.00  0.00     0.200 A 
ATOM     82  F   UNL A   1      41.928  23.334  26.234  1.00  0.00    -0.200 F 
ATOM     83  F   UNL A   1      43.729  24.412  24.490  1.00  0.00    -0.200 F 
ENDBRANCH  49  73
BRANCH  61  84
ATOM     84  C   UNL A   1      44.692  27.390  34.302  1.00  0.00     0.064 A 
ATOM     85  C   UNL A   1      45.936  28.031  34.380  1.00  0.00     0.173 A 
ATOM     86  C   UNL A   1      44.529  26.180  34.993  1.00  0.00     0.173 A 
ATOM     87  F   UNL A   1      46.144  29.183  33.725  1.00  0.00    -0.203 F 
ATOM     88  C   UNL A   1      46.985  27.471  35.106  1.00  0.00     0.198 A 
ATOM     89  C   UNL A   1      45.571  25.636  35.738  1.00  0.00     0.198 A 
ATOM     90  F   UNL A   1      43.356  25.531  34.955  1.00  0.00    -0.203 F 
ATOM     91  F   UNL A   1      48.177  28.080  35.135  1.00  0.00    -0.200 F 
ATOM     92  C   UNL A   1      46.798  26.278  35.790  1.00  0.00     0.200 A 
ATOM     93  F   UNL A   1      45.388  24.489  36.407  1.00  0.00    -0.200 F 
ATOM     94  F   UNL A   1      47.807  25.745  36.494  1.00  0.00    -0.200 F 
ENDBRANCH  61  84
ENDBRANCH  35  36
ENDBRANCH  28  30
ENDBRANCH  27  28
ENDBRANCH  26  27
ENDBRANCH  25  26
ENDBRANCH   1  25
TORSDOF 18
ENDMDL
