MODEL 1
REMARK VINA RESULT:     -11.0      0.000      0.000
REMARK SMILES Cc1nsc(N[C@H](C)c2cccs2)c1C(=O)OCCOCCOC(=O)c1ccc(-c2c3nc(c(-c4c(F)c(F)c(F)c(F)c4F)c4ccc([nH]4)c(-c4c(F)c(F)c(F)c(F)c4F)c4nc(c(-c5c(F)c(F)c(F)c(F)c5F)c5ccc2[nH]5)C=C4)C=C3)cc1
REMARK SMILES IDX 19 1 18 2 17 3 15 4 16 5 14 6 1 7 2 8 3 9 4 10 5 11 6 12
REMARK SMILES IDX 7 14 8 15 9 16 10 17 13 18 11 19 12 20 20 21 21 22 22 23
REMARK SMILES IDX 23 24 24 25 25 26 26 27 27 28 88 29 28 30 87 31 29 32 30 33
REMARK SMILES IDX 31 34 81 35 32 36 86 37 80 38 82 39 33 40 85 41 79 42 78 43
REMARK SMILES IDX 34 45 66 46 46 47 65 48 47 49 50 50 64 51 83 52 48 53 49 54
REMARK SMILES IDX 63 56 84 57 51 58 35 59 36 60 44 61 37 62 38 63 42 64 45 65
REMARK SMILES IDX 39 66 40 67 43 68 41 69 67 70 68 71 76 72 69 73 70 74 74 75
REMARK SMILES IDX 77 76 71 77 72 78 75 79 73 80 52 81 53 82 61 83 54 84 55 85
REMARK SMILES IDX 59 86 62 87 56 88 57 89 60 90 58 91
REMARK H PARENT 6 13 82 44 50 55
REMARK Flexibility Score: inf
ROOT
ATOM      1  C   UNL A   1      33.642  28.356  25.285  1.00  0.00     0.202 C 
ENDROOT
BRANCH   1   2
ATOM      2  C   UNL A   1      33.608  27.658  23.922  1.00  0.00     0.261 C 
BRANCH   2   3
ATOM      3  O   UNL A   1      33.933  26.260  24.014  1.00  0.00    -0.460 OA
BRANCH   3   4
ATOM      4  C   UNL A   1      32.868  25.410  23.934  1.00  0.00     0.343 C 
ATOM      5  O   UNL A   1      32.351  25.060  22.880  1.00  0.00    -0.246 OA
BRANCH   4   6
ATOM      6  C   UNL A   1      32.506  24.821  25.217  1.00  0.00     0.117 A 
ATOM      7  C   UNL A   1      30.373  26.241  25.833  1.00  0.00     0.069 C 
ATOM      8  C   UNL A   1      31.372  25.156  26.047  1.00  0.00     0.068 A 
ATOM      9  N   UNL A   1      31.202  24.390  27.120  1.00  0.00    -0.195 NA
ATOM     10  S   UNL A   1      32.439  23.317  27.214  1.00  0.00    -0.018 S 
ATOM     11  C   UNL A   1      33.326  23.876  25.855  1.00  0.00     0.124 A 
BRANCH  11  12
ATOM     12  N   UNL A   1      34.589  23.523  25.459  1.00  0.00    -0.368 N 
ATOM     13  H   UNL A   1      35.296  24.090  25.845  1.00  0.00     0.162 HD
BRANCH  12  14
ATOM     14  C   UNL A   1      35.099  22.467  24.576  1.00  0.00     0.117 C 
ATOM     15  C   UNL A   1      35.869  22.925  23.341  1.00  0.00     0.037 C 
BRANCH  14  16
ATOM     16  C   UNL A   1      34.007  21.466  24.174  1.00  0.00     0.027 A 
ATOM     17  C   UNL A   1      32.967  21.599  23.267  1.00  0.00     0.017 A 
ATOM     18  S   UNL A   1      34.012  19.883  24.856  1.00  0.00    -0.147 S 
ATOM     19  C   UNL A   1      32.210  20.402  23.106  1.00  0.00     0.012 A 
ATOM     20  C   UNL A   1      32.665  19.394  23.923  1.00  0.00     0.065 A 
ENDBRANCH  14  16
ENDBRANCH  12  14
ENDBRANCH  11  12
ENDBRANCH   4   6
ENDBRANCH   3   4
ENDBRANCH   2   3
ENDBRANCH   1   2
BRANCH   1  21
ATOM     21  O   UNL A   1      33.040  29.644  25.412  1.00  0.00    -0.374 OA
BRANCH  21  22
ATOM     22  C   UNL A   1      32.628  30.133  26.683  1.00  0.00     0.202 C 
BRANCH  22  23
ATOM     23  C   UNL A   1      33.476  31.181  27.383  1.00  0.00     0.261 C 
BRANCH  23  24
ATOM     24  O   UNL A   1      34.848  30.825  27.388  1.00  0.00    -0.460 OA
BRANCH  24  25
ATOM     25  C   UNL A   1      35.645  31.763  27.953  1.00  0.00     0.338 C 
ATOM     26  O   UNL A   1      35.735  32.935  27.658  1.00  0.00    -0.246 OA
BRANCH  25  27
ATOM     27  C   UNL A   1      36.547  31.082  28.888  1.00  0.00     0.060 A 
ATOM     28  C   UNL A   1      37.644  31.839  29.292  1.00  0.00     0.016 A 
ATOM     29  C   UNL A   1      36.521  29.682  28.972  1.00  0.00     0.016 A 
ATOM     30  C   UNL A   1      38.832  31.181  29.475  1.00  0.00     0.010 A 
ATOM     31  C   UNL A   1      37.711  29.025  29.143  1.00  0.00     0.010 A 
ATOM     32  C   UNL A   1      38.862  29.795  29.280  1.00  0.00    -0.014 A 
BRANCH  32  33
ATOM     33  C   UNL A   1      40.147  29.143  29.354  1.00  0.00     0.031 A 
ATOM     34  C   UNL A   1      40.591  29.024  30.755  1.00  0.00     0.074 A 
ATOM     35  C   UNL A   1      40.784  28.667  28.271  1.00  0.00     0.049 A 
ATOM     36  N   UNL A   1      41.521  29.700  31.341  1.00  0.00    -0.248 NA
ATOM     37  C   UNL A   1      39.737  28.246  31.669  1.00  0.00     0.031 C 
ATOM     38  C   UNL A   1      40.275  28.522  26.904  1.00  0.00     0.029 A 
ATOM     39  N   UNL A   1      42.027  28.121  28.192  1.00  0.00    -0.354 N 
ATOM     40  C   UNL A   1      41.514  29.252  32.656  1.00  0.00     0.074 A 
ATOM     41  C   UNL A   1      40.267  28.566  32.850  1.00  0.00     0.031 C 
ATOM     42  C   UNL A   1      41.110  27.724  26.199  1.00  0.00     0.029 A 
ATOM     43  C   UNL A   1      42.272  27.423  27.016  1.00  0.00     0.049 A 
ATOM     44  H   UNL A   1      42.697  28.214  28.909  1.00  0.00     0.167 HD
ATOM     45  C   UNL A   1      42.677  29.185  33.353  1.00  0.00     0.037 A 
ATOM     46  C   UNL A   1      43.325  26.593  26.802  1.00  0.00     0.037 A 
ATOM     47  C   UNL A   1      43.678  30.039  32.760  1.00  0.00     0.049 A 
ATOM     48  C   UNL A   1      44.365  26.942  27.805  1.00  0.00     0.074 A 
ATOM     49  C   UNL A   1      43.810  31.396  32.545  1.00  0.00     0.029 A 
ATOM     50  N   UNL A   1      44.582  29.431  31.926  1.00  0.00    -0.354 N 
ATOM     51  N   UNL A   1      45.014  28.073  27.815  1.00  0.00    -0.248 NA
ATOM     52  C   UNL A   1      44.354  26.219  29.068  1.00  0.00     0.031 C 
ATOM     53  C   UNL A   1      44.495  31.517  31.299  1.00  0.00     0.029 A 
ATOM     54  C   UNL A   1      44.803  30.235  30.840  1.00  0.00     0.049 A 
ATOM     55  H   UNL A   1      45.005  28.557  32.083  1.00  0.00     0.167 HD
ATOM     56  C   UNL A   1      45.113  28.413  29.158  1.00  0.00     0.074 A 
ATOM     57  C   UNL A   1      44.779  27.189  29.881  1.00  0.00     0.031 C 
ATOM     58  C   UNL A   1      45.170  29.725  29.537  1.00  0.00     0.037 A 
BRANCH  45  59
ATOM     59  C   UNL A   1      43.039  28.004  34.231  1.00  0.00     0.064 A 
ATOM     60  C   UNL A   1      43.286  28.238  35.597  1.00  0.00     0.173 A 
ATOM     61  C   UNL A   1      43.455  26.740  33.749  1.00  0.00     0.173 A 
ATOM     62  F   UNL A   1      42.952  29.409  36.159  1.00  0.00    -0.203 F 
ATOM     63  C   UNL A   1      43.978  27.318  36.390  1.00  0.00     0.198 A 
ATOM     64  C   UNL A   1      44.095  25.804  34.557  1.00  0.00     0.198 A 
ATOM     65  F   UNL A   1      43.375  26.388  32.463  1.00  0.00    -0.203 F 
ATOM     66  F   UNL A   1      44.311  27.643  37.645  1.00  0.00    -0.200 F 
ATOM     67  C   UNL A   1      44.388  26.106  35.866  1.00  0.00     0.200 A 
ATOM     68  F   UNL A   1      44.503  24.645  34.021  1.00  0.00    -0.200 F 
ATOM     69  F   UNL A   1      45.109  25.251  36.604  1.00  0.00    -0.200 F 
ENDBRANCH  45  59
BRANCH  46  70
ATOM     70  C   UNL A   1      43.327  25.296  26.082  1.00  0.00     0.064 A 
ATOM     71  C   UNL A   1      44.353  24.965  25.181  1.00  0.00     0.173 A 
ATOM     72  C   UNL A   1      42.483  24.242  26.481  1.00  0.00     0.173 A 
ATOM     73  F   UNL A   1      45.238  25.897  24.798  1.00  0.00    -0.203 F 
ATOM     74  C   UNL A   1      44.529  23.655  24.718  1.00  0.00     0.198 A 
ATOM     75  C   UNL A   1      42.657  22.938  26.016  1.00  0.00     0.198 A 
ATOM     76  F   UNL A   1      41.534  24.436  27.409  1.00  0.00    -0.203 F 
ATOM     77  F   UNL A   1      45.554  23.365  23.904  1.00  0.00    -0.200 F 
ATOM     78  C   UNL A   1      43.686  22.642  25.142  1.00  0.00     0.200 A 
ATOM     79  F   UNL A   1      41.862  21.959  26.471  1.00  0.00    -0.200 F 
ATOM     80  F   UNL A   1      43.890  21.378  24.746  1.00  0.00    -0.200 F 
ENDBRANCH  46  70
BRANCH  58  81
ATOM     81  C   UNL A   1      45.455  30.743  28.466  1.00  0.00     0.064 A 
ATOM     82  C   UNL A   1      44.479  31.315  27.630  1.00  0.00     0.173 A 
ATOM     83  C   UNL A   1      46.759  31.245  28.370  1.00  0.00     0.173 A 
ATOM     84  F   UNL A   1      43.193  30.954  27.725  1.00  0.00    -0.203 F 
ATOM     85  C   UNL A   1      44.810  32.314  26.714  1.00  0.00     0.198 A 
ATOM     86  C   UNL A   1      47.079  32.268  27.483  1.00  0.00     0.198 A 
ATOM     87  F   UNL A   1      47.722  30.771  29.178  1.00  0.00    -0.203 F 
ATOM     88  F   UNL A   1      43.866  32.834  25.916  1.00  0.00    -0.200 F 
ATOM     89  C   UNL A   1      46.107  32.795  26.648  1.00  0.00     0.200 A 
ATOM     90  F   UNL A   1      48.324  32.762  27.459  1.00  0.00    -0.200 F 
ATOM     91  F   UNL A   1      46.418  33.783  25.797  1.00  0.00    -0.200 F 
ENDBRANCH  58  81
ENDBRANCH  32  33
ENDBRANCH  25  27
ENDBRANCH  24  25
ENDBRANCH  23  24
ENDBRANCH  22  23
ENDBRANCH  21  22
ENDBRANCH   1  21
TORSDOF 17
ENDMDL
MODEL 2
REMARK VINA RESULT:     -11.0      3.184      8.171
REMARK SMILES Cc1nsc(N[C@H](C)c2cccs2)c1C(=O)OCCOCCOC(=O)c1ccc(-c2c3nc(c(-c4c(F)c(F)c(F)c(F)c4F)c4ccc([nH]4)c(-c4c(F)c(F)c(F)c(F)c4F)c4nc(c(-c5c(F)c(F)c(F)c(F)c5F)c5ccc2[nH]5)C=C4)C=C3)cc1
REMARK SMILES IDX 19 1 18 2 17 3 15 4 16 5 14 6 1 7 2 8 3 9 4 10 5 11 6 12
REMARK SMILES IDX 7 14 8 15 9 16 10 17 13 18 11 19 12 20 20 21 21 22 22 23
REMARK SMILES IDX 23 24 24 25 25 26 26 27 27 28 88 29 28 30 87 31 29 32 30 33
REMARK SMILES IDX 31 34 81 35 32 36 86 37 80 38 82 39 33 40 85 41 79 42 78 43
REMARK SMILES IDX 34 45 66 46 46 47 65 48 47 49 50 50 64 51 83 52 48 53 49 54
REMARK SMILES IDX 63 56 84 57 51 58 35 59 36 60 44 61 37 62 38 63 42 64 45 65
REMARK SMILES IDX 39 66 40 67 43 68 41 69 67 70 68 71 76 72 69 73 70 74 74 75
REMARK SMILES IDX 77 76 71 77 72 78 75 79 73 80 52 81 53 82 61 83 54 84 55 85
REMARK SMILES IDX 59 86 62 87 56 88 57 89 60 90 58 91
REMARK H PARENT 6 13 82 44 50 55
REMARK Flexibility Score: inf
ROOT
ATOM      1  C   UNL A   1      35.264  21.611  26.085  1.00  0.00     0.202 C 
ENDROOT
BRANCH   1   2
ATOM      2  C   UNL A   1      35.051  23.103  25.816  1.00  0.00     0.261 C 
BRANCH   2   3
ATOM      3  O   UNL A   1      34.216  23.725  26.808  1.00  0.00    -0.460 OA
BRANCH   3   4
ATOM      4  C   UNL A   1      32.918  23.302  26.823  1.00  0.00     0.343 C 
ATOM      5  O   UNL A   1      32.414  22.678  27.749  1.00  0.00    -0.246 OA
BRANCH   4   6
ATOM      6  C   UNL A   1      32.136  23.809  25.703  1.00  0.00     0.117 A 
ATOM      7  C   UNL A   1      31.606  26.254  26.531  1.00  0.00     0.069 C 
ATOM      8  C   UNL A   1      31.587  25.136  25.546  1.00  0.00     0.068 A 
ATOM      9  N   UNL A   1      31.008  25.381  24.374  1.00  0.00    -0.195 NA
ATOM     10  S   UNL A   1      31.024  24.012  23.472  1.00  0.00    -0.018 S 
ATOM     11  C   UNL A   1      31.740  22.979  24.641  1.00  0.00     0.124 A 
BRANCH  11  12
ATOM     12  N   UNL A   1      31.883  21.618  24.600  1.00  0.00    -0.368 N 
ATOM     13  H   UNL A   1      31.453  21.153  25.355  1.00  0.00     0.162 HD
BRANCH  12  14
ATOM     14  C   UNL A   1      32.550  20.713  23.656  1.00  0.00     0.117 C 
ATOM     15  C   UNL A   1      31.972  20.656  22.244  1.00  0.00     0.037 C 
BRANCH  14  16
ATOM     16  C   UNL A   1      32.704  19.293  24.219  1.00  0.00     0.027 A 
ATOM     17  C   UNL A   1      32.766  18.859  25.534  1.00  0.00     0.017 A 
ATOM     18  S   UNL A   1      32.767  17.951  23.139  1.00  0.00    -0.147 S 
ATOM     19  C   UNL A   1      32.822  17.439  25.651  1.00  0.00     0.012 A 
ATOM     20  C   UNL A   1      32.843  16.824  24.422  1.00  0.00     0.065 A 
ENDBRANCH  14  16
ENDBRANCH  12  14
ENDBRANCH  11  12
ENDBRANCH   4   6
ENDBRANCH   3   4
ENDBRANCH   2   3
ENDBRANCH   1   2
BRANCH   1  21
ATOM     21  O   UNL A   1      36.304  20.929  25.385  1.00  0.00    -0.374 OA
BRANCH  21  22
ATOM     22  C   UNL A   1      37.455  21.627  24.927  1.00  0.00     0.202 C 
BRANCH  22  23
ATOM     23  C   UNL A   1      38.747  21.524  25.717  1.00  0.00     0.261 C 
BRANCH  23  24
ATOM     24  O   UNL A   1      38.958  22.668  26.527  1.00  0.00    -0.460 OA
BRANCH  24  25
ATOM     25  C   UNL A   1      40.121  22.630  27.221  1.00  0.00     0.338 C 
ATOM     26  O   UNL A   1      40.518  21.750  27.953  1.00  0.00    -0.246 OA
BRANCH  25  27
ATOM     27  C   UNL A   1      40.765  23.941  27.090  1.00  0.00     0.060 A 
ATOM     28  C   UNL A   1      41.850  24.142  27.940  1.00  0.00     0.016 A 
ATOM     29  C   UNL A   1      40.056  25.001  26.504  1.00  0.00     0.016 A 
ATOM     30  C   UNL A   1      42.022  25.399  28.459  1.00  0.00     0.010 A 
ATOM     31  C   UNL A   1      40.220  26.254  27.033  1.00  0.00     0.010 A 
ATOM     32  C   UNL A   1      41.124  26.404  28.079  1.00  0.00    -0.014 A 
BRANCH  32  33
ATOM     33  C   UNL A   1      41.247  27.683  28.734  1.00  0.00     0.031 A 
ATOM     34  C   UNL A   1      42.503  28.349  28.344  1.00  0.00     0.074 A 
ATOM     35  C   UNL A   1      40.289  28.188  29.530  1.00  0.00     0.049 A 
ATOM     36  N   UNL A   1      43.563  28.503  29.064  1.00  0.00    -0.248 NA
ATOM     37  C   UNL A   1      42.690  28.654  26.916  1.00  0.00     0.031 C 
ATOM     38  C   UNL A   1      38.924  27.696  29.738  1.00  0.00     0.029 A 
ATOM     39  N   UNL A   1      40.319  29.326  30.273  1.00  0.00    -0.354 N 
ATOM     40  C   UNL A   1      44.473  29.139  28.230  1.00  0.00     0.074 A 
ATOM     41  C   UNL A   1      43.982  28.980  26.890  1.00  0.00     0.031 C 
ATOM     42  C   UNL A   1      38.196  28.651  30.362  1.00  0.00     0.029 A 
ATOM     43  C   UNL A   1      39.074  29.751  30.719  1.00  0.00     0.049 A 
ATOM     44  H   UNL A   1      41.153  29.809  30.477  1.00  0.00     0.167 HD
ATOM     45  C   UNL A   1      45.355  30.032  28.748  1.00  0.00     0.037 A 
ATOM     46  C   UNL A   1      38.807  30.968  31.258  1.00  0.00     0.037 A 
ATOM     47  C   UNL A   1      45.516  29.826  30.168  1.00  0.00     0.049 A 
ATOM     48  C   UNL A   1      40.103  31.534  31.718  1.00  0.00     0.074 A 
ATOM     49  C   UNL A   1      45.984  28.802  30.966  1.00  0.00     0.029 A 
ATOM     50  N   UNL A   1      44.783  30.645  30.990  1.00  0.00    -0.354 N 
ATOM     51  N   UNL A   1      40.803  31.039  32.701  1.00  0.00    -0.248 NA
ATOM     52  C   UNL A   1      40.844  32.370  30.785  1.00  0.00     0.031 C 
ATOM     53  C   UNL A   1      45.172  28.834  32.138  1.00  0.00     0.029 A 
ATOM     54  C   UNL A   1      44.287  29.909  32.032  1.00  0.00     0.049 A 
ATOM     55  H   UNL A   1      44.638  31.608  30.852  1.00  0.00     0.167 HD
ATOM     56  C   UNL A   1      42.123  31.132  32.279  1.00  0.00     0.074 A 
ATOM     57  C   UNL A   1      42.090  32.047  31.141  1.00  0.00     0.031 C 
ATOM     58  C   UNL A   1      43.054  30.232  32.714  1.00  0.00     0.037 A 
BRANCH  45  59
ATOM     59  C   UNL A   1      45.665  31.357  28.083  1.00  0.00     0.064 A 
ATOM     60  C   UNL A   1      44.590  32.187  27.714  1.00  0.00     0.173 A 
ATOM     61  C   UNL A   1      46.916  31.701  27.517  1.00  0.00     0.173 A 
ATOM     62  F   UNL A   1      43.353  31.945  28.173  1.00  0.00    -0.203 F 
ATOM     63  C   UNL A   1      44.740  33.218  26.782  1.00  0.00     0.198 A 
ATOM     64  C   UNL A   1      47.071  32.764  26.632  1.00  0.00     0.198 A 
ATOM     65  F   UNL A   1      48.021  30.971  27.694  1.00  0.00    -0.203 F 
ATOM     66  F   UNL A   1      43.662  33.890  26.358  1.00  0.00    -0.200 F 
ATOM     67  C   UNL A   1      45.978  33.499  26.236  1.00  0.00     0.200 A 
ATOM     68  F   UNL A   1      48.278  33.003  26.100  1.00  0.00    -0.200 F 
ATOM     69  F   UNL A   1      46.113  34.442  25.294  1.00  0.00    -0.200 F 
ENDBRANCH  45  59
BRANCH  46  70
ATOM     70  C   UNL A   1      37.611  31.817  31.038  1.00  0.00     0.064 A 
ATOM     71  C   UNL A   1      37.311  32.337  29.768  1.00  0.00     0.173 A 
ATOM     72  C   UNL A   1      36.586  31.893  32.001  1.00  0.00     0.173 A 
ATOM     73  F   UNL A   1      38.209  32.249  28.776  1.00  0.00    -0.203 F 
ATOM     74  C   UNL A   1      36.057  32.889  29.478  1.00  0.00     0.198 A 
ATOM     75  C   UNL A   1      35.339  32.447  31.713  1.00  0.00     0.198 A 
ATOM     76  F   UNL A   1      36.742  31.340  33.214  1.00  0.00    -0.203 F 
ATOM     77  F   UNL A   1      35.787  33.324  28.238  1.00  0.00    -0.200 F 
ATOM     78  C   UNL A   1      35.070  32.936  30.448  1.00  0.00     0.200 A 
ATOM     79  F   UNL A   1      34.378  32.444  32.648  1.00  0.00    -0.200 F 
ATOM     80  F   UNL A   1      33.851  33.410  30.155  1.00  0.00    -0.200 F 
ENDBRANCH  46  70
BRANCH  58  81
ATOM     81  C   UNL A   1      42.685  29.371  33.892  1.00  0.00     0.064 A 
ATOM     82  C   UNL A   1      42.001  28.145  33.800  1.00  0.00     0.173 A 
ATOM     83  C   UNL A   1      43.156  29.752  35.155  1.00  0.00     0.173 A 
ATOM     84  F   UNL A   1      41.601  27.666  32.615  1.00  0.00    -0.203 F 
ATOM     85  C   UNL A   1      41.766  27.363  34.932  1.00  0.00     0.198 A 
ATOM     86  C   UNL A   1      42.954  28.952  36.276  1.00  0.00     0.198 A 
ATOM     87  F   UNL A   1      43.857  30.889  35.294  1.00  0.00    -0.203 F 
ATOM     88  F   UNL A   1      41.099  26.205  34.824  1.00  0.00    -0.200 F 
ATOM     89  C   UNL A   1      42.251  27.764  36.167  1.00  0.00     0.200 A 
ATOM     90  F   UNL A   1      43.467  29.323  37.457  1.00  0.00    -0.200 F 
ATOM     91  F   UNL A   1      42.062  26.995  37.248  1.00  0.00    -0.200 F 
ENDBRANCH  58  81
ENDBRANCH  32  33
ENDBRANCH  25  27
ENDBRANCH  24  25
ENDBRANCH  23  24
ENDBRANCH  22  23
ENDBRANCH  21  22
ENDBRANCH   1  21
TORSDOF 17
ENDMDL
MODEL 3
REMARK VINA RESULT:     -10.7      3.310      8.708
REMARK SMILES Cc1nsc(N[C@H](C)c2cccs2)c1C(=O)OCCOCCOC(=O)c1ccc(-c2c3nc(c(-c4c(F)c(F)c(F)c(F)c4F)c4ccc([nH]4)c(-c4c(F)c(F)c(F)c(F)c4F)c4nc(c(-c5c(F)c(F)c(F)c(F)c5F)c5ccc2[nH]5)C=C4)C=C3)cc1
REMARK SMILES IDX 19 1 18 2 17 3 15 4 16 5 14 6 1 7 2 8 3 9 4 10 5 11 6 12
REMARK SMILES IDX 7 14 8 15 9 16 10 17 13 18 11 19 12 20 20 21 21 22 22 23
REMARK SMILES IDX 23 24 24 25 25 26 26 27 27 28 88 29 28 30 87 31 29 32 30 33
REMARK SMILES IDX 31 34 81 35 32 36 86 37 80 38 82 39 33 40 85 41 79 42 78 43
REMARK SMILES IDX 34 45 66 46 46 47 65 48 47 49 50 50 64 51 83 52 48 53 49 54
REMARK SMILES IDX 63 56 84 57 51 58 35 59 36 60 44 61 37 62 38 63 42 64 45 65
REMARK SMILES IDX 39 66 40 67 43 68 41 69 67 70 68 71 76 72 69 73 70 74 74 75
REMARK SMILES IDX 77 76 71 77 72 78 75 79 73 80 52 81 53 82 61 83 54 84 55 85
REMARK SMILES IDX 59 86 62 87 56 88 57 89 60 90 58 91
REMARK H PARENT 6 13 82 44 50 55
REMARK Flexibility Score: inf
ROOT
ATOM      1  C   UNL A   1      35.279  22.129  25.825  1.00  0.00     0.202 C 
ENDROOT
BRANCH   1   2
ATOM      2  C   UNL A   1      34.313  22.390  26.983  1.00  0.00     0.261 C 
BRANCH   2   3
ATOM      3  O   UNL A   1      33.724  23.701  26.920  1.00  0.00    -0.460 OA
BRANCH   3   4
ATOM      4  C   UNL A   1      32.394  23.726  26.613  1.00  0.00     0.343 C 
ATOM      5  O   UNL A   1      31.499  23.701  27.449  1.00  0.00    -0.246 OA
BRANCH   4   6
ATOM      6  C   UNL A   1      32.137  23.957  25.197  1.00  0.00     0.117 A 
ATOM      7  C   UNL A   1      31.985  21.480  24.308  1.00  0.00     0.069 C 
ATOM      8  C   UNL A   1      31.910  22.963  24.174  1.00  0.00     0.068 A 
ATOM      9  N   UNL A   1      31.584  23.439  22.975  1.00  0.00    -0.195 NA
ATOM     10  S   UNL A   1      31.632  25.077  23.018  1.00  0.00    -0.018 S 
ATOM     11  C   UNL A   1      32.177  25.244  24.638  1.00  0.00     0.124 A 
BRANCH  11  12
ATOM     12  N   UNL A   1      32.604  26.377  25.279  1.00  0.00    -0.368 N 
ATOM     13  H   UNL A   1      33.574  26.390  25.452  1.00  0.00     0.162 HD
BRANCH  12  14
ATOM     14  C   UNL A   1      31.906  27.575  25.760  1.00  0.00     0.117 C 
ATOM     15  C   UNL A   1      31.011  28.292  24.752  1.00  0.00     0.037 C 
BRANCH  14  16
ATOM     16  C   UNL A   1      32.859  28.578  26.424  1.00  0.00     0.027 A 
ATOM     17  C   UNL A   1      34.202  28.452  26.745  1.00  0.00     0.017 A 
ATOM     18  S   UNL A   1      32.289  30.154  26.828  1.00  0.00    -0.147 S 
ATOM     19  C   UNL A   1      34.763  29.649  27.277  1.00  0.00     0.012 A 
ATOM     20  C   UNL A   1      33.827  30.650  27.388  1.00  0.00     0.065 A 
ENDBRANCH  14  16
ENDBRANCH  12  14
ENDBRANCH  11  12
ENDBRANCH   4   6
ENDBRANCH   3   4
ENDBRANCH   2   3
ENDBRANCH   1   2
BRANCH   1  21
ATOM     21  O   UNL A   1      36.603  21.688  26.121  1.00  0.00    -0.374 OA
BRANCH  21  22
ATOM     22  C   UNL A   1      37.731  22.315  25.523  1.00  0.00     0.202 C 
BRANCH  22  23
ATOM     23  C   UNL A   1      39.117  22.027  26.073  1.00  0.00     0.261 C 
BRANCH  23  24
ATOM     24  O   UNL A   1      39.696  23.179  26.662  1.00  0.00    -0.460 OA
BRANCH  24  25
ATOM     25  C   UNL A   1      41.049  23.143  26.698  1.00  0.00     0.338 C 
ATOM     26  O   UNL A   1      41.762  22.175  26.858  1.00  0.00    -0.246 OA
BRANCH  25  27
ATOM     27  C   UNL A   1      41.535  24.527  26.693  1.00  0.00     0.060 A 
ATOM     28  C   UNL A   1      42.463  24.819  27.691  1.00  0.00     0.016 A 
ATOM     29  C   UNL A   1      40.784  25.518  26.045  1.00  0.00     0.016 A 
ATOM     30  C   UNL A   1      42.404  26.063  28.263  1.00  0.00     0.010 A 
ATOM     31  C   UNL A   1      40.716  26.757  26.625  1.00  0.00     0.010 A 
ATOM     32  C   UNL A   1      41.446  26.968  27.790  1.00  0.00    -0.014 A 
BRANCH  32  33
ATOM     33  C   UNL A   1      41.318  28.222  28.491  1.00  0.00     0.031 A 
ATOM     34  C   UNL A   1      42.456  29.108  28.185  1.00  0.00     0.074 A 
ATOM     35  C   UNL A   1      40.254  28.524  29.255  1.00  0.00     0.049 A 
ATOM     36  N   UNL A   1      43.442  29.411  28.961  1.00  0.00    -0.248 NA
ATOM     37  C   UNL A   1      42.650  29.497  26.778  1.00  0.00     0.031 C 
ATOM     38  C   UNL A   1      38.987  27.798  29.379  1.00  0.00     0.029 A 
ATOM     39  N   UNL A   1      40.056  29.620  30.034  1.00  0.00    -0.354 N 
ATOM     40  C   UNL A   1      44.264  30.226  28.194  1.00  0.00     0.074 A 
ATOM     41  C   UNL A   1      43.866  30.040  26.826  1.00  0.00     0.031 C 
ATOM     42  C   UNL A   1      38.079  28.590  29.997  1.00  0.00     0.029 A 
ATOM     43  C   UNL A   1      38.737  29.809  30.431  1.00  0.00     0.049 A 
ATOM     44  H   UNL A   1      40.785  30.230  30.294  1.00  0.00     0.167 HD
ATOM     45  C   UNL A   1      44.956  31.236  28.783  1.00  0.00     0.037 A 
ATOM     46  C   UNL A   1      38.243  30.940  30.995  1.00  0.00     0.037 A 
ATOM     47  C   UNL A   1      45.088  31.004  30.201  1.00  0.00     0.049 A 
ATOM     48  C   UNL A   1      39.400  31.700  31.536  1.00  0.00     0.074 A 
ATOM     49  C   UNL A   1      45.691  30.044  30.988  1.00  0.00     0.029 A 
ATOM     50  N   UNL A   1      44.191  31.652  31.012  1.00  0.00    -0.354 N 
ATOM     51  N   UNL A   1      40.132  31.293  32.536  1.00  0.00    -0.248 NA
ATOM     52  C   UNL A   1      40.025  32.686  30.669  1.00  0.00     0.031 C 
ATOM     53  C   UNL A   1      44.836  29.890  32.120  1.00  0.00     0.029 A 
ATOM     54  C   UNL A   1      43.784  30.802  32.004  1.00  0.00     0.049 A 
ATOM     55  H   UNL A   1      43.887  32.581  30.898  1.00  0.00     0.167 HD
ATOM     56  C   UNL A   1      41.433  31.627  32.183  1.00  0.00     0.074 A 
ATOM     57  C   UNL A   1      41.292  32.567  31.075  1.00  0.00     0.031 C 
ATOM     58  C   UNL A   1      42.485  30.882  32.635  1.00  0.00     0.037 A 
BRANCH  45  59
ATOM     59  C   UNL A   1      45.061  32.620  28.177  1.00  0.00     0.064 A 
ATOM     60  C   UNL A   1      46.341  33.120  27.872  1.00  0.00     0.173 A 
ATOM     61  C   UNL A   1      44.021  33.580  28.175  1.00  0.00     0.173 A 
ATOM     62  F   UNL A   1      47.407  32.306  27.863  1.00  0.00    -0.203 F 
ATOM     63  C   UNL A   1      46.572  34.485  27.675  1.00  0.00     0.198 A 
ATOM     64  C   UNL A   1      44.248  34.930  27.924  1.00  0.00     0.198 A 
ATOM     65  F   UNL A   1      42.764  33.292  28.526  1.00  0.00    -0.203 F 
ATOM     66  F   UNL A   1      47.827  34.930  27.526  1.00  0.00    -0.200 F 
ATOM     67  C   UNL A   1      45.527  35.388  27.710  1.00  0.00     0.200 A 
ATOM     68  F   UNL A   1      43.221  35.789  27.984  1.00  0.00    -0.200 F 
ATOM     69  F   UNL A   1      45.754  36.703  27.588  1.00  0.00    -0.200 F 
ENDBRANCH  45  59
BRANCH  46  70
ATOM     70  C   UNL A   1      36.928  31.580  30.744  1.00  0.00     0.064 A 
ATOM     71  C   UNL A   1      36.008  31.787  31.785  1.00  0.00     0.173 A 
ATOM     72  C   UNL A   1      36.670  32.261  29.538  1.00  0.00     0.173 A 
ATOM     73  F   UNL A   1      36.212  31.224  32.985  1.00  0.00    -0.203 F 
ATOM     74  C   UNL A   1      34.903  32.633  31.631  1.00  0.00     0.198 A 
ATOM     75  C   UNL A   1      35.567  33.101  29.384  1.00  0.00     0.198 A 
ATOM     76  F   UNL A   1      37.539  32.204  28.518  1.00  0.00    -0.203 F 
ATOM     77  F   UNL A   1      34.077  32.852  32.665  1.00  0.00    -0.200 F 
ATOM     78  C   UNL A   1      34.688  33.296  30.434  1.00  0.00     0.200 A 
ATOM     79  F   UNL A   1      35.398  33.772  28.236  1.00  0.00    -0.200 F 
ATOM     80  F   UNL A   1      33.665  34.152  30.305  1.00  0.00    -0.200 F 
ENDBRANCH  46  70
BRANCH  58  81
ATOM     81  C   UNL A   1      42.220  29.923  33.765  1.00  0.00     0.064 A 
ATOM     82  C   UNL A   1      41.769  28.602  33.600  1.00  0.00     0.173 A 
ATOM     83  C   UNL A   1      42.557  30.332  35.062  1.00  0.00     0.173 A 
ATOM     84  F   UNL A   1      41.515  28.107  32.382  1.00  0.00    -0.203 F 
ATOM     85  C   UNL A   1      41.623  27.747  34.694  1.00  0.00     0.198 A 
ATOM     86  C   UNL A   1      42.448  29.466  36.146  1.00  0.00     0.198 A 
ATOM     87  F   UNL A   1      43.039  31.567  35.272  1.00  0.00    -0.203 F 
ATOM     88  F   UNL A   1      41.177  26.496  34.515  1.00  0.00    -0.200 F 
ATOM     89  C   UNL A   1      41.971  28.178  35.964  1.00  0.00     0.200 A 
ATOM     90  F   UNL A   1      42.832  29.874  37.363  1.00  0.00    -0.200 F 
ATOM     91  F   UNL A   1      41.871  27.346  37.010  1.00  0.00    -0.200 F 
ENDBRANCH  58  81
ENDBRANCH  32  33
ENDBRANCH  25  27
ENDBRANCH  24  25
ENDBRANCH  23  24
ENDBRANCH  22  23
ENDBRANCH  21  22
ENDBRANCH   1  21
TORSDOF 17
ENDMDL
