MODEL 1
REMARK VINA RESULT:     -11.4      0.000      0.000
REMARK SMILES COc1ccc(C2=NN(C(=O)CCC(=O)OCCOCCOC(=O)c3ccc(-c4c5nc(c(-c6c(F)c(F)c(F)c(F)c6F)c6ccc([nH]6)c(-c6c(F)c(F)c(F)c(F)c6F)c6nc(c(-c7c(F)c(F)c(F)c(F)c7F)c7ccc4[nH]7)C=C6)C=C5)cc3)[C@@H](c3ccc(Cl)cc3Cl)C2)cc1
REMARK SMILES IDX 17 1 16 2 14 3 15 4 13 5 12 6 10 7 11 8 9 9 7 10 8 11 97 12
REMARK SMILES IDX 88 13 6 14 3 15 4 16 99 17 5 18 98 19 2 20 1 21 89 22 90 23
REMARK SMILES IDX 95 24 91 25 94 26 96 27 92 28 93 29 18 30 19 31 20 32 21 33
REMARK SMILES IDX 22 34 23 35 24 36 25 37 26 38 87 39 27 40 86 41 28 42 29 43
REMARK SMILES IDX 30 44 80 45 31 46 85 47 79 48 81 49 32 50 84 51 78 52 77 53
REMARK SMILES IDX 33 55 65 56 45 57 64 58 46 59 49 60 63 61 82 62 47 63 48 64
REMARK SMILES IDX 62 66 83 67 50 68 34 69 35 70 43 71 36 72 37 73 41 74 44 75
REMARK SMILES IDX 38 76 39 77 42 78 40 79 66 80 67 81 75 82 68 83 69 84 73 85
REMARK SMILES IDX 76 86 70 87 71 88 74 89 72 90 51 91 52 92 60 93 53 94 54 95
REMARK SMILES IDX 58 96 61 97 55 98 56 99 59 100 57 101
REMARK H PARENT 81 54 49 65
REMARK Flexibility Score: inf
ROOT
ATOM      1  C   UNL A   1      32.517  21.387  23.236  1.00  0.00     0.261 C 
ENDROOT
BRANCH   1   2
ATOM      2  O   UNL A   1      32.154  22.633  22.651  1.00  0.00    -0.463 OA
BRANCH   2   3
ATOM      3  C   UNL A   1      33.138  23.342  22.118  1.00  0.00     0.306 C 
ATOM      4  O   UNL A   1      33.653  23.103  21.013  1.00  0.00    -0.252 OA
BRANCH   3   5
ATOM      5  C   UNL A   1      33.539  24.502  22.959  1.00  0.00     0.132 C 
BRANCH   5   6
ATOM      6  C   UNL A   1      32.554  25.516  23.540  1.00  0.00     0.114 C 
BRANCH   6   7
ATOM      7  C   UNL A   1      32.053  25.846  24.978  1.00  0.00     0.243 C 
ATOM      8  O   UNL A   1      32.055  24.857  25.735  1.00  0.00    -0.273 OA
BRANCH   7   9
ATOM      9  N   UNL A   1      31.415  27.041  25.329  1.00  0.00    -0.225 N 
ATOM     10  C   UNL A   1      32.233  28.831  26.327  1.00  0.00     0.071 C 
ATOM     11  N   UNL A   1      32.218  27.547  26.380  1.00  0.00    -0.174 NA
ATOM     12  C   UNL A   1      31.317  29.526  25.398  1.00  0.00     0.091 C 
ATOM     13  C   UNL A   1      30.748  28.386  24.562  1.00  0.00     0.149 C 
BRANCH  10  14
ATOM     14  C   UNL A   1      33.149  29.671  27.079  1.00  0.00    -0.002 A 
ATOM     15  C   UNL A   1      35.181  31.450  27.681  1.00  0.00     0.118 A 
ATOM     16  C   UNL A   1      35.462  30.097  27.506  1.00  0.00     0.047 A 
ATOM     17  C   UNL A   1      33.858  31.891  27.624  1.00  0.00     0.047 A 
ATOM     18  C   UNL A   1      34.444  29.195  27.218  1.00  0.00     0.014 A 
ATOM     19  C   UNL A   1      32.831  31.005  27.312  1.00  0.00     0.014 A 
BRANCH  15  20
ATOM     20  O   UNL A   1      36.114  32.434  27.856  1.00  0.00    -0.497 OA
ATOM     21  C   UNL A   1      35.630  33.710  28.261  1.00  0.00     0.278 C 
ENDBRANCH  15  20
ENDBRANCH  10  14
BRANCH  13  22
ATOM     22  C   UNL A   1      29.641  28.932  23.366  1.00  0.00    -0.004 A 
ATOM     23  C   UNL A   1      30.345  29.682  22.365  1.00  0.00     0.009 A 
ATOM     24  C   UNL A   1      28.217  28.978  23.100  1.00  0.00     0.047 A 
ATOM     25  C   UNL A   1      29.762  30.463  21.345  1.00  0.00     0.021 A 
ATOM     26  C   UNL A   1      27.639  29.838  22.111  1.00  0.00     0.041 A 
ATOM     27  Cl  UNL A   1      26.834  28.084  23.629  1.00  0.00    -0.084 Cl
ATOM     28  C   UNL A   1      28.400  30.577  21.249  1.00  0.00     0.042 A 
ATOM     29  Cl  UNL A   1      27.655  31.574  20.073  1.00  0.00    -0.084 Cl
ENDBRANCH  13  22
ENDBRANCH   7   9
ENDBRANCH   6   7
ENDBRANCH   5   6
ENDBRANCH   3   5
ENDBRANCH   2   3
ENDBRANCH   1   2
BRANCH   1  30
ATOM     30  C   UNL A   1      31.942  21.257  24.668  1.00  0.00     0.202 C 
BRANCH  30  31
ATOM     31  O   UNL A   1      32.932  21.504  25.687  1.00  0.00    -0.374 OA
BRANCH  31  32
ATOM     32  C   UNL A   1      33.925  20.544  26.038  1.00  0.00     0.202 C 
BRANCH  32  33
ATOM     33  C   UNL A   1      35.396  20.551  25.278  1.00  0.00     0.261 C 
BRANCH  33  34
ATOM     34  O   UNL A   1      36.559  21.435  25.758  1.00  0.00    -0.460 OA
BRANCH  34  35
ATOM     35  C   UNL A   1      37.937  21.266  25.700  1.00  0.00     0.338 C 
ATOM     36  O   UNL A   1      38.487  20.210  25.392  1.00  0.00    -0.246 OA
BRANCH  35  37
ATOM     37  C   UNL A   1      38.850  22.451  26.121  1.00  0.00     0.060 A 
ATOM     38  C   UNL A   1      40.005  22.419  26.919  1.00  0.00     0.016 A 
ATOM     39  C   UNL A   1      38.408  23.742  25.776  1.00  0.00     0.016 A 
ATOM     40  C   UNL A   1      40.739  23.615  27.250  1.00  0.00     0.010 A 
ATOM     41  C   UNL A   1      39.106  24.932  26.139  1.00  0.00     0.010 A 
ATOM     42  C   UNL A   1      40.304  24.901  26.864  1.00  0.00    -0.014 A 
BRANCH  42  43
ATOM     43  C   UNL A   1      41.079  26.172  27.200  1.00  0.00     0.031 A 
ATOM     44  C   UNL A   1      40.664  27.084  28.342  1.00  0.00     0.074 A 
ATOM     45  C   UNL A   1      42.218  26.510  26.546  1.00  0.00     0.049 A 
ATOM     46  N   UNL A   1      41.227  28.193  28.774  1.00  0.00    -0.248 NA
ATOM     47  C   UNL A   1      39.452  26.713  29.080  1.00  0.00     0.031 C 
ATOM     48  C   UNL A   1      42.813  25.746  25.456  1.00  0.00     0.029 A 
ATOM     49  N   UNL A   1      43.151  27.511  26.779  1.00  0.00    -0.354 N 
ATOM     50  C   UNL A   1      40.383  28.700  29.758  1.00  0.00     0.074 A 
ATOM     51  C   UNL A   1      39.338  27.712  29.945  1.00  0.00     0.031 C 
ATOM     52  C   UNL A   1      44.074  26.168  25.256  1.00  0.00     0.029 A 
ATOM     53  C   UNL A   1      44.354  27.308  26.127  1.00  0.00     0.049 A 
ATOM     54  H   UNL A   1      42.973  28.291  27.352  1.00  0.00     0.167 HD
ATOM     55  C   UNL A   1      40.414  29.911  30.379  1.00  0.00     0.037 A 
ATOM     56  C   UNL A   1      45.548  27.935  26.247  1.00  0.00     0.037 A 
ATOM     57  C   UNL A   1      41.434  30.914  30.194  1.00  0.00     0.049 A 
ATOM     58  C   UNL A   1      45.634  29.217  27.044  1.00  0.00     0.074 A 
ATOM     59  C   UNL A   1      41.453  32.234  30.620  1.00  0.00     0.029 A 
ATOM     60  N   UNL A   1      42.633  30.696  29.539  1.00  0.00    -0.354 N 
ATOM     61  N   UNL A   1      44.767  29.740  27.872  1.00  0.00    -0.248 NA
ATOM     62  C   UNL A   1      46.850  30.031  26.857  1.00  0.00     0.031 C 
ATOM     63  C   UNL A   1      42.652  32.822  30.191  1.00  0.00     0.029 A 
ATOM     64  C   UNL A   1      43.396  31.856  29.539  1.00  0.00     0.049 A 
ATOM     65  H   UNL A   1      42.907  29.843  29.132  1.00  0.00     0.167 HD
ATOM     66  C   UNL A   1      45.299  30.969  28.248  1.00  0.00     0.074 A 
ATOM     67  C   UNL A   1      46.615  31.064  27.655  1.00  0.00     0.031 C 
ATOM     68  C   UNL A   1      44.710  31.959  28.960  1.00  0.00     0.037 A 
BRANCH  55  69
ATOM     69  C   UNL A   1      39.195  30.285  31.176  1.00  0.00     0.064 A 
ATOM     70  C   UNL A   1      38.033  30.804  30.593  1.00  0.00     0.173 A 
ATOM     71  C   UNL A   1      39.226  30.155  32.576  1.00  0.00     0.173 A 
ATOM     72  F   UNL A   1      37.956  30.961  29.263  1.00  0.00    -0.203 F 
ATOM     73  C   UNL A   1      36.965  31.227  31.386  1.00  0.00     0.198 A 
ATOM     74  C   UNL A   1      38.150  30.555  33.361  1.00  0.00     0.198 A 
ATOM     75  F   UNL A   1      40.310  29.648  33.182  1.00  0.00    -0.203 F 
ATOM     76  F   UNL A   1      35.888  31.785  30.815  1.00  0.00    -0.200 F 
ATOM     77  C   UNL A   1      37.027  31.106  32.768  1.00  0.00     0.200 A 
ATOM     78  F   UNL A   1      38.211  30.427  34.694  1.00  0.00    -0.200 F 
ATOM     79  F   UNL A   1      36.011  31.537  33.528  1.00  0.00    -0.200 F 
ENDBRANCH  55  69
BRANCH  56  80
ATOM     80  C   UNL A   1      46.803  27.377  25.648  1.00  0.00     0.064 A 
ATOM     81  C   UNL A   1      47.696  26.645  26.454  1.00  0.00     0.173 A 
ATOM     82  C   UNL A   1      47.181  27.583  24.314  1.00  0.00     0.173 A 
ATOM     83  F   UNL A   1      47.427  26.463  27.756  1.00  0.00    -0.203 F 
ATOM     84  C   UNL A   1      48.897  26.144  25.955  1.00  0.00     0.198 A 
ATOM     85  C   UNL A   1      48.365  27.047  23.803  1.00  0.00     0.198 A 
ATOM     86  F   UNL A   1      46.407  28.316  23.502  1.00  0.00    -0.203 F 
ATOM     87  F   UNL A   1      49.745  25.502  26.770  1.00  0.00    -0.200 F 
ATOM     88  C   UNL A   1      49.225  26.334  24.624  1.00  0.00     0.200 A 
ATOM     89  F   UNL A   1      48.678  27.234  22.514  1.00  0.00    -0.200 F 
ATOM     90  F   UNL A   1      50.377  25.852  24.139  1.00  0.00    -0.200 F 
ENDBRANCH  56  80
BRANCH  68  91
ATOM     91  C   UNL A   1      45.444  33.264  29.087  1.00  0.00     0.064 A 
ATOM     92  C   UNL A   1      46.318  33.496  30.162  1.00  0.00     0.173 A 
ATOM     93  C   UNL A   1      45.331  34.262  28.110  1.00  0.00     0.173 A 
ATOM     94  F   UNL A   1      46.456  32.576  31.130  1.00  0.00    -0.203 F 
ATOM     95  C   UNL A   1      47.038  34.684  30.262  1.00  0.00     0.198 A 
ATOM     96  C   UNL A   1      46.069  35.442  28.203  1.00  0.00     0.198 A 
ATOM     97  F   UNL A   1      44.513  34.093  27.061  1.00  0.00    -0.203 F 
ATOM     98  F   UNL A   1      47.843  34.891  31.314  1.00  0.00    -0.200 F 
ATOM     99  C   UNL A   1      46.919  35.653  29.279  1.00  0.00     0.200 A 
ATOM    100  F   UNL A   1      45.959  36.377  27.248  1.00  0.00    -0.200 F 
ATOM    101  F   UNL A   1      47.620  36.791  29.371  1.00  0.00    -0.200 F 
ENDBRANCH  68  91
ENDBRANCH  42  43
ENDBRANCH  35  37
ENDBRANCH  34  35
ENDBRANCH  33  34
ENDBRANCH  32  33
ENDBRANCH  31  32
ENDBRANCH  30  31
ENDBRANCH   1  30
TORSDOF 20
ENDMDL
MODEL 2
REMARK VINA RESULT:     -11.4      1.962      3.351
REMARK SMILES COc1ccc(C2=NN(C(=O)CCC(=O)OCCOCCOC(=O)c3ccc(-c4c5nc(c(-c6c(F)c(F)c(F)c(F)c6F)c6ccc([nH]6)c(-c6c(F)c(F)c(F)c(F)c6F)c6nc(c(-c7c(F)c(F)c(F)c(F)c7F)c7ccc4[nH]7)C=C6)C=C5)cc3)[C@@H](c3ccc(Cl)cc3Cl)C2)cc1
REMARK SMILES IDX 17 1 16 2 14 3 15 4 13 5 12 6 10 7 11 8 9 9 7 10 8 11 97 12
REMARK SMILES IDX 88 13 6 14 3 15 4 16 99 17 5 18 98 19 2 20 1 21 89 22 90 23
REMARK SMILES IDX 95 24 91 25 94 26 96 27 92 28 93 29 18 30 19 31 20 32 21 33
REMARK SMILES IDX 22 34 23 35 24 36 25 37 26 38 87 39 27 40 86 41 28 42 29 43
REMARK SMILES IDX 30 44 80 45 31 46 85 47 79 48 81 49 32 50 84 51 78 52 77 53
REMARK SMILES IDX 33 55 65 56 45 57 64 58 46 59 49 60 63 61 82 62 47 63 48 64
REMARK SMILES IDX 62 66 83 67 50 68 34 69 35 70 43 71 36 72 37 73 41 74 44 75
REMARK SMILES IDX 38 76 39 77 42 78 40 79 66 80 67 81 75 82 68 83 69 84 73 85
REMARK SMILES IDX 76 86 70 87 71 88 74 89 72 90 51 91 52 92 60 93 53 94 54 95
REMARK SMILES IDX 58 96 61 97 55 98 56 99 59 100 57 101
REMARK H PARENT 81 54 49 65
REMARK Flexibility Score: inf
ROOT
ATOM      1  C   UNL A   1      32.852  22.930  22.305  1.00  0.00     0.261 C 
ENDROOT
BRANCH   1   2
ATOM      2  O   UNL A   1      32.713  24.271  22.763  1.00  0.00    -0.463 OA
BRANCH   2   3
ATOM      3  C   UNL A   1      31.522  24.828  22.599  1.00  0.00     0.306 C 
ATOM      4  O   UNL A   1      30.489  24.453  23.179  1.00  0.00    -0.252 OA
BRANCH   3   5
ATOM      5  C   UNL A   1      31.550  25.998  21.680  1.00  0.00     0.132 C 
BRANCH   5   6
ATOM      6  C   UNL A   1      30.985  27.374  22.031  1.00  0.00     0.114 C 
BRANCH   6   7
ATOM      7  C   UNL A   1      31.237  28.393  23.182  1.00  0.00     0.243 C 
ATOM      8  O   UNL A   1      30.587  29.448  23.051  1.00  0.00    -0.273 OA
BRANCH   7   9
ATOM      9  N   UNL A   1      32.271  28.276  24.118  1.00  0.00    -0.225 N 
ATOM     10  C   UNL A   1      32.730  29.536  25.870  1.00  0.00     0.071 C 
ATOM     11  N   UNL A   1      32.403  29.590  24.629  1.00  0.00    -0.174 NA
ATOM     12  C   UNL A   1      33.099  28.233  26.463  1.00  0.00     0.091 C 
ATOM     13  C   UNL A   1      32.728  27.241  25.367  1.00  0.00     0.149 C 
BRANCH  10  14
ATOM     14  C   UNL A   1      32.700  30.671  26.776  1.00  0.00    -0.002 A 
ATOM     15  C   UNL A   1      33.084  33.207  27.816  1.00  0.00     0.118 A 
ATOM     16  C   UNL A   1      34.074  32.236  27.949  1.00  0.00     0.047 A 
ATOM     17  C   UNL A   1      31.867  32.870  27.220  1.00  0.00     0.047 A 
ATOM     18  C   UNL A   1      33.883  30.956  27.441  1.00  0.00     0.014 A 
ATOM     19  C   UNL A   1      31.670  31.600  26.686  1.00  0.00     0.014 A 
BRANCH  15  20
ATOM     20  O   UNL A   1      33.212  34.519  28.176  1.00  0.00    -0.497 OA
ATOM     21  C   UNL A   1      34.496  34.937  28.626  1.00  0.00     0.278 C 
ENDBRANCH  15  20
ENDBRANCH  10  14
BRANCH  13  22
ATOM     22  C   UNL A   1      33.048  25.613  25.814  1.00  0.00    -0.004 A 
ATOM     23  C   UNL A   1      31.869  25.032  26.392  1.00  0.00     0.009 A 
ATOM     24  C   UNL A   1      34.148  24.673  25.901  1.00  0.00     0.047 A 
ATOM     25  C   UNL A   1      31.794  23.795  27.065  1.00  0.00     0.021 A 
ATOM     26  C   UNL A   1      34.075  23.459  26.657  1.00  0.00     0.041 A 
ATOM     27  Cl  UNL A   1      35.702  24.522  25.156  1.00  0.00    -0.084 Cl
ATOM     28  C   UNL A   1      32.916  23.028  27.238  1.00  0.00     0.042 A 
ATOM     29  Cl  UNL A   1      32.882  21.557  28.115  1.00  0.00    -0.084 Cl
ENDBRANCH  13  22
ENDBRANCH   7   9
ENDBRANCH   6   7
ENDBRANCH   5   6
ENDBRANCH   3   5
ENDBRANCH   2   3
ENDBRANCH   1   2
BRANCH   1  30
ATOM     30  C   UNL A   1      32.899  21.940  23.494  1.00  0.00     0.202 C 
BRANCH  30  31
ATOM     31  O   UNL A   1      34.246  21.575  23.858  1.00  0.00    -0.374 OA
BRANCH  31  32
ATOM     32  C   UNL A   1      34.533  20.521  24.774  1.00  0.00     0.202 C 
BRANCH  32  33
ATOM     33  C   UNL A   1      36.098  20.051  25.039  1.00  0.00     0.261 C 
BRANCH  33  34
ATOM     34  O   UNL A   1      37.163  21.025  25.567  1.00  0.00    -0.460 OA
BRANCH  34  35
ATOM     35  C   UNL A   1      38.525  20.872  25.803  1.00  0.00     0.338 C 
ATOM     36  O   UNL A   1      39.106  19.788  25.789  1.00  0.00    -0.246 OA
BRANCH  35  37
ATOM     37  C   UNL A   1      39.359  22.127  26.185  1.00  0.00     0.060 A 
ATOM     38  C   UNL A   1      40.520  22.193  26.973  1.00  0.00     0.016 A 
ATOM     39  C   UNL A   1      38.829  23.376  25.812  1.00  0.00     0.016 A 
ATOM     40  C   UNL A   1      41.174  23.443  27.265  1.00  0.00     0.010 A 
ATOM     41  C   UNL A   1      39.448  24.619  26.137  1.00  0.00     0.010 A 
ATOM     42  C   UNL A   1      40.651  24.687  26.851  1.00  0.00    -0.014 A 
BRANCH  42  43
ATOM     43  C   UNL A   1      41.342  26.015  27.148  1.00  0.00     0.031 A 
ATOM     44  C   UNL A   1      40.846  26.948  28.238  1.00  0.00     0.074 A 
ATOM     45  C   UNL A   1      42.474  26.393  26.504  1.00  0.00     0.049 A 
ATOM     46  N   UNL A   1      41.332  28.107  28.633  1.00  0.00    -0.248 NA
ATOM     47  C   UNL A   1      39.640  26.537  28.966  1.00  0.00     0.031 C 
ATOM     48  C   UNL A   1      43.139  25.619  25.462  1.00  0.00     0.029 A 
ATOM     49  N   UNL A   1      43.341  27.457  26.713  1.00  0.00    -0.354 N 
ATOM     50  C   UNL A   1      40.436  28.604  29.576  1.00  0.00     0.074 A 
ATOM     51  C   UNL A   1      39.448  27.564  29.783  1.00  0.00     0.031 C 
ATOM     52  C   UNL A   1      44.377  26.107  25.271  1.00  0.00     0.029 A 
ATOM     53  C   UNL A   1      44.569  27.298  26.096  1.00  0.00     0.049 A 
ATOM     54  H   UNL A   1      43.103  28.249  27.246  1.00  0.00     0.167 HD
ATOM     55  C   UNL A   1      40.381  29.840  30.143  1.00  0.00     0.037 A 
ATOM     56  C   UNL A   1      45.721  28.000  26.214  1.00  0.00     0.037 A 
ATOM     57  C   UNL A   1      41.344  30.894  29.936  1.00  0.00     0.049 A 
ATOM     58  C   UNL A   1      45.712  29.317  26.955  1.00  0.00     0.074 A 
ATOM     59  C   UNL A   1      41.275  32.229  30.303  1.00  0.00     0.029 A 
ATOM     60  N   UNL A   1      42.570  30.721  29.317  1.00  0.00    -0.354 N 
ATOM     61  N   UNL A   1      44.796  29.823  27.740  1.00  0.00    -0.248 NA
ATOM     62  C   UNL A   1      46.882  30.195  26.759  1.00  0.00     0.031 C 
ATOM     63  C   UNL A   1      42.447  32.870  29.875  1.00  0.00     0.029 A 
ATOM     64  C   UNL A   1      43.263  31.922  29.282  1.00  0.00     0.049 A 
ATOM     65  H   UNL A   1      42.903  29.869  28.954  1.00  0.00     0.167 HD
ATOM     66  C   UNL A   1      45.245  31.097  28.073  1.00  0.00     0.074 A 
ATOM     67  C   UNL A   1      46.567  31.245  27.505  1.00  0.00     0.031 C 
ATOM     68  C   UNL A   1      44.582  32.080  28.728  1.00  0.00     0.037 A 
BRANCH  55  69
ATOM     69  C   UNL A   1      39.123  30.175  30.897  1.00  0.00     0.064 A 
ATOM     70  C   UNL A   1      37.975  30.681  30.276  1.00  0.00     0.173 A 
ATOM     71  C   UNL A   1      39.101  30.020  32.293  1.00  0.00     0.173 A 
ATOM     72  F   UNL A   1      37.948  30.859  28.947  1.00  0.00    -0.203 F 
ATOM     73  C   UNL A   1      36.867  31.067  31.031  1.00  0.00     0.198 A 
ATOM     74  C   UNL A   1      37.986  30.383  33.042  1.00  0.00     0.198 A 
ATOM     75  F   UNL A   1      40.170  29.524  32.935  1.00  0.00    -0.203 F 
ATOM     76  F   UNL A   1      35.803  31.613  30.428  1.00  0.00    -0.200 F 
ATOM     77  C   UNL A   1      36.876  30.922  32.413  1.00  0.00     0.200 A 
ATOM     78  F   UNL A   1      37.996  30.232  34.373  1.00  0.00    -0.200 F 
ATOM     79  F   UNL A   1      35.821  31.317  33.139  1.00  0.00    -0.200 F 
ENDBRANCH  55  69
BRANCH  56  80
ATOM     80  C   UNL A   1      47.021  27.493  25.667  1.00  0.00     0.064 A 
ATOM     81  C   UNL A   1      47.353  27.735  24.320  1.00  0.00     0.173 A 
ATOM     82  C   UNL A   1      47.929  26.732  26.414  1.00  0.00     0.173 A 
ATOM     83  F   UNL A   1      46.500  28.405  23.530  1.00  0.00    -0.203 F 
ATOM     84  C   UNL A   1      48.529  27.246  23.753  1.00  0.00     0.198 A 
ATOM     85  C   UNL A   1      49.127  26.276  25.858  1.00  0.00     0.198 A 
ATOM     86  F   UNL A   1      47.655  26.416  27.687  1.00  0.00    -0.203 F 
ATOM     87  F   UNL A   1      48.780  27.451  22.452  1.00  0.00    -0.200 F 
ATOM     88  C   UNL A   1      49.423  26.528  24.527  1.00  0.00     0.200 A 
ATOM     89  F   UNL A   1      49.988  25.580  26.611  1.00  0.00    -0.200 F 
ATOM     90  F   UNL A   1      50.555  26.059  23.986  1.00  0.00    -0.200 F 
ENDBRANCH  56  80
BRANCH  68  91
ATOM     91  C   UNL A   1      45.235  33.430  28.812  1.00  0.00     0.064 A 
ATOM     92  C   UNL A   1      45.032  34.391  27.807  1.00  0.00     0.173 A 
ATOM     93  C   UNL A   1      46.012  33.797  29.919  1.00  0.00     0.173 A 
ATOM     94  F   UNL A   1      44.304  34.088  26.721  1.00  0.00    -0.203 F 
ATOM     95  C   UNL A   1      45.596  35.661  27.901  1.00  0.00     0.198 A 
ATOM     96  C   UNL A   1      46.558  35.076  30.019  1.00  0.00     0.198 A 
ATOM     97  F   UNL A   1      46.235  32.920  30.909  1.00  0.00    -0.203 F 
ATOM     98  F   UNL A   1      45.411  36.548  26.914  1.00  0.00    -0.200 F 
ATOM     99  C   UNL A   1      46.352  36.005  29.010  1.00  0.00     0.200 A 
ATOM    100  F   UNL A   1      47.283  35.412  31.096  1.00  0.00    -0.200 F 
ATOM    101  F   UNL A   1      46.885  37.231  29.103  1.00  0.00    -0.200 F 
ENDBRANCH  68  91
ENDBRANCH  42  43
ENDBRANCH  35  37
ENDBRANCH  34  35
ENDBRANCH  33  34
ENDBRANCH  32  33
ENDBRANCH  31  32
ENDBRANCH  30  31
ENDBRANCH   1  30
TORSDOF 20
ENDMDL
MODEL 3
REMARK VINA RESULT:     -11.4      2.958      6.225
REMARK SMILES COc1ccc(C2=NN(C(=O)CCC(=O)OCCOCCOC(=O)c3ccc(-c4c5nc(c(-c6c(F)c(F)c(F)c(F)c6F)c6ccc([nH]6)c(-c6c(F)c(F)c(F)c(F)c6F)c6nc(c(-c7c(F)c(F)c(F)c(F)c7F)c7ccc4[nH]7)C=C6)C=C5)cc3)[C@@H](c3ccc(Cl)cc3Cl)C2)cc1
REMARK SMILES IDX 17 1 16 2 14 3 15 4 13 5 12 6 10 7 11 8 9 9 7 10 8 11 97 12
REMARK SMILES IDX 88 13 6 14 3 15 4 16 99 17 5 18 98 19 2 20 1 21 89 22 90 23
REMARK SMILES IDX 95 24 91 25 94 26 96 27 92 28 93 29 18 30 19 31 20 32 21 33
REMARK SMILES IDX 22 34 23 35 24 36 25 37 26 38 87 39 27 40 86 41 28 42 29 43
REMARK SMILES IDX 30 44 80 45 31 46 85 47 79 48 81 49 32 50 84 51 78 52 77 53
REMARK SMILES IDX 33 55 65 56 45 57 64 58 46 59 49 60 63 61 82 62 47 63 48 64
REMARK SMILES IDX 62 66 83 67 50 68 34 69 35 70 43 71 36 72 37 73 41 74 44 75
REMARK SMILES IDX 38 76 39 77 42 78 40 79 66 80 67 81 75 82 68 83 69 84 73 85
REMARK SMILES IDX 76 86 70 87 71 88 74 89 72 90 51 91 52 92 60 93 53 94 54 95
REMARK SMILES IDX 58 96 61 97 55 98 56 99 59 100 57 101
REMARK H PARENT 81 54 49 65
REMARK Flexibility Score: inf
ROOT
ATOM      1  C   UNL A   1      40.590  22.226  26.627  1.00  0.00     0.261 C 
ENDROOT
BRANCH   1   2
ATOM      2  O   UNL A   1      40.308  23.605  26.410  1.00  0.00    -0.463 OA
BRANCH   2   3
ATOM      3  C   UNL A   1      39.061  23.993  26.633  1.00  0.00     0.306 C 
ATOM      4  O   UNL A   1      38.749  24.990  27.305  1.00  0.00    -0.252 OA
BRANCH   3   5
ATOM      5  C   UNL A   1      38.055  23.136  25.949  1.00  0.00     0.132 C 
BRANCH   5   6
ATOM      6  C   UNL A   1      36.730  23.653  25.392  1.00  0.00     0.114 C 
BRANCH   6   7
ATOM      7  C   UNL A   1      35.231  23.329  25.668  1.00  0.00     0.243 C 
ATOM      8  O   UNL A   1      34.994  23.104  26.870  1.00  0.00    -0.273 OA
BRANCH   7   9
ATOM      9  N   UNL A   1      34.294  23.051  24.667  1.00  0.00    -0.225 N 
ATOM     10  C   UNL A   1      33.168  21.195  24.272  1.00  0.00     0.071 C 
ATOM     11  N   UNL A   1      34.340  21.640  24.556  1.00  0.00    -0.174 NA
ATOM     12  C   UNL A   1      32.098  22.152  23.920  1.00  0.00     0.091 C 
ATOM     13  C   UNL A   1      32.724  23.502  24.251  1.00  0.00     0.149 C 
BRANCH  10  14
ATOM     14  C   UNL A   1      32.786  19.795  24.336  1.00  0.00    -0.002 A 
ATOM     15  C   UNL A   1      32.926  17.032  24.258  1.00  0.00     0.118 A 
ATOM     16  C   UNL A   1      32.720  17.758  23.087  1.00  0.00     0.047 A 
ATOM     17  C   UNL A   1      32.988  17.703  25.481  1.00  0.00     0.047 A 
ATOM     18  C   UNL A   1      32.634  19.145  23.120  1.00  0.00     0.014 A 
ATOM     19  C   UNL A   1      32.929  19.093  25.527  1.00  0.00     0.014 A 
BRANCH  15  20
ATOM     20  O   UNL A   1      33.137  15.683  24.324  1.00  0.00    -0.497 OA
ATOM     21  C   UNL A   1      32.620  15.011  25.468  1.00  0.00     0.278 C 
ENDBRANCH  15  20
ENDBRANCH  10  14
BRANCH  13  22
ATOM     22  C   UNL A   1      31.662  24.816  23.942  1.00  0.00    -0.004 A 
ATOM     23  C   UNL A   1      31.905  25.334  22.625  1.00  0.00     0.009 A 
ATOM     24  C   UNL A   1      30.682  25.644  24.618  1.00  0.00     0.047 A 
ATOM     25  C   UNL A   1      31.386  26.531  22.091  1.00  0.00     0.021 A 
ATOM     26  C   UNL A   1      30.228  26.897  24.093  1.00  0.00     0.041 A 
ATOM     27  Cl  UNL A   1      29.678  25.474  26.017  1.00  0.00    -0.084 Cl
ATOM     28  C   UNL A   1      30.581  27.340  22.849  1.00  0.00     0.042 A 
ATOM     29  Cl  UNL A   1      29.993  28.838  22.265  1.00  0.00    -0.084 Cl
ENDBRANCH  13  22
ENDBRANCH   7   9
ENDBRANCH   6   7
ENDBRANCH   5   6
ENDBRANCH   3   5
ENDBRANCH   2   3
ENDBRANCH   1   2
BRANCH   1  30
ATOM     30  C   UNL A   1      41.703  22.048  27.689  1.00  0.00     0.202 C 
BRANCH  30  31
ATOM     31  O   UNL A   1      42.337  20.756  27.616  1.00  0.00    -0.374 OA
BRANCH  31  32
ATOM     32  C   UNL A   1      41.645  19.586  27.186  1.00  0.00     0.202 C 
BRANCH  32  33
ATOM     33  C   UNL A   1      41.997  18.902  25.720  1.00  0.00     0.261 C 
BRANCH  33  34
ATOM     34  O   UNL A   1      43.444  18.680  25.249  1.00  0.00    -0.460 OA
BRANCH  34  35
ATOM     35  C   UNL A   1      44.299  19.461  24.479  1.00  0.00     0.338 C 
ATOM     36  O   UNL A   1      44.834  19.074  23.441  1.00  0.00    -0.246 OA
BRANCH  35  37
ATOM     37  C   UNL A   1      44.670  20.881  24.988  1.00  0.00     0.060 A 
ATOM     38  C   UNL A   1      45.423  21.230  26.122  1.00  0.00     0.016 A 
ATOM     39  C   UNL A   1      44.079  21.968  24.317  1.00  0.00     0.016 A 
ATOM     40  C   UNL A   1      45.664  22.604  26.485  1.00  0.00     0.010 A 
ATOM     41  C   UNL A   1      44.277  23.327  24.700  1.00  0.00     0.010 A 
ATOM     42  C   UNL A   1      45.096  23.685  25.779  1.00  0.00    -0.014 A 
BRANCH  42  43
ATOM     43  C   UNL A   1      45.352  25.143  26.150  1.00  0.00     0.031 A 
ATOM     44  C   UNL A   1      44.368  25.941  26.987  1.00  0.00     0.074 A 
ATOM     45  C   UNL A   1      46.505  25.775  25.815  1.00  0.00     0.049 A 
ATOM     46  N   UNL A   1      44.445  27.186  27.410  1.00  0.00    -0.248 NA
ATOM     47  C   UNL A   1      43.131  25.260  27.386  1.00  0.00     0.031 C 
ATOM     48  C   UNL A   1      47.597  25.173  25.058  1.00  0.00     0.029 A 
ATOM     49  N   UNL A   1      47.011  27.017  26.171  1.00  0.00    -0.354 N 
ATOM     50  C   UNL A   1      43.230  27.463  28.029  1.00  0.00     0.074 A 
ATOM     51  C   UNL A   1      42.486  26.219  28.036  1.00  0.00     0.031 C 
ATOM     52  C   UNL A   1      48.693  25.942  25.177  1.00  0.00     0.029 A 
ATOM     53  C   UNL A   1      48.367  27.152  25.929  1.00  0.00     0.049 A 
ATOM     54  H   UNL A   1      46.458  27.734  26.556  1.00  0.00     0.167 HD
ATOM     55  C   UNL A   1      42.736  28.655  28.462  1.00  0.00     0.037 A 
ATOM     56  C   UNL A   1      49.246  28.111  26.305  1.00  0.00     0.037 A 
ATOM     57  C   UNL A   1      43.453  29.906  28.447  1.00  0.00     0.049 A 
ATOM     58  C   UNL A   1      48.727  29.394  26.910  1.00  0.00     0.074 A 
ATOM     59  C   UNL A   1      42.980  31.190  28.677  1.00  0.00     0.029 A 
ATOM     60  N   UNL A   1      44.810  30.026  28.204  1.00  0.00    -0.354 N 
ATOM     61  N   UNL A   1      47.536  29.673  27.373  1.00  0.00    -0.248 NA
ATOM     62  C   UNL A   1      49.674  30.524  26.976  1.00  0.00     0.031 C 
ATOM     63  C   UNL A   1      44.049  32.089  28.539  1.00  0.00     0.029 A 
ATOM     64  C   UNL A   1      45.192  31.359  28.268  1.00  0.00     0.049 A 
ATOM     65  H   UNL A   1      45.417  29.276  28.013  1.00  0.00     0.167 HD
ATOM     66  C   UNL A   1      47.570  31.020  27.717  1.00  0.00     0.074 A 
ATOM     67  C   UNL A   1      48.930  31.475  27.524  1.00  0.00     0.031 C 
ATOM     68  C   UNL A   1      46.543  31.822  28.087  1.00  0.00     0.037 A 
BRANCH  55  69
ATOM     69  C   UNL A   1      41.274  28.686  28.813  1.00  0.00     0.064 A 
ATOM     70  C   UNL A   1      40.276  29.024  27.892  1.00  0.00     0.173 A 
ATOM     71  C   UNL A   1      40.881  28.408  30.134  1.00  0.00     0.173 A 
ATOM     72  F   UNL A   1      40.598  29.311  26.621  1.00  0.00    -0.203 F 
ATOM     73  C   UNL A   1      38.943  29.133  28.291  1.00  0.00     0.198 A 
ATOM     74  C   UNL A   1      39.549  28.493  30.524  1.00  0.00     0.198 A 
ATOM     75  F   UNL A   1      41.797  28.062  31.052  1.00  0.00    -0.203 F 
ATOM     76  F   UNL A   1      38.011  29.524  27.412  1.00  0.00    -0.200 F 
ATOM     77  C   UNL A   1      38.582  28.872  29.606  1.00  0.00     0.200 A 
ATOM     78  F   UNL A   1      39.204  28.230  31.792  1.00  0.00    -0.200 F 
ATOM     79  F   UNL A   1      37.306  29.002  29.994  1.00  0.00    -0.200 F 
ENDBRANCH  55  69
BRANCH  56  80
ATOM     80  C   UNL A   1      50.728  27.924  26.177  1.00  0.00     0.064 A 
ATOM     81  C   UNL A   1      51.354  28.146  24.935  1.00  0.00     0.173 A 
ATOM     82  C   UNL A   1      51.545  27.485  27.226  1.00  0.00     0.173 A 
ATOM     83  F   UNL A   1      50.621  28.509  23.871  1.00  0.00    -0.203 F 
ATOM     84  C   UNL A   1      52.721  27.944  24.754  1.00  0.00     0.198 A 
ATOM     85  C   UNL A   1      52.922  27.321  27.056  1.00  0.00     0.198 A 
ATOM     86  F   UNL A   1      51.010  27.202  28.422  1.00  0.00    -0.203 F 
ATOM     87  F   UNL A   1      53.268  28.111  23.541  1.00  0.00    -0.200 F 
ATOM     88  C   UNL A   1      53.508  27.544  25.819  1.00  0.00     0.200 A 
ATOM     89  F   UNL A   1      53.679  26.933  28.091  1.00  0.00    -0.200 F 
ATOM     90  F   UNL A   1      54.823  27.351  25.650  1.00  0.00    -0.200 F 
ENDBRANCH  56  80
BRANCH  68  91
ATOM     91  C   UNL A   1      46.820  33.290  28.243  1.00  0.00     0.064 A 
ATOM     92  C   UNL A   1      47.214  33.820  29.483  1.00  0.00     0.173 A 
ATOM     93  C   UNL A   1      46.757  34.165  27.150  1.00  0.00     0.173 A 
ATOM     94  F   UNL A   1      47.282  33.027  30.564  1.00  0.00    -0.203 F 
ATOM     95  C   UNL A   1      47.519  35.171  29.625  1.00  0.00     0.198 A 
ATOM     96  C   UNL A   1      47.082  35.513  27.291  1.00  0.00     0.198 A 
ATOM     97  F   UNL A   1      46.389  33.713  25.942  1.00  0.00    -0.203 F 
ATOM     98  F   UNL A   1      47.863  35.656  30.827  1.00  0.00    -0.200 F 
ATOM     99  C   UNL A   1      47.459  36.016  28.528  1.00  0.00     0.200 A 
ATOM    100  F   UNL A   1      47.032  36.330  26.229  1.00  0.00    -0.200 F 
ATOM    101  F   UNL A   1      47.762  37.314  28.665  1.00  0.00    -0.200 F 
ENDBRANCH  68  91
ENDBRANCH  42  43
ENDBRANCH  35  37
ENDBRANCH  34  35
ENDBRANCH  33  34
ENDBRANCH  32  33
ENDBRANCH  31  32
ENDBRANCH  30  31
ENDBRANCH   1  30
TORSDOF 20
ENDMDL
