MODEL 1
REMARK VINA RESULT:     -12.9      0.000      0.000
REMARK SMILES NS(=O)(=O)c1ccc(-c2coc(=O)n2-c2ccc(C(=O)OCCOCCOC(=O)c3ccc(-c4c5nc(c(-c6c(F)c(F)c(F)c(F)c6F)c6ccc([nH]6)c(-c6c(F)c(F)c(F)c(F)c6F)c6nc(c(-c7c(F)c(F)c(F)c(F)c7F)c7ccc4[nH]7)C=C6)C=C5)cc3)cc2)cc1
REMARK SMILES IDX 23 1 22 2 21 3 19 4 20 5 18 6 15 7 16 8 94 9 17 10 93 11
REMARK SMILES IDX 14 12 9 13 10 14 11 15 12 16 13 17 8 18 5 19 6 20 96 21 7 22
REMARK SMILES IDX 95 23 2 24 3 25 4 26 1 27 24 30 25 31 26 32 27 33 28 34
REMARK SMILES IDX 29 35 30 36 31 37 92 38 32 39 91 40 33 41 34 42 35 43 85 44
REMARK SMILES IDX 36 45 90 46 84 47 86 48 37 49 89 50 83 51 82 52 38 54 70 55
REMARK SMILES IDX 50 56 69 57 51 58 54 59 68 60 87 61 52 62 53 63 67 65 88 66
REMARK SMILES IDX 55 67 39 68 40 69 48 70 41 71 42 72 46 73 49 74 43 75 44 76
REMARK SMILES IDX 47 77 45 78 71 79 72 80 80 81 73 82 74 83 78 84 81 85 75 86
REMARK SMILES IDX 76 87 79 88 77 89 56 90 57 91 65 92 58 93 59 94 63 95 66 96
REMARK SMILES IDX 60 97 61 98 64 99 62 100
REMARK H PARENT 1 28 1 29 86 53 54 64
REMARK Flexibility Score: inf
ROOT
ATOM      1  C   UNL A   1      40.789  21.442  27.595  1.00  0.00     0.202 C 
ENDROOT
BRANCH   1   2
ATOM      2  C   UNL A   1      40.418  22.139  26.286  1.00  0.00     0.261 C 
BRANCH   2   3
ATOM      3  O   UNL A   1      39.085  22.671  26.293  1.00  0.00    -0.460 OA
BRANCH   3   4
ATOM      4  C   UNL A   1      38.223  22.003  25.490  1.00  0.00     0.338 C 
ATOM      5  O   UNL A   1      38.224  20.809  25.237  1.00  0.00    -0.246 OA
BRANCH   4   6
ATOM      6  C   UNL A   1      37.125  22.891  25.066  1.00  0.00     0.060 A 
ATOM      7  C   UNL A   1      34.803  24.304  24.433  1.00  0.00     0.053 A 
ATOM      8  C   UNL A   1      35.283  24.316  25.745  1.00  0.00     0.028 A 
ATOM      9  C   UNL A   1      35.565  23.686  23.425  1.00  0.00     0.028 A 
ATOM     10  C   UNL A   1      36.424  23.582  26.065  1.00  0.00     0.018 A 
ATOM     11  C   UNL A   1      36.735  22.992  23.733  1.00  0.00     0.018 A 
BRANCH   7  12
ATOM     12  N   UNL A   1      33.496  24.760  24.160  1.00  0.00    -0.242 N 
ATOM     13  C   UNL A   1      32.403  24.003  23.833  1.00  0.00     0.095 A 
ATOM     14  C   UNL A   1      31.386  24.847  23.720  1.00  0.00     0.228 A 
ATOM     15  O   UNL A   1      31.719  26.179  23.959  1.00  0.00    -0.415 OA
ATOM     16  C   UNL A   1      33.076  26.085  24.273  1.00  0.00     0.424 A 
ATOM     17  O   UNL A   1      33.749  27.063  24.572  1.00  0.00    -0.223 OA
BRANCH  13  18
ATOM     18  C   UNL A   1      32.359  22.543  23.816  1.00  0.00     0.002 A 
ATOM     19  C   UNL A   1      32.491  19.750  23.782  1.00  0.00     0.082 A 
ATOM     20  C   UNL A   1      32.635  20.427  24.992  1.00  0.00     0.022 A 
ATOM     21  C   UNL A   1      32.259  20.450  22.593  1.00  0.00     0.022 A 
ATOM     22  C   UNL A   1      32.562  21.821  25.006  1.00  0.00     0.012 A 
ATOM     23  C   UNL A   1      32.185  21.845  22.614  1.00  0.00     0.012 A 
BRANCH  19  24
ATOM     24  S   UNL A   1      32.609  17.987  23.746  1.00  0.00     0.238 S 
ATOM     25  O   UNL A   1      31.729  17.430  24.756  1.00  0.00    -0.207 OA
ATOM     26  O   UNL A   1      33.995  17.624  23.633  1.00  0.00    -0.207 OA
BRANCH  24  27
ATOM     27  N   UNL A   1      31.888  17.604  22.278  1.00  0.00    -0.225 NA
ATOM     28  H   UNL A   1      32.454  17.974  21.514  1.00  0.00     0.137 HD
ATOM     29  H   UNL A   1      30.955  18.014  22.241  1.00  0.00     0.137 HD
ENDBRANCH  24  27
ENDBRANCH  19  24
ENDBRANCH  13  18
ENDBRANCH   7  12
ENDBRANCH   4   6
ENDBRANCH   3   4
ENDBRANCH   2   3
ENDBRANCH   1   2
BRANCH   1  30
ATOM     30  O   UNL A   1      41.500  20.207  27.554  1.00  0.00    -0.374 OA
BRANCH  30  31
ATOM     31  C   UNL A   1      41.646  19.487  26.335  1.00  0.00     0.202 C 
BRANCH  31  32
ATOM     32  C   UNL A   1      43.021  19.404  25.688  1.00  0.00     0.261 C 
BRANCH  32  33
ATOM     33  O   UNL A   1      43.335  20.578  24.963  1.00  0.00    -0.460 OA
BRANCH  33  34
ATOM     34  C   UNL A   1      44.640  20.922  25.028  1.00  0.00     0.338 C 
ATOM     35  O   UNL A   1      45.592  20.195  25.256  1.00  0.00    -0.246 OA
BRANCH  34  36
ATOM     36  C   UNL A   1      44.736  22.381  24.939  1.00  0.00     0.060 A 
ATOM     37  C   UNL A   1      45.812  22.950  25.622  1.00  0.00     0.016 A 
ATOM     38  C   UNL A   1      43.587  23.109  24.601  1.00  0.00     0.016 A 
ATOM     39  C   UNL A   1      45.595  24.143  26.263  1.00  0.00     0.010 A 
ATOM     40  C   UNL A   1      43.366  24.290  25.254  1.00  0.00     0.010 A 
ATOM     41  C   UNL A   1      44.326  24.721  26.165  1.00  0.00    -0.014 A 
BRANCH  41  42
ATOM     42  C   UNL A   1      44.041  25.885  26.967  1.00  0.00     0.031 A 
ATOM     43  C   UNL A   1      45.011  26.961  26.693  1.00  0.00     0.074 A 
ATOM     44  C   UNL A   1      42.958  25.959  27.764  1.00  0.00     0.049 A 
ATOM     45  N   UNL A   1      45.983  27.345  27.449  1.00  0.00    -0.248 NA
ATOM     46  C   UNL A   1      45.077  27.482  25.317  1.00  0.00     0.031 C 
ATOM     47  C   UNL A   1      41.841  25.020  27.883  1.00  0.00     0.029 A 
ATOM     48  N   UNL A   1      42.593  26.976  28.590  1.00  0.00    -0.354 N 
ATOM     49  C   UNL A   1      46.638  28.330  26.722  1.00  0.00     0.074 A 
ATOM     50  C   UNL A   1      46.221  28.165  25.359  1.00  0.00     0.031 C 
ATOM     51  C   UNL A   1      40.823  25.618  28.547  1.00  0.00     0.029 A 
ATOM     52  C   UNL A   1      41.264  26.920  29.008  1.00  0.00     0.049 A 
ATOM     53  H   UNL A   1      43.212  27.689  28.870  1.00  0.00     0.167 HD
ATOM     54  C   UNL A   1      47.180  29.400  27.361  1.00  0.00     0.037 A 
ATOM     55  C   UNL A   1      40.594  27.947  29.596  1.00  0.00     0.037 A 
ATOM     56  C   UNL A   1      47.365  29.104  28.763  1.00  0.00     0.049 A 
ATOM     57  C   UNL A   1      41.625  28.876  30.142  1.00  0.00     0.074 A 
ATOM     58  C   UNL A   1      48.097  28.171  29.471  1.00  0.00     0.029 A 
ATOM     59  N   UNL A   1      46.415  29.579  29.637  1.00  0.00    -0.354 N 
ATOM     60  N   UNL A   1      42.429  28.557  31.120  1.00  0.00    -0.248 NA
ATOM     61  C   UNL A   1      42.103  29.931  29.257  1.00  0.00     0.031 C 
ATOM     62  C   UNL A   1      47.266  27.802  30.570  1.00  0.00     0.029 A 
ATOM     63  C   UNL A   1      46.111  28.583  30.525  1.00  0.00     0.049 A 
ATOM     64  H   UNL A   1      46.021  30.481  29.625  1.00  0.00     0.167 HD
ATOM     65  C   UNL A   1      43.669  29.045  30.730  1.00  0.00     0.074 A 
ATOM     66  C   UNL A   1      43.395  29.923  29.594  1.00  0.00     0.031 C 
ATOM     67  C   UNL A   1      44.822  28.456  31.163  1.00  0.00     0.037 A 
BRANCH  54  68
ATOM     68  C   UNL A   1      47.082  30.823  26.846  1.00  0.00     0.064 A 
ATOM     69  C   UNL A   1      48.240  31.623  26.907  1.00  0.00     0.173 A 
ATOM     70  C   UNL A   1      45.877  31.527  26.615  1.00  0.00     0.173 A 
ATOM     71  F   UNL A   1      49.446  31.068  27.098  1.00  0.00    -0.203 F 
ATOM     72  C   UNL A   1      48.177  33.018  26.885  1.00  0.00     0.198 A 
ATOM     73  C   UNL A   1      45.825  32.917  26.548  1.00  0.00     0.198 A 
ATOM     74  F   UNL A   1      44.683  30.935  26.541  1.00  0.00    -0.203 F 
ATOM     75  F   UNL A   1      49.288  33.735  27.099  1.00  0.00    -0.200 F 
ATOM     76  C   UNL A   1      46.967  33.664  26.726  1.00  0.00     0.200 A 
ATOM     77  F   UNL A   1      44.638  33.521  26.397  1.00  0.00    -0.200 F 
ATOM     78  F   UNL A   1      46.891  34.999  26.784  1.00  0.00    -0.200 F 
ENDBRANCH  54  68
BRANCH  55  79
ATOM     79  C   UNL A   1      39.188  28.364  29.361  1.00  0.00     0.064 A 
ATOM     80  C   UNL A   1      38.278  28.512  30.422  1.00  0.00     0.173 A 
ATOM     81  C   UNL A   1      38.785  28.895  28.119  1.00  0.00     0.173 A 
ATOM     82  F   UNL A   1      38.606  28.091  31.653  1.00  0.00    -0.203 F 
ATOM     83  C   UNL A   1      37.047  29.159  30.251  1.00  0.00     0.198 A 
ATOM     84  C   UNL A   1      37.555  29.536  27.949  1.00  0.00     0.198 A 
ATOM     85  F   UNL A   1      39.617  28.891  27.068  1.00  0.00    -0.203 F 
ATOM     86  F   UNL A   1      36.228  29.329  31.300  1.00  0.00    -0.200 F 
ATOM     87  C   UNL A   1      36.690  29.677  29.017  1.00  0.00     0.200 A 
ATOM     88  F   UNL A   1      37.245  30.072  26.760  1.00  0.00    -0.200 F 
ATOM     89  F   UNL A   1      35.539  30.345  28.866  1.00  0.00    -0.200 F 
ENDBRANCH  55  79
BRANCH  67  90
ATOM     90  C   UNL A   1      44.725  27.433  32.259  1.00  0.00     0.064 A 
ATOM     91  C   UNL A   1      44.540  26.057  32.036  1.00  0.00     0.173 A 
ATOM     92  C   UNL A   1      45.026  27.843  33.563  1.00  0.00     0.173 A 
ATOM     93  F   UNL A   1      44.339  25.580  30.800  1.00  0.00    -0.203 F 
ATOM     94  C   UNL A   1      44.633  25.139  33.084  1.00  0.00     0.198 A 
ATOM     95  C   UNL A   1      45.153  26.923  34.598  1.00  0.00     0.198 A 
ATOM     96  F   UNL A   1      45.264  29.139  33.818  1.00  0.00    -0.203 F 
ATOM     97  F   UNL A   1      44.460  23.830  32.848  1.00  0.00    -0.200 F 
ATOM     98  C   UNL A   1      44.952  25.573  34.360  1.00  0.00     0.200 A 
ATOM     99  F   UNL A   1      45.511  27.343  35.819  1.00  0.00    -0.200 F 
ATOM    100  F   UNL A   1      45.095  24.687  35.356  1.00  0.00    -0.200 F 
ENDBRANCH  67  90
ENDBRANCH  41  42
ENDBRANCH  34  36
ENDBRANCH  33  34
ENDBRANCH  32  33
ENDBRANCH  31  32
ENDBRANCH  30  31
ENDBRANCH   1  30
TORSDOF 18
ENDMDL
MODEL 2
REMARK VINA RESULT:     -12.6      3.767      9.320
REMARK SMILES NS(=O)(=O)c1ccc(-c2coc(=O)n2-c2ccc(C(=O)OCCOCCOC(=O)c3ccc(-c4c5nc(c(-c6c(F)c(F)c(F)c(F)c6F)c6ccc([nH]6)c(-c6c(F)c(F)c(F)c(F)c6F)c6nc(c(-c7c(F)c(F)c(F)c(F)c7F)c7ccc4[nH]7)C=C6)C=C5)cc3)cc2)cc1
REMARK SMILES IDX 23 1 22 2 21 3 19 4 20 5 18 6 15 7 16 8 94 9 17 10 93 11
REMARK SMILES IDX 14 12 9 13 10 14 11 15 12 16 13 17 8 18 5 19 6 20 96 21 7 22
REMARK SMILES IDX 95 23 2 24 3 25 4 26 1 27 24 30 25 31 26 32 27 33 28 34
REMARK SMILES IDX 29 35 30 36 31 37 92 38 32 39 91 40 33 41 34 42 35 43 85 44
REMARK SMILES IDX 36 45 90 46 84 47 86 48 37 49 89 50 83 51 82 52 38 54 70 55
REMARK SMILES IDX 50 56 69 57 51 58 54 59 68 60 87 61 52 62 53 63 67 65 88 66
REMARK SMILES IDX 55 67 39 68 40 69 48 70 41 71 42 72 46 73 49 74 43 75 44 76
REMARK SMILES IDX 47 77 45 78 71 79 72 80 80 81 73 82 74 83 78 84 81 85 75 86
REMARK SMILES IDX 76 87 79 88 77 89 56 90 57 91 65 92 58 93 59 94 63 95 66 96
REMARK SMILES IDX 60 97 61 98 64 99 62 100
REMARK H PARENT 1 28 1 29 86 53 54 64
REMARK Flexibility Score: inf
ROOT
ATOM      1  C   UNL A   1      34.630  33.442  28.071  1.00  0.00     0.202 C 
ENDROOT
BRANCH   1   2
ATOM      2  C   UNL A   1      34.942  31.988  27.718  1.00  0.00     0.261 C 
BRANCH   2   3
ATOM      3  O   UNL A   1      33.961  31.067  28.218  1.00  0.00    -0.460 OA
BRANCH   3   4
ATOM      4  C   UNL A   1      32.914  30.872  27.382  1.00  0.00     0.338 C 
ATOM      5  O   UNL A   1      32.216  31.728  26.861  1.00  0.00    -0.246 OA
BRANCH   4   6
ATOM      6  C   UNL A   1      32.808  29.447  27.017  1.00  0.00     0.060 A 
ATOM      7  C   UNL A   1      32.507  26.882  25.963  1.00  0.00     0.053 A 
ATOM      8  C   UNL A   1      33.639  27.633  25.639  1.00  0.00     0.028 A 
ATOM      9  C   UNL A   1      31.598  27.378  26.915  1.00  0.00     0.028 A 
ATOM     10  C   UNL A   1      33.771  28.927  26.141  1.00  0.00     0.018 A 
ATOM     11  C   UNL A   1      31.752  28.654  27.457  1.00  0.00     0.018 A 
BRANCH   7  12
ATOM     12  N   UNL A   1      32.199  25.722  25.220  1.00  0.00    -0.242 N 
ATOM     13  C   UNL A   1      31.289  25.603  24.205  1.00  0.00     0.095 A 
ATOM     14  C   UNL A   1      31.378  24.352  23.771  1.00  0.00     0.228 A 
ATOM     15  O   UNL A   1      32.323  23.579  24.443  1.00  0.00    -0.415 OA
ATOM     16  C   UNL A   1      32.858  24.499  25.346  1.00  0.00     0.424 A 
ATOM     17  O   UNL A   1      33.756  24.207  26.124  1.00  0.00    -0.223 OA
BRANCH  13  18
ATOM     18  C   UNL A   1      30.532  26.703  23.612  1.00  0.00     0.002 A 
ATOM     19  C   UNL A   1      29.151  28.931  22.642  1.00  0.00     0.082 A 
ATOM     20  C   UNL A   1      30.514  28.804  22.379  1.00  0.00     0.022 A 
ATOM     21  C   UNL A   1      28.466  27.948  23.364  1.00  0.00     0.022 A 
ATOM     22  C   UNL A   1      31.199  27.687  22.859  1.00  0.00     0.012 A 
ATOM     23  C   UNL A   1      29.157  26.831  23.840  1.00  0.00     0.012 A 
BRANCH  19  24
ATOM     24  S   UNL A   1      28.277  30.356  22.065  1.00  0.00     0.238 S 
ATOM     25  O   UNL A   1      27.298  30.749  23.060  1.00  0.00    -0.207 OA
ATOM     26  O   UNL A   1      27.947  30.159  20.680  1.00  0.00    -0.207 OA
BRANCH  24  27
ATOM     27  N   UNL A   1      29.457  31.551  22.115  1.00  0.00    -0.225 NA
ATOM     28  H   UNL A   1      30.093  31.368  22.891  1.00  0.00     0.137 HD
ATOM     29  H   UNL A   1      29.014  32.460  22.244  1.00  0.00     0.137 HD
ENDBRANCH  24  27
ENDBRANCH  19  24
ENDBRANCH  13  18
ENDBRANCH   7  12
ENDBRANCH   4   6
ENDBRANCH   3   4
ENDBRANCH   2   3
ENDBRANCH   1   2
BRANCH   1  30
ATOM     30  O   UNL A   1      33.737  33.726  29.146  1.00  0.00    -0.374 OA
BRANCH  30  31
ATOM     31  C   UNL A   1      34.171  34.464  30.282  1.00  0.00     0.202 C 
BRANCH  31  32
ATOM     32  C   UNL A   1      34.631  33.709  31.520  1.00  0.00     0.261 C 
BRANCH  32  33
ATOM     33  O   UNL A   1      34.720  32.315  31.287  1.00  0.00    -0.460 OA
BRANCH  33  34
ATOM     34  C   UNL A   1      35.778  31.731  31.890  1.00  0.00     0.338 C 
ATOM     35  O   UNL A   1      36.072  31.761  33.073  1.00  0.00    -0.246 OA
BRANCH  34  36
ATOM     36  C   UNL A   1      36.644  31.165  30.853  1.00  0.00     0.060 A 
ATOM     37  C   UNL A   1      36.580  29.778  30.715  1.00  0.00     0.016 A 
ATOM     38  C   UNL A   1      37.743  31.918  30.413  1.00  0.00     0.016 A 
ATOM     39  C   UNL A   1      37.752  29.114  30.453  1.00  0.00     0.010 A 
ATOM     40  C   UNL A   1      38.913  31.254  30.168  1.00  0.00     0.010 A 
ATOM     41  C   UNL A   1      38.919  29.869  30.311  1.00  0.00    -0.014 A 
BRANCH  41  42
ATOM     42  C   UNL A   1      40.176  29.171  30.200  1.00  0.00     0.031 A 
ATOM     43  C   UNL A   1      40.832  29.060  31.517  1.00  0.00     0.074 A 
ATOM     44  C   UNL A   1      40.593  28.624  29.043  1.00  0.00     0.049 A 
ATOM     45  N   UNL A   1      41.855  29.724  31.935  1.00  0.00    -0.248 NA
ATOM     46  C   UNL A   1      40.110  28.335  32.576  1.00  0.00     0.031 C 
ATOM     47  C   UNL A   1      39.870  28.495  27.776  1.00  0.00     0.029 A 
ATOM     48  N   UNL A   1      41.762  27.973  28.796  1.00  0.00    -0.354 N 
ATOM     49  C   UNL A   1      42.041  29.311  33.247  1.00  0.00     0.074 A 
ATOM     50  C   UNL A   1      40.807  28.698  33.652  1.00  0.00     0.031 C 
ATOM     51  C   UNL A   1      40.516  27.611  26.979  1.00  0.00     0.029 A 
ATOM     52  C   UNL A   1      41.756  27.219  27.623  1.00  0.00     0.049 A 
ATOM     53  H   UNL A   1      42.543  28.028  29.392  1.00  0.00     0.167 HD
ATOM     54  C   UNL A   1      43.297  29.194  33.753  1.00  0.00     0.037 A 
ATOM     55  C   UNL A   1      42.681  26.275  27.305  1.00  0.00     0.037 A 
ATOM     56  C   UNL A   1      44.230  29.957  32.955  1.00  0.00     0.049 A 
ATOM     57  C   UNL A   1      43.888  26.560  28.134  1.00  0.00     0.074 A 
ATOM     58  C   UNL A   1      44.365  31.293  32.630  1.00  0.00     0.029 A 
ATOM     59  N   UNL A   1      44.977  29.267  32.031  1.00  0.00    -0.354 N 
ATOM     60  N   UNL A   1      44.618  27.633  27.988  1.00  0.00    -0.248 NA
ATOM     61  C   UNL A   1      43.956  25.929  29.446  1.00  0.00     0.031 C 
ATOM     62  C   UNL A   1      44.799  31.302  31.271  1.00  0.00     0.029 A 
ATOM     63  C   UNL A   1      44.986  29.981  30.863  1.00  0.00     0.049 A 
ATOM     64  H   UNL A   1      45.429  28.405  32.182  1.00  0.00     0.167 HD
ATOM     65  C   UNL A   1      44.887  28.054  29.284  1.00  0.00     0.074 A 
ATOM     66  C   UNL A   1      44.491  26.937  30.140  1.00  0.00     0.031 C 
ATOM     67  C   UNL A   1      45.113  29.371  29.561  1.00  0.00     0.037 A 
BRANCH  54  68
ATOM     68  C   UNL A   1      43.746  28.043  34.631  1.00  0.00     0.064 A 
ATOM     69  C   UNL A   1      43.537  26.734  34.152  1.00  0.00     0.173 A 
ATOM     70  C   UNL A   1      44.051  28.136  36.008  1.00  0.00     0.173 A 
ATOM     71  F   UNL A   1      43.264  26.514  32.857  1.00  0.00    -0.203 F 
ATOM     72  C   UNL A   1      43.494  25.632  35.007  1.00  0.00     0.198 A 
ATOM     73  C   UNL A   1      44.052  27.026  36.851  1.00  0.00     0.198 A 
ATOM     74  F   UNL A   1      44.266  29.294  36.637  1.00  0.00    -0.203 F 
ATOM     75  F   UNL A   1      43.142  24.432  34.526  1.00  0.00    -0.200 F 
ATOM     76  C   UNL A   1      43.732  25.782  36.360  1.00  0.00     0.200 A 
ATOM     77  F   UNL A   1      44.282  27.199  38.161  1.00  0.00    -0.200 F 
ATOM     78  F   UNL A   1      43.614  24.743  37.196  1.00  0.00    -0.200 F 
ENDBRANCH  54  68
BRANCH  55  79
ATOM     79  C   UNL A   1      42.447  24.956  26.665  1.00  0.00     0.064 A 
ATOM     80  C   UNL A   1      43.144  24.566  25.508  1.00  0.00     0.173 A 
ATOM     81  C   UNL A   1      41.736  23.938  27.333  1.00  0.00     0.173 A 
ATOM     82  F   UNL A   1      43.895  25.457  24.843  1.00  0.00    -0.203 F 
ATOM     83  C   UNL A   1      43.136  23.240  25.055  1.00  0.00     0.198 A 
ATOM     84  C   UNL A   1      41.727  22.617  26.879  1.00  0.00     0.198 A 
ATOM     85  F   UNL A   1      41.118  24.183  28.497  1.00  0.00    -0.203 F 
ATOM     86  F   UNL A   1      43.858  22.895  23.978  1.00  0.00    -0.200 F 
ATOM     87  C   UNL A   1      42.435  22.266  25.746  1.00  0.00     0.200 A 
ATOM     88  F   UNL A   1      41.081  21.678  27.584  1.00  0.00    -0.200 F 
ATOM     89  F   UNL A   1      42.474  20.987  25.347  1.00  0.00    -0.200 F 
ENDBRANCH  55  79
BRANCH  67  90
ATOM     90  C   UNL A   1      45.309  30.313  28.406  1.00  0.00     0.064 A 
ATOM     91  C   UNL A   1      44.264  31.008  27.773  1.00  0.00     0.173 A 
ATOM     92  C   UNL A   1      46.621  30.664  28.066  1.00  0.00     0.173 A 
ATOM     93  F   UNL A   1      42.986  30.791  28.113  1.00  0.00    -0.203 F 
ATOM     94  C   UNL A   1      44.529  31.998  26.825  1.00  0.00     0.198 A 
ATOM     95  C   UNL A   1      46.881  31.674  27.146  1.00  0.00     0.198 A 
ATOM     96  F   UNL A   1      47.654  30.066  28.680  1.00  0.00    -0.203 F 
ATOM     97  F   UNL A   1      43.517  32.654  26.237  1.00  0.00    -0.200 F 
ATOM     98  C   UNL A   1      45.837  32.337  26.523  1.00  0.00     0.200 A 
ATOM     99  F   UNL A   1      48.148  32.032  26.896  1.00  0.00    -0.200 F 
ATOM    100  F   UNL A   1      46.093  33.325  25.653  1.00  0.00    -0.200 F 
ENDBRANCH  67  90
ENDBRANCH  41  42
ENDBRANCH  34  36
ENDBRANCH  33  34
ENDBRANCH  32  33
ENDBRANCH  31  32
ENDBRANCH  30  31
ENDBRANCH   1  30
TORSDOF 18
ENDMDL
MODEL 3
REMARK VINA RESULT:     -12.5      4.723     10.211
REMARK SMILES NS(=O)(=O)c1ccc(-c2coc(=O)n2-c2ccc(C(=O)OCCOCCOC(=O)c3ccc(-c4c5nc(c(-c6c(F)c(F)c(F)c(F)c6F)c6ccc([nH]6)c(-c6c(F)c(F)c(F)c(F)c6F)c6nc(c(-c7c(F)c(F)c(F)c(F)c7F)c7ccc4[nH]7)C=C6)C=C5)cc3)cc2)cc1
REMARK SMILES IDX 23 1 22 2 21 3 19 4 20 5 18 6 15 7 16 8 94 9 17 10 93 11
REMARK SMILES IDX 14 12 9 13 10 14 11 15 12 16 13 17 8 18 5 19 6 20 96 21 7 22
REMARK SMILES IDX 95 23 2 24 3 25 4 26 1 27 24 30 25 31 26 32 27 33 28 34
REMARK SMILES IDX 29 35 30 36 31 37 92 38 32 39 91 40 33 41 34 42 35 43 85 44
REMARK SMILES IDX 36 45 90 46 84 47 86 48 37 49 89 50 83 51 82 52 38 54 70 55
REMARK SMILES IDX 50 56 69 57 51 58 54 59 68 60 87 61 52 62 53 63 67 65 88 66
REMARK SMILES IDX 55 67 39 68 40 69 48 70 41 71 42 72 46 73 49 74 43 75 44 76
REMARK SMILES IDX 47 77 45 78 71 79 72 80 80 81 73 82 74 83 78 84 81 85 75 86
REMARK SMILES IDX 76 87 79 88 77 89 56 90 57 91 65 92 58 93 59 94 63 95 66 96
REMARK SMILES IDX 60 97 61 98 64 99 62 100
REMARK H PARENT 1 28 1 29 86 53 54 64
REMARK Flexibility Score: inf
ROOT
ATOM      1  C   UNL A   1      31.982  33.044  26.948  1.00  0.00     0.202 C 
ENDROOT
BRANCH   1   2
ATOM      2  C   UNL A   1      31.863  31.593  26.482  1.00  0.00     0.261 C 
BRANCH   2   3
ATOM      3  O   UNL A   1      32.282  30.648  27.478  1.00  0.00    -0.460 OA
BRANCH   3   4
ATOM      4  C   UNL A   1      33.408  29.969  27.152  1.00  0.00     0.338 C 
ATOM      5  O   UNL A   1      34.562  30.350  27.275  1.00  0.00    -0.246 OA
BRANCH   4   6
ATOM      6  C   UNL A   1      33.078  28.584  26.769  1.00  0.00     0.060 A 
ATOM      7  C   UNL A   1      32.357  26.116  25.687  1.00  0.00     0.053 A 
ATOM      8  C   UNL A   1      33.575  26.698  25.327  1.00  0.00     0.028 A 
ATOM      9  C   UNL A   1      31.571  26.719  26.684  1.00  0.00     0.028 A 
ATOM     10  C   UNL A   1      33.917  27.947  25.843  1.00  0.00     0.018 A 
ATOM     11  C   UNL A   1      31.935  27.946  27.241  1.00  0.00     0.018 A 
BRANCH   7  12
ATOM     12  N   UNL A   1      31.851  25.031  24.939  1.00  0.00    -0.242 N 
ATOM     13  C   UNL A   1      30.847  25.059  24.009  1.00  0.00     0.095 A 
ATOM     14  C   UNL A   1      30.750  23.826  23.529  1.00  0.00     0.228 A 
ATOM     15  O   UNL A   1      31.653  22.923  24.086  1.00  0.00    -0.415 OA
ATOM     16  C   UNL A   1      32.370  23.737  24.964  1.00  0.00     0.424 A 
ATOM     17  O   UNL A   1      33.293  23.311  25.647  1.00  0.00    -0.223 OA
BRANCH  13  18
ATOM     18  C   UNL A   1      30.176  26.263  23.523  1.00  0.00     0.002 A 
ATOM     19  C   UNL A   1      28.985  28.673  22.758  1.00  0.00     0.082 A 
ATOM     20  C   UNL A   1      30.299  28.408  22.375  1.00  0.00     0.022 A 
ATOM     21  C   UNL A   1      28.252  27.740  23.499  1.00  0.00     0.022 A 
ATOM     22  C   UNL A   1      30.888  27.201  22.753  1.00  0.00     0.012 A 
ATOM     23  C   UNL A   1      28.847  26.532  23.873  1.00  0.00     0.012 A 
BRANCH  19  24
ATOM     24  S   UNL A   1      28.236  30.211  22.309  1.00  0.00     0.238 S 
ATOM     25  O   UNL A   1      27.222  30.549  23.290  1.00  0.00    -0.207 OA
ATOM     26  O   UNL A   1      27.981  30.200  20.896  1.00  0.00    -0.207 OA
BRANCH  24  27
ATOM     27  N   UNL A   1      29.479  31.310  22.569  1.00  0.00    -0.225 NA
ATOM     28  H   UNL A   1      30.048  31.386  21.725  1.00  0.00     0.137 HD
ATOM     29  H   UNL A   1      30.060  30.990  23.344  1.00  0.00     0.137 HD
ENDBRANCH  24  27
ENDBRANCH  19  24
ENDBRANCH  13  18
ENDBRANCH   7  12
ENDBRANCH   4   6
ENDBRANCH   3   4
ENDBRANCH   2   3
ENDBRANCH   1   2
BRANCH   1  30
ATOM     30  O   UNL A   1      32.942  33.382  27.948  1.00  0.00    -0.374 OA
BRANCH  30  31
ATOM     31  C   UNL A   1      33.201  34.740  28.283  1.00  0.00     0.202 C 
BRANCH  31  32
ATOM     32  C   UNL A   1      33.868  35.058  29.612  1.00  0.00     0.261 C 
BRANCH  32  33
ATOM     33  O   UNL A   1      33.127  34.556  30.709  1.00  0.00    -0.460 OA
BRANCH  33  34
ATOM     34  C   UNL A   1      33.376  35.198  31.871  1.00  0.00     0.338 C 
ATOM     35  O   UNL A   1      32.937  36.276  32.235  1.00  0.00    -0.246 OA
BRANCH  34  36
ATOM     36  C   UNL A   1      34.415  34.460  32.592  1.00  0.00     0.060 A 
ATOM     37  C   UNL A   1      35.567  35.190  32.889  1.00  0.00     0.016 A 
ATOM     38  C   UNL A   1      34.402  33.059  32.537  1.00  0.00     0.016 A 
ATOM     39  C   UNL A   1      36.771  34.538  32.792  1.00  0.00     0.010 A 
ATOM     40  C   UNL A   1      35.603  32.415  32.425  1.00  0.00     0.010 A 
ATOM     41  C   UNL A   1      36.761  33.187  32.435  1.00  0.00    -0.014 A 
BRANCH  41  42
ATOM     42  C   UNL A   1      38.022  32.540  32.171  1.00  0.00     0.031 A 
ATOM     43  C   UNL A   1      38.816  32.414  33.409  1.00  0.00     0.074 A 
ATOM     44  C   UNL A   1      38.335  32.044  30.959  1.00  0.00     0.049 A 
ATOM     45  N   UNL A   1      39.854  33.103  33.741  1.00  0.00    -0.248 NA
ATOM     46  C   UNL A   1      38.234  31.630  34.511  1.00  0.00     0.031 C 
ATOM     47  C   UNL A   1      37.488  31.926  29.770  1.00  0.00     0.029 A 
ATOM     48  N   UNL A   1      39.493  31.445  30.571  1.00  0.00    -0.354 N 
ATOM     49  C   UNL A   1      40.190  32.658  35.013  1.00  0.00     0.074 A 
ATOM     50  C   UNL A   1      39.027  31.987  35.521  1.00  0.00     0.031 C 
ATOM     51  C   UNL A   1      38.078  31.092  28.881  1.00  0.00     0.029 A 
ATOM     52  C   UNL A   1      39.390  30.728  29.380  1.00  0.00     0.049 A 
ATOM     53  H   UNL A   1      40.331  31.512  31.085  1.00  0.00     0.167 HD
ATOM     54  C   UNL A   1      41.495  32.574  35.382  1.00  0.00     0.037 A 
ATOM     55  C   UNL A   1      40.310  29.829  28.936  1.00  0.00     0.037 A 
ATOM     56  C   UNL A   1      42.313  33.395  34.517  1.00  0.00     0.049 A 
ATOM     57  C   UNL A   1      41.586  30.134  29.645  1.00  0.00     0.074 A 
ATOM     58  C   UNL A   1      42.367  34.744  34.226  1.00  0.00     0.029 A 
ATOM     59  N   UNL A   1      42.982  32.762  33.498  1.00  0.00    -0.354 N 
ATOM     60  N   UNL A   1      42.259  31.238  29.462  1.00  0.00    -0.248 NA
ATOM     61  C   UNL A   1      41.812  29.467  30.921  1.00  0.00     0.031 C 
ATOM     62  C   UNL A   1      42.656  34.811  32.831  1.00  0.00     0.029 A 
ATOM     63  C   UNL A   1      42.845  33.511  32.361  1.00  0.00     0.049 A 
ATOM     64  H   UNL A   1      43.477  31.914  33.572  1.00  0.00     0.167 HD
ATOM     65  C   UNL A   1      42.648  31.630  30.736  1.00  0.00     0.074 A 
ATOM     66  C   UNL A   1      42.382  30.473  31.590  1.00  0.00     0.031 C 
ATOM     67  C   UNL A   1      42.856  32.945  31.033  1.00  0.00     0.037 A 
BRANCH  54  68
ATOM     68  C   UNL A   1      42.072  31.414  36.169  1.00  0.00     0.064 A 
ATOM     69  C   UNL A   1      42.957  31.714  37.223  1.00  0.00     0.173 A 
ATOM     70  C   UNL A   1      42.071  30.063  35.752  1.00  0.00     0.173 A 
ATOM     71  F   UNL A   1      43.032  32.956  37.723  1.00  0.00    -0.203 F 
ATOM     72  C   UNL A   1      43.865  30.774  37.716  1.00  0.00     0.198 A 
ATOM     73  C   UNL A   1      42.947  29.117  36.278  1.00  0.00     0.198 A 
ATOM     74  F   UNL A   1      41.308  29.601  34.759  1.00  0.00    -0.203 F 
ATOM     75  F   UNL A   1      44.787  31.150  38.612  1.00  0.00    -0.200 F 
ATOM     76  C   UNL A   1      43.872  29.481  37.229  1.00  0.00     0.200 A 
ATOM     77  F   UNL A   1      42.938  27.870  35.785  1.00  0.00    -0.200 F 
ATOM     78  F   UNL A   1      44.792  28.600  37.640  1.00  0.00    -0.200 F 
ENDBRANCH  54  68
BRANCH  55  79
ATOM     79  C   UNL A   1      40.055  28.522  28.280  1.00  0.00     0.064 A 
ATOM     80  C   UNL A   1      40.634  28.197  27.040  1.00  0.00     0.173 A 
ATOM     81  C   UNL A   1      39.461  27.456  28.985  1.00  0.00     0.173 A 
ATOM     82  F   UNL A   1      41.275  29.137  26.330  1.00  0.00    -0.203 F 
ATOM     83  C   UNL A   1      40.626  26.886  26.545  1.00  0.00     0.198 A 
ATOM     84  C   UNL A   1      39.451  26.150  28.489  1.00  0.00     0.198 A 
ATOM     85  F   UNL A   1      38.966  27.639  30.217  1.00  0.00    -0.203 F 
ATOM     86  F   UNL A   1      41.237  26.604  25.384  1.00  0.00    -0.200 F 
ATOM     87  C   UNL A   1      40.042  25.863  27.273  1.00  0.00     0.200 A 
ATOM     88  F   UNL A   1      38.922  25.164  29.226  1.00  0.00    -0.200 F 
ATOM     89  F   UNL A   1      40.084  24.600  26.828  1.00  0.00    -0.200 F 
ENDBRANCH  55  79
BRANCH  67  90
ATOM     90  C   UNL A   1      42.898  33.928  29.896  1.00  0.00     0.064 A 
ATOM     91  C   UNL A   1      44.034  34.167  29.105  1.00  0.00     0.173 A 
ATOM     92  C   UNL A   1      41.687  34.496  29.481  1.00  0.00     0.173 A 
ATOM     93  F   UNL A   1      45.207  33.584  29.388  1.00  0.00    -0.203 F 
ATOM     94  C   UNL A   1      43.959  34.960  27.958  1.00  0.00     0.198 A 
ATOM     95  C   UNL A   1      41.608  35.256  28.320  1.00  0.00     0.198 A 
ATOM     96  F   UNL A   1      40.563  34.255  30.173  1.00  0.00    -0.203 F 
ATOM     97  F   UNL A   1      45.054  35.170  27.212  1.00  0.00    -0.200 F 
ATOM     98  C   UNL A   1      42.743  35.493  27.561  1.00  0.00     0.200 A 
ATOM     99  F   UNL A   1      40.421  35.727  27.914  1.00  0.00    -0.200 F 
ATOM    100  F   UNL A   1      42.659  36.208  26.431  1.00  0.00    -0.200 F 
ENDBRANCH  67  90
ENDBRANCH  41  42
ENDBRANCH  34  36
ENDBRANCH  33  34
ENDBRANCH  32  33
ENDBRANCH  31  32
ENDBRANCH  30  31
ENDBRANCH   1  30
TORSDOF 18
ENDMDL
