MODEL 1
REMARK VINA RESULT:     -10.2      0.000      0.000
REMARK SMILES CCCOc1cncc(N[C@@](C)(C(=O)OCCOCCOC(=O)c2ccc(-c3c4nc(c(-c5c(F)c(F)c(F)c(F)c5F)c5ccc([nH]5)c(-c5c(F)c(F)c(F)c(F)c5F)c5nc(c(-c6c(F)c(F)c(F)c(F)c6F)c6ccc3[nH]6)C=C5)C=C4)cc2)C(F)(F)F)n1
REMARK SMILES IDX 16 1 15 2 13 3 14 4 11 5 12 6 10 7 9 9 5 10 6 11 91 12 7 13
REMARK SMILES IDX 8 14 4 15 3 16 2 17 1 18 87 19 88 20 89 21 90 22 17 23 18 24
REMARK SMILES IDX 19 25 20 26 21 27 22 28 23 29 24 30 25 31 86 32 26 33 85 34
REMARK SMILES IDX 27 35 28 36 29 37 79 38 30 39 84 40 78 41 80 42 31 43 83 44
REMARK SMILES IDX 77 45 76 46 32 48 64 49 44 50 63 51 45 52 48 53 62 54 81 55
REMARK SMILES IDX 46 56 47 57 61 59 82 60 49 61 33 62 34 63 42 64 35 65 36 66
REMARK SMILES IDX 40 67 43 68 37 69 38 70 41 71 39 72 65 73 66 74 74 75 67 76
REMARK SMILES IDX 68 77 72 78 75 79 69 80 70 81 73 82 71 83 50 84 51 85 59 86
REMARK SMILES IDX 52 87 53 88 57 89 60 90 54 91 55 92 58 93 56 94
REMARK H PARENT 10 8 80 47 48 58
REMARK Flexibility Score: inf
ROOT
ATOM      1  C   UNL A   1      32.472  28.162  26.484  1.00  0.00     0.261 C 
ENDROOT
BRANCH   1   2
ATOM      2  O   UNL A   1      32.175  27.998  25.086  1.00  0.00    -0.461 OA
BRANCH   2   3
ATOM      3  C   UNL A   1      32.745  26.890  24.511  1.00  0.00     0.341 C 
ATOM      4  O   UNL A   1      33.859  26.484  24.815  1.00  0.00    -0.249 OA
BRANCH   3   5
ATOM      5  C   UNL A   1      31.858  26.277  23.408  1.00  0.00     0.230 C 
ATOM      6  C   UNL A   1      30.578  27.120  23.336  1.00  0.00     0.058 C 
BRANCH   5   7
ATOM      7  N   UNL A   1      31.469  24.860  23.770  1.00  0.00    -0.346 N 
ATOM      8  H   UNL A   1      31.013  24.359  23.054  1.00  0.00     0.163 HD
BRANCH   7   9
ATOM      9  C   UNL A   1      31.652  24.161  24.938  1.00  0.00     0.149 A 
ATOM     10  C   UNL A   1      32.996  22.719  26.140  1.00  0.00     0.234 A 
ATOM     11  C   UNL A   1      32.225  22.904  27.275  1.00  0.00     0.179 A 
ATOM     12  N   UNL A   1      32.744  23.359  24.967  1.00  0.00    -0.193 NA
ATOM     13  N   UNL A   1      31.079  23.598  27.243  1.00  0.00    -0.255 NA
ATOM     14  C   UNL A   1      30.807  24.184  26.051  1.00  0.00     0.158 A 
BRANCH  10  15
ATOM     15  O   UNL A   1      34.100  21.904  26.208  1.00  0.00    -0.477 OA
BRANCH  15  16
ATOM     16  C   UNL A   1      34.735  21.759  24.924  1.00  0.00     0.231 C 
BRANCH  16  17
ATOM     17  C   UNL A   1      36.201  22.220  24.915  1.00  0.00     0.038 C 
ATOM     18  C   UNL A   1      36.643  22.758  23.557  1.00  0.00     0.007 C 
ENDBRANCH  16  17
ENDBRANCH  15  16
ENDBRANCH  10  15
ENDBRANCH   7   9
ENDBRANCH   5   7
BRANCH   5  19
ATOM     19  C   UNL A   1      32.677  26.489  22.119  1.00  0.00     0.422 C 
ATOM     20  F   UNL A   1      33.666  25.573  21.997  1.00  0.00    -0.168 F 
ATOM     21  F   UNL A   1      31.884  26.372  21.020  1.00  0.00    -0.168 F 
ATOM     22  F   UNL A   1      33.229  27.717  22.011  1.00  0.00    -0.168 F 
ENDBRANCH   5  19
ENDBRANCH   3   5
ENDBRANCH   2   3
ENDBRANCH   1   2
BRANCH   1  23
ATOM     23  C   UNL A   1      32.606  29.621  26.942  1.00  0.00     0.202 C 
BRANCH  23  24
ATOM     24  O   UNL A   1      32.168  30.659  26.078  1.00  0.00    -0.374 OA
BRANCH  24  25
ATOM     25  C   UNL A   1      31.402  31.729  26.625  1.00  0.00     0.202 C 
BRANCH  25  26
ATOM     26  C   UNL A   1      32.085  33.081  26.880  1.00  0.00     0.261 C 
BRANCH  26  27
ATOM     27  O   UNL A   1      32.636  33.214  28.204  1.00  0.00    -0.460 OA
BRANCH  27  28
ATOM     28  C   UNL A   1      33.730  34.015  28.270  1.00  0.00     0.338 C 
ATOM     29  O   UNL A   1      33.758  35.234  28.295  1.00  0.00    -0.246 OA
BRANCH  28  30
ATOM     30  C   UNL A   1      34.950  33.217  28.491  1.00  0.00     0.060 A 
ATOM     31  C   UNL A   1      34.788  31.925  29.007  1.00  0.00     0.016 A 
ATOM     32  C   UNL A   1      36.225  33.764  28.337  1.00  0.00     0.016 A 
ATOM     33  C   UNL A   1      35.898  31.196  29.426  1.00  0.00     0.010 A 
ATOM     34  C   UNL A   1      37.340  33.034  28.767  1.00  0.00     0.010 A 
ATOM     35  C   UNL A   1      37.177  31.764  29.352  1.00  0.00    -0.014 A 
BRANCH  35  36
ATOM     36  C   UNL A   1      38.301  31.082  30.042  1.00  0.00     0.031 A 
ATOM     37  C   UNL A   1      38.564  31.390  31.492  1.00  0.00     0.074 A 
ATOM     38  C   UNL A   1      39.023  30.140  29.412  1.00  0.00     0.049 A 
ATOM     39  N   UNL A   1      39.448  30.870  32.306  1.00  0.00    -0.248 NA
ATOM     40  C   UNL A   1      37.710  32.418  32.109  1.00  0.00     0.031 C 
ATOM     41  C   UNL A   1      38.839  29.723  28.024  1.00  0.00     0.029 A 
ATOM     42  N   UNL A   1      40.053  29.354  29.866  1.00  0.00    -0.354 N 
ATOM     43  C   UNL A   1      39.247  31.495  33.530  1.00  0.00     0.074 A 
ATOM     44  C   UNL A   1      38.187  32.463  33.344  1.00  0.00     0.031 C 
ATOM     45  C   UNL A   1      39.725  28.753  27.739  1.00  0.00     0.029 A 
ATOM     46  C   UNL A   1      40.549  28.495  28.918  1.00  0.00     0.049 A 
ATOM     47  H   UNL A   1      40.402  29.401  30.785  1.00  0.00     0.167 HD
ATOM     48  C   UNL A   1      39.874  31.270  34.709  1.00  0.00     0.037 A 
ATOM     49  C   UNL A   1      41.558  27.605  28.996  1.00  0.00     0.037 A 
ATOM     50  C   UNL A   1      40.937  30.316  34.897  1.00  0.00     0.049 A 
ATOM     51  C   UNL A   1      42.290  27.428  30.300  1.00  0.00     0.074 A 
ATOM     52  C   UNL A   1      41.650  30.030  36.048  1.00  0.00     0.029 A 
ATOM     53  N   UNL A   1      41.440  29.493  33.900  1.00  0.00    -0.354 N 
ATOM     54  N   UNL A   1      42.080  28.011  31.457  1.00  0.00    -0.248 NA
ATOM     55  C   UNL A   1      43.396  26.459  30.312  1.00  0.00     0.031 C 
ATOM     56  C   UNL A   1      42.609  29.058  35.739  1.00  0.00     0.029 A 
ATOM     57  C   UNL A   1      42.463  28.709  34.407  1.00  0.00     0.049 A 
ATOM     58  H   UNL A   1      41.117  29.470  32.970  1.00  0.00     0.167 HD
ATOM     59  C   UNL A   1      43.001  27.457  32.337  1.00  0.00     0.074 A 
ATOM     60  C   UNL A   1      43.764  26.482  31.585  1.00  0.00     0.031 C 
ATOM     61  C   UNL A   1      43.201  27.732  33.649  1.00  0.00     0.037 A 
BRANCH  48  62
ATOM     62  C   UNL A   1      39.432  32.079  35.893  1.00  0.00     0.064 A 
ATOM     63  C   UNL A   1      40.021  33.318  36.191  1.00  0.00     0.173 A 
ATOM     64  C   UNL A   1      38.389  31.632  36.717  1.00  0.00     0.173 A 
ATOM     65  F   UNL A   1      41.031  33.782  35.442  1.00  0.00    -0.203 F 
ATOM     66  C   UNL A   1      39.593  34.068  37.284  1.00  0.00     0.198 A 
ATOM     67  C   UNL A   1      37.948  32.396  37.793  1.00  0.00     0.198 A 
ATOM     68  F   UNL A   1      37.792  30.455  36.472  1.00  0.00    -0.203 F 
ATOM     69  F   UNL A   1      40.196  35.230  37.573  1.00  0.00    -0.200 F 
ATOM     70  C   UNL A   1      38.554  33.610  38.079  1.00  0.00     0.200 A 
ATOM     71  F   UNL A   1      36.937  31.957  38.555  1.00  0.00    -0.200 F 
ATOM     72  F   UNL A   1      38.140  34.337  39.127  1.00  0.00    -0.200 F 
ENDBRANCH  48  62
BRANCH  49  73
ATOM     73  C   UNL A   1      41.941  26.803  27.803  1.00  0.00     0.064 A 
ATOM     74  C   UNL A   1      41.354  25.555  27.552  1.00  0.00     0.173 A 
ATOM     75  C   UNL A   1      42.929  27.252  26.916  1.00  0.00     0.173 A 
ATOM     76  F   UNL A   1      40.423  25.072  28.388  1.00  0.00    -0.203 F 
ATOM     77  C   UNL A   1      41.760  24.774  26.473  1.00  0.00     0.198 A 
ATOM     78  C   UNL A   1      43.314  26.483  25.819  1.00  0.00     0.198 A 
ATOM     79  F   UNL A   1      43.522  28.438  27.113  1.00  0.00    -0.203 F 
ATOM     80  F   UNL A   1      41.223  23.561  26.286  1.00  0.00    -0.200 F 
ATOM     81  C   UNL A   1      42.737  25.240  25.605  1.00  0.00     0.200 A 
ATOM     82  F   UNL A   1      44.252  26.940  24.979  1.00  0.00    -0.200 F 
ATOM     83  F   UNL A   1      43.131  24.487  24.569  1.00  0.00    -0.200 F 
ENDBRANCH  49  73
BRANCH  61  84
ATOM     84  C   UNL A   1      44.254  26.937  34.364  1.00  0.00     0.064 A 
ATOM     85  C   UNL A   1      43.965  25.703  34.966  1.00  0.00     0.173 A 
ATOM     86  C   UNL A   1      45.575  27.407  34.430  1.00  0.00     0.173 A 
ATOM     87  F   UNL A   1      42.714  25.219  34.943  1.00  0.00    -0.203 F 
ATOM     88  C   UNL A   1      44.952  24.985  35.635  1.00  0.00     0.198 A 
ATOM     89  C   UNL A   1      46.566  26.671  35.075  1.00  0.00     0.198 A 
ATOM     90  F   UNL A   1      45.906  28.577  33.864  1.00  0.00    -0.203 F 
ATOM     91  F   UNL A   1      44.640  23.835  36.249  1.00  0.00    -0.200 F 
ATOM     92  C   UNL A   1      46.251  25.466  35.686  1.00  0.00     0.200 A 
ATOM     93  F   UNL A   1      47.824  27.132  35.113  1.00  0.00    -0.200 F 
ATOM     94  F   UNL A   1      47.200  24.774  36.331  1.00  0.00    -0.200 F 
ENDBRANCH  61  84
ENDBRANCH  35  36
ENDBRANCH  28  30
ENDBRANCH  27  28
ENDBRANCH  26  27
ENDBRANCH  25  26
ENDBRANCH  24  25
ENDBRANCH  23  24
ENDBRANCH   1  23
TORSDOF 20
ENDMDL
MODEL 2
REMARK VINA RESULT:     -10.2      0.426      1.974
REMARK SMILES CCCOc1cncc(N[C@@](C)(C(=O)OCCOCCOC(=O)c2ccc(-c3c4nc(c(-c5c(F)c(F)c(F)c(F)c5F)c5ccc([nH]5)c(-c5c(F)c(F)c(F)c(F)c5F)c5nc(c(-c6c(F)c(F)c(F)c(F)c6F)c6ccc3[nH]6)C=C5)C=C4)cc2)C(F)(F)F)n1
REMARK SMILES IDX 16 1 15 2 13 3 14 4 11 5 12 6 10 7 9 9 5 10 6 11 91 12 7 13
REMARK SMILES IDX 8 14 4 15 3 16 2 17 1 18 87 19 88 20 89 21 90 22 17 23 18 24
REMARK SMILES IDX 19 25 20 26 21 27 22 28 23 29 24 30 25 31 86 32 26 33 85 34
REMARK SMILES IDX 27 35 28 36 29 37 79 38 30 39 84 40 78 41 80 42 31 43 83 44
REMARK SMILES IDX 77 45 76 46 32 48 64 49 44 50 63 51 45 52 48 53 62 54 81 55
REMARK SMILES IDX 46 56 47 57 61 59 82 60 49 61 33 62 34 63 42 64 35 65 36 66
REMARK SMILES IDX 40 67 43 68 37 69 38 70 41 71 39 72 65 73 66 74 74 75 67 76
REMARK SMILES IDX 68 77 72 78 75 79 69 80 70 81 73 82 71 83 50 84 51 85 59 86
REMARK SMILES IDX 52 87 53 88 57 89 60 90 54 91 55 92 58 93 56 94
REMARK H PARENT 10 8 80 47 48 58
REMARK Flexibility Score: inf
ROOT
ATOM      1  C   UNL A   1      31.903  28.276  26.886  1.00  0.00     0.261 C 
ENDROOT
BRANCH   1   2
ATOM      2  O   UNL A   1      31.465  27.993  25.545  1.00  0.00    -0.461 OA
BRANCH   2   3
ATOM      3  C   UNL A   1      32.295  27.154  24.842  1.00  0.00     0.341 C 
ATOM      4  O   UNL A   1      33.502  27.096  25.042  1.00  0.00    -0.249 OA
BRANCH   3   5
ATOM      5  C   UNL A   1      31.547  26.369  23.746  1.00  0.00     0.230 C 
ATOM      6  C   UNL A   1      30.063  26.738  23.857  1.00  0.00     0.058 C 
BRANCH   5   7
ATOM      7  N   UNL A   1      31.680  24.879  23.980  1.00  0.00    -0.346 N 
ATOM      8  H   UNL A   1      31.561  24.321  23.178  1.00  0.00     0.163 HD
BRANCH   7   9
ATOM      9  C   UNL A   1      31.941  24.183  25.135  1.00  0.00     0.149 A 
ATOM     10  C   UNL A   1      33.503  23.041  26.395  1.00  0.00     0.234 A 
ATOM     11  C   UNL A   1      32.631  22.977  27.468  1.00  0.00     0.179 A 
ATOM     12  N   UNL A   1      33.190  23.663  25.227  1.00  0.00    -0.193 NA
ATOM     13  N   UNL A   1      31.356  23.379  27.365  1.00  0.00    -0.255 NA
ATOM     14  C   UNL A   1      31.038  23.946  26.175  1.00  0.00     0.158 A 
BRANCH  10  15
ATOM     15  O   UNL A   1      34.763  22.509  26.526  1.00  0.00    -0.477 OA
BRANCH  15  16
ATOM     16  C   UNL A   1      35.271  22.025  25.269  1.00  0.00     0.231 C 
BRANCH  16  17
ATOM     17  C   UNL A   1      36.505  22.797  24.775  1.00  0.00     0.038 C 
ATOM     18  C   UNL A   1      36.573  22.892  23.253  1.00  0.00     0.007 C 
ENDBRANCH  16  17
ENDBRANCH  15  16
ENDBRANCH  10  15
ENDBRANCH   7   9
ENDBRANCH   5   7
BRANCH   5  19
ATOM     19  C   UNL A   1      32.115  26.941  22.432  1.00  0.00     0.422 C 
ATOM     20  F   UNL A   1      33.416  26.609  22.261  1.00  0.00    -0.168 F 
ATOM     21  F   UNL A   1      31.433  26.454  21.361  1.00  0.00    -0.168 F 
ATOM     22  F   UNL A   1      32.007  28.283  22.323  1.00  0.00    -0.168 F 
ENDBRANCH   5  19
ENDBRANCH   3   5
ENDBRANCH   2   3
ENDBRANCH   1   2
BRANCH   1  23
ATOM     23  C   UNL A   1      32.311  29.736  27.129  1.00  0.00     0.202 C 
BRANCH  23  24
ATOM     24  O   UNL A   1      31.934  30.725  26.182  1.00  0.00    -0.374 OA
BRANCH  24  25
ATOM     25  C   UNL A   1      31.269  31.898  26.645  1.00  0.00     0.202 C 
BRANCH  25  26
ATOM     26  C   UNL A   1      32.080  33.186  26.846  1.00  0.00     0.261 C 
BRANCH  26  27
ATOM     27  O   UNL A   1      32.521  33.390  28.201  1.00  0.00    -0.460 OA
BRANCH  27  28
ATOM     28  C   UNL A   1      33.625  34.174  28.313  1.00  0.00     0.338 C 
ATOM     29  O   UNL A   1      33.668  35.391  28.364  1.00  0.00    -0.246 OA
BRANCH  28  30
ATOM     30  C   UNL A   1      34.827  33.354  28.546  1.00  0.00     0.060 A 
ATOM     31  C   UNL A   1      34.652  32.129  29.203  1.00  0.00     0.016 A 
ATOM     32  C   UNL A   1      36.108  33.831  28.263  1.00  0.00     0.016 A 
ATOM     33  C   UNL A   1      35.760  31.403  29.631  1.00  0.00     0.010 A 
ATOM     34  C   UNL A   1      37.222  33.103  28.702  1.00  0.00     0.010 A 
ATOM     35  C   UNL A   1      37.052  31.908  29.426  1.00  0.00    -0.014 A 
BRANCH  35  36
ATOM     36  C   UNL A   1      38.191  31.255  30.117  1.00  0.00     0.031 A 
ATOM     37  C   UNL A   1      38.451  31.580  31.564  1.00  0.00     0.074 A 
ATOM     38  C   UNL A   1      38.932  30.323  29.493  1.00  0.00     0.049 A 
ATOM     39  N   UNL A   1      39.348  31.085  32.380  1.00  0.00    -0.248 NA
ATOM     40  C   UNL A   1      37.577  32.595  32.175  1.00  0.00     0.031 C 
ATOM     41  C   UNL A   1      38.752  29.892  28.108  1.00  0.00     0.029 A 
ATOM     42  N   UNL A   1      39.979  29.563  29.950  1.00  0.00    -0.354 N 
ATOM     43  C   UNL A   1      39.136  31.715  33.600  1.00  0.00     0.074 A 
ATOM     44  C   UNL A   1      38.056  32.659  33.409  1.00  0.00     0.031 C 
ATOM     45  C   UNL A   1      39.658  28.939  27.829  1.00  0.00     0.029 A 
ATOM     46  C   UNL A   1      40.491  28.707  29.008  1.00  0.00     0.049 A 
ATOM     47  H   UNL A   1      40.329  29.625  30.869  1.00  0.00     0.167 HD
ATOM     48  C   UNL A   1      39.772  31.512  34.779  1.00  0.00     0.037 A 
ATOM     49  C   UNL A   1      41.518  27.839  29.090  1.00  0.00     0.037 A 
ATOM     50  C   UNL A   1      40.854  30.583  34.972  1.00  0.00     0.049 A 
ATOM     51  C   UNL A   1      42.257  27.688  30.394  1.00  0.00     0.074 A 
ATOM     52  C   UNL A   1      41.576  30.321  36.123  1.00  0.00     0.029 A 
ATOM     53  N   UNL A   1      41.373  29.763  33.980  1.00  0.00    -0.354 N 
ATOM     54  N   UNL A   1      42.037  28.275  31.546  1.00  0.00    -0.248 NA
ATOM     55  C   UNL A   1      43.384  26.743  30.410  1.00  0.00     0.031 C 
ATOM     56  C   UNL A   1      42.555  29.367  35.819  1.00  0.00     0.029 A 
ATOM     57  C   UNL A   1      42.413  29.004  34.490  1.00  0.00     0.049 A 
ATOM     58  H   UNL A   1      41.048  29.726  33.051  1.00  0.00     0.167 HD
ATOM     59  C   UNL A   1      42.972  27.748  32.428  1.00  0.00     0.074 A 
ATOM     60  C   UNL A   1      43.753  26.783  31.682  1.00  0.00     0.031 C 
ATOM     61  C   UNL A   1      43.170  28.037  33.738  1.00  0.00     0.037 A 
BRANCH  48  62
ATOM     62  C   UNL A   1      39.315  32.321  35.957  1.00  0.00     0.064 A 
ATOM     63  C   UNL A   1      38.353  31.830  36.853  1.00  0.00     0.173 A 
ATOM     64  C   UNL A   1      39.867  33.584  36.216  1.00  0.00     0.173 A 
ATOM     65  F   UNL A   1      37.784  30.634  36.641  1.00  0.00    -0.203 F 
ATOM     66  C   UNL A   1      37.947  32.583  37.951  1.00  0.00     0.198 A 
ATOM     67  C   UNL A   1      39.477  34.324  37.329  1.00  0.00     0.198 A 
ATOM     68  F   UNL A   1      40.793  34.098  35.391  1.00  0.00    -0.203 F 
ATOM     69  F   UNL A   1      36.997  32.110  38.771  1.00  0.00    -0.200 F 
ATOM     70  C   UNL A   1      38.513  33.825  38.192  1.00  0.00     0.200 A 
ATOM     71  F   UNL A   1      40.033  35.520  37.566  1.00  0.00    -0.200 F 
ATOM     72  F   UNL A   1      38.125  34.545  39.254  1.00  0.00    -0.200 F 
ENDBRANCH  48  62
BRANCH  49  73
ATOM     73  C   UNL A   1      41.915  27.037  27.903  1.00  0.00     0.064 A 
ATOM     74  C   UNL A   1      42.845  27.528  26.975  1.00  0.00     0.173 A 
ATOM     75  C   UNL A   1      41.340  25.783  27.651  1.00  0.00     0.173 A 
ATOM     76  F   UNL A   1      43.401  28.734  27.160  1.00  0.00    -0.203 F 
ATOM     77  C   UNL A   1      43.167  26.805  25.829  1.00  0.00     0.198 A 
ATOM     78  C   UNL A   1      41.684  25.048  26.518  1.00  0.00     0.198 A 
ATOM     79  F   UNL A   1      40.444  25.270  28.506  1.00  0.00    -0.203 F 
ATOM     80  F   UNL A   1      44.017  27.321  24.931  1.00  0.00    -0.200 F 
ATOM     81  C   UNL A   1      42.589  25.564  25.602  1.00  0.00     0.200 A 
ATOM     82  F   UNL A   1      41.131  23.846  26.308  1.00  0.00    -0.200 F 
ATOM     83  F   UNL A   1      42.895  24.872  24.497  1.00  0.00    -0.200 F 
ENDBRANCH  49  73
BRANCH  61  84
ATOM     84  C   UNL A   1      44.241  27.270  34.456  1.00  0.00     0.064 A 
ATOM     85  C   UNL A   1      45.557  27.747  34.543  1.00  0.00     0.173 A 
ATOM     86  C   UNL A   1      43.941  26.051  35.082  1.00  0.00     0.173 A 
ATOM     87  F   UNL A   1      45.897  28.900  33.949  1.00  0.00    -0.203 F 
ATOM     88  C   UNL A   1      46.541  27.016  35.203  1.00  0.00     0.198 A 
ATOM     89  C   UNL A   1      44.921  25.336  35.767  1.00  0.00     0.198 A 
ATOM     90  F   UNL A   1      42.696  25.553  35.035  1.00  0.00    -0.203 F 
ATOM     91  F   UNL A   1      47.804  27.465  35.228  1.00  0.00    -0.200 F 
ATOM     92  C   UNL A   1      46.222  25.814  35.818  1.00  0.00     0.200 A 
ATOM     93  F   UNL A   1      44.608  24.181  36.370  1.00  0.00    -0.200 F 
ATOM     94  F   UNL A   1      47.170  25.112  36.452  1.00  0.00    -0.200 F 
ENDBRANCH  61  84
ENDBRANCH  35  36
ENDBRANCH  28  30
ENDBRANCH  27  28
ENDBRANCH  26  27
ENDBRANCH  25  26
ENDBRANCH  24  25
ENDBRANCH  23  24
ENDBRANCH   1  23
TORSDOF 20
ENDMDL
MODEL 3
REMARK VINA RESULT:     -10.2      4.291      9.981
REMARK SMILES CCCOc1cncc(N[C@@](C)(C(=O)OCCOCCOC(=O)c2ccc(-c3c4nc(c(-c5c(F)c(F)c(F)c(F)c5F)c5ccc([nH]5)c(-c5c(F)c(F)c(F)c(F)c5F)c5nc(c(-c6c(F)c(F)c(F)c(F)c6F)c6ccc3[nH]6)C=C5)C=C4)cc2)C(F)(F)F)n1
REMARK SMILES IDX 16 1 15 2 13 3 14 4 11 5 12 6 10 7 9 9 5 10 6 11 91 12 7 13
REMARK SMILES IDX 8 14 4 15 3 16 2 17 1 18 87 19 88 20 89 21 90 22 17 23 18 24
REMARK SMILES IDX 19 25 20 26 21 27 22 28 23 29 24 30 25 31 86 32 26 33 85 34
REMARK SMILES IDX 27 35 28 36 29 37 79 38 30 39 84 40 78 41 80 42 31 43 83 44
REMARK SMILES IDX 77 45 76 46 32 48 64 49 44 50 63 51 45 52 48 53 62 54 81 55
REMARK SMILES IDX 46 56 47 57 61 59 82 60 49 61 33 62 34 63 42 64 35 65 36 66
REMARK SMILES IDX 40 67 43 68 37 69 38 70 41 71 39 72 65 73 66 74 74 75 67 76
REMARK SMILES IDX 68 77 72 78 75 79 69 80 70 81 73 82 71 83 50 84 51 85 59 86
REMARK SMILES IDX 52 87 53 88 57 89 60 90 54 91 55 92 58 93 56 94
REMARK H PARENT 10 8 80 47 48 58
REMARK Flexibility Score: inf
ROOT
ATOM      1  C   UNL A   1      33.268  20.489  25.763  1.00  0.00     0.261 C 
ENDROOT
BRANCH   1   2
ATOM      2  O   UNL A   1      32.081  21.108  25.238  1.00  0.00    -0.461 OA
BRANCH   2   3
ATOM      3  C   UNL A   1      32.297  22.312  24.614  1.00  0.00     0.341 C 
ATOM      4  O   UNL A   1      33.157  22.469  23.756  1.00  0.00    -0.249 OA
BRANCH   3   5
ATOM      5  C   UNL A   1      31.393  23.432  25.167  1.00  0.00     0.230 C 
ATOM      6  C   UNL A   1      30.395  22.775  26.129  1.00  0.00     0.058 C 
BRANCH   5   7
ATOM      7  N   UNL A   1      30.610  24.081  24.046  1.00  0.00    -0.346 N 
ATOM      8  H   UNL A   1      30.163  23.451  23.435  1.00  0.00     0.163 HD
BRANCH   7   9
ATOM      9  C   UNL A   1      30.423  25.408  23.748  1.00  0.00     0.149 A 
ATOM     10  C   UNL A   1      31.335  27.344  22.881  1.00  0.00     0.234 A 
ATOM     11  C   UNL A   1      30.104  27.974  22.921  1.00  0.00     0.179 A 
ATOM     12  N   UNL A   1      31.513  26.051  23.263  1.00  0.00    -0.193 NA
ATOM     13  N   UNL A   1      29.038  27.404  23.500  1.00  0.00    -0.255 NA
ATOM     14  C   UNL A   1      29.243  26.135  23.932  1.00  0.00     0.158 A 
BRANCH  10  15
ATOM     15  O   UNL A   1      32.418  28.024  22.376  1.00  0.00    -0.477 OA
BRANCH  15  16
ATOM     16  C   UNL A   1      33.581  27.868  23.211  1.00  0.00     0.231 C 
BRANCH  16  17
ATOM     17  C   UNL A   1      33.599  28.825  24.412  1.00  0.00     0.038 C 
ATOM     18  C   UNL A   1      33.727  28.096  25.748  1.00  0.00     0.007 C 
ENDBRANCH  16  17
ENDBRANCH  15  16
ENDBRANCH  10  15
ENDBRANCH   7   9
ENDBRANCH   5   7
BRANCH   5  19
ATOM     19  C   UNL A   1      32.362  24.322  25.972  1.00  0.00     0.422 C 
ATOM     20  F   UNL A   1      33.307  24.879  25.179  1.00  0.00    -0.168 F 
ATOM     21  F   UNL A   1      31.693  25.340  26.575  1.00  0.00    -0.168 F 
ATOM     22  F   UNL A   1      32.989  23.680  26.983  1.00  0.00    -0.168 F 
ENDBRANCH   5  19
ENDBRANCH   3   5
ENDBRANCH   2   3
ENDBRANCH   1   2
BRANCH   1  23
ATOM     23  C   UNL A   1      33.828  19.347  24.903  1.00  0.00     0.202 C 
BRANCH  23  24
ATOM     24  O   UNL A   1      35.224  19.292  24.653  1.00  0.00    -0.374 OA
BRANCH  24  25
ATOM     25  C   UNL A   1      36.027  20.418  25.001  1.00  0.00     0.202 C 
BRANCH  25  26
ATOM     26  C   UNL A   1      37.555  20.269  25.016  1.00  0.00     0.261 C 
BRANCH  26  27
ATOM     27  O   UNL A   1      38.253  21.475  25.379  1.00  0.00    -0.460 OA
BRANCH  27  28
ATOM     28  C   UNL A   1      39.368  21.267  26.126  1.00  0.00     0.338 C 
ATOM     29  O   UNL A   1      40.085  20.281  26.130  1.00  0.00    -0.246 OA
BRANCH  28  30
ATOM     30  C   UNL A   1      39.744  22.491  26.857  1.00  0.00     0.060 A 
ATOM     31  C   UNL A   1      39.113  23.683  26.480  1.00  0.00     0.016 A 
ATOM     32  C   UNL A   1      40.787  22.502  27.784  1.00  0.00     0.016 A 
ATOM     33  C   UNL A   1      39.563  24.900  26.986  1.00  0.00     0.010 A 
ATOM     34  C   UNL A   1      41.244  23.728  28.285  1.00  0.00     0.010 A 
ATOM     35  C   UNL A   1      40.661  24.935  27.856  1.00  0.00    -0.014 A 
BRANCH  35  36
ATOM     36  C   UNL A   1      41.283  26.246  28.168  1.00  0.00     0.031 A 
ATOM     37  C   UNL A   1      42.690  26.517  27.705  1.00  0.00     0.074 A 
ATOM     38  C   UNL A   1      40.577  27.212  28.779  1.00  0.00     0.049 A 
ATOM     39  N   UNL A   1      43.405  27.609  27.813  1.00  0.00    -0.248 NA
ATOM     40  C   UNL A   1      43.380  25.411  27.024  1.00  0.00     0.031 C 
ATOM     41  C   UNL A   1      39.195  27.086  29.238  1.00  0.00     0.029 A 
ATOM     42  N   UNL A   1      40.926  28.498  29.110  1.00  0.00    -0.354 N 
ATOM     43  C   UNL A   1      44.620  27.326  27.201  1.00  0.00     0.074 A 
ATOM     44  C   UNL A   1      44.563  25.948  26.762  1.00  0.00     0.031 C 
ATOM     45  C   UNL A   1      38.811  28.251  29.787  1.00  0.00     0.029 A 
ATOM     46  C   UNL A   1      39.925  29.197  29.736  1.00  0.00     0.049 A 
ATOM     47  H   UNL A   1      41.811  28.883  28.915  1.00  0.00     0.167 HD
ATOM     48  C   UNL A   1      45.680  28.145  27.004  1.00  0.00     0.037 A 
ATOM     49  C   UNL A   1      39.913  30.456  30.216  1.00  0.00     0.037 A 
ATOM     50  C   UNL A   1      45.746  29.513  27.449  1.00  0.00     0.049 A 
ATOM     51  C   UNL A   1      41.135  31.322  30.051  1.00  0.00     0.074 A 
ATOM     52  C   UNL A   1      46.784  30.418  27.316  1.00  0.00     0.029 A 
ATOM     53  N   UNL A   1      44.725  30.172  28.118  1.00  0.00    -0.354 N 
ATOM     54  N   UNL A   1      42.271  31.050  29.455  1.00  0.00    -0.248 NA
ATOM     55  C   UNL A   1      41.067  32.676  30.619  1.00  0.00     0.031 C 
ATOM     56  C   UNL A   1      46.406  31.614  27.936  1.00  0.00     0.029 A 
ATOM     57  C   UNL A   1      45.115  31.467  28.416  1.00  0.00     0.049 A 
ATOM     58  H   UNL A   1      43.852  29.777  28.347  1.00  0.00     0.167 HD
ATOM     59  C   UNL A   1      43.036  32.206  29.546  1.00  0.00     0.074 A 
ATOM     60  C   UNL A   1      42.231  33.187  30.244  1.00  0.00     0.031 C 
ATOM     61  C   UNL A   1      44.295  32.436  29.097  1.00  0.00     0.037 A 
BRANCH  48  62
ATOM     62  C   UNL A   1      46.866  27.578  26.281  1.00  0.00     0.064 A 
ATOM     63  C   UNL A   1      47.893  26.915  26.970  1.00  0.00     0.173 A 
ATOM     64  C   UNL A   1      46.963  27.668  24.885  1.00  0.00     0.173 A 
ATOM     65  F   UNL A   1      47.854  26.815  28.306  1.00  0.00    -0.203 F 
ATOM     66  C   UNL A   1      48.982  26.379  26.287  1.00  0.00     0.198 A 
ATOM     67  C   UNL A   1      48.041  27.110  24.204  1.00  0.00     0.198 A 
ATOM     68  F   UNL A   1      46.005  28.290  24.180  1.00  0.00    -0.203 F 
ATOM     69  F   UNL A   1      49.971  25.784  26.970  1.00  0.00    -0.200 F 
ATOM     70  C   UNL A   1      49.052  26.471  24.905  1.00  0.00     0.200 A 
ATOM     71  F   UNL A   1      48.102  27.191  22.867  1.00  0.00    -0.200 F 
ATOM     72  F   UNL A   1      50.099  25.950  24.250  1.00  0.00    -0.200 F 
ENDBRANCH  48  62
BRANCH  49  73
ATOM     73  C   UNL A   1      38.703  30.984  30.900  1.00  0.00     0.064 A 
ATOM     74  C   UNL A   1      38.567  30.906  32.293  1.00  0.00     0.173 A 
ATOM     75  C   UNL A   1      37.642  31.538  30.170  1.00  0.00     0.173 A 
ATOM     76  F   UNL A   1      39.545  30.360  33.032  1.00  0.00    -0.203 F 
ATOM     77  C   UNL A   1      37.406  31.340  32.928  1.00  0.00     0.198 A 
ATOM     78  C   UNL A   1      36.492  31.998  30.809  1.00  0.00     0.198 A 
ATOM     79  F   UNL A   1      37.722  31.633  28.835  1.00  0.00    -0.203 F 
ATOM     80  F   UNL A   1      37.279  31.204  34.255  1.00  0.00    -0.200 F 
ATOM     81  C   UNL A   1      36.370  31.888  32.186  1.00  0.00     0.200 A 
ATOM     82  F   UNL A   1      35.498  32.535  30.089  1.00  0.00    -0.200 F 
ATOM     83  F   UNL A   1      35.251  32.302  32.796  1.00  0.00    -0.200 F 
ENDBRANCH  49  73
BRANCH  61  84
ATOM     84  C   UNL A   1      44.857  33.811  29.305  1.00  0.00     0.064 A 
ATOM     85  C   UNL A   1      45.601  34.139  30.448  1.00  0.00     0.173 A 
ATOM     86  C   UNL A   1      44.666  34.809  28.337  1.00  0.00     0.173 A 
ATOM     87  F   UNL A   1      45.799  33.223  31.408  1.00  0.00    -0.203 F 
ATOM     88  C   UNL A   1      46.105  35.424  30.630  1.00  0.00     0.198 A 
ATOM     89  C   UNL A   1      45.196  36.085  28.508  1.00  0.00     0.198 A 
ATOM     90  F   UNL A   1      43.968  34.547  27.222  1.00  0.00    -0.203 F 
ATOM     91  F   UNL A   1      46.767  35.729  31.755  1.00  0.00    -0.200 F 
ATOM     92  C   UNL A   1      45.906  36.394  29.659  1.00  0.00     0.200 A 
ATOM     93  F   UNL A   1      45.013  37.019  27.564  1.00  0.00    -0.200 F 
ATOM     94  F   UNL A   1      46.392  37.630  29.836  1.00  0.00    -0.200 F 
ENDBRANCH  61  84
ENDBRANCH  35  36
ENDBRANCH  28  30
ENDBRANCH  27  28
ENDBRANCH  26  27
ENDBRANCH  25  26
ENDBRANCH  24  25
ENDBRANCH  23  24
ENDBRANCH   1  23
TORSDOF 20
ENDMDL
