MODEL 1
REMARK VINA RESULT:     -10.9      0.000      0.000
REMARK SMILES C[C@@H]1CC(=O)N(CC(C)(C)C(=O)OCCOCCOC(=O)c2ccc(-c3c4nc(c(-c5c(F)c(F)c(F)c(F)c5F)c5ccc([nH]5)c(-c5c(F)c(F)c(F)c(F)c5F)c5nc(c(-c6c(F)c(F)c(F)c(F)c6F)c6ccc3[nH]6)C=C5)C=C4)cc2)C1
REMARK SMILES IDX 16 1 15 2 14 3 13 4 11 5 12 6 8 7 9 8 10 9 7 10 6 11 1 12
REMARK SMILES IDX 2 13 3 14 85 15 4 16 5 17 17 18 18 19 19 20 20 21 21 22
REMARK SMILES IDX 22 23 23 24 84 25 24 26 83 27 25 28 26 29 27 30 77 31 28 32
REMARK SMILES IDX 82 33 76 34 78 35 29 36 81 37 75 38 74 39 30 41 62 42 42 43
REMARK SMILES IDX 61 44 43 45 46 46 60 47 79 48 44 49 45 50 59 52 80 53 47 54
REMARK SMILES IDX 31 55 32 56 40 57 33 58 34 59 38 60 41 61 35 62 36 63 39 64
REMARK SMILES IDX 37 65 63 66 64 67 72 68 65 69 66 70 70 71 73 72 67 73 68 74
REMARK SMILES IDX 71 75 69 76 48 77 49 78 57 79 50 80 51 81 55 82 58 83 52 84
REMARK SMILES IDX 53 85 56 86 54 87
REMARK H PARENT 78 40 46 51
REMARK Flexibility Score: inf
ROOT
ATOM      1  O   UNL A   1      30.766  28.052  25.330  1.00  0.00    -0.374 OA
ENDROOT
BRANCH   1   2
ATOM      2  C   UNL A   1      30.791  26.782  24.699  1.00  0.00     0.202 C 
BRANCH   2   3
ATOM      3  C   UNL A   1      30.183  25.583  25.437  1.00  0.00     0.261 C 
BRANCH   3   4
ATOM      4  O   UNL A   1      30.850  25.246  26.664  1.00  0.00    -0.463 OA
BRANCH   4   5
ATOM      5  C   UNL A   1      31.104  23.917  26.816  1.00  0.00     0.313 C 
ATOM      6  O   UNL A   1      30.317  23.149  27.360  1.00  0.00    -0.252 OA
BRANCH   5   7
ATOM      7  C   UNL A   1      32.512  23.496  26.365  1.00  0.00     0.080 C 
ATOM      8  C   UNL A   1      33.048  22.582  27.481  1.00  0.00     0.025 C 
ATOM      9  C   UNL A   1      33.496  24.679  26.237  1.00  0.00     0.025 C 
BRANCH   7  10
ATOM     10  C   UNL A   1      32.485  22.763  24.986  1.00  0.00     0.137 C 
BRANCH  10  11
ATOM     11  N   UNL A   1      33.462  21.707  24.778  1.00  0.00    -0.341 N 
ATOM     12  C   UNL A   1      36.904  20.381  24.757  1.00  0.00     0.010 C 
ATOM     13  C   UNL A   1      35.485  20.670  25.199  1.00  0.00     0.015 C 
ATOM     14  C   UNL A   1      34.465  19.586  24.842  1.00  0.00     0.105 C 
ATOM     15  C   UNL A   1      34.875  21.917  24.576  1.00  0.00     0.123 C 
ATOM     16  C   UNL A   1      33.159  20.350  24.871  1.00  0.00     0.222 C 
ATOM     17  O   UNL A   1      32.042  19.862  24.942  1.00  0.00    -0.275 OA
ENDBRANCH  10  11
ENDBRANCH   7  10
ENDBRANCH   5   7
ENDBRANCH   4   5
ENDBRANCH   3   4
ENDBRANCH   2   3
ENDBRANCH   1   2
BRANCH   1  18
ATOM     18  C   UNL A   1      31.878  28.434  26.140  1.00  0.00     0.202 C 
BRANCH  18  19
ATOM     19  C   UNL A   1      31.939  29.885  26.639  1.00  0.00     0.261 C 
BRANCH  19  20
ATOM     20  O   UNL A   1      33.183  30.540  26.306  1.00  0.00    -0.460 OA
BRANCH  20  21
ATOM     21  C   UNL A   1      33.600  31.458  27.206  1.00  0.00     0.338 C 
ATOM     22  O   UNL A   1      32.946  32.373  27.700  1.00  0.00    -0.246 OA
BRANCH  21  23
ATOM     23  C   UNL A   1      34.944  31.121  27.700  1.00  0.00     0.060 A 
ATOM     24  C   UNL A   1      35.207  29.782  28.023  1.00  0.00     0.016 A 
ATOM     25  C   UNL A   1      35.893  32.114  27.957  1.00  0.00     0.016 A 
ATOM     26  C   UNL A   1      36.409  29.435  28.636  1.00  0.00     0.010 A 
ATOM     27  C   UNL A   1      37.090  31.763  28.590  1.00  0.00     0.010 A 
ATOM     28  C   UNL A   1      37.339  30.429  28.961  1.00  0.00    -0.014 A 
BRANCH  28  29
ATOM     29  C   UNL A   1      38.493  30.091  29.830  1.00  0.00     0.031 A 
ATOM     30  C   UNL A   1      39.526  29.125  29.322  1.00  0.00     0.074 A 
ATOM     31  C   UNL A   1      38.637  30.664  31.037  1.00  0.00     0.049 A 
ATOM     32  N   UNL A   1      40.586  28.647  29.924  1.00  0.00    -0.248 NA
ATOM     33  C   UNL A   1      39.342  28.631  27.948  1.00  0.00     0.031 C 
ATOM     34  C   UNL A   1      37.730  31.651  31.617  1.00  0.00     0.029 A 
ATOM     35  N   UNL A   1      39.602  30.486  31.997  1.00  0.00    -0.354 N 
ATOM     36  C   UNL A   1      41.195  27.805  29.004  1.00  0.00     0.074 A 
ATOM     37  C   UNL A   1      40.372  27.810  27.813  1.00  0.00     0.031 C 
ATOM     38  C   UNL A   1      38.169  31.975  32.846  1.00  0.00     0.029 A 
ATOM     39  C   UNL A   1      39.369  31.197  33.147  1.00  0.00     0.049 A 
ATOM     40  H   UNL A   1      40.387  29.904  31.872  1.00  0.00     0.167 HD
ATOM     41  C   UNL A   1      42.342  27.098  29.136  1.00  0.00     0.037 A 
ATOM     42  C   UNL A   1      40.035  31.195  34.319  1.00  0.00     0.037 A 
ATOM     43  C   UNL A   1      43.155  27.084  30.323  1.00  0.00     0.049 A 
ATOM     44  C   UNL A   1      41.266  30.338  34.469  1.00  0.00     0.074 A 
ATOM     45  C   UNL A   1      44.328  26.389  30.561  1.00  0.00     0.029 A 
ATOM     46  N   UNL A   1      42.873  27.798  31.477  1.00  0.00    -0.354 N 
ATOM     47  N   UNL A   1      41.837  29.547  33.594  1.00  0.00    -0.248 NA
ATOM     48  C   UNL A   1      41.946  30.377  35.772  1.00  0.00     0.031 C 
ATOM     49  C   UNL A   1      44.735  26.653  31.872  1.00  0.00     0.029 A 
ATOM     50  C   UNL A   1      43.840  27.548  32.437  1.00  0.00     0.049 A 
ATOM     51  H   UNL A   1      42.099  28.395  31.598  1.00  0.00     0.167 HD
ATOM     52  C   UNL A   1      42.950  29.013  34.228  1.00  0.00     0.074 A 
ATOM     53  C   UNL A   1      42.986  29.583  35.559  1.00  0.00     0.031 C 
ATOM     54  C   UNL A   1      43.862  28.128  33.754  1.00  0.00     0.037 A 
BRANCH  41  55
ATOM     55  C   UNL A   1      42.779  26.264  27.968  1.00  0.00     0.064 A 
ATOM     56  C   UNL A   1      42.335  24.945  27.803  1.00  0.00     0.173 A 
ATOM     57  C   UNL A   1      43.620  26.804  26.983  1.00  0.00     0.173 A 
ATOM     58  F   UNL A   1      41.541  24.379  28.725  1.00  0.00    -0.203 F 
ATOM     59  C   UNL A   1      42.730  24.189  26.702  1.00  0.00     0.198 A 
ATOM     60  C   UNL A   1      43.994  26.054  25.871  1.00  0.00     0.198 A 
ATOM     61  F   UNL A   1      44.071  28.062  27.094  1.00  0.00    -0.203 F 
ATOM     62  F   UNL A   1      42.323  22.918  26.583  1.00  0.00    -0.200 F 
ATOM     63  C   UNL A   1      43.553  24.746  25.734  1.00  0.00     0.200 A 
ATOM     64  F   UNL A   1      44.781  26.596  24.933  1.00  0.00    -0.200 F 
ATOM     65  F   UNL A   1      43.926  24.021  24.671  1.00  0.00    -0.200 F 
ENDBRANCH  41  55
BRANCH  42  66
ATOM     66  C   UNL A   1      39.534  32.007  35.459  1.00  0.00     0.064 A 
ATOM     67  C   UNL A   1      39.987  33.315  35.677  1.00  0.00     0.173 A 
ATOM     68  C   UNL A   1      38.612  31.475  36.373  1.00  0.00     0.173 A 
ATOM     69  F   UNL A   1      40.891  33.857  34.847  1.00  0.00    -0.203 F 
ATOM     70  C   UNL A   1      39.553  34.053  36.777  1.00  0.00     0.198 A 
ATOM     71  C   UNL A   1      38.156  32.224  37.456  1.00  0.00     0.198 A 
ATOM     72  F   UNL A   1      38.149  30.227  36.211  1.00  0.00    -0.203 F 
ATOM     73  F   UNL A   1      40.041  35.283  36.990  1.00  0.00    -0.200 F 
ATOM     74  C   UNL A   1      38.634  33.509  37.662  1.00  0.00     0.200 A 
ATOM     75  F   UNL A   1      37.261  31.698  38.302  1.00  0.00    -0.200 F 
ATOM     76  F   UNL A   1      38.218  34.219  38.719  1.00  0.00    -0.200 F 
ENDBRANCH  42  66
BRANCH  54  77
ATOM     77  C   UNL A   1      44.990  27.746  34.666  1.00  0.00     0.064 A 
ATOM     78  C   UNL A   1      44.923  26.603  35.477  1.00  0.00     0.173 A 
ATOM     79  C   UNL A   1      46.168  28.508  34.700  1.00  0.00     0.173 A 
ATOM     80  F   UNL A   1      43.813  25.851  35.492  1.00  0.00    -0.203 F 
ATOM     81  C   UNL A   1      45.986  26.250  36.305  1.00  0.00     0.198 A 
ATOM     82  C   UNL A   1      47.238  28.136  35.507  1.00  0.00     0.198 A 
ATOM     83  F   UNL A   1      46.284  29.605  33.937  1.00  0.00    -0.203 F 
ATOM     84  F   UNL A   1      45.884  25.178  37.103  1.00  0.00    -0.200 F 
ATOM     85  C   UNL A   1      47.144  27.012  36.314  1.00  0.00     0.200 A 
ATOM     86  F   UNL A   1      48.362  28.867  35.506  1.00  0.00    -0.200 F 
ATOM     87  F   UNL A   1      48.169  26.667  37.107  1.00  0.00    -0.200 F 
ENDBRANCH  54  77
ENDBRANCH  28  29
ENDBRANCH  21  23
ENDBRANCH  20  21
ENDBRANCH  19  20
ENDBRANCH  18  19
ENDBRANCH   1  18
TORSDOF 16
ENDMDL
MODEL 2
REMARK VINA RESULT:     -10.8      4.388      9.755
REMARK SMILES C[C@@H]1CC(=O)N(CC(C)(C)C(=O)OCCOCCOC(=O)c2ccc(-c3c4nc(c(-c5c(F)c(F)c(F)c(F)c5F)c5ccc([nH]5)c(-c5c(F)c(F)c(F)c(F)c5F)c5nc(c(-c6c(F)c(F)c(F)c(F)c6F)c6ccc3[nH]6)C=C5)C=C4)cc2)C1
REMARK SMILES IDX 16 1 15 2 14 3 13 4 11 5 12 6 8 7 9 8 10 9 7 10 6 11 1 12
REMARK SMILES IDX 2 13 3 14 85 15 4 16 5 17 17 18 18 19 19 20 20 21 21 22
REMARK SMILES IDX 22 23 23 24 84 25 24 26 83 27 25 28 26 29 27 30 77 31 28 32
REMARK SMILES IDX 82 33 76 34 78 35 29 36 81 37 75 38 74 39 30 41 62 42 42 43
REMARK SMILES IDX 61 44 43 45 46 46 60 47 79 48 44 49 45 50 59 52 80 53 47 54
REMARK SMILES IDX 31 55 32 56 40 57 33 58 34 59 38 60 41 61 35 62 36 63 39 64
REMARK SMILES IDX 37 65 63 66 64 67 72 68 65 69 66 70 70 71 73 72 67 73 68 74
REMARK SMILES IDX 71 75 69 76 48 77 49 78 57 79 50 80 51 81 55 82 58 83 52 84
REMARK SMILES IDX 53 85 56 86 54 87
REMARK H PARENT 78 40 46 51
REMARK Flexibility Score: inf
ROOT
ATOM      1  O   UNL A   1      35.342  21.071  26.073  1.00  0.00    -0.374 OA
ENDROOT
BRANCH   1   2
ATOM      2  C   UNL A   1      33.936  20.986  26.244  1.00  0.00     0.202 C 
BRANCH   2   3
ATOM      3  C   UNL A   1      33.031  21.250  25.035  1.00  0.00     0.261 C 
BRANCH   3   4
ATOM      4  O   UNL A   1      32.695  22.634  24.841  1.00  0.00    -0.463 OA
BRANCH   4   5
ATOM      5  C   UNL A   1      33.571  23.317  24.054  1.00  0.00     0.313 C 
ATOM      6  O   UNL A   1      33.808  23.000  22.894  1.00  0.00    -0.252 OA
BRANCH   5   7
ATOM      7  C   UNL A   1      34.328  24.434  24.790  1.00  0.00     0.080 C 
ATOM      8  C   UNL A   1      35.815  24.046  24.715  1.00  0.00     0.025 C 
ATOM      9  C   UNL A   1      33.963  24.542  26.287  1.00  0.00     0.025 C 
BRANCH   7  10
ATOM     10  C   UNL A   1      34.066  25.834  24.147  1.00  0.00     0.137 C 
BRANCH  10  11
ATOM     11  N   UNL A   1      32.773  26.041  23.515  1.00  0.00    -0.341 N 
ATOM     12  C   UNL A   1      29.263  27.173  23.523  1.00  0.00     0.010 C 
ATOM     13  C   UNL A   1      30.756  27.148  23.280  1.00  0.00     0.015 C 
ATOM     14  C   UNL A   1      31.177  26.635  21.900  1.00  0.00     0.105 C 
ATOM     15  C   UNL A   1      31.530  26.236  24.222  1.00  0.00     0.123 C 
ATOM     16  C   UNL A   1      32.605  26.196  22.141  1.00  0.00     0.222 C 
ATOM     17  O   UNL A   1      33.449  25.994  21.281  1.00  0.00    -0.275 OA
ENDBRANCH  10  11
ENDBRANCH   7  10
ENDBRANCH   5   7
ENDBRANCH   4   5
ENDBRANCH   3   4
ENDBRANCH   2   3
ENDBRANCH   1   2
BRANCH   1  18
ATOM     18  C   UNL A   1      35.931  20.430  24.942  1.00  0.00     0.202 C 
BRANCH  18  19
ATOM     19  C   UNL A   1      37.464  20.408  24.847  1.00  0.00     0.261 C 
BRANCH  19  20
ATOM     20  O   UNL A   1      38.079  21.581  25.422  1.00  0.00    -0.460 OA
BRANCH  20  21
ATOM     21  C   UNL A   1      39.217  21.345  26.113  1.00  0.00     0.338 C 
ATOM     22  O   UNL A   1      39.874  20.308  26.140  1.00  0.00    -0.246 OA
BRANCH  21  23
ATOM     23  C   UNL A   1      39.717  22.588  26.721  1.00  0.00     0.060 A 
ATOM     24  C   UNL A   1      39.229  23.805  26.223  1.00  0.00     0.016 A 
ATOM     25  C   UNL A   1      40.735  22.570  27.678  1.00  0.00     0.016 A 
ATOM     26  C   UNL A   1      39.779  25.008  26.657  1.00  0.00     0.010 A 
ATOM     27  C   UNL A   1      41.298  23.780  28.096  1.00  0.00     0.010 A 
ATOM     28  C   UNL A   1      40.845  25.001  27.564  1.00  0.00    -0.014 A 
BRANCH  28  29
ATOM     29  C   UNL A   1      41.587  26.259  27.828  1.00  0.00     0.031 A 
ATOM     30  C   UNL A   1      40.889  27.374  28.555  1.00  0.00     0.074 A 
ATOM     31  C   UNL A   1      42.871  26.392  27.458  1.00  0.00     0.049 A 
ATOM     32  N   UNL A   1      41.321  28.574  28.849  1.00  0.00    -0.248 NA
ATOM     33  C   UNL A   1      39.518  27.098  29.016  1.00  0.00     0.031 C 
ATOM     34  C   UNL A   1      43.669  25.365  26.792  1.00  0.00     0.029 A 
ATOM     35  N   UNL A   1      43.728  27.458  27.583  1.00  0.00    -0.354 N 
ATOM     36  C   UNL A   1      40.282  29.192  29.531  1.00  0.00     0.074 A 
ATOM     37  C   UNL A   1      39.185  28.249  29.582  1.00  0.00     0.031 C 
ATOM     38  C   UNL A   1      44.895  25.859  26.545  1.00  0.00     0.029 A 
ATOM     39  C   UNL A   1      44.956  27.244  27.010  1.00  0.00     0.049 A 
ATOM     40  H   UNL A   1      43.485  28.295  28.042  1.00  0.00     0.167 HD
ATOM     41  C   UNL A   1      40.248  30.432  30.075  1.00  0.00     0.037 A 
ATOM     42  C   UNL A   1      45.999  28.084  26.853  1.00  0.00     0.037 A 
ATOM     43  C   UNL A   1      41.334  31.374  30.016  1.00  0.00     0.049 A 
ATOM     44  C   UNL A   1      45.907  29.486  27.397  1.00  0.00     0.074 A 
ATOM     45  C   UNL A   1      41.392  32.660  30.525  1.00  0.00     0.029 A 
ATOM     46  N   UNL A   1      42.553  31.131  29.404  1.00  0.00    -0.354 N 
ATOM     47  N   UNL A   1      44.924  30.061  28.044  1.00  0.00    -0.248 NA
ATOM     48  C   UNL A   1      47.076  30.355  27.192  1.00  0.00     0.031 C 
ATOM     49  C   UNL A   1      42.633  33.208  30.187  1.00  0.00     0.029 A 
ATOM     50  C   UNL A   1      43.365  32.248  29.507  1.00  0.00     0.049 A 
ATOM     51  H   UNL A   1      42.805  30.288  28.962  1.00  0.00     0.167 HD
ATOM     52  C   UNL A   1      45.359  31.346  28.341  1.00  0.00     0.074 A 
ATOM     53  C   UNL A   1      46.705  31.462  27.818  1.00  0.00     0.031 C 
ATOM     54  C   UNL A   1      44.704  32.343  28.986  1.00  0.00     0.037 A 
BRANCH  41  55
ATOM     55  C   UNL A   1      38.985  30.848  30.771  1.00  0.00     0.064 A 
ATOM     56  C   UNL A   1      37.924  31.438  30.070  1.00  0.00     0.173 A 
ATOM     57  C   UNL A   1      38.820  30.617  32.145  1.00  0.00     0.173 A 
ATOM     58  F   UNL A   1      38.040  31.693  28.758  1.00  0.00    -0.203 F 
ATOM     59  C   UNL A   1      36.748  31.800  30.723  1.00  0.00     0.198 A 
ATOM     60  C   UNL A   1      37.634  30.957  32.790  1.00  0.00     0.198 A 
ATOM     61  F   UNL A   1      39.804  30.053  32.859  1.00  0.00    -0.203 F 
ATOM     62  F   UNL A   1      35.761  32.396  30.041  1.00  0.00    -0.200 F 
ATOM     63  C   UNL A   1      36.601  31.553  32.080  1.00  0.00     0.200 A 
ATOM     64  F   UNL A   1      37.490  30.708  34.098  1.00  0.00    -0.200 F 
ATOM     65  F   UNL A   1      35.466  31.892  32.706  1.00  0.00    -0.200 F 
ENDBRANCH  41  55
BRANCH  42  66
ATOM     66  C   UNL A   1      47.210  27.634  26.118  1.00  0.00     0.064 A 
ATOM     67  C   UNL A   1      47.306  27.760  24.726  1.00  0.00     0.173 A 
ATOM     68  C   UNL A   1      48.286  27.041  26.795  1.00  0.00     0.173 A 
ATOM     69  F   UNL A   1      46.291  28.296  24.030  1.00  0.00    -0.203 F 
ATOM     70  C   UNL A   1      48.423  27.290  24.036  1.00  0.00     0.198 A 
ATOM     71  C   UNL A   1      49.415  26.598  26.108  1.00  0.00     0.198 A 
ATOM     72  F   UNL A   1      48.243  26.894  28.128  1.00  0.00    -0.203 F 
ATOM     73  F   UNL A   1      48.467  27.376  22.700  1.00  0.00    -0.200 F 
ATOM     74  C   UNL A   1      49.478  26.714  24.728  1.00  0.00     0.200 A 
ATOM     75  F   UNL A   1      50.435  26.052  26.782  1.00  0.00    -0.200 F 
ATOM     76  F   UNL A   1      50.550  26.262  24.064  1.00  0.00    -0.200 F 
ENDBRANCH  42  66
BRANCH  54  77
ATOM     77  C   UNL A   1      45.442  33.633  29.190  1.00  0.00     0.064 A 
ATOM     78  C   UNL A   1      45.350  34.686  28.268  1.00  0.00     0.173 A 
ATOM     79  C   UNL A   1      46.219  33.834  30.342  1.00  0.00     0.173 A 
ATOM     80  F   UNL A   1      44.632  34.537  27.145  1.00  0.00    -0.203 F 
ATOM     81  C   UNL A   1      46.026  35.885  28.482  1.00  0.00     0.198 A 
ATOM     82  C   UNL A   1      46.870  35.043  30.565  1.00  0.00     0.198 A 
ATOM     83  F   UNL A   1      46.333  32.860  31.258  1.00  0.00    -0.203 F 
ATOM     84  F   UNL A   1      45.958  36.862  27.566  1.00  0.00    -0.200 F 
ATOM     85  C   UNL A   1      46.779  36.064  29.632  1.00  0.00     0.200 A 
ATOM     86  F   UNL A   1      47.589  35.220  31.683  1.00  0.00    -0.200 F 
ATOM     87  F   UNL A   1      47.424  37.221  29.838  1.00  0.00    -0.200 F 
ENDBRANCH  54  77
ENDBRANCH  28  29
ENDBRANCH  21  23
ENDBRANCH  20  21
ENDBRANCH  19  20
ENDBRANCH  18  19
ENDBRANCH   1  18
TORSDOF 16
ENDMDL
MODEL 3
REMARK VINA RESULT:     -10.8      5.175      8.911
REMARK SMILES C[C@@H]1CC(=O)N(CC(C)(C)C(=O)OCCOCCOC(=O)c2ccc(-c3c4nc(c(-c5c(F)c(F)c(F)c(F)c5F)c5ccc([nH]5)c(-c5c(F)c(F)c(F)c(F)c5F)c5nc(c(-c6c(F)c(F)c(F)c(F)c6F)c6ccc3[nH]6)C=C5)C=C4)cc2)C1
REMARK SMILES IDX 16 1 15 2 14 3 13 4 11 5 12 6 8 7 9 8 10 9 7 10 6 11 1 12
REMARK SMILES IDX 2 13 3 14 85 15 4 16 5 17 17 18 18 19 19 20 20 21 21 22
REMARK SMILES IDX 22 23 23 24 84 25 24 26 83 27 25 28 26 29 27 30 77 31 28 32
REMARK SMILES IDX 82 33 76 34 78 35 29 36 81 37 75 38 74 39 30 41 62 42 42 43
REMARK SMILES IDX 61 44 43 45 46 46 60 47 79 48 44 49 45 50 59 52 80 53 47 54
REMARK SMILES IDX 31 55 32 56 40 57 33 58 34 59 38 60 41 61 35 62 36 63 39 64
REMARK SMILES IDX 37 65 63 66 64 67 72 68 65 69 66 70 70 71 73 72 67 73 68 74
REMARK SMILES IDX 71 75 69 76 48 77 49 78 57 79 50 80 51 81 55 82 58 83 52 84
REMARK SMILES IDX 53 85 56 86 54 87
REMARK H PARENT 78 40 46 51
REMARK Flexibility Score: inf
ROOT
ATOM      1  O   UNL A   1      42.324  19.301  25.352  1.00  0.00    -0.374 OA
ENDROOT
BRANCH   1   2
ATOM      2  C   UNL A   1      43.732  19.129  25.387  1.00  0.00     0.202 C 
BRANCH   2   3
ATOM      3  C   UNL A   1      44.613  20.115  24.612  1.00  0.00     0.261 C 
BRANCH   3   4
ATOM      4  O   UNL A   1      44.230  21.492  24.764  1.00  0.00    -0.463 OA
BRANCH   4   5
ATOM      5  C   UNL A   1      45.027  22.205  25.607  1.00  0.00     0.313 C 
ATOM      6  O   UNL A   1      46.163  21.853  25.902  1.00  0.00    -0.252 OA
BRANCH   5   7
ATOM      7  C   UNL A   1      44.328  23.412  26.252  1.00  0.00     0.080 C 
ATOM      8  C   UNL A   1      43.324  22.821  27.257  1.00  0.00     0.025 C 
ATOM      9  C   UNL A   1      43.517  24.262  25.250  1.00  0.00     0.025 C 
BRANCH   7  10
ATOM     10  C   UNL A   1      45.348  24.368  26.951  1.00  0.00     0.137 C 
BRANCH  10  11
ATOM     11  N   UNL A   1      46.229  25.140  26.090  1.00  0.00    -0.341 N 
ATOM     12  C   UNL A   1      46.969  27.984  23.861  1.00  0.00     0.010 C 
ATOM     13  C   UNL A   1      46.918  27.111  25.096  1.00  0.00     0.015 C 
ATOM     14  C   UNL A   1      48.155  26.239  25.322  1.00  0.00     0.105 C 
ATOM     15  C   UNL A   1      45.788  26.090  25.098  1.00  0.00     0.123 C 
ATOM     16  C   UNL A   1      47.617  25.139  26.211  1.00  0.00     0.222 C 
ATOM     17  O   UNL A   1      48.283  24.375  26.893  1.00  0.00    -0.275 OA
ENDBRANCH  10  11
ENDBRANCH   7  10
ENDBRANCH   5   7
ENDBRANCH   4   5
ENDBRANCH   3   4
ENDBRANCH   2   3
ENDBRANCH   1   2
BRANCH   1  18
ATOM     18  C   UNL A   1      41.659  19.733  26.539  1.00  0.00     0.202 C 
BRANCH  18  19
ATOM     19  C   UNL A   1      40.282  20.397  26.391  1.00  0.00     0.261 C 
BRANCH  19  20
ATOM     20  O   UNL A   1      40.260  21.756  26.879  1.00  0.00    -0.460 OA
BRANCH  20  21
ATOM     21  C   UNL A   1      39.336  22.553  26.296  1.00  0.00     0.338 C 
ATOM     22  O   UNL A   1      38.413  22.215  25.560  1.00  0.00    -0.246 OA
BRANCH  21  23
ATOM     23  C   UNL A   1      39.446  23.928  26.810  1.00  0.00     0.060 A 
ATOM     24  C   UNL A   1      40.105  24.876  26.013  1.00  0.00     0.016 A 
ATOM     25  C   UNL A   1      39.019  24.257  28.099  1.00  0.00     0.016 A 
ATOM     26  C   UNL A   1      40.368  26.148  26.515  1.00  0.00     0.010 A 
ATOM     27  C   UNL A   1      39.302  25.530  28.605  1.00  0.00     0.010 A 
ATOM     28  C   UNL A   1      40.007  26.468  27.829  1.00  0.00    -0.014 A 
BRANCH  28  29
ATOM     29  C   UNL A   1      40.509  27.725  28.437  1.00  0.00     0.031 A 
ATOM     30  C   UNL A   1      41.975  27.848  28.743  1.00  0.00     0.074 A 
ATOM     31  C   UNL A   1      39.678  28.753  28.678  1.00  0.00     0.049 A 
ATOM     32  N   UNL A   1      42.626  28.828  29.318  1.00  0.00    -0.248 NA
ATOM     33  C   UNL A   1      42.825  26.713  28.346  1.00  0.00     0.031 C 
ATOM     34  C   UNL A   1      38.248  28.772  28.379  1.00  0.00     0.029 A 
ATOM     35  N   UNL A   1      39.922  29.981  29.243  1.00  0.00    -0.354 N 
ATOM     36  C   UNL A   1      43.956  28.432  29.346  1.00  0.00     0.074 A 
ATOM     37  C   UNL A   1      44.018  27.110  28.760  1.00  0.00     0.031 C 
ATOM     38  C   UNL A   1      37.735  29.947  28.785  1.00  0.00     0.029 A 
ATOM     39  C   UNL A   1      38.794  30.747  29.398  1.00  0.00     0.049 A 
ATOM     40  H   UNL A   1      40.821  30.283  29.510  1.00  0.00     0.167 HD
ATOM     41  C   UNL A   1      45.030  29.113  29.810  1.00  0.00     0.037 A 
ATOM     42  C   UNL A   1      38.633  31.945  29.993  1.00  0.00     0.037 A 
ATOM     43  C   UNL A   1      44.967  30.423  30.402  1.00  0.00     0.049 A 
ATOM     44  C   UNL A   1      39.833  32.649  30.575  1.00  0.00     0.074 A 
ATOM     45  C   UNL A   1      45.998  31.191  30.915  1.00  0.00     0.029 A 
ATOM     46  N   UNL A   1      43.802  31.157  30.565  1.00  0.00    -0.354 N 
ATOM     47  N   UNL A   1      41.087  32.269  30.594  1.00  0.00    -0.248 NA
ATOM     48  C   UNL A   1      39.592  33.951  31.214  1.00  0.00     0.031 C 
ATOM     49  C   UNL A   1      45.451  32.373  31.423  1.00  0.00     0.029 A 
ATOM     50  C   UNL A   1      44.085  32.362  31.186  1.00  0.00     0.049 A 
ATOM     51  H   UNL A   1      42.906  30.864  30.281  1.00  0.00     0.167 HD
ATOM     52  C   UNL A   1      41.786  33.290  31.224  1.00  0.00     0.074 A 
ATOM     53  C   UNL A   1      40.819  34.315  31.558  1.00  0.00     0.031 C 
ATOM     54  C   UNL A   1      43.111  33.373  31.505  1.00  0.00     0.037 A 
BRANCH  41  55
ATOM     55  C   UNL A   1      46.369  28.444  29.710  1.00  0.00     0.064 A 
ATOM     56  C   UNL A   1      46.794  27.510  30.665  1.00  0.00     0.173 A 
ATOM     57  C   UNL A   1      47.219  28.711  28.626  1.00  0.00     0.173 A 
ATOM     58  F   UNL A   1      46.023  27.232  31.728  1.00  0.00    -0.203 F 
ATOM     59  C   UNL A   1      48.030  26.879  30.549  1.00  0.00     0.198 A 
ATOM     60  C   UNL A   1      48.443  28.060  28.500  1.00  0.00     0.198 A 
ATOM     61  F   UNL A   1      46.858  29.595  27.685  1.00  0.00    -0.203 F 
ATOM     62  F   UNL A   1      48.432  26.017  31.493  1.00  0.00    -0.200 F 
ATOM     63  C   UNL A   1      48.851  27.149  29.464  1.00  0.00     0.200 A 
ATOM     64  F   UNL A   1      49.230  28.315  27.446  1.00  0.00    -0.200 F 
ATOM     65  F   UNL A   1      50.036  26.536  29.348  1.00  0.00    -0.200 F 
ENDBRANCH  41  55
BRANCH  42  66
ATOM     66  C   UNL A   1      37.277  32.544  30.104  1.00  0.00     0.064 A 
ATOM     67  C   UNL A   1      36.806  33.461  29.155  1.00  0.00     0.173 A 
ATOM     68  C   UNL A   1      36.436  32.230  31.182  1.00  0.00     0.173 A 
ATOM     69  F   UNL A   1      37.585  33.814  28.121  1.00  0.00    -0.203 F 
ATOM     70  C   UNL A   1      35.554  34.058  29.291  1.00  0.00     0.198 A 
ATOM     71  C   UNL A   1      35.173  32.806  31.302  1.00  0.00     0.198 A 
ATOM     72  F   UNL A   1      36.840  31.360  32.119  1.00  0.00    -0.203 F 
ATOM     73  F   UNL A   1      35.149  34.970  28.397  1.00  0.00    -0.200 F 
ATOM     74  C   UNL A   1      34.736  33.726  30.361  1.00  0.00     0.200 A 
ATOM     75  F   UNL A   1      34.382  32.474  32.331  1.00  0.00    -0.200 F 
ATOM     76  F   UNL A   1      33.534  34.302  30.492  1.00  0.00    -0.200 F 
ENDBRANCH  42  66
BRANCH  54  77
ATOM     77  C   UNL A   1      43.596  34.622  32.178  1.00  0.00     0.064 A 
ATOM     78  C   UNL A   1      43.730  34.700  33.572  1.00  0.00     0.173 A 
ATOM     79  C   UNL A   1      43.970  35.741  31.417  1.00  0.00     0.173 A 
ATOM     80  F   UNL A   1      43.371  33.663  34.344  1.00  0.00    -0.203 F 
ATOM     81  C   UNL A   1      44.201  35.861  34.181  1.00  0.00     0.198 A 
ATOM     82  C   UNL A   1      44.466  36.889  32.028  1.00  0.00     0.198 A 
ATOM     83  F   UNL A   1      43.867  35.713  30.080  1.00  0.00    -0.203 F 
ATOM     84  F   UNL A   1      44.280  35.929  35.518  1.00  0.00    -0.200 F 
ATOM     85  C   UNL A   1      44.574  36.951  33.409  1.00  0.00     0.200 A 
ATOM     86  F   UNL A   1      44.837  37.937  31.280  1.00  0.00    -0.200 F 
ATOM     87  F   UNL A   1      45.032  38.065  33.997  1.00  0.00    -0.200 F 
ENDBRANCH  54  77
ENDBRANCH  28  29
ENDBRANCH  21  23
ENDBRANCH  20  21
ENDBRANCH  19  20
ENDBRANCH  18  19
ENDBRANCH   1  18
TORSDOF 16
ENDMDL
