MODEL 1
REMARK VINA RESULT:     -12.9      0.000      0.000
REMARK SMILES Cc1cc(C)n(CC(=O)N[C@@H]2C(=O)N3C(C(=O)OCCOCCOC(=O)c4ccc(-c5c6nc(c(-c7c(F)c(F)c(F)c(F)c7F)c7ccc([nH]7)c(-c7c(F)c(F)c(F)c(F)c7F)c7nc(c(-c8c(F)c(F)c(F)c(F)c8F)c8ccc5[nH]8)C=C7)C=C6)cc4)=C(CSc4nnc(C)s4)CS[C@H]23)n1
REMARK SMILES IDX 20 1 19 2 18 3 16 4 17 5 15 6 11 7 12 8 101 9 13 10 14 11
REMARK SMILES IDX 100 12 99 13 90 14 10 15 8 16 9 17 7 19 6 20 1 21 2 22 3 23
REMARK SMILES IDX 102 24 4 25 5 26 91 27 92 28 93 29 94 30 98 31 95 32 96 33
REMARK SMILES IDX 97 34 21 35 22 36 23 37 24 38 25 39 26 40 27 41 28 42 89 43
REMARK SMILES IDX 29 44 88 45 30 46 31 47 32 48 82 49 33 50 87 51 81 52 83 53
REMARK SMILES IDX 34 54 86 55 80 56 79 57 35 59 67 60 47 61 66 62 48 63 51 64
REMARK SMILES IDX 65 65 84 66 49 67 50 68 64 70 85 71 52 72 36 73 37 74 45 75
REMARK SMILES IDX 38 76 39 77 43 78 46 79 40 80 41 81 44 82 42 83 68 84 69 85
REMARK SMILES IDX 77 86 70 87 71 88 75 89 78 90 72 91 73 92 76 93 74 94 53 95
REMARK SMILES IDX 54 96 62 97 55 98 56 99 60 100 63 101 57 102 58 103 61 104
REMARK SMILES IDX 59 105
REMARK H PARENT 10 18 83 58 51 69
REMARK Flexibility Score: inf
ROOT
ATOM      1  C   UNL A   1      35.950  21.733  25.630  1.00  0.00     0.202 C 
ENDROOT
BRANCH   1   2
ATOM      2  C   UNL A   1      35.121  22.749  26.414  1.00  0.00     0.261 C 
BRANCH   2   3
ATOM      3  O   UNL A   1      34.073  22.083  27.142  1.00  0.00    -0.459 OA
BRANCH   3   4
ATOM      4  C   UNL A   1      32.863  22.685  27.102  1.00  0.00     0.355 C 
ATOM      5  O   UNL A   1      32.137  22.919  28.058  1.00  0.00    -0.244 OA
BRANCH   4   6
ATOM      6  C   UNL A   1      32.501  23.101  25.711  1.00  0.00     0.132 C 
ATOM      7  C   UNL A   1      31.882  26.405  24.973  1.00  0.00     0.205 C 
ATOM      8  C   UNL A   1      33.063  25.608  25.697  1.00  0.00     0.253 C 
ATOM      9  C   UNL A   1      31.450  24.977  24.578  1.00  0.00     0.181 C 
ATOM     10  O   UNL A   1      34.176  25.841  26.144  1.00  0.00    -0.272 OA
ATOM     11  N   UNL A   1      32.382  24.455  25.523  1.00  0.00    -0.289 N 
ATOM     12  S   UNL A   1      32.071  24.377  22.974  1.00  0.00    -0.129 SA
ATOM     13  C   UNL A   1      31.544  22.720  23.394  1.00  0.00     0.106 C 
ATOM     14  C   UNL A   1      32.102  22.245  24.726  1.00  0.00    -0.019 C 
BRANCH   7  15
ATOM     15  N   UNL A   1      32.106  27.287  23.792  1.00  0.00    -0.340 N 
ATOM     16  C   UNL A   1      31.695  28.601  23.654  1.00  0.00     0.242 C 
ATOM     17  O   UNL A   1      31.770  29.107  22.530  1.00  0.00    -0.273 OA
ATOM     18  H   UNL A   1      32.597  26.896  23.034  1.00  0.00     0.164 HD
BRANCH  16  19
ATOM     19  C   UNL A   1      31.255  29.440  24.852  1.00  0.00     0.244 C 
BRANCH  19  20
ATOM     20  N   UNL A   1      32.290  29.988  25.731  1.00  0.00    -0.260 N 
ATOM     21  C   UNL A   1      35.268  29.190  27.487  1.00  0.00     0.069 C 
ATOM     22  C   UNL A   1      34.129  29.885  26.821  1.00  0.00     0.060 A 
ATOM     23  C   UNL A   1      33.506  31.092  27.201  1.00  0.00     0.048 A 
ATOM     24  N   UNL A   1      33.444  29.279  25.844  1.00  0.00    -0.178 NA
ATOM     25  C   UNL A   1      32.302  31.121  26.515  1.00  0.00     0.036 A 
ATOM     26  C   UNL A   1      31.161  32.059  26.687  1.00  0.00     0.066 C 
ENDBRANCH  19  20
ENDBRANCH  16  19
ENDBRANCH   7  15
BRANCH  14  27
ATOM     27  C   UNL A   1      32.019  20.745  24.801  1.00  0.00     0.111 C 
BRANCH  27  28
ATOM     28  S   UNL A   1      32.569  19.890  23.311  1.00  0.00    -0.089 SA
BRANCH  28  29
ATOM     29  C   UNL A   1      33.122  18.292  23.787  1.00  0.00     0.174 A 
ATOM     30  N   UNL A   1      33.528  17.404  22.902  1.00  0.00    -0.132 NA
ATOM     31  S   UNL A   1      32.940  17.625  25.371  1.00  0.00    -0.091 S 
ATOM     32  N   UNL A   1      33.524  16.110  23.418  1.00  0.00    -0.143 NA
ATOM     33  C   UNL A   1      33.107  16.077  24.667  1.00  0.00     0.115 A 
ATOM     34  C   UNL A   1      32.692  14.868  25.423  1.00  0.00     0.081 C 
ENDBRANCH  28  29
ENDBRANCH  27  28
ENDBRANCH  14  27
ENDBRANCH   4   6
ENDBRANCH   3   4
ENDBRANCH   2   3
ENDBRANCH   1   2
BRANCH   1  35
ATOM     35  O   UNL A   1      37.337  22.032  25.471  1.00  0.00    -0.374 OA
BRANCH  35  36
ATOM     36  C   UNL A   1      38.261  20.956  25.362  1.00  0.00     0.202 C 
BRANCH  36  37
ATOM     37  C   UNL A   1      39.592  21.102  26.084  1.00  0.00     0.261 C 
BRANCH  37  38
ATOM     38  O   UNL A   1      39.891  22.437  26.487  1.00  0.00    -0.460 OA
BRANCH  38  39
ATOM     39  C   UNL A   1      40.967  22.576  27.311  1.00  0.00     0.338 C 
ATOM     40  O   UNL A   1      41.605  21.693  27.853  1.00  0.00    -0.246 OA
BRANCH  39  41
ATOM     41  C   UNL A   1      41.167  24.011  27.563  1.00  0.00     0.060 A 
ATOM     42  C   UNL A   1      42.150  24.505  28.407  1.00  0.00     0.016 A 
ATOM     43  C   UNL A   1      40.216  24.877  27.040  1.00  0.00     0.016 A 
ATOM     44  C   UNL A   1      42.076  25.845  28.784  1.00  0.00     0.010 A 
ATOM     45  C   UNL A   1      40.234  26.223  27.269  1.00  0.00     0.010 A 
ATOM     46  C   UNL A   1      41.072  26.680  28.249  1.00  0.00    -0.014 A 
BRANCH  46  47
ATOM     47  C   UNL A   1      40.907  28.062  28.660  1.00  0.00     0.031 A 
ATOM     48  C   UNL A   1      41.960  28.933  28.118  1.00  0.00     0.074 A 
ATOM     49  C   UNL A   1      39.864  28.543  29.376  1.00  0.00     0.049 A 
ATOM     50  N   UNL A   1      42.973  29.379  28.774  1.00  0.00    -0.248 NA
ATOM     51  C   UNL A   1      42.019  29.159  26.668  1.00  0.00     0.031 C 
ATOM     52  C   UNL A   1      38.611  27.882  29.762  1.00  0.00     0.029 A 
ATOM     53  N   UNL A   1      39.707  29.793  29.896  1.00  0.00    -0.354 N 
ATOM     54  C   UNL A   1      43.703  30.126  27.867  1.00  0.00     0.074 A 
ATOM     55  C   UNL A   1      43.179  29.811  26.562  1.00  0.00     0.031 C 
ATOM     56  C   UNL A   1      37.751  28.792  30.278  1.00  0.00     0.029 A 
ATOM     57  C   UNL A   1      38.446  30.058  30.417  1.00  0.00     0.049 A 
ATOM     58  H   UNL A   1      40.433  30.459  29.901  1.00  0.00     0.167 HD
ATOM     59  C   UNL A   1      44.491  31.138  28.314  1.00  0.00     0.037 A 
ATOM     60  C   UNL A   1      38.015  31.233  30.946  1.00  0.00     0.037 A 
ATOM     61  C   UNL A   1      44.760  31.003  29.728  1.00  0.00     0.049 A 
ATOM     62  C   UNL A   1      39.221  31.980  31.376  1.00  0.00     0.074 A 
ATOM     63  C   UNL A   1      45.387  30.053  30.512  1.00  0.00     0.029 A 
ATOM     64  N   UNL A   1      43.983  31.739  30.589  1.00  0.00    -0.354 N 
ATOM     65  N   UNL A   1      39.995  31.594  32.351  1.00  0.00    -0.248 NA
ATOM     66  C   UNL A   1      39.826  32.889  30.416  1.00  0.00     0.031 C 
ATOM     67  C   UNL A   1      44.610  29.979  31.709  1.00  0.00     0.029 A 
ATOM     68  C   UNL A   1      43.590  30.927  31.623  1.00  0.00     0.049 A 
ATOM     69  H   UNL A   1      43.748  32.689  30.483  1.00  0.00     0.167 HD
ATOM     70  C   UNL A   1      41.281  31.834  31.892  1.00  0.00     0.074 A 
ATOM     71  C   UNL A   1      41.111  32.714  30.737  1.00  0.00     0.031 C 
ATOM     72  C   UNL A   1      42.329  31.070  32.317  1.00  0.00     0.037 A 
BRANCH  59  73
ATOM     73  C   UNL A   1      44.644  32.439  27.578  1.00  0.00     0.064 A 
ATOM     74  C   UNL A   1      45.789  32.648  26.791  1.00  0.00     0.173 A 
ATOM     75  C   UNL A   1      43.872  33.589  27.857  1.00  0.00     0.173 A 
ATOM     76  F   UNL A   1      46.608  31.626  26.497  1.00  0.00    -0.203 F 
ATOM     77  C   UNL A   1      46.167  33.924  26.369  1.00  0.00     0.198 A 
ATOM     78  C   UNL A   1      44.223  34.853  27.390  1.00  0.00     0.198 A 
ATOM     79  F   UNL A   1      42.822  33.564  28.687  1.00  0.00    -0.203 F 
ATOM     80  F   UNL A   1      47.331  34.094  25.728  1.00  0.00    -0.200 F 
ATOM     81  C   UNL A   1      45.386  35.025  26.672  1.00  0.00     0.200 A 
ATOM     82  F   UNL A   1      43.466  35.910  27.718  1.00  0.00    -0.200 F 
ATOM     83  F   UNL A   1      45.778  36.257  26.323  1.00  0.00    -0.200 F 
ENDBRANCH  59  73
BRANCH  60  84
ATOM     84  C   UNL A   1      36.695  31.891  30.776  1.00  0.00     0.064 A 
ATOM     85  C   UNL A   1      35.856  32.151  31.874  1.00  0.00     0.173 A 
ATOM     86  C   UNL A   1      36.369  32.551  29.575  1.00  0.00     0.173 A 
ATOM     87  F   UNL A   1      36.123  31.606  33.070  1.00  0.00    -0.203 F 
ATOM     88  C   UNL A   1      34.771  33.033  31.781  1.00  0.00     0.198 A 
ATOM     89  C   UNL A   1      35.288  33.431  29.483  1.00  0.00     0.198 A 
ATOM     90  F   UNL A   1      37.152  32.429  28.493  1.00  0.00    -0.203 F 
ATOM     91  F   UNL A   1      34.029  33.300  32.865  1.00  0.00    -0.200 F 
ATOM     92  C   UNL A   1      34.496  33.681  30.588  1.00  0.00     0.200 A 
ATOM     93  F   UNL A   1      35.058  34.084  28.336  1.00  0.00    -0.200 F 
ATOM     94  F   UNL A   1      33.498  34.572  30.514  1.00  0.00    -0.200 F 
ENDBRANCH  60  84
BRANCH  72  95
ATOM     95  C   UNL A   1      42.079  30.157  33.491  1.00  0.00     0.064 A 
ATOM     96  C   UNL A   1      41.677  28.813  33.382  1.00  0.00     0.173 A 
ATOM     97  C   UNL A   1      42.359  30.636  34.778  1.00  0.00     0.173 A 
ATOM     98  F   UNL A   1      41.477  28.249  32.185  1.00  0.00    -0.203 F 
ATOM     99  C   UNL A   1      41.519  28.007  34.508  1.00  0.00     0.198 A 
ATOM    100  C   UNL A   1      42.234  29.820  35.899  1.00  0.00     0.198 A 
ATOM    101  F   UNL A   1      42.795  31.895  34.945  1.00  0.00    -0.203 F 
ATOM    102  F   UNL A   1      41.117  26.733  34.375  1.00  0.00    -0.200 F 
ATOM    103  C   UNL A   1      41.803  28.510  35.767  1.00  0.00     0.200 A 
ATOM    104  F   UNL A   1      42.552  30.298  37.110  1.00  0.00    -0.200 F 
ATOM    105  F   UNL A   1      41.683  27.728  36.849  1.00  0.00    -0.200 F 
ENDBRANCH  72  95
ENDBRANCH  46  47
ENDBRANCH  39  41
ENDBRANCH  38  39
ENDBRANCH  37  38
ENDBRANCH  36  37
ENDBRANCH  35  36
ENDBRANCH   1  35
TORSDOF 20
ENDMDL
MODEL 2
REMARK VINA RESULT:     -11.7      2.336      7.221
REMARK SMILES Cc1cc(C)n(CC(=O)N[C@@H]2C(=O)N3C(C(=O)OCCOCCOC(=O)c4ccc(-c5c6nc(c(-c7c(F)c(F)c(F)c(F)c7F)c7ccc([nH]7)c(-c7c(F)c(F)c(F)c(F)c7F)c7nc(c(-c8c(F)c(F)c(F)c(F)c8F)c8ccc5[nH]8)C=C7)C=C6)cc4)=C(CSc4nnc(C)s4)CS[C@H]23)n1
REMARK SMILES IDX 20 1 19 2 18 3 16 4 17 5 15 6 11 7 12 8 101 9 13 10 14 11
REMARK SMILES IDX 100 12 99 13 90 14 10 15 8 16 9 17 7 19 6 20 1 21 2 22 3 23
REMARK SMILES IDX 102 24 4 25 5 26 91 27 92 28 93 29 94 30 98 31 95 32 96 33
REMARK SMILES IDX 97 34 21 35 22 36 23 37 24 38 25 39 26 40 27 41 28 42 89 43
REMARK SMILES IDX 29 44 88 45 30 46 31 47 32 48 82 49 33 50 87 51 81 52 83 53
REMARK SMILES IDX 34 54 86 55 80 56 79 57 35 59 67 60 47 61 66 62 48 63 51 64
REMARK SMILES IDX 65 65 84 66 49 67 50 68 64 70 85 71 52 72 36 73 37 74 45 75
REMARK SMILES IDX 38 76 39 77 43 78 46 79 40 80 41 81 44 82 42 83 68 84 69 85
REMARK SMILES IDX 77 86 70 87 71 88 75 89 78 90 72 91 73 92 76 93 74 94 53 95
REMARK SMILES IDX 54 96 62 97 55 98 56 99 60 100 63 101 57 102 58 103 61 104
REMARK SMILES IDX 59 105
REMARK H PARENT 10 18 83 58 51 69
REMARK Flexibility Score: inf
ROOT
ATOM      1  C   UNL A   1      36.241  22.585  24.972  1.00  0.00     0.202 C 
ENDROOT
BRANCH   1   2
ATOM      2  C   UNL A   1      35.410  22.588  23.690  1.00  0.00     0.261 C 
BRANCH   2   3
ATOM      3  O   UNL A   1      35.109  23.938  23.294  1.00  0.00    -0.459 OA
BRANCH   3   4
ATOM      4  C   UNL A   1      33.944  24.103  22.626  1.00  0.00     0.355 C 
ATOM      5  O   UNL A   1      33.673  23.662  21.518  1.00  0.00    -0.244 OA
BRANCH   4   6
ATOM      6  C   UNL A   1      32.951  24.875  23.436  1.00  0.00     0.132 C 
ATOM      7  C   UNL A   1      33.602  28.118  24.384  1.00  0.00     0.205 C 
ATOM      8  C   UNL A   1      33.629  27.315  23.003  1.00  0.00     0.253 C 
ATOM      9  C   UNL A   1      32.889  26.839  24.868  1.00  0.00     0.181 C 
ATOM     10  O   UNL A   1      33.782  27.555  21.815  1.00  0.00    -0.272 OA
ATOM     11  N   UNL A   1      33.280  26.189  23.660  1.00  0.00    -0.289 N 
ATOM     12  S   UNL A   1      31.069  26.865  24.779  1.00  0.00    -0.129 SA
ATOM     13  C   UNL A   1      31.033  25.102  25.079  1.00  0.00     0.106 C 
ATOM     14  C   UNL A   1      31.896  24.321  24.101  1.00  0.00    -0.019 C 
BRANCH   7  15
ATOM     15  N   UNL A   1      32.783  29.348  24.589  1.00  0.00    -0.340 N 
ATOM     16  C   UNL A   1      32.535  29.982  25.794  1.00  0.00     0.242 C 
ATOM     17  O   UNL A   1      31.661  30.853  25.810  1.00  0.00    -0.273 OA
ATOM     18  H   UNL A   1      32.379  29.750  23.787  1.00  0.00     0.164 HD
BRANCH  16  19
ATOM     19  C   UNL A   1      33.367  29.699  27.043  1.00  0.00     0.244 C 
BRANCH  19  20
ATOM     20  N   UNL A   1      34.259  30.751  27.534  1.00  0.00    -0.260 N 
ATOM     21  C   UNL A   1      34.599  34.262  27.924  1.00  0.00     0.069 C 
ATOM     22  C   UNL A   1      34.750  32.780  28.006  1.00  0.00     0.060 A 
ATOM     23  C   UNL A   1      35.938  32.035  28.159  1.00  0.00     0.048 A 
ATOM     24  N   UNL A   1      33.712  31.978  27.741  1.00  0.00    -0.178 NA
ATOM     25  C   UNL A   1      35.609  30.735  27.813  1.00  0.00     0.036 A 
ATOM     26  C   UNL A   1      36.515  29.576  27.601  1.00  0.00     0.066 C 
ENDBRANCH  19  20
ENDBRANCH  16  19
ENDBRANCH   7  15
BRANCH  14  27
ATOM     27  C   UNL A   1      31.474  22.877  24.099  1.00  0.00     0.111 C 
BRANCH  27  28
ATOM     28  S   UNL A   1      32.175  21.890  25.436  1.00  0.00    -0.089 SA
BRANCH  28  29
ATOM     29  C   UNL A   1      32.182  20.213  24.912  1.00  0.00     0.174 A 
ATOM     30  N   UNL A   1      32.198  19.216  25.773  1.00  0.00    -0.132 NA
ATOM     31  S   UNL A   1      32.445  19.697  23.284  1.00  0.00    -0.091 S 
ATOM     32  N   UNL A   1      32.613  18.023  25.187  1.00  0.00    -0.143 NA
ATOM     33  C   UNL A   1      32.900  18.173  23.911  1.00  0.00     0.115 A 
ATOM     34  C   UNL A   1      33.647  17.213  23.059  1.00  0.00     0.081 C 
ENDBRANCH  28  29
ENDBRANCH  27  28
ENDBRANCH  14  27
ENDBRANCH   4   6
ENDBRANCH   3   4
ENDBRANCH   2   3
ENDBRANCH   1   2
BRANCH   1  35
ATOM     35  O   UNL A   1      37.362  23.468  25.006  1.00  0.00    -0.374 OA
BRANCH  35  36
ATOM     36  C   UNL A   1      38.419  23.198  25.918  1.00  0.00     0.202 C 
BRANCH  36  37
ATOM     37  C   UNL A   1      38.905  24.350  26.785  1.00  0.00     0.261 C 
BRANCH  37  38
ATOM     38  O   UNL A   1      40.318  24.540  26.762  1.00  0.00    -0.460 OA
BRANCH  38  39
ATOM     39  C   UNL A   1      40.748  25.695  26.184  1.00  0.00     0.338 C 
ATOM     40  O   UNL A   1      41.284  25.828  25.101  1.00  0.00    -0.246 OA
BRANCH  39  41
ATOM     41  C   UNL A   1      40.581  26.784  27.160  1.00  0.00     0.060 A 
ATOM     42  C   UNL A   1      40.522  28.123  26.803  1.00  0.00     0.016 A 
ATOM     43  C   UNL A   1      40.645  26.436  28.503  1.00  0.00     0.016 A 
ATOM     44  C   UNL A   1      40.638  29.076  27.814  1.00  0.00     0.010 A 
ATOM     45  C   UNL A   1      40.589  27.357  29.509  1.00  0.00     0.010 A 
ATOM     46  C   UNL A   1      40.731  28.672  29.163  1.00  0.00    -0.014 A 
BRANCH  46  47
ATOM     47  C   UNL A   1      40.924  29.618  30.247  1.00  0.00     0.031 A 
ATOM     48  C   UNL A   1      39.662  30.239  30.674  1.00  0.00     0.074 A 
ATOM     49  C   UNL A   1      42.098  29.851  30.879  1.00  0.00     0.049 A 
ATOM     50  N   UNL A   1      39.273  31.427  30.371  1.00  0.00    -0.248 NA
ATOM     51  C   UNL A   1      38.639  29.402  31.316  1.00  0.00     0.031 C 
ATOM     52  C   UNL A   1      43.377  29.138  30.768  1.00  0.00     0.029 A 
ATOM     53  N   UNL A   1      42.375  30.803  31.814  1.00  0.00    -0.354 N 
ATOM     54  C   UNL A   1      38.030  31.573  30.962  1.00  0.00     0.074 A 
ATOM     55  C   UNL A   1      37.613  30.255  31.369  1.00  0.00     0.031 C 
ATOM     56  C   UNL A   1      44.223  29.556  31.739  1.00  0.00     0.029 A 
ATOM     57  C   UNL A   1      43.616  30.679  32.429  1.00  0.00     0.049 A 
ATOM     58  H   UNL A   1      41.743  31.525  32.037  1.00  0.00     0.167 HD
ATOM     59  C   UNL A   1      37.591  32.813  31.298  1.00  0.00     0.037 A 
ATOM     60  C   UNL A   1      44.113  31.460  33.422  1.00  0.00     0.037 A 
ATOM     61  C   UNL A   1      38.333  33.837  30.597  1.00  0.00     0.049 A 
ATOM     62  C   UNL A   1      43.389  32.753  33.356  1.00  0.00     0.074 A 
ATOM     63  C   UNL A   1      38.514  34.168  29.267  1.00  0.00     0.029 A 
ATOM     64  N   UNL A   1      39.367  34.438  31.272  1.00  0.00    -0.354 N 
ATOM     65  N   UNL A   1      43.505  33.591  32.364  1.00  0.00    -0.248 NA
ATOM     66  C   UNL A   1      42.182  32.889  34.154  1.00  0.00     0.031 C 
ATOM     67  C   UNL A   1      39.884  34.559  29.159  1.00  0.00     0.029 A 
ATOM     68  C   UNL A   1      40.451  34.509  30.433  1.00  0.00     0.049 A 
ATOM     69  H   UNL A   1      39.337  34.763  32.201  1.00  0.00     0.167 HD
ATOM     70  C   UNL A   1      42.214  34.043  32.136  1.00  0.00     0.074 A 
ATOM     71  C   UNL A   1      41.461  33.647  33.325  1.00  0.00     0.031 C 
ATOM     72  C   UNL A   1      41.822  34.437  30.889  1.00  0.00     0.037 A 
BRANCH  59  73
ATOM     73  C   UNL A   1      36.810  33.091  32.551  1.00  0.00     0.064 A 
ATOM     74  C   UNL A   1      35.621  33.834  32.466  1.00  0.00     0.173 A 
ATOM     75  C   UNL A   1      37.336  32.921  33.853  1.00  0.00     0.173 A 
ATOM     76  F   UNL A   1      35.058  34.081  31.272  1.00  0.00    -0.203 F 
ATOM     77  C   UNL A   1      35.038  34.420  33.591  1.00  0.00     0.198 A 
ATOM     78  C   UNL A   1      36.723  33.461  34.980  1.00  0.00     0.198 A 
ATOM     79  F   UNL A   1      38.519  32.337  34.077  1.00  0.00    -0.203 F 
ATOM     80  F   UNL A   1      33.977  35.224  33.447  1.00  0.00    -0.200 F 
ATOM     81  C   UNL A   1      35.591  34.235  34.846  1.00  0.00     0.200 A 
ATOM     82  F   UNL A   1      37.291  33.293  36.182  1.00  0.00    -0.200 F 
ATOM     83  F   UNL A   1      35.070  34.845  35.918  1.00  0.00    -0.200 F 
ENDBRANCH  59  73
BRANCH  60  84
ATOM     84  C   UNL A   1      44.889  31.049  34.619  1.00  0.00     0.064 A 
ATOM     85  C   UNL A   1      46.101  31.675  34.960  1.00  0.00     0.173 A 
ATOM     86  C   UNL A   1      44.304  30.243  35.615  1.00  0.00     0.173 A 
ATOM     87  F   UNL A   1      46.701  32.502  34.091  1.00  0.00    -0.203 F 
ATOM     88  C   UNL A   1      46.679  31.523  36.227  1.00  0.00     0.198 A 
ATOM     89  C   UNL A   1      44.880  30.092  36.878  1.00  0.00     0.198 A 
ATOM     90  F   UNL A   1      43.111  29.666  35.413  1.00  0.00    -0.203 F 
ATOM     91  F   UNL A   1      47.805  32.182  36.536  1.00  0.00    -0.200 F 
ATOM     92  C   UNL A   1      46.061  30.740  37.189  1.00  0.00     0.200 A 
ATOM     93  F   UNL A   1      44.251  29.367  37.814  1.00  0.00    -0.200 F 
ATOM     94  F   UNL A   1      46.579  30.643  38.421  1.00  0.00    -0.200 F 
ENDBRANCH  60  84
BRANCH  72  95
ATOM     95  C   UNL A   1      42.905  34.621  29.857  1.00  0.00     0.064 A 
ATOM     96  C   UNL A   1      43.358  33.607  28.992  1.00  0.00     0.173 A 
ATOM     97  C   UNL A   1      43.433  35.904  29.666  1.00  0.00     0.173 A 
ATOM     98  F   UNL A   1      42.841  32.374  29.044  1.00  0.00    -0.203 F 
ATOM     99  C   UNL A   1      44.324  33.860  28.018  1.00  0.00     0.198 A 
ATOM    100  C   UNL A   1      44.372  36.163  28.672  1.00  0.00     0.198 A 
ATOM    101  F   UNL A   1      43.005  36.925  30.427  1.00  0.00    -0.203 F 
ATOM    102  F   UNL A   1      44.750  32.870  27.218  1.00  0.00    -0.200 F 
ATOM    103  C   UNL A   1      44.828  35.139  27.856  1.00  0.00     0.200 A 
ATOM    104  F   UNL A   1      44.824  37.412  28.490  1.00  0.00    -0.200 F 
ATOM    105  F   UNL A   1      45.733  35.392  26.900  1.00  0.00    -0.200 F 
ENDBRANCH  72  95
ENDBRANCH  46  47
ENDBRANCH  39  41
ENDBRANCH  38  39
ENDBRANCH  37  38
ENDBRANCH  36  37
ENDBRANCH  35  36
ENDBRANCH   1  35
TORSDOF 20
ENDMDL
MODEL 3
REMARK VINA RESULT:     -11.3      5.872     10.838
REMARK SMILES Cc1cc(C)n(CC(=O)N[C@@H]2C(=O)N3C(C(=O)OCCOCCOC(=O)c4ccc(-c5c6nc(c(-c7c(F)c(F)c(F)c(F)c7F)c7ccc([nH]7)c(-c7c(F)c(F)c(F)c(F)c7F)c7nc(c(-c8c(F)c(F)c(F)c(F)c8F)c8ccc5[nH]8)C=C7)C=C6)cc4)=C(CSc4nnc(C)s4)CS[C@H]23)n1
REMARK SMILES IDX 20 1 19 2 18 3 16 4 17 5 15 6 11 7 12 8 101 9 13 10 14 11
REMARK SMILES IDX 100 12 99 13 90 14 10 15 8 16 9 17 7 19 6 20 1 21 2 22 3 23
REMARK SMILES IDX 102 24 4 25 5 26 91 27 92 28 93 29 94 30 98 31 95 32 96 33
REMARK SMILES IDX 97 34 21 35 22 36 23 37 24 38 25 39 26 40 27 41 28 42 89 43
REMARK SMILES IDX 29 44 88 45 30 46 31 47 32 48 82 49 33 50 87 51 81 52 83 53
REMARK SMILES IDX 34 54 86 55 80 56 79 57 35 59 67 60 47 61 66 62 48 63 51 64
REMARK SMILES IDX 65 65 84 66 49 67 50 68 64 70 85 71 52 72 36 73 37 74 45 75
REMARK SMILES IDX 38 76 39 77 43 78 46 79 40 80 41 81 44 82 42 83 68 84 69 85
REMARK SMILES IDX 77 86 70 87 71 88 75 89 78 90 72 91 73 92 76 93 74 94 53 95
REMARK SMILES IDX 54 96 62 97 55 98 56 99 60 100 63 101 57 102 58 103 61 104
REMARK SMILES IDX 59 105
REMARK H PARENT 10 18 83 58 51 69
REMARK Flexibility Score: inf
ROOT
ATOM      1  C   UNL A   1      44.040  31.200  27.091  1.00  0.00     0.202 C 
ENDROOT
BRANCH   1   2
ATOM      2  C   UNL A   1      44.743  29.990  27.704  1.00  0.00     0.261 C 
BRANCH   2   3
ATOM      3  O   UNL A   1      44.764  28.897  26.768  1.00  0.00    -0.459 OA
BRANCH   3   4
ATOM      4  C   UNL A   1      43.765  27.996  26.902  1.00  0.00     0.355 C 
ATOM      5  O   UNL A   1      42.583  28.180  26.650  1.00  0.00    -0.244 OA
BRANCH   4   6
ATOM      6  C   UNL A   1      44.279  26.669  27.365  1.00  0.00     0.132 C 
ATOM      7  C   UNL A   1      44.995  24.178  25.102  1.00  0.00     0.205 C 
ATOM      8  C   UNL A   1      45.395  25.718  25.255  1.00  0.00     0.253 C 
ATOM      9  C   UNL A   1      44.472  24.392  26.537  1.00  0.00     0.181 C 
ATOM     10  O   UNL A   1      46.143  26.520  24.718  1.00  0.00    -0.272 OA
ATOM     11  N   UNL A   1      44.626  25.799  26.362  1.00  0.00    -0.289 N 
ATOM     12  S   UNL A   1      45.642  23.988  27.875  1.00  0.00    -0.129 SA
ATOM     13  C   UNL A   1      44.569  24.800  29.053  1.00  0.00     0.106 C 
ATOM     14  C   UNL A   1      44.230  26.228  28.655  1.00  0.00    -0.019 C 
BRANCH   7  15
ATOM     15  N   UNL A   1      46.005  23.084  25.013  1.00  0.00    -0.340 N 
ATOM     16  C   UNL A   1      45.751  21.744  24.785  1.00  0.00     0.242 C 
ATOM     17  O   UNL A   1      46.679  20.949  24.962  1.00  0.00    -0.273 OA
ATOM     18  H   UNL A   1      46.948  23.342  25.127  1.00  0.00     0.164 HD
BRANCH  16  19
ATOM     19  C   UNL A   1      44.410  21.256  24.239  1.00  0.00     0.244 C 
BRANCH  19  20
ATOM     20  N   UNL A   1      43.492  20.582  25.159  1.00  0.00    -0.260 N 
ATOM     21  C   UNL A   1      40.842  21.116  27.457  1.00  0.00     0.069 C 
ATOM     22  C   UNL A   1      41.839  20.527  26.518  1.00  0.00     0.060 A 
ATOM     23  C   UNL A   1      42.456  19.260  26.588  1.00  0.00     0.048 A 
ATOM     24  N   UNL A   1      42.400  21.282  25.566  1.00  0.00    -0.178 NA
ATOM     25  C   UNL A   1      43.544  19.329  25.732  1.00  0.00     0.036 A 
ATOM     26  C   UNL A   1      44.655  18.355  25.567  1.00  0.00     0.066 C 
ENDBRANCH  19  20
ENDBRANCH  16  19
ENDBRANCH   7  15
BRANCH  14  27
ATOM     27  C   UNL A   1      43.738  26.983  29.859  1.00  0.00     0.111 C 
BRANCH  27  28
ATOM     28  S   UNL A   1      45.040  27.736  30.853  1.00  0.00    -0.089 SA
BRANCH  28  29
ATOM     29  C   UNL A   1      45.005  26.980  32.439  1.00  0.00     0.174 A 
ATOM     30  N   UNL A   1      44.243  25.936  32.694  1.00  0.00    -0.132 NA
ATOM     31  S   UNL A   1      45.714  27.657  33.862  1.00  0.00    -0.091 S 
ATOM     32  N   UNL A   1      44.043  25.754  34.061  1.00  0.00    -0.143 NA
ATOM     33  C   UNL A   1      44.656  26.674  34.776  1.00  0.00     0.115 A 
ATOM     34  C   UNL A   1      44.423  26.970  36.213  1.00  0.00     0.081 C 
ENDBRANCH  28  29
ENDBRANCH  27  28
ENDBRANCH  14  27
ENDBRANCH   4   6
ENDBRANCH   3   4
ENDBRANCH   2   3
ENDBRANCH   1   2
BRANCH   1  35
ATOM     35  O   UNL A   1      44.875  32.157  26.438  1.00  0.00    -0.374 OA
BRANCH  35  36
ATOM     36  C   UNL A   1      44.284  33.064  25.516  1.00  0.00     0.202 C 
BRANCH  36  37
ATOM     37  C   UNL A   1      44.376  34.548  25.840  1.00  0.00     0.261 C 
BRANCH  37  38
ATOM     38  O   UNL A   1      45.458  34.889  26.704  1.00  0.00    -0.460 OA
BRANCH  38  39
ATOM     39  C   UNL A   1      45.222  35.918  27.564  1.00  0.00     0.338 C 
ATOM     40  O   UNL A   1      45.695  37.039  27.527  1.00  0.00    -0.246 OA
BRANCH  39  41
ATOM     41  C   UNL A   1      44.382  35.414  28.661  1.00  0.00     0.060 A 
ATOM     42  C   UNL A   1      44.584  34.184  29.270  1.00  0.00     0.016 A 
ATOM     43  C   UNL A   1      43.249  36.154  28.973  1.00  0.00     0.016 A 
ATOM     44  C   UNL A   1      43.577  33.691  30.099  1.00  0.00     0.010 A 
ATOM     45  C   UNL A   1      42.340  35.755  29.911  1.00  0.00     0.010 A 
ATOM     46  C   UNL A   1      42.430  34.468  30.363  1.00  0.00    -0.014 A 
BRANCH  46  47
ATOM     47  C   UNL A   1      41.322  33.975  31.160  1.00  0.00     0.031 A 
ATOM     48  C   UNL A   1      41.719  33.686  32.546  1.00  0.00     0.074 A 
ATOM     49  C   UNL A   1      40.041  33.874  30.737  1.00  0.00     0.049 A 
ATOM     50  N   UNL A   1      41.941  32.515  33.032  1.00  0.00    -0.248 NA
ATOM     51  C   UNL A   1      42.116  34.799  33.418  1.00  0.00     0.031 C 
ATOM     52  C   UNL A   1      39.425  34.363  29.496  1.00  0.00     0.029 A 
ATOM     53  N   UNL A   1      38.983  33.312  31.386  1.00  0.00    -0.354 N 
ATOM     54  C   UNL A   1      42.310  32.724  34.349  1.00  0.00     0.074 A 
ATOM     55  C   UNL A   1      42.576  34.134  34.481  1.00  0.00     0.031 C 
ATOM     56  C   UNL A   1      38.077  34.249  29.576  1.00  0.00     0.029 A 
ATOM     57  C   UNL A   1      37.745  33.528  30.790  1.00  0.00     0.049 A 
ATOM     58  H   UNL A   1      39.087  32.791  32.215  1.00  0.00     0.167 HD
ATOM     59  C   UNL A   1      42.095  31.746  35.266  1.00  0.00     0.037 A 
ATOM     60  C   UNL A   1      36.536  33.122  31.256  1.00  0.00     0.037 A 
ATOM     61  C   UNL A   1      41.887  30.467  34.626  1.00  0.00     0.049 A 
ATOM     62  C   UNL A   1      36.787  31.977  32.163  1.00  0.00     0.074 A 
ATOM     63  C   UNL A   1      42.649  29.653  33.811  1.00  0.00     0.029 A 
ATOM     64  N   UNL A   1      40.588  30.057  34.449  1.00  0.00    -0.354 N 
ATOM     65  N   UNL A   1      37.242  30.825  31.757  1.00  0.00    -0.248 NA
ATOM     66  C   UNL A   1      36.985  32.267  33.573  1.00  0.00     0.031 C 
ATOM     67  C   UNL A   1      41.735  29.113  32.855  1.00  0.00     0.029 A 
ATOM     68  C   UNL A   1      40.456  29.572  33.171  1.00  0.00     0.049 A 
ATOM     69  H   UNL A   1      39.872  30.102  35.123  1.00  0.00     0.167 HD
ATOM     70  C   UNL A   1      38.164  30.453  32.723  1.00  0.00     0.074 A 
ATOM     71  C   UNL A   1      37.896  31.333  33.859  1.00  0.00     0.031 C 
ATOM     72  C   UNL A   1      39.235  29.668  32.402  1.00  0.00     0.037 A 
BRANCH  59  73
ATOM     73  C   UNL A   1      41.654  32.031  36.674  1.00  0.00     0.064 A 
ATOM     74  C   UNL A   1      40.476  32.768  36.885  1.00  0.00     0.173 A 
ATOM     75  C   UNL A   1      42.492  31.878  37.802  1.00  0.00     0.173 A 
ATOM     76  F   UNL A   1      39.628  33.000  35.871  1.00  0.00    -0.203 F 
ATOM     77  C   UNL A   1      40.191  33.361  38.117  1.00  0.00     0.198 A 
ATOM     78  C   UNL A   1      42.179  32.425  39.043  1.00  0.00     0.198 A 
ATOM     79  F   UNL A   1      43.698  31.302  37.725  1.00  0.00    -0.203 F 
ATOM     80  F   UNL A   1      39.122  34.158  38.239  1.00  0.00    -0.200 F 
ATOM     81  C   UNL A   1      41.045  33.192  39.193  1.00  0.00     0.200 A 
ATOM     82  F   UNL A   1      43.034  32.271  40.064  1.00  0.00    -0.200 F 
ATOM     83  F   UNL A   1      40.806  33.810  40.356  1.00  0.00    -0.200 F 
ENDBRANCH  59  73
BRANCH  60  84
ATOM     84  C   UNL A   1      35.251  33.865  31.257  1.00  0.00     0.064 A 
ATOM     85  C   UNL A   1      34.958  34.825  32.242  1.00  0.00     0.173 A 
ATOM     86  C   UNL A   1      34.417  33.865  30.122  1.00  0.00     0.173 A 
ATOM     87  F   UNL A   1      35.732  34.931  33.332  1.00  0.00    -0.203 F 
ATOM     88  C   UNL A   1      33.911  35.743  32.089  1.00  0.00     0.198 A 
ATOM     89  C   UNL A   1      33.374  34.781  29.969  1.00  0.00     0.198 A 
ATOM     90  F   UNL A   1      34.662  33.039  29.094  1.00  0.00    -0.203 F 
ATOM     91  F   UNL A   1      33.699  36.682  33.022  1.00  0.00    -0.200 F 
ATOM     92  C   UNL A   1      33.128  35.727  30.946  1.00  0.00     0.200 A 
ATOM     93  F   UNL A   1      32.650  34.783  28.841  1.00  0.00    -0.200 F 
ATOM     94  F   UNL A   1      32.165  36.644  30.769  1.00  0.00    -0.200 F 
ENDBRANCH  60  84
BRANCH  72  95
ATOM     95  C   UNL A   1      39.218  29.009  31.046  1.00  0.00     0.064 A 
ATOM     96  C   UNL A   1      39.630  29.632  29.854  1.00  0.00     0.173 A 
ATOM     97  C   UNL A   1      38.867  27.654  30.969  1.00  0.00     0.173 A 
ATOM     98  F   UNL A   1      40.067  30.896  29.853  1.00  0.00    -0.203 F 
ATOM     99  C   UNL A   1      39.643  28.945  28.640  1.00  0.00     0.198 A 
ATOM    100  C   UNL A   1      38.914  26.960  29.763  1.00  0.00     0.198 A 
ATOM    101  F   UNL A   1      38.513  26.989  32.080  1.00  0.00    -0.203 F 
ATOM    102  F   UNL A   1      40.024  29.570  27.515  1.00  0.00    -0.200 F 
ATOM    103  C   UNL A   1      39.290  27.607  28.597  1.00  0.00     0.200 A 
ATOM    104  F   UNL A   1      38.614  25.654  29.734  1.00  0.00    -0.200 F 
ATOM    105  F   UNL A   1      39.333  26.935  27.438  1.00  0.00    -0.200 F 
ENDBRANCH  72  95
ENDBRANCH  46  47
ENDBRANCH  39  41
ENDBRANCH  38  39
ENDBRANCH  37  38
ENDBRANCH  36  37
ENDBRANCH  35  36
ENDBRANCH   1  35
TORSDOF 20
ENDMDL
