MODEL 1
REMARK VINA RESULT:     -11.3      0.000      0.000
REMARK SMILES Cn1cc(S[C@@H]2CCC[C@]([NH2+]C3CC3)(C(=O)OCCOCCOC(=O)c3ccc(-c4c5nc(c(-c6c(F)c(F)c(F)c(F)c6F)c6ccc([nH]6)c(-c6c(F)c(F)c(F)c(F)c6F)c6nc(c(-c7c(F)c(F)c(F)c(F)c7F)c7ccc4[nH]7)C=C6)C=C5)cc3)C2)cn1
REMARK SMILES IDX 20 1 19 2 18 3 17 4 15 5 16 6 10 7 6 8 7 9 89 10 8 11 9 12
REMARK SMILES IDX 5 13 4 14 1 15 2 16 3 17 91 18 90 19 11 20 12 23 13 24 14 25
REMARK SMILES IDX 21 26 22 27 23 28 24 29 25 30 26 31 27 32 88 33 28 34 87 35
REMARK SMILES IDX 29 36 30 37 31 38 81 39 32 40 86 41 80 42 82 43 33 44 85 45
REMARK SMILES IDX 79 46 78 47 34 49 66 50 46 51 65 52 47 53 50 54 64 55 83 56
REMARK SMILES IDX 48 57 49 58 63 60 84 61 51 62 35 63 36 64 44 65 37 66 38 67
REMARK SMILES IDX 42 68 45 69 39 70 40 71 43 72 41 73 67 74 68 75 76 76 69 77
REMARK SMILES IDX 70 78 74 79 77 80 71 81 72 82 75 83 73 84 52 85 53 86 61 87
REMARK SMILES IDX 54 88 55 89 59 90 62 91 56 92 57 93 60 94 58 95
REMARK H PARENT 11 21 11 22 82 48 50 59
REMARK Flexibility Score: inf
ROOT
ATOM      1  O   UNL A   1      31.485  29.094  23.859  1.00  0.00    -0.374 OA
ENDROOT
BRANCH   1   2
ATOM      2  C   UNL A   1      32.394  28.246  23.159  1.00  0.00     0.202 C 
BRANCH   2   3
ATOM      3  C   UNL A   1      31.913  26.838  22.797  1.00  0.00     0.261 C 
BRANCH   3   4
ATOM      4  O   UNL A   1      32.481  25.807  23.634  1.00  0.00    -0.459 OA
BRANCH   4   5
ATOM      5  C   UNL A   1      33.200  24.867  22.959  1.00  0.00     0.368 C 
ATOM      6  O   UNL A   1      33.751  25.085  21.880  1.00  0.00    -0.245 OA
BRANCH   5   7
ATOM      7  C   UNL A   1      33.381  23.507  23.734  1.00  0.00     0.195 C 
ATOM      8  C   UNL A   1      32.735  21.017  23.747  1.00  0.00     0.058 C 
ATOM      9  C   UNL A   1      32.102  21.147  25.140  1.00  0.00     0.015 C 
ATOM     10  C   UNL A   1      32.777  22.326  22.943  1.00  0.00     0.096 C 
ATOM     11  C   UNL A   1      32.563  22.377  25.924  1.00  0.00     0.008 C 
ATOM     12  C   UNL A   1      32.625  23.642  25.076  1.00  0.00     0.081 C 
BRANCH   8  13
ATOM     13  S   UNL A   1      32.132  19.637  22.714  1.00  0.00    -0.119 SA
BRANCH  13  14
ATOM     14  C   UNL A   1      32.718  18.142  23.369  1.00  0.00     0.046 A 
ATOM     15  C   UNL A   1      33.499  15.466  25.636  1.00  0.00     0.173 C 
ATOM     16  N   UNL A   1      33.278  16.388  24.549  1.00  0.00    -0.275 N 
ATOM     17  C   UNL A   1      32.457  17.483  24.544  1.00  0.00     0.123 A 
ATOM     18  N   UNL A   1      33.964  16.226  23.405  1.00  0.00    -0.181 NA
ATOM     19  C   UNL A   1      33.619  17.299  22.685  1.00  0.00     0.150 A 
ENDBRANCH  13  14
ENDBRANCH   8  13
BRANCH   7  20
ATOM     20  N   UNL A   1      34.850  23.445  23.898  1.00  0.00    -0.330 N 
ATOM     21  H   UNL A   1      35.236  23.798  23.022  1.00  0.00     0.347 HD
ATOM     22  H   UNL A   1      34.961  22.472  24.184  1.00  0.00     0.347 HD
BRANCH  20  23
ATOM     23  C   UNL A   1      35.600  24.105  24.941  1.00  0.00     0.183 C 
ATOM     24  C   UNL A   1      35.997  23.317  26.157  1.00  0.00     0.071 C 
ATOM     25  C   UNL A   1      37.030  23.673  25.133  1.00  0.00     0.071 C 
ENDBRANCH  20  23
ENDBRANCH   7  20
ENDBRANCH   5   7
ENDBRANCH   4   5
ENDBRANCH   3   4
ENDBRANCH   2   3
ENDBRANCH   1   2
BRANCH   1  26
ATOM     26  C   UNL A   1      31.639  29.184  25.272  1.00  0.00     0.202 C 
BRANCH  26  27
ATOM     27  C   UNL A   1      31.696  30.596  25.868  1.00  0.00     0.261 C 
BRANCH  27  28
ATOM     28  O   UNL A   1      32.420  30.627  27.112  1.00  0.00    -0.460 OA
BRANCH  28  29
ATOM     29  C   UNL A   1      33.155  31.746  27.301  1.00  0.00     0.338 C 
ATOM     30  O   UNL A   1      32.767  32.907  27.256  1.00  0.00    -0.246 OA
BRANCH  29  31
ATOM     31  C   UNL A   1      34.515  31.398  27.751  1.00  0.00     0.060 A 
ATOM     32  C   UNL A   1      34.776  30.045  28.009  1.00  0.00     0.016 A 
ATOM     33  C   UNL A   1      35.487  32.369  27.997  1.00  0.00     0.016 A 
ATOM     34  C   UNL A   1      35.987  29.665  28.577  1.00  0.00     0.010 A 
ATOM     35  C   UNL A   1      36.702  31.986  28.577  1.00  0.00     0.010 A 
ATOM     36  C   UNL A   1      36.937  30.638  28.910  1.00  0.00    -0.014 A 
BRANCH  36  37
ATOM     37  C   UNL A   1      38.085  30.264  29.772  1.00  0.00     0.031 A 
ATOM     38  C   UNL A   1      39.120  29.319  29.227  1.00  0.00     0.074 A 
ATOM     39  C   UNL A   1      38.230  30.791  31.000  1.00  0.00     0.049 A 
ATOM     40  N   UNL A   1      40.187  28.827  29.804  1.00  0.00    -0.248 NA
ATOM     41  C   UNL A   1      38.924  28.866  27.839  1.00  0.00     0.031 C 
ATOM     42  C   UNL A   1      37.323  31.755  31.619  1.00  0.00     0.029 A 
ATOM     43  N   UNL A   1      39.200  30.583  31.948  1.00  0.00    -0.354 N 
ATOM     44  C   UNL A   1      40.783  28.005  28.856  1.00  0.00     0.074 A 
ATOM     45  C   UNL A   1      39.948  28.040  27.676  1.00  0.00     0.031 C 
ATOM     46  C   UNL A   1      37.774  32.046  32.851  1.00  0.00     0.029 A 
ATOM     47  C   UNL A   1      38.983  31.268  33.117  1.00  0.00     0.049 A 
ATOM     48  H   UNL A   1      39.979  29.997  31.803  1.00  0.00     0.167 HD
ATOM     49  C   UNL A   1      41.929  27.293  28.959  1.00  0.00     0.037 A 
ATOM     50  C   UNL A   1      39.672  31.249  34.275  1.00  0.00     0.037 A 
ATOM     51  C   UNL A   1      42.765  27.266  30.130  1.00  0.00     0.049 A 
ATOM     52  C   UNL A   1      40.907  30.394  34.386  1.00  0.00     0.074 A 
ATOM     53  C   UNL A   1      43.953  26.586  30.327  1.00  0.00     0.029 A 
ATOM     54  N   UNL A   1      42.495  27.950  31.305  1.00  0.00    -0.354 N 
ATOM     55  N   UNL A   1      41.474  29.632  33.482  1.00  0.00    -0.248 NA
ATOM     56  C   UNL A   1      41.603  30.399  35.682  1.00  0.00     0.031 C 
ATOM     57  C   UNL A   1      44.379  26.823  31.638  1.00  0.00     0.029 A 
ATOM     58  C   UNL A   1      43.483  27.690  32.241  1.00  0.00     0.049 A 
ATOM     59  H   UNL A   1      41.716  28.535  31.454  1.00  0.00     0.167 HD
ATOM     60  C   UNL A   1      42.603  29.093  34.087  1.00  0.00     0.074 A 
ATOM     61  C   UNL A   1      42.648  29.624  35.433  1.00  0.00     0.031 C 
ATOM     62  C   UNL A   1      43.520  28.237  33.572  1.00  0.00     0.037 A 
BRANCH  49  63
ATOM     63  C   UNL A   1      42.337  26.462  27.779  1.00  0.00     0.064 A 
ATOM     64  C   UNL A   1      43.289  26.913  26.853  1.00  0.00     0.173 A 
ATOM     65  C   UNL A   1      41.794  25.182  27.593  1.00  0.00     0.173 A 
ATOM     66  F   UNL A   1      43.825  28.136  26.978  1.00  0.00    -0.203 F 
ATOM     67  C   UNL A   1      43.667  26.122  25.772  1.00  0.00     0.198 A 
ATOM     68  C   UNL A   1      42.194  24.383  26.526  1.00  0.00     0.198 A 
ATOM     69  F   UNL A   1      40.881  24.704  28.451  1.00  0.00    -0.203 F 
ATOM     70  F   UNL A   1      44.546  26.589  24.875  1.00  0.00    -0.200 F 
ATOM     71  C   UNL A   1      43.125  24.854  25.613  1.00  0.00     0.200 A 
ATOM     72  F   UNL A   1      41.676  23.155  26.379  1.00  0.00    -0.200 F 
ATOM     73  F   UNL A   1      43.494  24.091  24.575  1.00  0.00    -0.200 F 
ENDBRANCH  49  63
BRANCH  50  74
ATOM     74  C   UNL A   1      39.202  32.054  35.433  1.00  0.00     0.064 A 
ATOM     75  C   UNL A   1      39.572  33.398  35.579  1.00  0.00     0.173 A 
ATOM     76  C   UNL A   1      38.394  31.488  36.429  1.00  0.00     0.173 A 
ATOM     77  F   UNL A   1      40.367  33.977  34.666  1.00  0.00    -0.203 F 
ATOM     78  C   UNL A   1      39.169  34.139  36.687  1.00  0.00     0.198 A 
ATOM     79  C   UNL A   1      37.967  32.237  37.523  1.00  0.00     0.198 A 
ATOM     80  F   UNL A   1      38.015  30.205  36.337  1.00  0.00    -0.203 F 
ATOM     81  F   UNL A   1      39.577  35.407  36.828  1.00  0.00    -0.200 F 
ATOM     82  C   UNL A   1      38.362  33.561  37.656  1.00  0.00     0.200 A 
ATOM     83  F   UNL A   1      37.181  31.676  38.451  1.00  0.00    -0.200 F 
ATOM     84  F   UNL A   1      37.974  34.273  38.723  1.00  0.00    -0.200 F 
ENDBRANCH  50  74
BRANCH  62  85
ATOM     85  C   UNL A   1      44.675  27.852  34.450  1.00  0.00     0.064 A 
ATOM     86  C   UNL A   1      45.864  28.597  34.471  1.00  0.00     0.173 A 
ATOM     87  C   UNL A   1      44.572  26.753  35.316  1.00  0.00     0.173 A 
ATOM     88  F   UNL A   1      46.017  29.648  33.652  1.00  0.00    -0.203 F 
ATOM     89  C   UNL A   1      46.915  28.240  35.311  1.00  0.00     0.198 A 
ATOM     90  C   UNL A   1      45.614  26.417  36.175  1.00  0.00     0.198 A 
ATOM     91  F   UNL A   1      43.452  26.015  35.340  1.00  0.00    -0.203 F 
ATOM     92  F   UNL A   1      48.059  28.940  35.286  1.00  0.00    -0.200 F 
ATOM     93  C   UNL A   1      46.787  27.155  36.167  1.00  0.00     0.200 A 
ATOM     94  F   UNL A   1      45.482  25.378  37.011  1.00  0.00    -0.200 F 
ATOM     95  F   UNL A   1      47.797  26.820  36.982  1.00  0.00    -0.200 F 
ENDBRANCH  62  85
ENDBRANCH  36  37
ENDBRANCH  29  31
ENDBRANCH  28  29
ENDBRANCH  27  28
ENDBRANCH  26  27
ENDBRANCH   1  26
TORSDOF 18
ENDMDL
MODEL 2
REMARK VINA RESULT:     -11.3      3.160      8.231
REMARK SMILES Cn1cc(S[C@@H]2CCC[C@]([NH2+]C3CC3)(C(=O)OCCOCCOC(=O)c3ccc(-c4c5nc(c(-c6c(F)c(F)c(F)c(F)c6F)c6ccc([nH]6)c(-c6c(F)c(F)c(F)c(F)c6F)c6nc(c(-c7c(F)c(F)c(F)c(F)c7F)c7ccc4[nH]7)C=C6)C=C5)cc3)C2)cn1
REMARK SMILES IDX 20 1 19 2 18 3 17 4 15 5 16 6 10 7 6 8 7 9 89 10 8 11 9 12
REMARK SMILES IDX 5 13 4 14 1 15 2 16 3 17 91 18 90 19 11 20 12 23 13 24 14 25
REMARK SMILES IDX 21 26 22 27 23 28 24 29 25 30 26 31 27 32 88 33 28 34 87 35
REMARK SMILES IDX 29 36 30 37 31 38 81 39 32 40 86 41 80 42 82 43 33 44 85 45
REMARK SMILES IDX 79 46 78 47 34 49 66 50 46 51 65 52 47 53 50 54 64 55 83 56
REMARK SMILES IDX 48 57 49 58 63 60 84 61 51 62 35 63 36 64 44 65 37 66 38 67
REMARK SMILES IDX 42 68 45 69 39 70 40 71 43 72 41 73 67 74 68 75 76 76 69 77
REMARK SMILES IDX 70 78 74 79 77 80 71 81 72 82 75 83 73 84 52 85 53 86 61 87
REMARK SMILES IDX 54 88 55 89 59 90 62 91 56 92 57 93 60 94 58 95
REMARK H PARENT 11 21 11 22 82 48 50 59
REMARK Flexibility Score: inf
ROOT
ATOM      1  O   UNL A   1      40.779  22.054  26.331  1.00  0.00    -0.374 OA
ENDROOT
BRANCH   1   2
ATOM      2  C   UNL A   1      39.535  21.384  26.132  1.00  0.00     0.202 C 
BRANCH   2   3
ATOM      3  C   UNL A   1      38.329  22.236  25.725  1.00  0.00     0.261 C 
BRANCH   3   4
ATOM      4  O   UNL A   1      37.062  21.633  26.069  1.00  0.00    -0.459 OA
BRANCH   4   5
ATOM      5  C   UNL A   1      36.077  21.831  25.150  1.00  0.00     0.368 C 
ATOM      6  O   UNL A   1      36.296  21.987  23.949  1.00  0.00    -0.245 OA
BRANCH   5   7
ATOM      7  C   UNL A   1      34.615  21.717  25.729  1.00  0.00     0.195 C 
ATOM      8  C   UNL A   1      32.221  22.635  25.531  1.00  0.00     0.058 C 
ATOM      9  C   UNL A   1      32.227  23.082  27.000  1.00  0.00     0.015 C 
ATOM     10  C   UNL A   1      33.613  22.540  24.888  1.00  0.00     0.096 C 
ATOM     11  C   UNL A   1      33.293  22.397  27.857  1.00  0.00     0.008 C 
ATOM     12  C   UNL A   1      34.646  22.290  27.163  1.00  0.00     0.081 C 
BRANCH   8  13
ATOM     13  S   UNL A   1      31.054  23.508  24.429  1.00  0.00    -0.119 SA
BRANCH  13  14
ATOM     14  C   UNL A   1      31.395  25.207  24.477  1.00  0.00     0.046 A 
ATOM     15  C   UNL A   1      33.086  28.370  24.259  1.00  0.00     0.173 C 
ATOM     16  N   UNL A   1      32.203  27.238  24.393  1.00  0.00    -0.275 N 
ATOM     17  C   UNL A   1      32.426  25.957  23.966  1.00  0.00     0.123 A 
ATOM     18  N   UNL A   1      31.036  27.392  25.041  1.00  0.00    -0.181 NA
ATOM     19  C   UNL A   1      30.544  26.151  25.090  1.00  0.00     0.150 A 
ENDBRANCH  13  14
ENDBRANCH   8  13
BRANCH   7  20
ATOM     20  N   UNL A   1      34.389  20.255  25.691  1.00  0.00    -0.330 N 
ATOM     21  H   UNL A   1      33.846  20.043  26.529  1.00  0.00     0.347 HD
ATOM     22  H   UNL A   1      35.346  19.925  25.571  1.00  0.00     0.347 HD
BRANCH  20  23
ATOM     23  C   UNL A   1      33.735  19.541  24.620  1.00  0.00     0.183 C 
ATOM     24  C   UNL A   1      34.054  18.087  24.419  1.00  0.00     0.071 C 
ATOM     25  C   UNL A   1      32.738  18.482  25.013  1.00  0.00     0.071 C 
ENDBRANCH  20  23
ENDBRANCH   7  20
ENDBRANCH   5   7
ENDBRANCH   4   5
ENDBRANCH   3   4
ENDBRANCH   2   3
ENDBRANCH   1   2
BRANCH   1  26
ATOM     26  C   UNL A   1      41.966  21.294  26.125  1.00  0.00     0.202 C 
BRANCH  26  27
ATOM     27  C   UNL A   1      43.157  22.034  25.507  1.00  0.00     0.261 C 
BRANCH  27  28
ATOM     28  O   UNL A   1      42.749  23.229  24.815  1.00  0.00    -0.460 OA
BRANCH  28  29
ATOM     29  C   UNL A   1      43.528  24.308  25.061  1.00  0.00     0.338 C 
ATOM     30  O   UNL A   1      44.614  24.570  24.562  1.00  0.00    -0.246 OA
BRANCH  29  31
ATOM     31  C   UNL A   1      42.814  25.271  25.920  1.00  0.00     0.060 A 
ATOM     32  C   UNL A   1      43.472  26.472  26.217  1.00  0.00     0.016 A 
ATOM     33  C   UNL A   1      41.573  24.979  26.490  1.00  0.00     0.016 A 
ATOM     34  C   UNL A   1      42.923  27.358  27.138  1.00  0.00     0.010 A 
ATOM     35  C   UNL A   1      41.026  25.867  27.423  1.00  0.00     0.010 A 
ATOM     36  C   UNL A   1      41.721  27.038  27.783  1.00  0.00    -0.014 A 
BRANCH  36  37
ATOM     37  C   UNL A   1      41.299  27.832  28.962  1.00  0.00     0.031 A 
ATOM     38  C   UNL A   1      42.083  27.702  30.239  1.00  0.00     0.074 A 
ATOM     39  C   UNL A   1      40.267  28.690  28.887  1.00  0.00     0.049 A 
ATOM     40  N   UNL A   1      41.884  28.270  31.401  1.00  0.00    -0.248 NA
ATOM     41  C   UNL A   1      43.253  26.808  30.199  1.00  0.00     0.031 C 
ATOM     42  C   UNL A   1      39.463  28.942  27.693  1.00  0.00     0.029 A 
ATOM     43  N   UNL A   1      39.718  29.507  29.843  1.00  0.00    -0.354 N 
ATOM     44  C   UNL A   1      42.895  27.798  32.229  1.00  0.00     0.074 A 
ATOM     45  C   UNL A   1      43.690  26.877  31.448  1.00  0.00     0.031 C 
ATOM     46  C   UNL A   1      38.513  29.845  27.992  1.00  0.00     0.029 A 
ATOM     47  C   UNL A   1      38.626  30.211  29.403  1.00  0.00     0.049 A 
ATOM     48  H   UNL A   1      40.075  29.581  30.758  1.00  0.00     0.167 HD
ATOM     49  C   UNL A   1      43.142  28.113  33.522  1.00  0.00     0.037 A 
ATOM     50  C   UNL A   1      37.800  31.040  30.073  1.00  0.00     0.037 A 
ATOM     51  C   UNL A   1      42.356  29.038  34.297  1.00  0.00     0.049 A 
ATOM     52  C   UNL A   1      38.057  31.321  31.530  1.00  0.00     0.074 A 
ATOM     53  C   UNL A   1      42.535  29.433  35.610  1.00  0.00     0.029 A 
ATOM     54  N   UNL A   1      41.239  29.708  33.823  1.00  0.00    -0.354 N 
ATOM     55  N   UNL A   1      39.023  30.884  32.302  1.00  0.00    -0.248 NA
ATOM     56  C   UNL A   1      37.107  32.214  32.211  1.00  0.00     0.031 C 
ATOM     57  C   UNL A   1      41.497  30.309  35.946  1.00  0.00     0.029 A 
ATOM     58  C   UNL A   1      40.703  30.498  34.827  1.00  0.00     0.049 A 
ATOM     59  H   UNL A   1      40.879  29.634  32.910  1.00  0.00     0.167 HD
ATOM     60  C   UNL A   1      38.816  31.470  33.545  1.00  0.00     0.074 A 
ATOM     61  C   UNL A   1      37.638  32.303  33.422  1.00  0.00     0.031 C 
ATOM     62  C   UNL A   1      39.537  31.332  34.684  1.00  0.00     0.037 A 
BRANCH  49  63
ATOM     63  C   UNL A   1      44.299  27.434  34.192  1.00  0.00     0.064 A 
ATOM     64  C   UNL A   1      44.162  26.183  34.812  1.00  0.00     0.173 A 
ATOM     65  C   UNL A   1      45.571  28.027  34.183  1.00  0.00     0.173 A 
ATOM     66  F   UNL A   1      42.963  25.583  34.861  1.00  0.00    -0.203 F 
ATOM     67  C   UNL A   1      45.250  25.560  35.416  1.00  0.00     0.198 A 
ATOM     68  C   UNL A   1      46.662  27.390  34.766  1.00  0.00     0.198 A 
ATOM     69  F   UNL A   1      45.755  29.222  33.603  1.00  0.00    -0.203 F 
ATOM     70  F   UNL A   1      45.088  24.385  36.039  1.00  0.00    -0.200 F 
ATOM     71  C   UNL A   1      46.501  26.160  35.387  1.00  0.00     0.200 A 
ATOM     72  F   UNL A   1      47.871  27.966  34.728  1.00  0.00    -0.200 F 
ATOM     73  F   UNL A   1      47.549  25.557  35.963  1.00  0.00    -0.200 F 
ENDBRANCH  49  63
BRANCH  50  74
ATOM     74  C   UNL A   1      36.638  31.653  29.376  1.00  0.00     0.064 A 
ATOM     75  C   UNL A   1      35.542  30.877  28.976  1.00  0.00     0.173 A 
ATOM     76  C   UNL A   1      36.614  33.022  29.075  1.00  0.00     0.173 A 
ATOM     77  F   UNL A   1      35.531  29.558  29.217  1.00  0.00    -0.203 F 
ATOM     78  C   UNL A   1      34.474  31.444  28.283  1.00  0.00     0.198 A 
ATOM     79  C   UNL A   1      35.533  33.594  28.407  1.00  0.00     0.198 A 
ATOM     80  F   UNL A   1      37.640  33.806  29.433  1.00  0.00    -0.203 F 
ATOM     81  F   UNL A   1      33.461  30.672  27.868  1.00  0.00    -0.200 F 
ATOM     82  C   UNL A   1      34.468  32.803  28.003  1.00  0.00     0.200 A 
ATOM     83  F   UNL A   1      35.528  34.908  28.147  1.00  0.00    -0.200 F 
ATOM     84  F   UNL A   1      33.441  33.348  27.337  1.00  0.00    -0.200 F 
ENDBRANCH  50  74
BRANCH  62  85
ATOM     85  C   UNL A   1      39.103  32.130  35.879  1.00  0.00     0.064 A 
ATOM     86  C   UNL A   1      39.522  33.454  36.071  1.00  0.00     0.173 A 
ATOM     87  C   UNL A   1      38.217  31.577  36.817  1.00  0.00     0.173 A 
ATOM     88  F   UNL A   1      40.378  34.024  35.211  1.00  0.00    -0.203 F 
ATOM     89  C   UNL A   1      39.087  34.188  37.172  1.00  0.00     0.198 A 
ATOM     90  C   UNL A   1      37.762  32.323  37.900  1.00  0.00     0.198 A 
ATOM     91  F   UNL A   1      37.781  30.316  36.672  1.00  0.00    -0.203 F 
ATOM     92  F   UNL A   1      39.532  35.439  37.360  1.00  0.00    -0.200 F 
ATOM     93  C   UNL A   1      38.203  33.625  38.081  1.00  0.00     0.200 A 
ATOM     94  F   UNL A   1      36.897  31.781  38.768  1.00  0.00    -0.200 F 
ATOM     95  F   UNL A   1      37.778  34.337  39.135  1.00  0.00    -0.200 F 
ENDBRANCH  62  85
ENDBRANCH  36  37
ENDBRANCH  29  31
ENDBRANCH  28  29
ENDBRANCH  27  28
ENDBRANCH  26  27
ENDBRANCH   1  26
TORSDOF 18
ENDMDL
MODEL 3
REMARK VINA RESULT:     -11.2      3.091      7.776
REMARK SMILES Cn1cc(S[C@@H]2CCC[C@]([NH2+]C3CC3)(C(=O)OCCOCCOC(=O)c3ccc(-c4c5nc(c(-c6c(F)c(F)c(F)c(F)c6F)c6ccc([nH]6)c(-c6c(F)c(F)c(F)c(F)c6F)c6nc(c(-c7c(F)c(F)c(F)c(F)c7F)c7ccc4[nH]7)C=C6)C=C5)cc3)C2)cn1
REMARK SMILES IDX 20 1 19 2 18 3 17 4 15 5 16 6 10 7 6 8 7 9 89 10 8 11 9 12
REMARK SMILES IDX 5 13 4 14 1 15 2 16 3 17 91 18 90 19 11 20 12 23 13 24 14 25
REMARK SMILES IDX 21 26 22 27 23 28 24 29 25 30 26 31 27 32 88 33 28 34 87 35
REMARK SMILES IDX 29 36 30 37 31 38 81 39 32 40 86 41 80 42 82 43 33 44 85 45
REMARK SMILES IDX 79 46 78 47 34 49 66 50 46 51 65 52 47 53 50 54 64 55 83 56
REMARK SMILES IDX 48 57 49 58 63 60 84 61 51 62 35 63 36 64 44 65 37 66 38 67
REMARK SMILES IDX 42 68 45 69 39 70 40 71 43 72 41 73 67 74 68 75 76 76 69 77
REMARK SMILES IDX 70 78 74 79 77 80 71 81 72 82 75 83 73 84 52 85 53 86 61 87
REMARK SMILES IDX 54 88 55 89 59 90 62 91 56 92 57 93 60 94 58 95
REMARK H PARENT 11 21 11 22 82 48 50 59
REMARK Flexibility Score: inf
ROOT
ATOM      1  O   UNL A   1      41.101  21.060  25.363  1.00  0.00    -0.374 OA
ENDROOT
BRANCH   1   2
ATOM      2  C   UNL A   1      39.921  20.861  26.140  1.00  0.00     0.202 C 
BRANCH   2   3
ATOM      3  C   UNL A   1      39.100  22.100  26.511  1.00  0.00     0.261 C 
BRANCH   3   4
ATOM      4  O   UNL A   1      37.847  22.188  25.800  1.00  0.00    -0.459 OA
BRANCH   4   5
ATOM      5  C   UNL A   1      37.211  23.386  25.926  1.00  0.00     0.368 C 
ATOM      6  O   UNL A   1      37.711  24.359  26.490  1.00  0.00    -0.245 OA
BRANCH   5   7
ATOM      7  C   UNL A   1      35.828  23.471  25.175  1.00  0.00     0.195 C 
ATOM      8  C   UNL A   1      33.572  22.284  24.829  1.00  0.00     0.058 C 
ATOM      9  C   UNL A   1      33.815  22.176  23.317  1.00  0.00     0.015 C 
ATOM     10  C   UNL A   1      34.852  22.382  25.674  1.00  0.00     0.096 C 
ATOM     11  C   UNL A   1      34.874  23.142  22.783  1.00  0.00     0.008 C 
ATOM     12  C   UNL A   1      36.107  23.235  23.674  1.00  0.00     0.081 C 
BRANCH   8  13
ATOM     13  S   UNL A   1      32.409  21.072  25.546  1.00  0.00    -0.119 SA
BRANCH  13  14
ATOM     14  C   UNL A   1      32.927  19.473  25.121  1.00  0.00     0.046 A 
ATOM     15  C   UNL A   1      34.012  16.608  23.243  1.00  0.00     0.173 C 
ATOM     16  N   UNL A   1      33.614  17.612  24.198  1.00  0.00    -0.275 N 
ATOM     17  C   UNL A   1      33.512  18.961  23.989  1.00  0.00     0.123 A 
ATOM     18  N   UNL A   1      33.248  17.231  25.434  1.00  0.00    -0.181 NA
ATOM     19  C   UNL A   1      32.830  18.370  25.996  1.00  0.00     0.150 A 
ENDBRANCH  13  14
ENDBRANCH   8  13
BRANCH   7  20
ATOM     20  N   UNL A   1      35.404  24.856  25.478  1.00  0.00    -0.330 N 
ATOM     21  H   UNL A   1      35.800  25.430  24.733  1.00  0.00     0.347 HD
ATOM     22  H   UNL A   1      35.718  24.936  26.445  1.00  0.00     0.347 HD
BRANCH  20  23
ATOM     23  C   UNL A   1      34.036  25.297  25.615  1.00  0.00     0.183 C 
ATOM     24  C   UNL A   1      33.766  26.756  25.847  1.00  0.00     0.071 C 
ATOM     25  C   UNL A   1      33.479  26.154  24.507  1.00  0.00     0.071 C 
ENDBRANCH  20  23
ENDBRANCH   7  20
ENDBRANCH   5   7
ENDBRANCH   4   5
ENDBRANCH   3   4
ENDBRANCH   2   3
ENDBRANCH   1   2
BRANCH   1  26
ATOM     26  C   UNL A   1      42.349  20.969  26.043  1.00  0.00     0.202 C 
BRANCH  26  27
ATOM     27  C   UNL A   1      43.496  21.826  25.493  1.00  0.00     0.261 C 
BRANCH  27  28
ATOM     28  O   UNL A   1      43.012  22.958  24.745  1.00  0.00    -0.460 OA
BRANCH  28  29
ATOM     29  C   UNL A   1      43.721  24.094  24.934  1.00  0.00     0.338 C 
ATOM     30  O   UNL A   1      44.770  24.415  24.388  1.00  0.00    -0.246 OA
BRANCH  29  31
ATOM     31  C   UNL A   1      42.973  25.030  25.793  1.00  0.00     0.060 A 
ATOM     32  C   UNL A   1      43.517  26.309  25.970  1.00  0.00     0.016 A 
ATOM     33  C   UNL A   1      41.816  24.648  26.475  1.00  0.00     0.016 A 
ATOM     34  C   UNL A   1      42.944  27.190  26.881  1.00  0.00     0.010 A 
ATOM     35  C   UNL A   1      41.247  25.532  27.399  1.00  0.00     0.010 A 
ATOM     36  C   UNL A   1      41.836  26.788  27.637  1.00  0.00    -0.014 A 
BRANCH  36  37
ATOM     37  C   UNL A   1      41.418  27.608  28.800  1.00  0.00     0.031 A 
ATOM     38  C   UNL A   1      42.209  27.507  30.076  1.00  0.00     0.074 A 
ATOM     39  C   UNL A   1      40.384  28.462  28.712  1.00  0.00     0.049 A 
ATOM     40  N   UNL A   1      42.014  28.100  31.227  1.00  0.00    -0.248 NA
ATOM     41  C   UNL A   1      43.379  26.615  30.050  1.00  0.00     0.031 C 
ATOM     42  C   UNL A   1      39.573  28.687  27.517  1.00  0.00     0.029 A 
ATOM     43  N   UNL A   1      39.838  29.299  29.652  1.00  0.00    -0.354 N 
ATOM     44  C   UNL A   1      43.030  27.648  32.059  1.00  0.00     0.074 A 
ATOM     45  C   UNL A   1      43.823  26.712  31.295  1.00  0.00     0.031 C 
ATOM     46  C   UNL A   1      38.624  29.595  27.801  1.00  0.00     0.029 A 
ATOM     47  C   UNL A   1      38.743  29.992  29.202  1.00  0.00     0.049 A 
ATOM     48  H   UNL A   1      40.199  29.394  30.564  1.00  0.00     0.167 HD
ATOM     49  C   UNL A   1      43.283  27.992  33.344  1.00  0.00     0.037 A 
ATOM     50  C   UNL A   1      37.918  30.833  29.858  1.00  0.00     0.037 A 
ATOM     51  C   UNL A   1      42.499  28.932  34.102  1.00  0.00     0.049 A 
ATOM     52  C   UNL A   1      38.182  31.146  31.307  1.00  0.00     0.074 A 
ATOM     53  C   UNL A   1      42.683  29.357  35.405  1.00  0.00     0.029 A 
ATOM     54  N   UNL A   1      41.378  29.590  33.619  1.00  0.00    -0.354 N 
ATOM     55  N   UNL A   1      39.152  30.728  32.084  1.00  0.00    -0.248 NA
ATOM     56  C   UNL A   1      37.234  32.053  31.973  1.00  0.00     0.031 C 
ATOM     57  C   UNL A   1      41.646  30.238  35.727  1.00  0.00     0.029 A 
ATOM     58  C   UNL A   1      40.846  30.401  34.609  1.00  0.00     0.049 A 
ATOM     59  H   UNL A   1      41.014  29.495  32.710  1.00  0.00     0.167 HD
ATOM     60  C   UNL A   1      38.951  31.342  33.314  1.00  0.00     0.074 A 
ATOM     61  C   UNL A   1      37.771  32.170  33.179  1.00  0.00     0.031 C 
ATOM     62  C   UNL A   1      39.678  31.229  34.453  1.00  0.00     0.037 A 
BRANCH  49  63
ATOM     63  C   UNL A   1      44.445  27.329  34.023  1.00  0.00     0.064 A 
ATOM     64  C   UNL A   1      45.721  27.910  34.035  1.00  0.00     0.173 A 
ATOM     65  C   UNL A   1      44.269  26.114  34.702  1.00  0.00     0.173 A 
ATOM     66  F   UNL A   1      45.944  29.063  33.386  1.00  0.00    -0.203 F 
ATOM     67  C   UNL A   1      46.784  27.288  34.683  1.00  0.00     0.198 A 
ATOM     68  C   UNL A   1      45.328  25.508  35.371  1.00  0.00     0.198 A 
ATOM     69  F   UNL A   1      43.067  25.519  34.721  1.00  0.00    -0.203 F 
ATOM     70  F   UNL A   1      48.005  27.838  34.646  1.00  0.00    -0.200 F 
ATOM     71  C   UNL A   1      46.586  26.092  35.357  1.00  0.00     0.200 A 
ATOM     72  F   UNL A   1      45.131  24.357  36.030  1.00  0.00    -0.200 F 
ATOM     73  F   UNL A   1      47.608  25.497  35.987  1.00  0.00    -0.200 F 
ENDBRANCH  49  63
BRANCH  50  74
ATOM     74  C   UNL A   1      36.752  31.429  29.154  1.00  0.00     0.064 A 
ATOM     75  C   UNL A   1      36.724  32.791  28.824  1.00  0.00     0.173 A 
ATOM     76  C   UNL A   1      35.632  30.653  28.822  1.00  0.00     0.173 A 
ATOM     77  F   UNL A   1      37.760  33.579  29.146  1.00  0.00    -0.203 F 
ATOM     78  C   UNL A   1      35.612  33.358  28.206  1.00  0.00     0.198 A 
ATOM     79  C   UNL A   1      34.532  31.215  28.178  1.00  0.00     0.198 A 
ATOM     80  F   UNL A   1      35.608  29.346  29.119  1.00  0.00    -0.203 F 
ATOM     81  F   UNL A   1      35.589  34.672  27.945  1.00  0.00    -0.200 F 
ATOM     82  C   UNL A   1      34.518  32.570  27.879  1.00  0.00     0.200 A 
ATOM     83  F   UNL A   1      33.482  30.447  27.856  1.00  0.00    -0.200 F 
ATOM     84  F   UNL A   1      33.449  33.115  27.285  1.00  0.00    -0.200 F 
ENDBRANCH  50  74
BRANCH  62  85
ATOM     85  C   UNL A   1      39.248  32.053  35.632  1.00  0.00     0.064 A 
ATOM     86  C   UNL A   1      38.407  31.532  36.626  1.00  0.00     0.173 A 
ATOM     87  C   UNL A   1      39.723  33.364  35.792  1.00  0.00     0.173 A 
ATOM     88  F   UNL A   1      37.916  30.289  36.513  1.00  0.00    -0.203 F 
ATOM     89  C   UNL A   1      38.040  32.302  37.727  1.00  0.00     0.198 A 
ATOM     90  C   UNL A   1      39.377  34.120  36.908  1.00  0.00     0.198 A 
ATOM     91  F   UNL A   1      40.537  33.904  34.873  1.00  0.00    -0.203 F 
ATOM     92  F   UNL A   1      37.202  31.799  38.645  1.00  0.00    -0.200 F 
ATOM     93  C   UNL A   1      38.531  33.592  37.870  1.00  0.00     0.200 A 
ATOM     94  F   UNL A   1      39.863  35.361  37.052  1.00  0.00    -0.200 F 
ATOM     95  F   UNL A   1      38.182  34.328  38.936  1.00  0.00    -0.200 F 
ENDBRANCH  62  85
ENDBRANCH  36  37
ENDBRANCH  29  31
ENDBRANCH  28  29
ENDBRANCH  27  28
ENDBRANCH  26  27
ENDBRANCH   1  26
TORSDOF 18
ENDMDL
