MODEL 1
REMARK VINA RESULT:     -11.8      0.000      0.000
REMARK SMILES O=C(OCCOCCOC(=O)c1ncoc1-c1cc(F)cc(F)c1)c1ccc(-c2c3nc(c(-c4c(F)c(F)c(F)c(F)c4F)c4ccc([nH]4)c(-c4c(F)c(F)c(F)c(F)c4F)c4nc(c(-c5c(F)c(F)c(F)c(F)c5F)c5ccc2[nH]5)C=C4)C=C3)cc1
REMARK SMILES IDX 5 1 4 2 3 3 2 4 1 5 25 6 26 7 87 8 27 9 86 10 28 11 29 12
REMARK SMILES IDX 30 13 80 14 31 15 85 16 79 17 81 18 32 19 84 20 78 21 77 22
REMARK SMILES IDX 33 24 65 25 45 26 64 27 46 28 49 29 63 30 82 31 47 32 48 33
REMARK SMILES IDX 62 35 83 36 50 37 34 38 35 39 43 40 36 41 37 42 41 43 44 44
REMARK SMILES IDX 38 45 39 46 42 47 40 48 66 49 67 50 75 51 68 52 69 53 73 54
REMARK SMILES IDX 76 55 70 56 71 57 74 58 72 59 51 60 52 61 60 62 53 63 54 64
REMARK SMILES IDX 58 65 61 66 55 67 56 68 59 69 57 70 6 71 7 72 8 73 9 74
REMARK SMILES IDX 10 75 11 76 12 77 13 78 16 79 14 80 15 81 17 82 18 83 24 84
REMARK SMILES IDX 19 85 22 86 20 87 21 88 23 89
REMARK H PARENT 81 23 49 34
REMARK Flexibility Score: inf
ROOT
ATOM      1  C   UNL A   1      31.251  32.231  26.528  1.00  0.00     0.202 C 
ENDROOT
BRANCH   1   2
ATOM      2  C   UNL A   1      32.488  32.775  27.247  1.00  0.00     0.261 C 
BRANCH   2   3
ATOM      3  O   UNL A   1      32.263  34.128  27.687  1.00  0.00    -0.460 OA
BRANCH   3   4
ATOM      4  C   UNL A   1      32.960  34.763  28.663  1.00  0.00     0.338 C 
ATOM      5  O   UNL A   1      32.634  35.892  29.016  1.00  0.00    -0.246 OA
BRANCH   4   6
ATOM      6  C   UNL A   1      34.125  34.116  29.331  1.00  0.00     0.060 A 
ATOM      7  C   UNL A   1      33.984  33.119  30.294  1.00  0.00     0.016 A 
ATOM      8  C   UNL A   1      35.419  34.463  28.917  1.00  0.00     0.016 A 
ATOM      9  C   UNL A   1      35.085  32.573  30.936  1.00  0.00     0.010 A 
ATOM     10  C   UNL A   1      36.538  33.842  29.489  1.00  0.00     0.010 A 
ATOM     11  C   UNL A   1      36.374  32.906  30.520  1.00  0.00    -0.014 A 
BRANCH  11  12
ATOM     12  C   UNL A   1      37.522  32.265  31.199  1.00  0.00     0.031 A 
ATOM     13  C   UNL A   1      38.343  31.251  30.466  1.00  0.00     0.074 A 
ATOM     14  C   UNL A   1      37.881  32.683  32.430  1.00  0.00     0.049 A 
ATOM     15  N   UNL A   1      39.333  30.518  30.901  1.00  0.00    -0.248 NA
ATOM     16  C   UNL A   1      38.013  31.035  29.047  1.00  0.00     0.031 C 
ATOM     17  C   UNL A   1      37.203  33.736  33.192  1.00  0.00     0.029 A 
ATOM     18  N   UNL A   1      38.922  32.310  33.239  1.00  0.00    -0.354 N 
ATOM     19  C   UNL A   1      39.713  29.724  29.829  1.00  0.00     0.074 A 
ATOM     20  C   UNL A   1      38.856  30.067  28.716  1.00  0.00     0.031 C 
ATOM     21  C   UNL A   1      37.886  33.969  34.323  1.00  0.00     0.029 A 
ATOM     22  C   UNL A   1      38.989  33.021  34.412  1.00  0.00     0.049 A 
ATOM     23  H   UNL A   1      39.562  31.600  33.001  1.00  0.00     0.167 HD
ATOM     24  C   UNL A   1      40.687  28.786  29.791  1.00  0.00     0.037 A 
ATOM     25  C   UNL A   1      39.829  32.896  35.458  1.00  0.00     0.037 A 
ATOM     26  C   UNL A   1      41.548  28.483  30.901  1.00  0.00     0.049 A 
ATOM     27  C   UNL A   1      40.865  31.807  35.411  1.00  0.00     0.074 A 
ATOM     28  C   UNL A   1      42.530  27.515  30.998  1.00  0.00     0.029 A 
ATOM     29  N   UNL A   1      41.536  29.170  32.109  1.00  0.00    -0.354 N 
ATOM     30  N   UNL A   1      41.150  30.984  34.431  1.00  0.00    -0.248 NA
ATOM     31  C   UNL A   1      41.665  31.600  36.624  1.00  0.00     0.031 C 
ATOM     32  C   UNL A   1      43.097  27.600  32.274  1.00  0.00     0.029 A 
ATOM     33  C   UNL A   1      42.488  28.639  32.962  1.00  0.00     0.049 A 
ATOM     34  H   UNL A   1      40.940  29.922  32.325  1.00  0.00     0.167 HD
ATOM     35  C   UNL A   1      42.149  30.153  34.909  1.00  0.00     0.074 A 
ATOM     36  C   UNL A   1      42.447  30.592  36.259  1.00  0.00     0.031 C 
ATOM     37  C   UNL A   1      42.753  29.105  34.299  1.00  0.00     0.037 A 
BRANCH  24  38
ATOM     38  C   UNL A   1      40.829  27.992  28.529  1.00  0.00     0.064 A 
ATOM     39  C   UNL A   1      41.659  28.455  27.497  1.00  0.00     0.173 A 
ATOM     40  C   UNL A   1      40.149  26.783  28.335  1.00  0.00     0.173 A 
ATOM     41  F   UNL A   1      42.335  29.605  27.638  1.00  0.00    -0.203 F 
ATOM     42  C   UNL A   1      41.802  27.735  26.315  1.00  0.00     0.198 A 
ATOM     43  C   UNL A   1      40.309  26.054  27.159  1.00  0.00     0.198 A 
ATOM     44  F   UNL A   1      39.363  26.288  29.303  1.00  0.00    -0.203 F 
ATOM     45  F   UNL A   1      42.595  28.199  25.339  1.00  0.00    -0.200 F 
ATOM     46  C   UNL A   1      41.131  26.533  26.148  1.00  0.00     0.200 A 
ATOM     47  F   UNL A   1      39.681  24.879  27.009  1.00  0.00    -0.200 F 
ATOM     48  F   UNL A   1      41.286  25.828  25.019  1.00  0.00    -0.200 F 
ENDBRANCH  24  38
BRANCH  25  49
ATOM     49  C   UNL A   1      39.687  33.785  36.641  1.00  0.00     0.064 A 
ATOM     50  C   UNL A   1      38.882  33.423  37.733  1.00  0.00     0.173 A 
ATOM     51  C   UNL A   1      40.335  35.025  36.695  1.00  0.00     0.173 A 
ATOM     52  F   UNL A   1      38.243  32.245  37.736  1.00  0.00    -0.203 F 
ATOM     53  C   UNL A   1      38.710  34.280  38.818  1.00  0.00     0.198 A 
ATOM     54  C   UNL A   1      40.185  35.870  37.795  1.00  0.00     0.198 A 
ATOM     55  F   UNL A   1      41.136  35.408  35.690  1.00  0.00    -0.203 F 
ATOM     56  F   UNL A   1      37.905  33.923  39.828  1.00  0.00    -0.200 F 
ATOM     57  C   UNL A   1      39.364  35.500  38.851  1.00  0.00     0.200 A 
ATOM     58  F   UNL A   1      40.841  37.038  37.836  1.00  0.00    -0.200 F 
ATOM     59  F   UNL A   1      39.210  36.318  39.902  1.00  0.00    -0.200 F 
ENDBRANCH  25  49
BRANCH  37  60
ATOM     60  C   UNL A   1      43.780  28.356  35.086  1.00  0.00     0.064 A 
ATOM     61  C   UNL A   1      43.404  27.303  35.930  1.00  0.00     0.173 A 
ATOM     62  C   UNL A   1      45.125  28.749  35.069  1.00  0.00     0.173 A 
ATOM     63  F   UNL A   1      42.126  26.900  35.980  1.00  0.00    -0.203 F 
ATOM     64  C   UNL A   1      44.341  26.678  36.747  1.00  0.00     0.198 A 
ATOM     65  C   UNL A   1      46.062  28.109  35.874  1.00  0.00     0.198 A 
ATOM     66  F   UNL A   1      45.528  29.744  34.265  1.00  0.00    -0.203 F 
ATOM     67  F   UNL A   1      43.957  25.692  37.571  1.00  0.00    -0.200 F 
ATOM     68  C   UNL A   1      45.668  27.082  36.719  1.00  0.00     0.200 A 
ATOM     69  F   UNL A   1      47.348  28.489  35.834  1.00  0.00    -0.200 F 
ATOM     70  F   UNL A   1      46.568  26.480  37.508  1.00  0.00    -0.200 F 
ENDBRANCH  37  60
ENDBRANCH  11  12
ENDBRANCH   4   6
ENDBRANCH   3   4
ENDBRANCH   2   3
ENDBRANCH   1   2
BRANCH   1  71
ATOM     71  O   UNL A   1      31.441  30.933  25.971  1.00  0.00    -0.374 OA
BRANCH  71  72
ATOM     72  C   UNL A   1      32.662  30.290  26.336  1.00  0.00     0.202 C 
BRANCH  72  73
ATOM     73  C   UNL A   1      33.145  29.410  25.180  1.00  0.00     0.261 C 
BRANCH  73  74
ATOM     74  O   UNL A   1      32.133  28.447  24.838  1.00  0.00    -0.458 OA
BRANCH  74  75
ATOM     75  C   UNL A   1      31.549  28.587  23.610  1.00  0.00     0.361 C 
ATOM     76  O   UNL A   1      32.122  28.964  22.594  1.00  0.00    -0.244 OA
BRANCH  75  77
ATOM     77  C   UNL A   1      30.176  28.113  23.623  1.00  0.00     0.194 A 
ATOM     78  N   UNL A   1      29.799  26.820  23.960  1.00  0.00    -0.209 NA
ATOM     79  C   UNL A   1      29.061  28.810  23.190  1.00  0.00     0.169 A 
ATOM     80  C   UNL A   1      28.505  26.806  23.745  1.00  0.00     0.309 A 
ATOM     81  O   UNL A   1      27.985  27.966  23.263  1.00  0.00    -0.443 OA
BRANCH  79  82
ATOM     82  C   UNL A   1      28.800  30.104  22.591  1.00  0.00     0.026 A 
ATOM     83  C   UNL A   1      29.092  31.271  23.313  1.00  0.00     0.051 A 
ATOM     84  C   UNL A   1      28.220  30.219  21.325  1.00  0.00     0.051 A 
ATOM     85  C   UNL A   1      28.768  32.518  22.786  1.00  0.00     0.126 A 
ATOM     86  C   UNL A   1      27.936  31.482  20.805  1.00  0.00     0.126 A 
ATOM     87  F   UNL A   1      28.988  33.616  23.521  1.00  0.00    -0.207 F 
ATOM     88  C   UNL A   1      28.194  32.637  21.530  1.00  0.00     0.078 A 
ATOM     89  F   UNL A   1      27.396  31.583  19.584  1.00  0.00    -0.207 F 
ENDBRANCH  79  82
ENDBRANCH  75  77
ENDBRANCH  74  75
ENDBRANCH  73  74
ENDBRANCH  72  73
ENDBRANCH  71  72
ENDBRANCH   1  71
TORSDOF 15
ENDMDL
MODEL 2
REMARK VINA RESULT:     -11.6      1.019      2.448
REMARK SMILES O=C(OCCOCCOC(=O)c1ncoc1-c1cc(F)cc(F)c1)c1ccc(-c2c3nc(c(-c4c(F)c(F)c(F)c(F)c4F)c4ccc([nH]4)c(-c4c(F)c(F)c(F)c(F)c4F)c4nc(c(-c5c(F)c(F)c(F)c(F)c5F)c5ccc2[nH]5)C=C4)C=C3)cc1
REMARK SMILES IDX 5 1 4 2 3 3 2 4 1 5 25 6 26 7 87 8 27 9 86 10 28 11 29 12
REMARK SMILES IDX 30 13 80 14 31 15 85 16 79 17 81 18 32 19 84 20 78 21 77 22
REMARK SMILES IDX 33 24 65 25 45 26 64 27 46 28 49 29 63 30 82 31 47 32 48 33
REMARK SMILES IDX 62 35 83 36 50 37 34 38 35 39 43 40 36 41 37 42 41 43 44 44
REMARK SMILES IDX 38 45 39 46 42 47 40 48 66 49 67 50 75 51 68 52 69 53 73 54
REMARK SMILES IDX 76 55 70 56 71 57 74 58 72 59 51 60 52 61 60 62 53 63 54 64
REMARK SMILES IDX 58 65 61 66 55 67 56 68 59 69 57 70 6 71 7 72 8 73 9 74
REMARK SMILES IDX 10 75 11 76 12 77 13 78 16 79 14 80 15 81 17 82 18 83 24 84
REMARK SMILES IDX 19 85 22 86 20 87 21 88 23 89
REMARK H PARENT 81 23 49 34
REMARK Flexibility Score: inf
ROOT
ATOM      1  C   UNL A   1      31.398  32.379  26.529  1.00  0.00     0.202 C 
ENDROOT
BRANCH   1   2
ATOM      2  C   UNL A   1      32.593  32.999  27.258  1.00  0.00     0.261 C 
BRANCH   2   3
ATOM      3  O   UNL A   1      32.244  34.287  27.800  1.00  0.00    -0.460 OA
BRANCH   3   4
ATOM      4  C   UNL A   1      32.929  34.945  28.769  1.00  0.00     0.338 C 
ATOM      5  O   UNL A   1      32.596  36.080  29.094  1.00  0.00    -0.246 OA
BRANCH   4   6
ATOM      6  C   UNL A   1      34.088  34.315  29.463  1.00  0.00     0.060 A 
ATOM      7  C   UNL A   1      35.409  34.546  29.086  1.00  0.00     0.016 A 
ATOM      8  C   UNL A   1      33.848  33.521  30.593  1.00  0.00     0.016 A 
ATOM      9  C   UNL A   1      36.464  33.905  29.717  1.00  0.00     0.010 A 
ATOM     10  C   UNL A   1      34.916  32.950  31.299  1.00  0.00     0.010 A 
ATOM     11  C   UNL A   1      36.232  33.124  30.849  1.00  0.00    -0.014 A 
BRANCH  11  12
ATOM     12  C   UNL A   1      37.390  32.494  31.520  1.00  0.00     0.031 A 
ATOM     13  C   UNL A   1      38.204  31.474  30.787  1.00  0.00     0.074 A 
ATOM     14  C   UNL A   1      37.764  32.926  32.742  1.00  0.00     0.049 A 
ATOM     15  N   UNL A   1      39.202  30.749  31.218  1.00  0.00    -0.248 NA
ATOM     16  C   UNL A   1      37.856  31.241  29.376  1.00  0.00     0.031 C 
ATOM     17  C   UNL A   1      37.094  33.986  33.501  1.00  0.00     0.029 A 
ATOM     18  N   UNL A   1      38.816  32.564  33.541  1.00  0.00    -0.354 N 
ATOM     19  C   UNL A   1      39.570  29.944  30.150  1.00  0.00     0.074 A 
ATOM     20  C   UNL A   1      38.698  30.272  29.044  1.00  0.00     0.031 C 
ATOM     21  C   UNL A   1      37.790  34.233  34.621  1.00  0.00     0.029 A 
ATOM     22  C   UNL A   1      38.897  33.289  34.705  1.00  0.00     0.049 A 
ATOM     23  H   UNL A   1      39.455  31.854  33.303  1.00  0.00     0.167 HD
ATOM     24  C   UNL A   1      40.546  29.007  30.109  1.00  0.00     0.037 A 
ATOM     25  C   UNL A   1      39.750  33.177  35.741  1.00  0.00     0.037 A 
ATOM     26  C   UNL A   1      41.422  28.719  31.212  1.00  0.00     0.049 A 
ATOM     27  C   UNL A   1      40.788  32.091  35.693  1.00  0.00     0.074 A 
ATOM     28  C   UNL A   1      42.407  27.754  31.306  1.00  0.00     0.029 A 
ATOM     29  N   UNL A   1      41.424  29.419  32.411  1.00  0.00    -0.354 N 
ATOM     30  N   UNL A   1      41.063  31.258  34.719  1.00  0.00    -0.248 NA
ATOM     31  C   UNL A   1      41.605  31.898  36.898  1.00  0.00     0.031 C 
ATOM     32  C   UNL A   1      42.990  27.854  32.574  1.00  0.00     0.029 A 
ATOM     33  C   UNL A   1      42.388  28.900  33.258  1.00  0.00     0.049 A 
ATOM     34  H   UNL A   1      40.828  30.172  32.627  1.00  0.00     0.167 HD
ATOM     35  C   UNL A   1      42.070  30.434  35.193  1.00  0.00     0.074 A 
ATOM     36  C   UNL A   1      42.385  30.888  36.534  1.00  0.00     0.031 C 
ATOM     37  C   UNL A   1      42.669  29.380  34.586  1.00  0.00     0.037 A 
BRANCH  24  38
ATOM     38  C   UNL A   1      40.674  28.200  28.854  1.00  0.00     0.064 A 
ATOM     39  C   UNL A   1      39.964  26.998  28.716  1.00  0.00     0.173 A 
ATOM     40  C   UNL A   1      41.493  28.607  27.793  1.00  0.00     0.173 A 
ATOM     41  F   UNL A   1      39.163  26.569  29.703  1.00  0.00    -0.203 F 
ATOM     42  C   UNL A   1      40.073  26.231  27.560  1.00  0.00     0.198 A 
ATOM     43  C   UNL A   1      41.584  27.848  26.629  1.00  0.00     0.198 A 
ATOM     44  F   UNL A   1      42.172  29.762  27.869  1.00  0.00    -0.203 F 
ATOM     45  F   UNL A   1      39.391  25.081  27.453  1.00  0.00    -0.200 F 
ATOM     46  C   UNL A   1      40.878  26.658  26.516  1.00  0.00     0.200 A 
ATOM     47  F   UNL A   1      42.341  28.275  25.609  1.00  0.00    -0.200 F 
ATOM     48  F   UNL A   1      40.964  25.931  25.393  1.00  0.00    -0.200 F 
ENDBRANCH  24  38
BRANCH  25  49
ATOM     49  C   UNL A   1      39.621  34.079  36.916  1.00  0.00     0.064 A 
ATOM     50  C   UNL A   1      40.294  35.310  36.969  1.00  0.00     0.173 A 
ATOM     51  C   UNL A   1      38.839  33.719  38.021  1.00  0.00     0.173 A 
ATOM     52  F   UNL A   1      41.051  35.706  35.936  1.00  0.00    -0.203 F 
ATOM     53  C   UNL A   1      40.213  36.130  38.092  1.00  0.00     0.198 A 
ATOM     54  C   UNL A   1      38.735  34.554  39.134  1.00  0.00     0.198 A 
ATOM     55  F   UNL A   1      38.155  32.566  38.012  1.00  0.00    -0.203 F 
ATOM     56  F   UNL A   1      40.897  37.281  38.129  1.00  0.00    -0.200 F 
ATOM     57  C   UNL A   1      39.430  35.754  39.172  1.00  0.00     0.200 A 
ATOM     58  F   UNL A   1      37.956  34.201  40.165  1.00  0.00    -0.200 F 
ATOM     59  F   UNL A   1      39.340  36.551  40.246  1.00  0.00    -0.200 F 
ENDBRANCH  25  49
BRANCH  37  60
ATOM     60  C   UNL A   1      43.708  28.643  35.368  1.00  0.00     0.064 A 
ATOM     61  C   UNL A   1      45.069  28.929  35.193  1.00  0.00     0.173 A 
ATOM     62  C   UNL A   1      43.353  27.590  36.221  1.00  0.00     0.173 A 
ATOM     63  F   UNL A   1      45.451  29.926  34.380  1.00  0.00    -0.203 F 
ATOM     64  C   UNL A   1      46.043  28.170  35.834  1.00  0.00     0.198 A 
ATOM     65  C   UNL A   1      44.329  26.846  36.875  1.00  0.00     0.198 A 
ATOM     66  F   UNL A   1      42.061  27.293  36.426  1.00  0.00    -0.203 F 
ATOM     67  F   UNL A   1      47.340  28.439  35.631  1.00  0.00    -0.200 F 
ATOM     68  C   UNL A   1      45.673  27.130  36.673  1.00  0.00     0.200 A 
ATOM     69  F   UNL A   1      43.971  25.851  37.699  1.00  0.00    -0.200 F 
ATOM     70  F   UNL A   1      46.612  26.399  37.289  1.00  0.00    -0.200 F 
ENDBRANCH  37  60
ENDBRANCH  11  12
ENDBRANCH   4   6
ENDBRANCH   3   4
ENDBRANCH   2   3
ENDBRANCH   1   2
BRANCH   1  71
ATOM     71  O   UNL A   1      31.515  30.972  26.338  1.00  0.00    -0.374 OA
BRANCH  71  72
ATOM     72  C   UNL A   1      32.656  30.370  26.949  1.00  0.00     0.202 C 
BRANCH  72  73
ATOM     73  C   UNL A   1      33.366  29.469  25.935  1.00  0.00     0.261 C 
BRANCH  73  74
ATOM     74  O   UNL A   1      32.431  29.014  24.941  1.00  0.00    -0.458 OA
BRANCH  74  75
ATOM     75  C   UNL A   1      32.099  27.689  24.978  1.00  0.00     0.361 C 
ATOM     76  O   UNL A   1      31.848  27.052  25.995  1.00  0.00    -0.244 OA
BRANCH  75  77
ATOM     77  C   UNL A   1      31.956  27.144  23.639  1.00  0.00     0.194 A 
ATOM     78  N   UNL A   1      32.889  26.317  23.028  1.00  0.00    -0.209 NA
ATOM     79  C   UNL A   1      30.960  27.451  22.728  1.00  0.00     0.169 A 
ATOM     80  C   UNL A   1      32.412  26.148  21.818  1.00  0.00     0.309 A 
ATOM     81  O   UNL A   1      31.257  26.813  21.553  1.00  0.00    -0.443 OA
BRANCH  79  82
ATOM     82  C   UNL A   1      29.813  28.337  22.685  1.00  0.00     0.026 A 
ATOM     83  C   UNL A   1      29.972  29.650  22.216  1.00  0.00     0.051 A 
ATOM     84  C   UNL A   1      28.558  27.930  23.144  1.00  0.00     0.051 A 
ATOM     85  C   UNL A   1      28.901  30.539  22.249  1.00  0.00     0.126 A 
ATOM     86  C   UNL A   1      27.492  28.829  23.134  1.00  0.00     0.126 A 
ATOM     87  F   UNL A   1      29.091  31.807  21.865  1.00  0.00    -0.207 F 
ATOM     88  C   UNL A   1      27.654  30.138  22.701  1.00  0.00     0.078 A 
ATOM     89  F   UNL A   1      26.288  28.426  23.560  1.00  0.00    -0.207 F 
ENDBRANCH  79  82
ENDBRANCH  75  77
ENDBRANCH  74  75
ENDBRANCH  73  74
ENDBRANCH  72  73
ENDBRANCH  71  72
ENDBRANCH   1  71
TORSDOF 15
ENDMDL
MODEL 3
REMARK VINA RESULT:     -11.5      3.300      5.270
REMARK SMILES O=C(OCCOCCOC(=O)c1ncoc1-c1cc(F)cc(F)c1)c1ccc(-c2c3nc(c(-c4c(F)c(F)c(F)c(F)c4F)c4ccc([nH]4)c(-c4c(F)c(F)c(F)c(F)c4F)c4nc(c(-c5c(F)c(F)c(F)c(F)c5F)c5ccc2[nH]5)C=C4)C=C3)cc1
REMARK SMILES IDX 5 1 4 2 3 3 2 4 1 5 25 6 26 7 87 8 27 9 86 10 28 11 29 12
REMARK SMILES IDX 30 13 80 14 31 15 85 16 79 17 81 18 32 19 84 20 78 21 77 22
REMARK SMILES IDX 33 24 65 25 45 26 64 27 46 28 49 29 63 30 82 31 47 32 48 33
REMARK SMILES IDX 62 35 83 36 50 37 34 38 35 39 43 40 36 41 37 42 41 43 44 44
REMARK SMILES IDX 38 45 39 46 42 47 40 48 66 49 67 50 75 51 68 52 69 53 73 54
REMARK SMILES IDX 76 55 70 56 71 57 74 58 72 59 51 60 52 61 60 62 53 63 54 64
REMARK SMILES IDX 58 65 61 66 55 67 56 68 59 69 57 70 6 71 7 72 8 73 9 74
REMARK SMILES IDX 10 75 11 76 12 77 13 78 16 79 14 80 15 81 17 82 18 83 24 84
REMARK SMILES IDX 19 85 22 86 20 87 21 88 23 89
REMARK H PARENT 81 23 49 34
REMARK Flexibility Score: inf
ROOT
ATOM      1  C   UNL A   1      33.363  28.234  24.741  1.00  0.00     0.202 C 
ENDROOT
BRANCH   1   2
ATOM      2  C   UNL A   1      32.406  29.120  25.543  1.00  0.00     0.261 C 
BRANCH   2   3
ATOM      3  O   UNL A   1      32.913  30.465  25.630  1.00  0.00    -0.460 OA
BRANCH   3   4
ATOM      4  C   UNL A   1      33.196  31.126  26.782  1.00  0.00     0.338 C 
ATOM      5  O   UNL A   1      32.443  32.006  27.186  1.00  0.00    -0.246 OA
BRANCH   4   6
ATOM      6  C   UNL A   1      34.412  30.803  27.582  1.00  0.00     0.060 A 
ATOM      7  C   UNL A   1      34.744  29.503  27.959  1.00  0.00     0.016 A 
ATOM      8  C   UNL A   1      35.304  31.836  27.900  1.00  0.00     0.016 A 
ATOM      9  C   UNL A   1      35.853  29.241  28.748  1.00  0.00     0.010 A 
ATOM     10  C   UNL A   1      36.481  31.564  28.611  1.00  0.00     0.010 A 
ATOM     11  C   UNL A   1      36.750  30.263  29.057  1.00  0.00    -0.014 A 
BRANCH  11  12
ATOM     12  C   UNL A   1      37.946  29.931  29.863  1.00  0.00     0.031 A 
ATOM     13  C   UNL A   1      39.040  29.107  29.257  1.00  0.00     0.074 A 
ATOM     14  C   UNL A   1      38.086  30.467  31.092  1.00  0.00     0.049 A 
ATOM     15  N   UNL A   1      40.126  28.640  29.813  1.00  0.00    -0.248 NA
ATOM     16  C   UNL A   1      38.898  28.767  27.832  1.00  0.00     0.031 C 
ATOM     17  C   UNL A   1      37.121  31.363  31.735  1.00  0.00     0.029 A 
ATOM     18  N   UNL A   1      39.107  30.376  32.002  1.00  0.00    -0.354 N 
ATOM     19  C   UNL A   1      40.773  27.916  28.822  1.00  0.00     0.074 A 
ATOM     20  C   UNL A   1      39.966  28.009  27.626  1.00  0.00     0.031 C 
ATOM     21  C   UNL A   1      37.626  31.790  32.902  1.00  0.00     0.029 A 
ATOM     22  C   UNL A   1      38.904  31.127  33.134  1.00  0.00     0.049 A 
ATOM     23  H   UNL A   1      39.910  29.825  31.858  1.00  0.00     0.167 HD
ATOM     24  C   UNL A   1      41.933  27.227  28.917  1.00  0.00     0.037 A 
ATOM     25  C   UNL A   1      39.650  31.240  34.249  1.00  0.00     0.037 A 
ATOM     26  C   UNL A   1      42.735  27.174  30.109  1.00  0.00     0.049 A 
ATOM     27  C   UNL A   1      40.906  30.419  34.349  1.00  0.00     0.074 A 
ATOM     28  C   UNL A   1      43.898  26.463  30.340  1.00  0.00     0.029 A 
ATOM     29  N   UNL A   1      42.457  27.885  31.269  1.00  0.00    -0.354 N 
ATOM     30  N   UNL A   1      41.459  29.647  33.444  1.00  0.00    -0.248 NA
ATOM     31  C   UNL A   1      41.618  30.448  35.632  1.00  0.00     0.031 C 
ATOM     32  C   UNL A   1      44.312  26.725  31.650  1.00  0.00     0.029 A 
ATOM     33  C   UNL A   1      43.423  27.621  32.225  1.00  0.00     0.049 A 
ATOM     34  H   UNL A   1      41.689  28.486  31.393  1.00  0.00     0.167 HD
ATOM     35  C   UNL A   1      42.573  29.088  34.048  1.00  0.00     0.074 A 
ATOM     36  C   UNL A   1      42.639  29.635  35.390  1.00  0.00     0.031 C 
ATOM     37  C   UNL A   1      43.452  28.186  33.550  1.00  0.00     0.037 A 
BRANCH  24  38
ATOM     38  C   UNL A   1      42.367  26.441  27.719  1.00  0.00     0.064 A 
ATOM     39  C   UNL A   1      43.288  26.988  26.814  1.00  0.00     0.173 A 
ATOM     40  C   UNL A   1      41.875  25.154  27.461  1.00  0.00     0.173 A 
ATOM     41  F   UNL A   1      43.791  28.214  27.020  1.00  0.00    -0.203 F 
ATOM     42  C   UNL A   1      43.700  26.276  25.691  1.00  0.00     0.198 A 
ATOM     43  C   UNL A   1      42.304  24.435  26.347  1.00  0.00     0.198 A 
ATOM     44  F   UNL A   1      41.011  24.579  28.310  1.00  0.00    -0.203 F 
ATOM     45  F   UNL A   1      44.576  26.821  24.836  1.00  0.00    -0.200 F 
ATOM     46  C   UNL A   1      43.213  24.998  25.462  1.00  0.00     0.200 A 
ATOM     47  F   UNL A   1      41.854  23.190  26.141  1.00  0.00    -0.200 F 
ATOM     48  F   UNL A   1      43.627  24.303  24.394  1.00  0.00    -0.200 F 
ENDBRANCH  24  38
BRANCH  25  49
ATOM     49  C   UNL A   1      39.202  32.116  35.363  1.00  0.00     0.064 A 
ATOM     50  C   UNL A   1      39.550  33.476  35.407  1.00  0.00     0.173 A 
ATOM     51  C   UNL A   1      38.435  31.608  36.419  1.00  0.00     0.173 A 
ATOM     52  F   UNL A   1      40.278  34.015  34.419  1.00  0.00    -0.203 F 
ATOM     53  C   UNL A   1      39.172  34.283  36.478  1.00  0.00     0.198 A 
ATOM     54  C   UNL A   1      38.033  32.424  37.476  1.00  0.00     0.198 A 
ATOM     55  F   UNL A   1      38.054  30.322  36.413  1.00  0.00    -0.203 F 
ATOM     56  F   UNL A   1      39.552  35.568  36.511  1.00  0.00    -0.200 F 
ATOM     57  C   UNL A   1      38.411  33.759  37.509  1.00  0.00     0.200 A 
ATOM     58  F   UNL A   1      37.274  31.920  38.459  1.00  0.00    -0.200 F 
ATOM     59  F   UNL A   1      38.035  34.540  38.532  1.00  0.00    -0.200 F 
ENDBRANCH  25  49
BRANCH  37  60
ATOM     60  C   UNL A   1      44.546  27.725  34.459  1.00  0.00     0.064 A 
ATOM     61  C   UNL A   1      45.772  28.403  34.499  1.00  0.00     0.173 A 
ATOM     62  C   UNL A   1      44.405  26.557  35.219  1.00  0.00     0.173 A 
ATOM     63  F   UNL A   1      45.950  29.522  33.782  1.00  0.00    -0.203 F 
ATOM     64  C   UNL A   1      46.830  27.913  35.259  1.00  0.00     0.198 A 
ATOM     65  C   UNL A   1      45.459  26.081  35.992  1.00  0.00     0.198 A 
ATOM     66  F   UNL A   1      43.243  25.886  35.218  1.00  0.00    -0.203 F 
ATOM     67  F   UNL A   1      48.005  28.558  35.262  1.00  0.00    -0.200 F 
ATOM     68  C   UNL A   1      46.673  26.753  36.003  1.00  0.00     0.200 A 
ATOM     69  F   UNL A   1      45.302  24.969  36.725  1.00  0.00    -0.200 F 
ATOM     70  F   UNL A   1      47.693  26.282  36.733  1.00  0.00    -0.200 F 
ENDBRANCH  37  60
ENDBRANCH  11  12
ENDBRANCH   4   6
ENDBRANCH   3   4
ENDBRANCH   2   3
ENDBRANCH   1   2
BRANCH   1  71
ATOM     71  O   UNL A   1      32.728  27.518  23.687  1.00  0.00    -0.374 OA
BRANCH  71  72
ATOM     72  C   UNL A   1      33.506  27.371  22.499  1.00  0.00     0.202 C 
BRANCH  72  73
ATOM     73  C   UNL A   1      33.178  26.032  21.832  1.00  0.00     0.261 C 
BRANCH  73  74
ATOM     74  O   UNL A   1      33.984  24.987  22.404  1.00  0.00    -0.458 OA
BRANCH  74  75
ATOM     75  C   UNL A   1      33.320  23.875  22.840  1.00  0.00     0.361 C 
ATOM     76  O   UNL A   1      33.027  22.909  22.145  1.00  0.00    -0.244 OA
BRANCH  75  77
ATOM     77  C   UNL A   1      33.104  23.919  24.276  1.00  0.00     0.194 A 
ATOM     78  N   UNL A   1      31.966  24.438  24.880  1.00  0.00    -0.209 NA
ATOM     79  C   UNL A   1      34.021  23.581  25.257  1.00  0.00     0.169 A 
ATOM     80  C   UNL A   1      32.233  24.366  26.163  1.00  0.00     0.309 A 
ATOM     81  O   UNL A   1      33.462  23.874  26.472  1.00  0.00    -0.443 OA
BRANCH  79  82
ATOM     82  C   UNL A   1      35.401  23.137  25.295  1.00  0.00     0.026 A 
ATOM     83  C   UNL A   1      35.717  21.831  24.890  1.00  0.00     0.051 A 
ATOM     84  C   UNL A   1      36.422  23.965  25.768  1.00  0.00     0.051 A 
ATOM     85  C   UNL A   1      37.023  21.362  25.002  1.00  0.00     0.126 A 
ATOM     86  C   UNL A   1      37.728  23.482  25.837  1.00  0.00     0.126 A 
ATOM     87  F   UNL A   1      37.292  20.090  24.680  1.00  0.00    -0.207 F 
ATOM     88  C   UNL A   1      38.039  22.180  25.469  1.00  0.00     0.078 A 
ATOM     89  F   UNL A   1      38.704  24.288  26.276  1.00  0.00    -0.207 F 
ENDBRANCH  79  82
ENDBRANCH  75  77
ENDBRANCH  74  75
ENDBRANCH  73  74
ENDBRANCH  72  73
ENDBRANCH  71  72
ENDBRANCH   1  71
TORSDOF 15
ENDMDL
