MODEL 1
REMARK VINA RESULT:     -10.4      0.000      0.000
REMARK SMILES CCOc1ccc2c(c1)=N[C@H](SCC(=O)OCCOCCOC(=O)c1ccc(-c3c4nc(c(-c5c(F)c(F)c(F)c(F)c5F)c5ccc([nH]5)c(-c5c(F)c(F)c(F)c(F)c5F)c5nc(c(-c6c(F)c(F)c(F)c(F)c6F)c6ccc3[nH]6)C=C5)C=C4)cc1)N=2
REMARK SMILES IDX 18 1 17 2 16 3 14 4 15 5 13 6 12 7 11 8 4 9 5 10 9 11 6 12
REMARK SMILES IDX 8 13 7 14 10 15 88 16 3 17 2 18 1 19 19 20 20 21 21 22 22 23
REMARK SMILES IDX 23 24 24 25 25 26 26 27 87 28 27 29 86 30 28 31 29 32 30 33
REMARK SMILES IDX 80 34 31 35 85 36 79 37 81 38 32 39 84 40 78 41 77 42 33 44
REMARK SMILES IDX 65 45 45 46 64 47 46 48 49 49 63 50 82 51 47 52 48 53 62 55
REMARK SMILES IDX 83 56 50 57 34 58 35 59 43 60 36 61 37 62 41 63 44 64 38 65
REMARK SMILES IDX 39 66 42 67 40 68 66 69 67 70 75 71 68 72 69 73 73 74 76 75
REMARK SMILES IDX 70 76 71 77 74 78 72 79 51 80 52 81 60 82 53 83 54 84 58 85
REMARK SMILES IDX 61 86 55 87 56 88 59 89 57 90
REMARK H PARENT 81 43 49 54
REMARK Flexibility Score: inf
ROOT
ATOM      1  C   UNL A   1      35.290  23.081  26.389  1.00  0.00     0.202 C 
ENDROOT
BRANCH   1   2
ATOM      2  C   UNL A   1      35.505  24.087  25.254  1.00  0.00     0.261 C 
BRANCH   2   3
ATOM      3  O   UNL A   1      34.299  24.817  24.958  1.00  0.00    -0.463 OA
BRANCH   3   4
ATOM      4  C   UNL A   1      33.551  24.323  23.930  1.00  0.00     0.316 C 
ATOM      5  O   UNL A   1      33.952  24.221  22.773  1.00  0.00    -0.251 OA
BRANCH   4   6
ATOM      6  C   UNL A   1      32.231  23.738  24.380  1.00  0.00     0.196 C 
BRANCH   6   7
ATOM      7  S   UNL A   1      30.818  24.170  23.321  1.00  0.00    -0.100 SA
BRANCH   7   8
ATOM      8  C   UNL A   1      30.184  25.611  24.253  1.00  0.00     0.282 C 
ATOM      9  C   UNL A   1      32.031  28.946  26.673  1.00  0.00     0.121 A 
ATOM     10  C   UNL A   1      31.779  29.659  25.433  1.00  0.00     0.049 A 
ATOM     11  C   UNL A   1      31.746  27.645  26.834  1.00  0.00     0.076 A 
ATOM     12  C   UNL A   1      31.219  29.089  24.356  1.00  0.00     0.034 A 
ATOM     13  C   UNL A   1      31.114  26.944  25.711  1.00  0.00     0.090 A 
ATOM     14  C   UNL A   1      30.859  27.672  24.453  1.00  0.00     0.087 A 
ATOM     15  N   UNL A   1      30.730  25.717  25.637  1.00  0.00    -0.246 NA
ATOM     16  N   UNL A   1      30.322  26.922  23.556  1.00  0.00    -0.246 NA
BRANCH   9  17
ATOM     17  O   UNL A   1      32.754  29.633  27.623  1.00  0.00    -0.494 OA
BRANCH  17  18
ATOM     18  C   UNL A   1      33.937  30.275  27.133  1.00  0.00     0.226 C 
ATOM     19  C   UNL A   1      35.170  29.703  27.813  1.00  0.00     0.049 C 
ENDBRANCH  17  18
ENDBRANCH   9  17
ENDBRANCH   7   8
ENDBRANCH   6   7
ENDBRANCH   4   6
ENDBRANCH   3   4
ENDBRANCH   2   3
ENDBRANCH   1   2
BRANCH   1  20
ATOM     20  O   UNL A   1      34.989  21.742  25.992  1.00  0.00    -0.374 OA
BRANCH  20  21
ATOM     21  C   UNL A   1      35.695  21.208  24.873  1.00  0.00     0.202 C 
BRANCH  21  22
ATOM     22  C   UNL A   1      37.016  20.493  25.188  1.00  0.00     0.261 C 
BRANCH  22  23
ATOM     23  O   UNL A   1      38.153  21.373  25.094  1.00  0.00    -0.460 OA
BRANCH  23  24
ATOM     24  C   UNL A   1      39.126  21.143  26.006  1.00  0.00     0.338 C 
ATOM     25  O   UNL A   1      39.685  20.076  26.236  1.00  0.00    -0.246 OA
BRANCH  24  26
ATOM     26  C   UNL A   1      39.594  22.407  26.604  1.00  0.00     0.060 A 
ATOM     27  C   UNL A   1      40.642  22.447  27.524  1.00  0.00     0.016 A 
ATOM     28  C   UNL A   1      39.028  23.597  26.125  1.00  0.00     0.016 A 
ATOM     29  C   UNL A   1      41.157  23.690  27.925  1.00  0.00     0.010 A 
ATOM     30  C   UNL A   1      39.538  24.831  26.530  1.00  0.00     0.010 A 
ATOM     31  C   UNL A   1      40.626  24.889  27.413  1.00  0.00    -0.014 A 
BRANCH  31  32
ATOM     32  C   UNL A   1      41.276  26.200  27.683  1.00  0.00     0.031 A 
ATOM     33  C   UNL A   1      42.688  26.481  27.263  1.00  0.00     0.074 A 
ATOM     34  C   UNL A   1      40.608  27.121  28.404  1.00  0.00     0.049 A 
ATOM     35  N   UNL A   1      43.392  27.576  27.414  1.00  0.00    -0.248 NA
ATOM     36  C   UNL A   1      43.411  25.387  26.600  1.00  0.00     0.031 C 
ATOM     37  C   UNL A   1      39.259  26.946  28.940  1.00  0.00     0.029 A 
ATOM     38  N   UNL A   1      40.975  28.377  28.822  1.00  0.00    -0.354 N 
ATOM     39  C   UNL A   1      44.634  27.312  26.856  1.00  0.00     0.074 A 
ATOM     40  C   UNL A   1      44.604  25.935  26.405  1.00  0.00     0.031 C 
ATOM     41  C   UNL A   1      38.905  28.057  29.605  1.00  0.00     0.029 A 
ATOM     42  C   UNL A   1      40.007  29.016  29.557  1.00  0.00     0.049 A 
ATOM     43  H   UNL A   1      41.848  28.781  28.613  1.00  0.00     0.167 HD
ATOM     44  C   UNL A   1      45.692  28.147  26.714  1.00  0.00     0.037 A 
ATOM     45  C   UNL A   1      40.001  30.237  30.129  1.00  0.00     0.037 A 
ATOM     46  C   UNL A   1      45.724  29.515  27.168  1.00  0.00     0.049 A 
ATOM     47  C   UNL A   1      41.191  31.141  29.974  1.00  0.00     0.074 A 
ATOM     48  C   UNL A   1      46.720  30.460  26.987  1.00  0.00     0.029 A 
ATOM     49  N   UNL A   1      44.727  30.129  27.913  1.00  0.00    -0.354 N 
ATOM     50  N   UNL A   1      42.317  30.922  29.339  1.00  0.00    -0.248 NA
ATOM     51  C   UNL A   1      41.109  32.466  30.606  1.00  0.00     0.031 C 
ATOM     52  C   UNL A   1      46.354  31.624  27.670  1.00  0.00     0.029 A 
ATOM     53  C   UNL A   1      45.103  31.425  28.232  1.00  0.00     0.049 A 
ATOM     54  H   UNL A   1      43.877  29.707  28.175  1.00  0.00     0.167 HD
ATOM     55  C   UNL A   1      43.068  32.081  29.482  1.00  0.00     0.074 A 
ATOM     56  C   UNL A   1      42.266  33.009  30.250  1.00  0.00     0.031 C 
ATOM     57  C   UNL A   1      44.312  32.345  29.012  1.00  0.00     0.037 A 
BRANCH  44  58
ATOM     58  C   UNL A   1      46.915  27.615  26.026  1.00  0.00     0.064 A 
ATOM     59  C   UNL A   1      47.059  27.691  24.632  1.00  0.00     0.173 A 
ATOM     60  C   UNL A   1      47.987  27.096  26.768  1.00  0.00     0.173 A 
ATOM     61  F   UNL A   1      46.064  28.179  23.876  1.00  0.00    -0.203 F 
ATOM     62  C   UNL A   1      48.220  27.245  24.006  1.00  0.00     0.198 A 
ATOM     63  C   UNL A   1      49.157  26.676  26.142  1.00  0.00     0.198 A 
ATOM     64  F   UNL A   1      47.907  27.014  28.105  1.00  0.00    -0.203 F 
ATOM     65  F   UNL A   1      48.321  27.296  22.670  1.00  0.00    -0.200 F 
ATOM     66  C   UNL A   1      49.270  26.746  24.761  1.00  0.00     0.200 A 
ATOM     67  F   UNL A   1      50.178  26.210  26.874  1.00  0.00    -0.200 F 
ATOM     68  F   UNL A   1      50.393  26.330  24.158  1.00  0.00    -0.200 F 
ENDBRANCH  44  58
BRANCH  45  69
ATOM     69  C   UNL A   1      38.789  30.684  30.861  1.00  0.00     0.064 A 
ATOM     70  C   UNL A   1      38.695  30.528  32.249  1.00  0.00     0.173 A 
ATOM     71  C   UNL A   1      37.733  31.325  30.199  1.00  0.00     0.173 A 
ATOM     72  F   UNL A   1      39.673  29.902  32.920  1.00  0.00    -0.203 F 
ATOM     73  C   UNL A   1      37.588  31.000  32.952  1.00  0.00     0.198 A 
ATOM     74  C   UNL A   1      36.637  31.816  30.905  1.00  0.00     0.198 A 
ATOM     75  F   UNL A   1      37.780  31.499  28.870  1.00  0.00    -0.203 F 
ATOM     76  F   UNL A   1      37.513  30.822  34.277  1.00  0.00    -0.200 F 
ATOM     77  C   UNL A   1      36.565  31.653  32.280  1.00  0.00     0.200 A 
ATOM     78  F   UNL A   1      35.657  32.458  30.254  1.00  0.00    -0.200 F 
ATOM     79  F   UNL A   1      35.511  32.125  32.958  1.00  0.00    -0.200 F 
ENDBRANCH  45  69
BRANCH  57  80
ATOM     80  C   UNL A   1      44.902  33.693  29.312  1.00  0.00     0.064 A 
ATOM     81  C   UNL A   1      45.731  33.897  30.425  1.00  0.00     0.173 A 
ATOM     82  C   UNL A   1      44.700  34.773  28.439  1.00  0.00     0.173 A 
ATOM     83  F   UNL A   1      45.944  32.902  31.299  1.00  0.00    -0.203 F 
ATOM     84  C   UNL A   1      46.330  35.134  30.656  1.00  0.00     0.198 A 
ATOM     85  C   UNL A   1      45.321  36.000  28.658  1.00  0.00     0.198 A 
ATOM     86  F   UNL A   1      43.920  34.631  27.356  1.00  0.00    -0.203 F 
ATOM     87  F   UNL A   1      47.095  35.313  31.742  1.00  0.00    -0.200 F 
ATOM     88  C   UNL A   1      46.133  36.180  29.768  1.00  0.00     0.200 A 
ATOM     89  F   UNL A   1      45.141  37.006  27.791  1.00  0.00    -0.200 F 
ATOM     90  F   UNL A   1      46.725  37.363  29.981  1.00  0.00    -0.200 F 
ENDBRANCH  57  80
ENDBRANCH  31  32
ENDBRANCH  24  26
ENDBRANCH  23  24
ENDBRANCH  22  23
ENDBRANCH  21  22
ENDBRANCH  20  21
ENDBRANCH   1  20
TORSDOF 18
ENDMDL
MODEL 2
REMARK VINA RESULT:     -10.3      4.122      9.860
REMARK SMILES CCOc1ccc2c(c1)=N[C@H](SCC(=O)OCCOCCOC(=O)c1ccc(-c3c4nc(c(-c5c(F)c(F)c(F)c(F)c5F)c5ccc([nH]5)c(-c5c(F)c(F)c(F)c(F)c5F)c5nc(c(-c6c(F)c(F)c(F)c(F)c6F)c6ccc3[nH]6)C=C5)C=C4)cc1)N=2
REMARK SMILES IDX 18 1 17 2 16 3 14 4 15 5 13 6 12 7 11 8 4 9 5 10 9 11 6 12
REMARK SMILES IDX 8 13 7 14 10 15 88 16 3 17 2 18 1 19 19 20 20 21 21 22 22 23
REMARK SMILES IDX 23 24 24 25 25 26 26 27 87 28 27 29 86 30 28 31 29 32 30 33
REMARK SMILES IDX 80 34 31 35 85 36 79 37 81 38 32 39 84 40 78 41 77 42 33 44
REMARK SMILES IDX 65 45 45 46 64 47 46 48 49 49 63 50 82 51 47 52 48 53 62 55
REMARK SMILES IDX 83 56 50 57 34 58 35 59 43 60 36 61 37 62 41 63 44 64 38 65
REMARK SMILES IDX 39 66 42 67 40 68 66 69 67 70 75 71 68 72 69 73 73 74 76 75
REMARK SMILES IDX 70 76 71 77 74 78 72 79 51 80 52 81 60 82 53 83 54 84 58 85
REMARK SMILES IDX 61 86 55 87 56 88 59 89 57 90
REMARK H PARENT 81 43 49 54
REMARK Flexibility Score: inf
ROOT
ATOM      1  C   UNL A   1      33.152  28.953  23.404  1.00  0.00     0.202 C 
ENDROOT
BRANCH   1   2
ATOM      2  C   UNL A   1      33.524  27.732  22.557  1.00  0.00     0.261 C 
BRANCH   2   3
ATOM      3  O   UNL A   1      33.965  26.633  23.378  1.00  0.00    -0.463 OA
BRANCH   3   4
ATOM      4  C   UNL A   1      33.444  25.415  23.057  1.00  0.00     0.316 C 
ATOM      5  O   UNL A   1      34.033  24.566  22.393  1.00  0.00    -0.251 OA
BRANCH   4   6
ATOM      6  C   UNL A   1      32.130  25.128  23.751  1.00  0.00     0.196 C 
BRANCH   6   7
ATOM      7  S   UNL A   1      32.086  25.608  25.504  1.00  0.00    -0.100 SA
BRANCH   7   8
ATOM      8  C   UNL A   1      32.516  23.997  26.258  1.00  0.00     0.282 C 
ATOM      9  C   UNL A   1      33.288  19.824  24.716  1.00  0.00     0.121 A 
ATOM     10  C   UNL A   1      34.658  20.264  24.917  1.00  0.00     0.049 A 
ATOM     11  C   UNL A   1      32.229  20.612  24.956  1.00  0.00     0.076 A 
ATOM     12  C   UNL A   1      34.981  21.480  25.380  1.00  0.00     0.034 A 
ATOM     13  C   UNL A   1      32.488  21.957  25.483  1.00  0.00     0.090 A 
ATOM     14  C   UNL A   1      33.881  22.400  25.685  1.00  0.00     0.087 A 
ATOM     15  N   UNL A   1      31.644  22.873  25.809  1.00  0.00    -0.246 NA
ATOM     16  N   UNL A   1      33.949  23.605  26.130  1.00  0.00    -0.246 NA
BRANCH   9  17
ATOM     17  O   UNL A   1      33.134  18.608  24.087  1.00  0.00    -0.494 OA
BRANCH  17  18
ATOM     18  C   UNL A   1      34.271  17.740  24.168  1.00  0.00     0.226 C 
ATOM     19  C   UNL A   1      34.179  16.648  23.115  1.00  0.00     0.049 C 
ENDBRANCH  17  18
ENDBRANCH   9  17
ENDBRANCH   7   8
ENDBRANCH   6   7
ENDBRANCH   4   6
ENDBRANCH   3   4
ENDBRANCH   2   3
ENDBRANCH   1   2
BRANCH   1  20
ATOM     20  O   UNL A   1      31.779  29.060  23.782  1.00  0.00    -0.374 OA
BRANCH  20  21
ATOM     21  C   UNL A   1      31.482  29.186  25.173  1.00  0.00     0.202 C 
BRANCH  21  22
ATOM     22  C   UNL A   1      31.705  30.576  25.786  1.00  0.00     0.261 C 
BRANCH  22  23
ATOM     23  O   UNL A   1      32.469  30.520  27.006  1.00  0.00    -0.460 OA
BRANCH  23  24
ATOM     24  C   UNL A   1      33.216  31.620  27.258  1.00  0.00     0.338 C 
ATOM     25  O   UNL A   1      32.837  32.787  27.256  1.00  0.00    -0.246 OA
BRANCH  24  26
ATOM     26  C   UNL A   1      34.561  31.245  27.731  1.00  0.00     0.060 A 
ATOM     27  C   UNL A   1      35.542  32.198  28.008  1.00  0.00     0.016 A 
ATOM     28  C   UNL A   1      34.790  29.891  28.016  1.00  0.00     0.016 A 
ATOM     29  C   UNL A   1      36.739  31.794  28.619  1.00  0.00     0.010 A 
ATOM     30  C   UNL A   1      35.984  29.492  28.618  1.00  0.00     0.010 A 
ATOM     31  C   UNL A   1      36.959  30.444  28.951  1.00  0.00    -0.014 A 
BRANCH  31  32
ATOM     32  C   UNL A   1      38.136  30.029  29.761  1.00  0.00     0.031 A 
ATOM     33  C   UNL A   1      38.368  30.562  31.144  1.00  0.00     0.074 A 
ATOM     34  C   UNL A   1      39.061  29.226  29.201  1.00  0.00     0.049 A 
ATOM     35  N   UNL A   1      39.339  30.289  31.982  1.00  0.00    -0.248 NA
ATOM     36  C   UNL A   1      37.395  31.540  31.648  1.00  0.00     0.031 C 
ATOM     37  C   UNL A   1      38.997  28.700  27.839  1.00  0.00     0.029 A 
ATOM     38  N   UNL A   1      40.240  28.726  29.698  1.00  0.00    -0.354 N 
ATOM     39  C   UNL A   1      39.089  31.047  33.116  1.00  0.00     0.074 A 
ATOM     40  C   UNL A   1      37.900  31.830  32.841  1.00  0.00     0.031 C 
ATOM     41  C   UNL A   1      40.080  27.941  27.611  1.00  0.00     0.029 A 
ATOM     42  C   UNL A   1      40.924  27.940  28.805  1.00  0.00     0.049 A 
ATOM     43  H   UNL A   1      40.563  28.913  30.610  1.00  0.00     0.167 HD
ATOM     44  C   UNL A   1      39.775  31.071  34.285  1.00  0.00     0.037 A 
ATOM     45  C   UNL A   1      42.096  27.287  28.928  1.00  0.00     0.037 A 
ATOM     46  C   UNL A   1      40.961  30.297  34.556  1.00  0.00     0.049 A 
ATOM     47  C   UNL A   1      42.850  27.340  30.227  1.00  0.00     0.074 A 
ATOM     48  C   UNL A   1      41.668  30.192  35.742  1.00  0.00     0.029 A 
ATOM     49  N   UNL A   1      41.628  29.513  33.626  1.00  0.00    -0.354 N 
ATOM     50  N   UNL A   1      42.540  27.967  31.335  1.00  0.00    -0.248 NA
ATOM     51  C   UNL A   1      44.112  26.589  30.297  1.00  0.00     0.031 C 
ATOM     52  C   UNL A   1      42.795  29.395  35.515  1.00  0.00     0.029 A 
ATOM     53  C   UNL A   1      42.761  28.956  34.202  1.00  0.00     0.049 A 
ATOM     54  H   UNL A   1      41.341  29.373  32.696  1.00  0.00     0.167 HD
ATOM     55  C   UNL A   1      43.556  27.676  32.236  1.00  0.00     0.074 A 
ATOM     56  C   UNL A   1      44.485  26.802  31.552  1.00  0.00     0.031 C 
ATOM     57  C   UNL A   1      43.696  28.098  33.517  1.00  0.00     0.037 A 
BRANCH  44  58
ATOM     58  C   UNL A   1      39.259  31.959  35.379  1.00  0.00     0.064 A 
ATOM     59  C   UNL A   1      38.430  31.458  36.395  1.00  0.00     0.173 A 
ATOM     60  C   UNL A   1      39.657  33.302  35.460  1.00  0.00     0.173 A 
ATOM     61  F   UNL A   1      38.021  30.181  36.365  1.00  0.00    -0.203 F 
ATOM     62  C   UNL A   1      38.000  32.275  37.438  1.00  0.00     0.198 A 
ATOM     63  C   UNL A   1      39.247  34.109  36.519  1.00  0.00     0.198 A 
ATOM     64  F   UNL A   1      40.460  33.828  34.523  1.00  0.00    -0.203 F 
ATOM     65  F   UNL A   1      37.181  31.783  38.378  1.00  0.00    -0.200 F 
ATOM     66  C   UNL A   1      38.415  33.597  37.503  1.00  0.00     0.200 A 
ATOM     67  F   UNL A   1      39.663  35.381  36.590  1.00  0.00    -0.200 F 
ATOM     68  F   UNL A   1      38.011  34.377  38.515  1.00  0.00    -0.200 F 
ENDBRANCH  44  58
BRANCH  45  69
ATOM     69  C   UNL A   1      42.596  26.481  27.785  1.00  0.00     0.064 A 
ATOM     70  C   UNL A   1      42.135  25.175  27.576  1.00  0.00     0.173 A 
ATOM     71  C   UNL A   1      43.494  27.018  26.852  1.00  0.00     0.173 A 
ATOM     72  F   UNL A   1      41.292  24.614  28.455  1.00  0.00    -0.203 F 
ATOM     73  C   UNL A   1      42.552  24.434  26.472  1.00  0.00     0.198 A 
ATOM     74  C   UNL A   1      43.892  26.285  25.736  1.00  0.00     0.198 A 
ATOM     75  F   UNL A   1      43.960  28.265  27.009  1.00  0.00    -0.203 F 
ATOM     76  F   UNL A   1      42.111  23.181  26.305  1.00  0.00    -0.200 F 
ATOM     77  C   UNL A   1      43.422  24.993  25.548  1.00  0.00     0.200 A 
ATOM     78  F   UNL A   1      44.722  26.833  24.839  1.00  0.00    -0.200 F 
ATOM     79  F   UNL A   1      43.806  24.289  24.475  1.00  0.00    -0.200 F 
ENDBRANCH  45  69
BRANCH  57  80
ATOM     80  C   UNL A   1      44.903  27.631  34.279  1.00  0.00     0.064 A 
ATOM     81  C   UNL A   1      46.078  28.396  34.329  1.00  0.00     0.173 A 
ATOM     82  C   UNL A   1      44.859  26.446  35.030  1.00  0.00     0.173 A 
ATOM     83  F   UNL A   1      46.177  29.528  33.618  1.00  0.00    -0.203 F 
ATOM     84  C   UNL A   1      47.166  27.986  35.096  1.00  0.00     0.198 A 
ATOM     85  C   UNL A   1      45.940  26.054  35.817  1.00  0.00     0.198 A 
ATOM     86  F   UNL A   1      43.758  25.680  35.022  1.00  0.00    -0.203 F 
ATOM     87  F   UNL A   1      48.290  28.718  35.106  1.00  0.00    -0.200 F 
ATOM     88  C   UNL A   1      47.093  26.823  35.847  1.00  0.00     0.200 A 
ATOM     89  F   UNL A   1      45.861  24.937  36.553  1.00  0.00    -0.200 F 
ATOM     90  F   UNL A   1      48.134  26.442  36.599  1.00  0.00    -0.200 F 
ENDBRANCH  57  80
ENDBRANCH  31  32
ENDBRANCH  24  26
ENDBRANCH  23  24
ENDBRANCH  22  23
ENDBRANCH  21  22
ENDBRANCH  20  21
ENDBRANCH   1  20
TORSDOF 18
ENDMDL
MODEL 3
REMARK VINA RESULT:     -10.2      4.050      9.694
REMARK SMILES CCOc1ccc2c(c1)=N[C@H](SCC(=O)OCCOCCOC(=O)c1ccc(-c3c4nc(c(-c5c(F)c(F)c(F)c(F)c5F)c5ccc([nH]5)c(-c5c(F)c(F)c(F)c(F)c5F)c5nc(c(-c6c(F)c(F)c(F)c(F)c6F)c6ccc3[nH]6)C=C5)C=C4)cc1)N=2
REMARK SMILES IDX 18 1 17 2 16 3 14 4 15 5 13 6 12 7 11 8 4 9 5 10 9 11 6 12
REMARK SMILES IDX 8 13 7 14 10 15 88 16 3 17 2 18 1 19 19 20 20 21 21 22 22 23
REMARK SMILES IDX 23 24 24 25 25 26 26 27 87 28 27 29 86 30 28 31 29 32 30 33
REMARK SMILES IDX 80 34 31 35 85 36 79 37 81 38 32 39 84 40 78 41 77 42 33 44
REMARK SMILES IDX 65 45 45 46 64 47 46 48 49 49 63 50 82 51 47 52 48 53 62 55
REMARK SMILES IDX 83 56 50 57 34 58 35 59 43 60 36 61 37 62 41 63 44 64 38 65
REMARK SMILES IDX 39 66 42 67 40 68 66 69 67 70 75 71 68 72 69 73 73 74 76 75
REMARK SMILES IDX 70 76 71 77 74 78 72 79 51 80 52 81 60 82 53 83 54 84 58 85
REMARK SMILES IDX 61 86 55 87 56 88 59 89 57 90
REMARK H PARENT 81 43 49 54
REMARK Flexibility Score: inf
ROOT
ATOM      1  C   UNL A   1      33.840  28.346  24.029  1.00  0.00     0.202 C 
ENDROOT
BRANCH   1   2
ATOM      2  C   UNL A   1      33.075  27.050  23.746  1.00  0.00     0.261 C 
BRANCH   2   3
ATOM      3  O   UNL A   1      31.989  27.267  22.824  1.00  0.00    -0.463 OA
BRANCH   3   4
ATOM      4  C   UNL A   1      30.758  26.881  23.266  1.00  0.00     0.316 C 
ATOM      5  O   UNL A   1      29.714  27.467  22.994  1.00  0.00    -0.251 OA
BRANCH   4   6
ATOM      6  C   UNL A   1      30.773  25.548  23.981  1.00  0.00     0.196 C 
BRANCH   6   7
ATOM      7  S   UNL A   1      30.138  25.603  25.684  1.00  0.00    -0.100 SA
BRANCH   7   8
ATOM      8  C   UNL A   1      30.563  23.902  26.209  1.00  0.00     0.282 C 
ATOM      9  C   UNL A   1      34.082  21.135  25.614  1.00  0.00     0.121 A 
ATOM     10  C   UNL A   1      34.369  21.604  26.959  1.00  0.00     0.049 A 
ATOM     11  C   UNL A   1      33.024  21.560  24.907  1.00  0.00     0.076 A 
ATOM     12  C   UNL A   1      33.592  22.478  27.616  1.00  0.00     0.034 A 
ATOM     13  C   UNL A   1      32.108  22.506  25.555  1.00  0.00     0.090 A 
ATOM     14  C   UNL A   1      32.403  22.979  26.921  1.00  0.00     0.087 A 
ATOM     15  N   UNL A   1      31.026  23.028  25.092  1.00  0.00    -0.246 NA
ATOM     16  N   UNL A   1      31.524  23.817  27.346  1.00  0.00    -0.246 NA
BRANCH   9  17
ATOM     17  O   UNL A   1      35.061  20.365  25.027  1.00  0.00    -0.494 OA
BRANCH  17  18
ATOM     18  C   UNL A   1      36.339  21.001  24.908  1.00  0.00     0.226 C 
ATOM     19  C   UNL A   1      37.444  19.960  24.849  1.00  0.00     0.049 C 
ENDBRANCH  17  18
ENDBRANCH   9  17
ENDBRANCH   7   8
ENDBRANCH   6   7
ENDBRANCH   4   6
ENDBRANCH   3   4
ENDBRANCH   2   3
ENDBRANCH   1   2
BRANCH   1  20
ATOM     20  O   UNL A   1      33.456  29.058  25.206  1.00  0.00    -0.374 OA
BRANCH  20  21
ATOM     21  C   UNL A   1      32.107  29.517  25.292  1.00  0.00     0.202 C 
BRANCH  21  22
ATOM     22  C   UNL A   1      31.885  30.812  26.087  1.00  0.00     0.261 C 
BRANCH  22  23
ATOM     23  O   UNL A   1      32.611  30.823  27.331  1.00  0.00    -0.460 OA
BRANCH  23  24
ATOM     24  C   UNL A   1      33.449  31.873  27.490  1.00  0.00     0.338 C 
ATOM     25  O   UNL A   1      33.158  33.064  27.443  1.00  0.00    -0.246 OA
BRANCH  24  26
ATOM     26  C   UNL A   1      34.784  31.419  27.920  1.00  0.00     0.060 A 
ATOM     27  C   UNL A   1      35.847  32.306  28.096  1.00  0.00     0.016 A 
ATOM     28  C   UNL A   1      34.925  30.069  28.270  1.00  0.00     0.016 A 
ATOM     29  C   UNL A   1      37.039  31.843  28.673  1.00  0.00     0.010 A 
ATOM     30  C   UNL A   1      36.115  29.610  28.836  1.00  0.00     0.010 A 
ATOM     31  C   UNL A   1      37.174  30.499  29.070  1.00  0.00    -0.014 A 
BRANCH  31  32
ATOM     32  C   UNL A   1      38.356  30.037  29.846  1.00  0.00     0.031 A 
ATOM     33  C   UNL A   1      38.638  30.543  31.229  1.00  0.00     0.074 A 
ATOM     34  C   UNL A   1      39.242  29.212  29.254  1.00  0.00     0.049 A 
ATOM     35  N   UNL A   1      39.619  30.229  32.040  1.00  0.00    -0.248 NA
ATOM     36  C   UNL A   1      37.708  31.545  31.768  1.00  0.00     0.031 C 
ATOM     37  C   UNL A   1      39.129  28.707  27.886  1.00  0.00     0.029 A 
ATOM     38  N   UNL A   1      40.415  28.669  29.716  1.00  0.00    -0.354 N 
ATOM     39  C   UNL A   1      39.420  30.980  33.189  1.00  0.00     0.074 A 
ATOM     40  C   UNL A   1      38.251  31.803  32.952  1.00  0.00     0.031 C 
ATOM     41  C   UNL A   1      40.181  27.917  27.624  1.00  0.00     0.029 A 
ATOM     42  C   UNL A   1      41.053  27.873  28.797  1.00  0.00     0.049 A 
ATOM     43  H   UNL A   1      40.766  28.834  30.621  1.00  0.00     0.167 HD
ATOM     44  C   UNL A   1      40.134  30.967  34.341  1.00  0.00     0.037 A 
ATOM     45  C   UNL A   1      42.207  27.182  28.883  1.00  0.00     0.037 A 
ATOM     46  C   UNL A   1      41.301  30.153  34.574  1.00  0.00     0.049 A 
ATOM     47  C   UNL A   1      42.993  27.195  30.164  1.00  0.00     0.074 A 
ATOM     48  C   UNL A   1      42.033  30.010  35.741  1.00  0.00     0.029 A 
ATOM     49  N   UNL A   1      41.921  29.361  33.618  1.00  0.00    -0.354 N 
ATOM     50  N   UNL A   1      42.729  27.817  31.287  1.00  0.00    -0.248 NA
ATOM     51  C   UNL A   1      44.231  26.403  30.194  1.00  0.00     0.031 C 
ATOM     52  C   UNL A   1      43.128  29.181  35.477  1.00  0.00     0.029 A 
ATOM     53  C   UNL A   1      43.049  28.760  34.159  1.00  0.00     0.049 A 
ATOM     54  H   UNL A   1      41.607  29.241  32.693  1.00  0.00     0.167 HD
ATOM     55  C   UNL A   1      43.756  27.482  32.159  1.00  0.00     0.074 A 
ATOM     56  C   UNL A   1      44.641  26.588  31.442  1.00  0.00     0.031 C 
ATOM     57  C   UNL A   1      43.940  27.883  33.441  1.00  0.00     0.037 A 
BRANCH  44  58
ATOM     58  C   UNL A   1      39.673  31.856  35.459  1.00  0.00     0.064 A 
ATOM     59  C   UNL A   1      40.195  33.148  35.626  1.00  0.00     0.173 A 
ATOM     60  C   UNL A   1      38.647  31.445  36.324  1.00  0.00     0.173 A 
ATOM     61  F   UNL A   1      41.176  33.589  34.826  1.00  0.00    -0.203 F 
ATOM     62  C   UNL A   1      39.722  33.987  36.633  1.00  0.00     0.198 A 
ATOM     63  C   UNL A   1      38.158  32.296  37.311  1.00  0.00     0.198 A 
ATOM     64  F   UNL A   1      38.104  30.225  36.198  1.00  0.00    -0.203 F 
ATOM     65  F   UNL A   1      40.258  35.204  36.795  1.00  0.00    -0.200 F 
ATOM     66  C   UNL A   1      38.699  33.564  37.469  1.00  0.00     0.200 A 
ATOM     67  F   UNL A   1      37.158  31.893  38.107  1.00  0.00    -0.200 F 
ATOM     68  F   UNL A   1      38.236  34.377  38.427  1.00  0.00    -0.200 F 
ENDBRANCH  44  58
BRANCH  45  69
ATOM     69  C   UNL A   1      42.653  26.376  27.718  1.00  0.00     0.064 A 
ATOM     70  C   UNL A   1      43.518  26.921  26.762  1.00  0.00     0.173 A 
ATOM     71  C   UNL A   1      42.272  25.035  27.571  1.00  0.00     0.173 A 
ATOM     72  F   UNL A   1      43.892  28.206  26.852  1.00  0.00    -0.203 F 
ATOM     73  C   UNL A   1      43.990  26.153  25.700  1.00  0.00     0.198 A 
ATOM     74  C   UNL A   1      42.762  24.261  26.522  1.00  0.00     0.198 A 
ATOM     75  F   UNL A   1      41.446  24.469  28.464  1.00  0.00    -0.203 F 
ATOM     76  F   UNL A   1      44.803  26.702  24.787  1.00  0.00    -0.200 F 
ATOM     77  C   UNL A   1      43.620  24.821  25.586  1.00  0.00     0.200 A 
ATOM     78  F   UNL A   1      42.412  22.972  26.423  1.00  0.00    -0.200 F 
ATOM     79  F   UNL A   1      44.090  24.076  24.577  1.00  0.00    -0.200 F 
ENDBRANCH  45  69
BRANCH  57  80
ATOM     80  C   UNL A   1      45.149  27.368  34.169  1.00  0.00     0.064 A 
ATOM     81  C   UNL A   1      45.120  26.149  34.864  1.00  0.00     0.173 A 
ATOM     82  C   UNL A   1      46.369  28.059  34.107  1.00  0.00     0.173 A 
ATOM     83  F   UNL A   1      43.976  25.458  34.966  1.00  0.00    -0.203 F 
ATOM     84  C   UNL A   1      46.266  25.647  35.476  1.00  0.00     0.198 A 
ATOM     85  C   UNL A   1      47.519  27.539  34.698  1.00  0.00     0.198 A 
ATOM     86  F   UNL A   1      46.453  29.225  33.450  1.00  0.00    -0.203 F 
ATOM     87  F   UNL A   1      46.207  24.495  36.160  1.00  0.00    -0.200 F 
ATOM     88  C   UNL A   1      47.465  26.336  35.384  1.00  0.00     0.200 A 
ATOM     89  F   UNL A   1      48.680  28.201  34.595  1.00  0.00    -0.200 F 
ATOM     90  F   UNL A   1      48.571  25.841  35.958  1.00  0.00    -0.200 F 
ENDBRANCH  57  80
ENDBRANCH  31  32
ENDBRANCH  24  26
ENDBRANCH  23  24
ENDBRANCH  22  23
ENDBRANCH  21  22
ENDBRANCH  20  21
ENDBRANCH   1  20
TORSDOF 18
ENDMDL
