MODEL 1
REMARK VINA RESULT:     -10.4      0.000      0.000
REMARK SMILES C[N@@H+](CC(C)(C)C(=O)OCCOCCOC(=O)c1ccc(-c2c3nc(c(-c4c(F)c(F)c(F)c(F)c4F)c4ccc([nH]4)c(-c4c(F)c(F)c(F)c(F)c4F)c4nc(c(-c5c(F)c(F)c(F)c(F)c5F)c5ccc2[nH]5)C=C4)C=C3)cc1)[C@@H]1CCCC[C@@H]1C[NH3+]
REMARK SMILES IDX 10 1 9 2 7 3 8 4 4 5 5 6 6 7 3 8 2 9 1 10 81 12 82 13 86 14
REMARK SMILES IDX 83 15 85 16 84 17 87 18 88 19 11 23 12 24 13 25 14 26 15 27
REMARK SMILES IDX 16 28 17 29 18 30 19 31 80 32 20 33 79 34 21 35 22 36 23 37
REMARK SMILES IDX 73 38 24 39 78 40 72 41 74 42 25 43 77 44 71 45 70 46 26 48
REMARK SMILES IDX 58 49 38 50 57 51 39 52 42 53 56 54 75 55 40 56 41 57 55 59
REMARK SMILES IDX 76 60 43 61 27 62 28 63 36 64 29 65 30 66 34 67 37 68 31 69
REMARK SMILES IDX 32 70 35 71 33 72 59 73 60 74 68 75 61 76 62 77 66 78 69 79
REMARK SMILES IDX 63 80 64 81 67 82 65 83 44 84 45 85 53 86 46 87 47 88 51 89
REMARK SMILES IDX 54 90 48 91 49 92 52 93 50 94
REMARK H PARENT 2 11 88 20 88 21 88 22 74 47 42 58
REMARK Flexibility Score: inf
ROOT
ATOM      1  C   UNL A   1      32.930  35.763  29.548  1.00  0.00     0.261 C 
ENDROOT
BRANCH   1   2
ATOM      2  O   UNL A   1      33.961  35.055  28.844  1.00  0.00    -0.463 OA
BRANCH   2   3
ATOM      3  C   UNL A   1      33.501  33.883  28.327  1.00  0.00     0.317 C 
ATOM      4  O   UNL A   1      32.387  33.817  27.830  1.00  0.00    -0.251 OA
BRANCH   3   5
ATOM      5  C   UNL A   1      34.483  32.714  28.432  1.00  0.00     0.111 C 
ATOM      6  C   UNL A   1      34.638  32.249  29.891  1.00  0.00     0.029 C 
ATOM      7  C   UNL A   1      35.906  33.166  28.001  1.00  0.00     0.029 C 
BRANCH   5   8
ATOM      8  C   UNL A   1      34.029  31.567  27.463  1.00  0.00     0.280 C 
BRANCH   8   9
ATOM      9  N   UNL A   1      34.468  30.161  27.545  1.00  0.00    -0.334 N 
ATOM     10  C   UNL A   1      35.887  29.923  27.333  1.00  0.00     0.333 C 
ATOM     11  H   UNL A   1      34.384  30.037  28.554  1.00  0.00     0.348 HD
BRANCH   9  12
ATOM     12  C   UNL A   1      33.522  29.072  27.289  1.00  0.00     0.192 C 
ATOM     13  C   UNL A   1      34.133  27.950  26.423  1.00  0.00     0.065 C 
ATOM     14  C   UNL A   1      32.089  29.391  26.739  1.00  0.00     0.102 C 
ATOM     15  C   UNL A   1      33.279  26.681  26.499  1.00  0.00     0.006 C 
ATOM     16  C   UNL A   1      31.224  28.128  26.944  1.00  0.00     0.015 C 
ATOM     17  C   UNL A   1      31.794  26.910  26.220  1.00  0.00     0.001 C 
BRANCH  14  18
ATOM     18  C   UNL A   1      31.992  29.865  25.262  1.00  0.00     0.268 C 
BRANCH  18  19
ATOM     19  N   UNL A   1      30.916  30.843  25.057  1.00  0.00    -0.357 N 
ATOM     20  H   UNL A   1      30.021  30.421  25.307  1.00  0.00     0.344 HD
ATOM     21  H   UNL A   1      30.896  31.126  24.078  1.00  0.00     0.344 HD
ATOM     22  H   UNL A   1      31.082  31.660  25.644  1.00  0.00     0.344 HD
ENDBRANCH  18  19
ENDBRANCH  14  18
ENDBRANCH   9  12
ENDBRANCH   8   9
ENDBRANCH   5   8
ENDBRANCH   3   5
ENDBRANCH   2   3
ENDBRANCH   1   2
BRANCH   1  23
ATOM     23  C   UNL A   1      33.055  35.859  31.089  1.00  0.00     0.202 C 
BRANCH  23  24
ATOM     24  O   UNL A   1      33.285  34.717  31.897  1.00  0.00    -0.374 OA
BRANCH  24  25
ATOM     25  C   UNL A   1      34.570  34.469  32.448  1.00  0.00     0.202 C 
BRANCH  25  26
ATOM     26  C   UNL A   1      34.742  33.456  33.584  1.00  0.00     0.261 C 
BRANCH  26  27
ATOM     27  O   UNL A   1      35.528  32.312  33.212  1.00  0.00    -0.460 OA
BRANCH  27  28
ATOM     28  C   UNL A   1      36.840  32.405  33.539  1.00  0.00     0.338 C 
ATOM     29  O   UNL A   1      37.322  32.908  34.538  1.00  0.00    -0.246 OA
BRANCH  28  30
ATOM     30  C   UNL A   1      37.651  31.614  32.599  1.00  0.00     0.060 A 
ATOM     31  C   UNL A   1      38.590  30.727  33.143  1.00  0.00     0.016 A 
ATOM     32  C   UNL A   1      37.564  31.806  31.220  1.00  0.00     0.016 A 
ATOM     33  C   UNL A   1      39.484  30.062  32.312  1.00  0.00     0.010 A 
ATOM     34  C   UNL A   1      38.479  31.156  30.387  1.00  0.00     0.010 A 
ATOM     35  C   UNL A   1      39.466  30.316  30.936  1.00  0.00    -0.014 A 
BRANCH  35  36
ATOM     36  C   UNL A   1      40.607  29.862  30.110  1.00  0.00     0.031 A 
ATOM     37  C   UNL A   1      41.723  30.833  29.837  1.00  0.00     0.074 A 
ATOM     38  C   UNL A   1      40.672  28.601  29.655  1.00  0.00     0.049 A 
ATOM     39  N   UNL A   1      42.804  30.678  29.117  1.00  0.00    -0.248 NA
ATOM     40  C   UNL A   1      41.600  32.160  30.462  1.00  0.00     0.031 C 
ATOM     41  C   UNL A   1      39.677  27.561  29.908  1.00  0.00     0.029 A 
ATOM     42  N   UNL A   1      41.619  27.984  28.877  1.00  0.00    -0.354 N 
ATOM     43  C   UNL A   1      43.483  31.886  29.197  1.00  0.00     0.074 A 
ATOM     44  C   UNL A   1      42.683  32.775  30.009  1.00  0.00     0.031 C 
ATOM     45  C   UNL A   1      40.059  26.434  29.282  1.00  0.00     0.029 A 
ATOM     46  C   UNL A   1      41.305  26.687  28.559  1.00  0.00     0.049 A 
ATOM     47  H   UNL A   1      42.443  28.430  28.575  1.00  0.00     0.167 HD
ATOM     48  C   UNL A   1      44.674  32.220  28.645  1.00  0.00     0.037 A 
ATOM     49  C   UNL A   1      41.943  25.815  27.756  1.00  0.00     0.037 A 
ATOM     50  C   UNL A   1      45.464  31.330  27.837  1.00  0.00     0.049 A 
ATOM     51  C   UNL A   1      43.228  26.236  27.090  1.00  0.00     0.074 A 
ATOM     52  C   UNL A   1      46.690  31.563  27.241  1.00  0.00     0.029 A 
ATOM     53  N   UNL A   1      45.097  30.033  27.506  1.00  0.00    -0.354 N 
ATOM     54  N   UNL A   1      43.875  27.373  27.180  1.00  0.00    -0.248 NA
ATOM     55  C   UNL A   1      43.873  25.250  26.212  1.00  0.00     0.031 C 
ATOM     56  C   UNL A   1      47.038  30.427  26.502  1.00  0.00     0.029 A 
ATOM     57  C   UNL A   1      46.060  29.464  26.689  1.00  0.00     0.049 A 
ATOM     58  H   UNL A   1      44.274  29.584  27.807  1.00  0.00     0.167 HD
ATOM     59  C   UNL A   1      45.015  27.230  26.399  1.00  0.00     0.074 A 
ATOM     60  C   UNL A   1      44.976  25.890  25.851  1.00  0.00     0.031 C 
ATOM     61  C   UNL A   1      46.006  28.124  26.159  1.00  0.00     0.037 A 
BRANCH  48  62
ATOM     62  C   UNL A   1      45.174  33.618  28.868  1.00  0.00     0.064 A 
ATOM     63  C   UNL A   1      44.820  34.677  28.018  1.00  0.00     0.173 A 
ATOM     64  C   UNL A   1      46.001  33.906  29.964  1.00  0.00     0.173 A 
ATOM     65  F   UNL A   1      44.044  34.452  26.947  1.00  0.00    -0.203 F 
ATOM     66  C   UNL A   1      45.297  35.966  28.242  1.00  0.00     0.198 A 
ATOM     67  C   UNL A   1      46.452  35.202  30.202  1.00  0.00     0.198 A 
ATOM     68  F   UNL A   1      46.369  32.932  30.809  1.00  0.00    -0.203 F 
ATOM     69  F   UNL A   1      44.987  36.952  27.389  1.00  0.00    -0.200 F 
ATOM     70  C   UNL A   1      46.107  36.229  29.338  1.00  0.00     0.200 A 
ATOM     71  F   UNL A   1      47.224  35.456  31.268  1.00  0.00    -0.200 F 
ATOM     72  F   UNL A   1      46.560  37.471  29.555  1.00  0.00    -0.200 F 
ENDBRANCH  48  62
BRANCH  49  73
ATOM     73  C   UNL A   1      41.370  24.463  27.525  1.00  0.00     0.064 A 
ATOM     74  C   UNL A   1      41.949  23.323  28.096  1.00  0.00     0.173 A 
ATOM     75  C   UNL A   1      40.237  24.285  26.717  1.00  0.00     0.173 A 
ATOM     76  F   UNL A   1      43.048  23.438  28.856  1.00  0.00    -0.203 F 
ATOM     77  C   UNL A   1      41.426  22.053  27.855  1.00  0.00     0.198 A 
ATOM     78  C   UNL A   1      39.699  23.018  26.501  1.00  0.00     0.198 A 
ATOM     79  F   UNL A   1      39.646  25.344  26.145  1.00  0.00    -0.203 F 
ATOM     80  F   UNL A   1      42.026  20.974  28.376  1.00  0.00    -0.200 F 
ATOM     81  C   UNL A   1      40.298  21.902  27.063  1.00  0.00     0.200 A 
ATOM     82  F   UNL A   1      38.600  22.880  25.745  1.00  0.00    -0.200 F 
ATOM     83  F   UNL A   1      39.794  20.682  26.835  1.00  0.00    -0.200 F 
ENDBRANCH  49  73
BRANCH  61  84
ATOM     84  C   UNL A   1      47.151  27.671  25.299  1.00  0.00     0.064 A 
ATOM     85  C   UNL A   1      47.153  27.862  23.910  1.00  0.00     0.173 A 
ATOM     86  C   UNL A   1      48.283  27.078  25.882  1.00  0.00     0.173 A 
ATOM     87  F   UNL A   1      46.091  28.412  23.302  1.00  0.00    -0.203 F 
ATOM     88  C   UNL A   1      48.234  27.453  23.133  1.00  0.00     0.198 A 
ATOM     89  C   UNL A   1      49.374  26.700  25.107  1.00  0.00     0.198 A 
ATOM     90  F   UNL A   1      48.335  26.881  27.208  1.00  0.00    -0.203 F 
ATOM     91  F   UNL A   1      48.194  27.602  21.802  1.00  0.00    -0.200 F 
ATOM     92  C   UNL A   1      49.346  26.880  23.732  1.00  0.00     0.200 A 
ATOM     93  F   UNL A   1      50.455  26.162  25.690  1.00  0.00    -0.200 F 
ATOM     94  F   UNL A   1      50.389  26.495  22.983  1.00  0.00    -0.200 F 
ENDBRANCH  61  84
ENDBRANCH  35  36
ENDBRANCH  28  30
ENDBRANCH  27  28
ENDBRANCH  26  27
ENDBRANCH  25  26
ENDBRANCH  24  25
ENDBRANCH  23  24
ENDBRANCH   1  23
TORSDOF 19
ENDMDL
MODEL 2
REMARK VINA RESULT:     -10.4      4.635      9.399
REMARK SMILES C[N@@H+](CC(C)(C)C(=O)OCCOCCOC(=O)c1ccc(-c2c3nc(c(-c4c(F)c(F)c(F)c(F)c4F)c4ccc([nH]4)c(-c4c(F)c(F)c(F)c(F)c4F)c4nc(c(-c5c(F)c(F)c(F)c(F)c5F)c5ccc2[nH]5)C=C4)C=C3)cc1)[C@@H]1CCCC[C@@H]1C[NH3+]
REMARK SMILES IDX 10 1 9 2 7 3 8 4 4 5 5 6 6 7 3 8 2 9 1 10 81 12 82 13 86 14
REMARK SMILES IDX 83 15 85 16 84 17 87 18 88 19 11 23 12 24 13 25 14 26 15 27
REMARK SMILES IDX 16 28 17 29 18 30 19 31 80 32 20 33 79 34 21 35 22 36 23 37
REMARK SMILES IDX 73 38 24 39 78 40 72 41 74 42 25 43 77 44 71 45 70 46 26 48
REMARK SMILES IDX 58 49 38 50 57 51 39 52 42 53 56 54 75 55 40 56 41 57 55 59
REMARK SMILES IDX 76 60 43 61 27 62 28 63 36 64 29 65 30 66 34 67 37 68 31 69
REMARK SMILES IDX 32 70 35 71 33 72 59 73 60 74 68 75 61 76 62 77 66 78 69 79
REMARK SMILES IDX 63 80 64 81 67 82 65 83 44 84 45 85 53 86 46 87 47 88 51 89
REMARK SMILES IDX 54 90 48 91 49 92 52 93 50 94
REMARK H PARENT 2 11 88 20 88 21 88 22 74 47 42 58
REMARK Flexibility Score: inf
ROOT
ATOM      1  C   UNL A   1      33.904  28.249  26.510  1.00  0.00     0.261 C 
ENDROOT
BRANCH   1   2
ATOM      2  O   UNL A   1      33.590  26.865  26.291  1.00  0.00    -0.463 OA
BRANCH   2   3
ATOM      3  C   UNL A   1      33.778  26.508  24.992  1.00  0.00     0.317 C 
ATOM      4  O   UNL A   1      34.259  27.297  24.192  1.00  0.00    -0.251 OA
BRANCH   3   5
ATOM      5  C   UNL A   1      33.339  25.081  24.656  1.00  0.00     0.111 C 
ATOM      6  C   UNL A   1      33.773  24.094  25.755  1.00  0.00     0.029 C 
ATOM      7  C   UNL A   1      34.054  24.587  23.368  1.00  0.00     0.029 C 
BRANCH   5   8
ATOM      8  C   UNL A   1      31.794  25.062  24.385  1.00  0.00     0.280 C 
BRANCH   8   9
ATOM      9  N   UNL A   1      30.785  25.800  25.167  1.00  0.00    -0.334 N 
ATOM     10  C   UNL A   1      30.151  25.063  26.249  1.00  0.00     0.333 C 
ATOM     11  H   UNL A   1      31.415  26.420  25.677  1.00  0.00     0.348 HD
BRANCH   9  12
ATOM     12  C   UNL A   1      30.075  26.939  24.576  1.00  0.00     0.192 C 
ATOM     13  C   UNL A   1      28.836  26.505  23.765  1.00  0.00     0.065 C 
ATOM     14  C   UNL A   1      30.863  28.004  23.738  1.00  0.00     0.102 C 
ATOM     15  C   UNL A   1      27.918  27.701  23.497  1.00  0.00     0.006 C 
ATOM     16  C   UNL A   1      29.951  29.242  23.593  1.00  0.00     0.015 C 
ATOM     17  C   UNL A   1      28.631  28.914  22.898  1.00  0.00     0.001 C 
BRANCH  14  18
ATOM     18  C   UNL A   1      31.378  27.560  22.342  1.00  0.00     0.268 C 
BRANCH  18  19
ATOM     19  N   UNL A   1      32.652  28.197  21.986  1.00  0.00    -0.357 N 
ATOM     20  H   UNL A   1      32.996  28.737  22.780  1.00  0.00     0.344 HD
ATOM     21  H   UNL A   1      32.512  28.817  21.189  1.00  0.00     0.344 HD
ATOM     22  H   UNL A   1      33.335  27.479  21.742  1.00  0.00     0.344 HD
ENDBRANCH  18  19
ENDBRANCH  14  18
ENDBRANCH   9  12
ENDBRANCH   8   9
ENDBRANCH   5   8
ENDBRANCH   3   5
ENDBRANCH   2   3
ENDBRANCH   1   2
BRANCH   1  23
ATOM     23  C   UNL A   1      32.731  29.199  26.857  1.00  0.00     0.202 C 
BRANCH  23  24
ATOM     24  O   UNL A   1      32.516  30.414  26.159  1.00  0.00    -0.374 OA
BRANCH  24  25
ATOM     25  C   UNL A   1      31.394  31.231  26.460  1.00  0.00     0.202 C 
BRANCH  25  26
ATOM     26  C   UNL A   1      31.589  32.698  26.857  1.00  0.00     0.261 C 
BRANCH  26  27
ATOM     27  O   UNL A   1      32.960  33.125  26.803  1.00  0.00    -0.460 OA
BRANCH  27  28
ATOM     28  C   UNL A   1      33.426  33.658  27.958  1.00  0.00     0.338 C 
ATOM     29  O   UNL A   1      32.856  34.441  28.697  1.00  0.00    -0.246 OA
BRANCH  28  30
ATOM     30  C   UNL A   1      34.686  33.001  28.345  1.00  0.00     0.060 A 
ATOM     31  C   UNL A   1      34.617  31.663  28.755  1.00  0.00     0.016 A 
ATOM     32  C   UNL A   1      35.889  33.706  28.397  1.00  0.00     0.016 A 
ATOM     33  C   UNL A   1      35.745  31.033  29.268  1.00  0.00     0.010 A 
ATOM     34  C   UNL A   1      37.016  33.079  28.938  1.00  0.00     0.010 A 
ATOM     35  C   UNL A   1      36.934  31.756  29.412  1.00  0.00    -0.014 A 
BRANCH  35  36
ATOM     36  C   UNL A   1      38.020  31.189  30.242  1.00  0.00     0.031 A 
ATOM     37  C   UNL A   1      38.947  30.183  29.618  1.00  0.00     0.074 A 
ATOM     38  C   UNL A   1      38.205  31.597  31.508  1.00  0.00     0.049 A 
ATOM     39  N   UNL A   1      39.944  29.527  30.152  1.00  0.00    -0.248 NA
ATOM     40  C   UNL A   1      38.715  29.877  28.197  1.00  0.00     0.031 C 
ATOM     41  C   UNL A   1      37.404  32.607  32.195  1.00  0.00     0.029 A 
ATOM     42  N   UNL A   1      39.129  31.202  32.442  1.00  0.00    -0.354 N 
ATOM     43  C   UNL A   1      40.452  28.727  29.136  1.00  0.00     0.074 A 
ATOM     44  C   UNL A   1      39.639  28.957  27.964  1.00  0.00     0.031 C 
ATOM     45  C   UNL A   1      37.861  32.744  33.451  1.00  0.00     0.029 A 
ATOM     46  C   UNL A   1      38.964  31.806  33.664  1.00  0.00     0.049 A 
ATOM     47  H   UNL A   1      39.840  30.548  32.255  1.00  0.00     0.167 HD
ATOM     48  C   UNL A   1      41.510  27.882  29.180  1.00  0.00     0.037 A 
ATOM     49  C   UNL A   1      39.616  31.603  34.823  1.00  0.00     0.037 A 
ATOM     50  C   UNL A   1      42.314  27.660  30.353  1.00  0.00     0.049 A 
ATOM     51  C   UNL A   1      40.740  30.600  34.867  1.00  0.00     0.074 A 
ATOM     52  C   UNL A   1      43.414  26.835  30.501  1.00  0.00     0.029 A 
ATOM     53  N   UNL A   1      42.095  28.263  31.583  1.00  0.00    -0.354 N 
ATOM     54  N   UNL A   1      41.227  29.858  33.902  1.00  0.00    -0.248 NA
ATOM     55  C   UNL A   1      41.407  30.408  36.163  1.00  0.00     0.031 C 
ATOM     56  C   UNL A   1      43.827  26.896  31.836  1.00  0.00     0.029 A 
ATOM     57  C   UNL A   1      43.023  27.806  32.504  1.00  0.00     0.049 A 
ATOM     58  H   UNL A   1      41.385  28.918  31.773  1.00  0.00     0.167 HD
ATOM     59  C   UNL A   1      42.275  29.136  34.463  1.00  0.00     0.074 A 
ATOM     60  C   UNL A   1      42.358  29.539  35.852  1.00  0.00     0.031 C 
ATOM     61  C   UNL A   1      43.094  28.225  33.882  1.00  0.00     0.037 A 
BRANCH  48  62
ATOM     62  C   UNL A   1      41.832  27.110  27.934  1.00  0.00     0.064 A 
ATOM     63  C   UNL A   1      41.262  25.854  27.671  1.00  0.00     0.173 A 
ATOM     64  C   UNL A   1      42.706  27.646  26.976  1.00  0.00     0.173 A 
ATOM     65  F   UNL A   1      40.432  25.290  28.561  1.00  0.00    -0.203 F 
ATOM     66  C   UNL A   1      41.577  25.154  26.509  1.00  0.00     0.198 A 
ATOM     67  C   UNL A   1      42.995  26.956  25.802  1.00  0.00     0.198 A 
ATOM     68  F   UNL A   1      43.277  28.843  27.177  1.00  0.00    -0.203 F 
ATOM     69  F   UNL A   1      41.060  23.935  26.303  1.00  0.00    -0.200 F 
ATOM     70  C   UNL A   1      42.437  25.708  25.572  1.00  0.00     0.200 A 
ATOM     71  F   UNL A   1      43.817  27.499  24.893  1.00  0.00    -0.200 F 
ATOM     72  F   UNL A   1      42.734  25.035  24.453  1.00  0.00    -0.200 F 
ENDBRANCH  48  62
BRANCH  49  73
ATOM     73  C   UNL A   1      39.215  32.355  36.041  1.00  0.00     0.064 A 
ATOM     74  C   UNL A   1      39.764  33.610  36.333  1.00  0.00     0.173 A 
ATOM     75  C   UNL A   1      38.281  31.825  36.945  1.00  0.00     0.173 A 
ATOM     76  F   UNL A   1      40.680  34.148  35.514  1.00  0.00    -0.203 F 
ATOM     77  C   UNL A   1      39.407  34.301  37.490  1.00  0.00     0.198 A 
ATOM     78  C   UNL A   1      37.904  32.529  38.086  1.00  0.00     0.198 A 
ATOM     79  F   UNL A   1      37.727  30.627  36.712  1.00  0.00    -0.203 F 
ATOM     80  F   UNL A   1      39.982  35.478  37.769  1.00  0.00    -0.200 F 
ATOM     81  C   UNL A   1      38.472  33.763  38.363  1.00  0.00     0.200 A 
ATOM     82  F   UNL A   1      36.990  32.011  38.918  1.00  0.00    -0.200 F 
ATOM     83  F   UNL A   1      38.127  34.428  39.472  1.00  0.00    -0.200 F 
ENDBRANCH  49  73
BRANCH  61  84
ATOM     84  C   UNL A   1      44.179  27.631  34.733  1.00  0.00     0.064 A 
ATOM     85  C   UNL A   1      45.413  28.274  34.913  1.00  0.00     0.173 A 
ATOM     86  C   UNL A   1      43.963  26.422  35.414  1.00  0.00     0.173 A 
ATOM     87  F   UNL A   1      45.675  29.424  34.274  1.00  0.00    -0.203 F 
ATOM     88  C   UNL A   1      46.399  27.716  35.723  1.00  0.00     0.198 A 
ATOM     89  C   UNL A   1      44.937  25.885  36.248  1.00  0.00     0.198 A 
ATOM     90  F   UNL A   1      42.797  25.773  35.284  1.00  0.00    -0.203 F 
ATOM     91  F   UNL A   1      47.587  28.323  35.842  1.00  0.00    -0.200 F 
ATOM     92  C   UNL A   1      46.158  26.527  36.395  1.00  0.00     0.200 A 
ATOM     93  F   UNL A   1      44.697  24.745  36.911  1.00  0.00    -0.200 F 
ATOM     94  F   UNL A   1      47.105  25.996  37.182  1.00  0.00    -0.200 F 
ENDBRANCH  61  84
ENDBRANCH  35  36
ENDBRANCH  28  30
ENDBRANCH  27  28
ENDBRANCH  26  27
ENDBRANCH  25  26
ENDBRANCH  24  25
ENDBRANCH  23  24
ENDBRANCH   1  23
TORSDOF 19
ENDMDL
MODEL 3
REMARK VINA RESULT:     -10.3      3.915      8.772
REMARK SMILES C[N@@H+](CC(C)(C)C(=O)OCCOCCOC(=O)c1ccc(-c2c3nc(c(-c4c(F)c(F)c(F)c(F)c4F)c4ccc([nH]4)c(-c4c(F)c(F)c(F)c(F)c4F)c4nc(c(-c5c(F)c(F)c(F)c(F)c5F)c5ccc2[nH]5)C=C4)C=C3)cc1)[C@@H]1CCCC[C@@H]1C[NH3+]
REMARK SMILES IDX 10 1 9 2 7 3 8 4 4 5 5 6 6 7 3 8 2 9 1 10 81 12 82 13 86 14
REMARK SMILES IDX 83 15 85 16 84 17 87 18 88 19 11 23 12 24 13 25 14 26 15 27
REMARK SMILES IDX 16 28 17 29 18 30 19 31 80 32 20 33 79 34 21 35 22 36 23 37
REMARK SMILES IDX 73 38 24 39 78 40 72 41 74 42 25 43 77 44 71 45 70 46 26 48
REMARK SMILES IDX 58 49 38 50 57 51 39 52 42 53 56 54 75 55 40 56 41 57 55 59
REMARK SMILES IDX 76 60 43 61 27 62 28 63 36 64 29 65 30 66 34 67 37 68 31 69
REMARK SMILES IDX 32 70 35 71 33 72 59 73 60 74 68 75 61 76 62 77 66 78 69 79
REMARK SMILES IDX 63 80 64 81 67 82 65 83 44 84 45 85 53 86 46 87 47 88 51 89
REMARK SMILES IDX 54 90 48 91 49 92 52 93 50 94
REMARK H PARENT 2 11 88 20 88 21 88 22 74 47 42 58
REMARK Flexibility Score: inf
ROOT
ATOM      1  C   UNL A   1      34.047  25.127  25.841  1.00  0.00     0.261 C 
ENDROOT
BRANCH   1   2
ATOM      2  O   UNL A   1      33.278  26.131  25.161  1.00  0.00    -0.463 OA
BRANCH   2   3
ATOM      3  C   UNL A   1      33.151  27.259  25.912  1.00  0.00     0.317 C 
ATOM      4  O   UNL A   1      34.127  27.767  26.443  1.00  0.00    -0.251 OA
BRANCH   3   5
ATOM      5  C   UNL A   1      31.721  27.795  26.015  1.00  0.00     0.111 C 
ATOM      6  C   UNL A   1      31.403  28.253  27.449  1.00  0.00     0.029 C 
ATOM      7  C   UNL A   1      30.699  26.662  25.719  1.00  0.00     0.029 C 
BRANCH   5   8
ATOM      8  C   UNL A   1      31.511  28.923  24.945  1.00  0.00     0.280 C 
BRANCH   8   9
ATOM      9  N   UNL A   1      30.895  28.732  23.619  1.00  0.00    -0.334 N 
ATOM     10  C   UNL A   1      31.652  27.927  22.673  1.00  0.00     0.333 C 
ATOM     11  H   UNL A   1      30.150  28.091  23.891  1.00  0.00     0.348 HD
BRANCH   9  12
ATOM     12  C   UNL A   1      29.928  29.705  23.103  1.00  0.00     0.192 C 
ATOM     13  C   UNL A   1      29.529  30.758  24.160  1.00  0.00     0.065 C 
ATOM     14  C   UNL A   1      28.624  29.211  22.386  1.00  0.00     0.102 C 
ATOM     15  C   UNL A   1      28.843  31.956  23.499  1.00  0.00     0.006 C 
ATOM     16  C   UNL A   1      28.027  30.419  21.631  1.00  0.00     0.015 C 
ATOM     17  C   UNL A   1      27.692  31.580  22.565  1.00  0.00     0.001 C 
BRANCH  14  18
ATOM     18  C   UNL A   1      27.536  28.555  23.279  1.00  0.00     0.268 C 
BRANCH  18  19
ATOM     19  N   UNL A   1      27.780  27.124  23.501  1.00  0.00    -0.357 N 
ATOM     20  H   UNL A   1      28.142  26.704  22.644  1.00  0.00     0.344 HD
ATOM     21  H   UNL A   1      26.907  26.666  23.761  1.00  0.00     0.344 HD
ATOM     22  H   UNL A   1      28.462  27.007  24.251  1.00  0.00     0.344 HD
ENDBRANCH  18  19
ENDBRANCH  14  18
ENDBRANCH   9  12
ENDBRANCH   8   9
ENDBRANCH   5   8
ENDBRANCH   3   5
ENDBRANCH   2   3
ENDBRANCH   1   2
BRANCH   1  23
ATOM     23  C   UNL A   1      34.558  23.931  25.000  1.00  0.00     0.202 C 
BRANCH  23  24
ATOM     24  O   UNL A   1      35.142  22.786  25.599  1.00  0.00    -0.374 OA
BRANCH  24  25
ATOM     25  C   UNL A   1      35.699  21.756  24.796  1.00  0.00     0.202 C 
BRANCH  25  26
ATOM     26  C   UNL A   1      36.941  20.994  25.266  1.00  0.00     0.261 C 
BRANCH  26  27
ATOM     27  O   UNL A   1      38.165  21.717  25.060  1.00  0.00    -0.460 OA
BRANCH  27  28
ATOM     28  C   UNL A   1      39.131  21.454  25.973  1.00  0.00     0.338 C 
ATOM     29  O   UNL A   1      39.746  20.413  26.125  1.00  0.00    -0.246 OA
BRANCH  28  30
ATOM     30  C   UNL A   1      39.514  22.691  26.673  1.00  0.00     0.060 A 
ATOM     31  C   UNL A   1      38.855  23.871  26.305  1.00  0.00     0.016 A 
ATOM     32  C   UNL A   1      40.560  22.714  27.596  1.00  0.00     0.016 A 
ATOM     33  C   UNL A   1      39.271  25.093  26.823  1.00  0.00     0.010 A 
ATOM     34  C   UNL A   1      40.994  23.945  28.097  1.00  0.00     0.010 A 
ATOM     35  C   UNL A   1      40.376  25.138  27.678  1.00  0.00    -0.014 A 
BRANCH  35  36
ATOM     36  C   UNL A   1      41.005  26.447  27.965  1.00  0.00     0.031 A 
ATOM     37  C   UNL A   1      42.432  26.663  27.542  1.00  0.00     0.074 A 
ATOM     38  C   UNL A   1      40.307  27.436  28.546  1.00  0.00     0.049 A 
ATOM     39  N   UNL A   1      43.203  27.706  27.714  1.00  0.00    -0.248 NA
ATOM     40  C   UNL A   1      43.076  25.549  26.828  1.00  0.00     0.031 C 
ATOM     41  C   UNL A   1      38.903  27.357  28.944  1.00  0.00     0.029 A 
ATOM     42  N   UNL A   1      40.691  28.703  28.905  1.00  0.00    -0.354 N 
ATOM     43  C   UNL A   1      44.420  27.371  27.137  1.00  0.00     0.074 A 
ATOM     44  C   UNL A   1      44.299  26.020  26.637  1.00  0.00     0.031 C 
ATOM     45  C   UNL A   1      38.546  28.523  29.508  1.00  0.00     0.029 A 
ATOM     46  C   UNL A   1      39.705  29.415  29.540  1.00  0.00     0.049 A 
ATOM     47  H   UNL A   1      41.588  29.066  28.725  1.00  0.00     0.167 HD
ATOM     48  C   UNL A   1      45.538  28.128  27.031  1.00  0.00     0.037 A 
ATOM     49  C   UNL A   1      39.746  30.637  30.103  1.00  0.00     0.037 A 
ATOM     50  C   UNL A   1      45.650  29.472  27.533  1.00  0.00     0.049 A 
ATOM     51  C   UNL A   1      41.026  31.431  30.040  1.00  0.00     0.074 A 
ATOM     52  C   UNL A   1      46.731  30.332  27.466  1.00  0.00     0.029 A 
ATOM     53  N   UNL A   1      44.641  30.148  28.204  1.00  0.00    -0.354 N 
ATOM     54  N   UNL A   1      42.170  31.117  29.481  1.00  0.00    -0.248 NA
ATOM     55  C   UNL A   1      41.019  32.751  30.684  1.00  0.00     0.031 C 
ATOM     56  C   UNL A   1      46.396  31.507  28.146  1.00  0.00     0.029 A 
ATOM     57  C   UNL A   1      45.085  31.404  28.582  1.00  0.00     0.049 A 
ATOM     58  H   UNL A   1      43.742  29.788  28.384  1.00  0.00     0.167 HD
ATOM     59  C   UNL A   1      43.006  32.209  29.677  1.00  0.00     0.074 A 
ATOM     60  C   UNL A   1      42.233  33.199  30.398  1.00  0.00     0.031 C 
ATOM     61  C   UNL A   1      44.296  32.379  29.294  1.00  0.00     0.037 A 
BRANCH  48  62
ATOM     62  C   UNL A   1      46.738  27.505  26.378  1.00  0.00     0.064 A 
ATOM     63  C   UNL A   1      46.955  27.588  24.993  1.00  0.00     0.173 A 
ATOM     64  C   UNL A   1      47.697  26.836  27.152  1.00  0.00     0.173 A 
ATOM     65  F   UNL A   1      46.060  28.203  24.205  1.00  0.00    -0.203 F 
ATOM     66  C   UNL A   1      48.073  27.000  24.407  1.00  0.00     0.198 A 
ATOM     67  C   UNL A   1      48.829  26.276  26.566  1.00  0.00     0.198 A 
ATOM     68  F   UNL A   1      47.539  26.729  28.480  1.00  0.00    -0.203 F 
ATOM     69  F   UNL A   1      48.234  27.048  23.078  1.00  0.00    -0.200 F 
ATOM     70  C   UNL A   1      49.013  26.351  25.195  1.00  0.00     0.200 A 
ATOM     71  F   UNL A   1      49.741  25.659  27.331  1.00  0.00    -0.200 F 
ATOM     72  F   UNL A   1      50.091  25.791  24.629  1.00  0.00    -0.200 F 
ENDBRANCH  48  62
BRANCH  49  73
ATOM     73  C   UNL A   1      38.544  31.179  30.788  1.00  0.00     0.064 A 
ATOM     74  C   UNL A   1      38.362  31.019  32.168  1.00  0.00     0.173 A 
ATOM     75  C   UNL A   1      37.546  31.857  30.073  1.00  0.00     0.173 A 
ATOM     76  F   UNL A   1      39.275  30.356  32.893  1.00  0.00    -0.203 F 
ATOM     77  C   UNL A   1      37.220  31.503  32.805  1.00  0.00     0.198 A 
ATOM     78  C   UNL A   1      36.419  32.366  30.715  1.00  0.00     0.198 A 
ATOM     79  F   UNL A   1      37.671  32.035  28.750  1.00  0.00    -0.203 F 
ATOM     80  F   UNL A   1      37.048  31.297  34.117  1.00  0.00    -0.200 F 
ATOM     81  C   UNL A   1      36.252  32.182  32.079  1.00  0.00     0.200 A 
ATOM     82  F   UNL A   1      35.494  33.033  30.010  1.00  0.00    -0.200 F 
ATOM     83  F   UNL A   1      35.157  32.651  32.691  1.00  0.00    -0.200 F 
ENDBRANCH  49  73
BRANCH  61  84
ATOM     84  C   UNL A   1      44.941  33.698  29.609  1.00  0.00     0.064 A 
ATOM     85  C   UNL A   1      44.855  34.791  28.734  1.00  0.00     0.173 A 
ATOM     86  C   UNL A   1      45.618  33.882  30.826  1.00  0.00     0.173 A 
ATOM     87  F   UNL A   1      44.231  34.663  27.553  1.00  0.00    -0.203 F 
ATOM     88  C   UNL A   1      45.443  36.012  29.054  1.00  0.00     0.198 A 
ATOM     89  C   UNL A   1      46.176  35.112  31.156  1.00  0.00     0.198 A 
ATOM     90  F   UNL A   1      45.722  32.872  31.701  1.00  0.00    -0.203 F 
ATOM     91  F   UNL A   1      45.390  37.028  28.183  1.00  0.00    -0.200 F 
ATOM     92  C   UNL A   1      46.096  36.174  30.267  1.00  0.00     0.200 A 
ATOM     93  F   UNL A   1      46.792  35.272  32.336  1.00  0.00    -0.200 F 
ATOM     94  F   UNL A   1      46.654  37.353  30.577  1.00  0.00    -0.200 F 
ENDBRANCH  61  84
ENDBRANCH  35  36
ENDBRANCH  28  30
ENDBRANCH  27  28
ENDBRANCH  26  27
ENDBRANCH  25  26
ENDBRANCH  24  25
ENDBRANCH  23  24
ENDBRANCH   1  23
TORSDOF 19
ENDMDL
