MODEL 1
REMARK VINA RESULT:     -11.4      0.000      0.000
REMARK SMILES COc1nc(-c2ccccc2)nc(C)c1CC(=O)OCCOCCOC(=O)c1ccc(-c2c3nc(c(-c4c(F)c(F)c(F)c(F)c4F)c4ccc([nH]4)c(-c4c(F)c(F)c(F)c(F)c4F)c4nc(c(-c5c(F)c(F)c(F)c(F)c5F)c5ccc2[nH]5)C=C4)C=C3)cc1
REMARK SMILES IDX 22 1 21 2 20 3 19 4 17 5 18 6 16 7 15 8 3 9 4 10 5 11 13 12
REMARK SMILES IDX 12 13 14 14 2 15 1 16 6 17 7 18 11 19 8 20 10 21 9 22 23 23
REMARK SMILES IDX 24 24 25 25 26 26 27 27 28 28 29 29 90 30 30 31 89 32 31 33
REMARK SMILES IDX 32 34 33 35 83 36 34 37 88 38 82 39 84 40 35 41 87 42 81 43
REMARK SMILES IDX 80 44 36 46 68 47 48 48 67 49 49 50 52 51 66 52 85 53 50 54
REMARK SMILES IDX 51 55 65 57 86 58 53 59 37 60 38 61 46 62 39 63 40 64 44 65
REMARK SMILES IDX 47 66 41 67 42 68 45 69 43 70 69 71 70 72 78 73 71 74 72 75
REMARK SMILES IDX 76 76 79 77 73 78 74 79 77 80 75 81 54 82 55 83 63 84 56 85
REMARK SMILES IDX 57 86 61 87 64 88 58 89 59 90 62 91 60 92
REMARK H PARENT 84 45 52 56
REMARK Flexibility Score: inf
ROOT
ATOM      1  O   UNL A   1      37.654  21.707  24.739  1.00  0.00    -0.374 OA
ENDROOT
BRANCH   1   2
ATOM      2  C   UNL A   1      36.744  22.484  25.514  1.00  0.00     0.202 C 
BRANCH   2   3
ATOM      3  C   UNL A   1      36.343  23.872  25.000  1.00  0.00     0.261 C 
BRANCH   3   4
ATOM      4  O   UNL A   1      35.373  24.551  25.836  1.00  0.00    -0.463 OA
BRANCH   4   5
ATOM      5  C   UNL A   1      34.255  24.979  25.185  1.00  0.00     0.310 C 
ATOM      6  O   UNL A   1      34.230  25.963  24.450  1.00  0.00    -0.252 OA
BRANCH   5   7
ATOM      7  C   UNL A   1      33.006  24.144  25.389  1.00  0.00     0.165 C 
BRANCH   7   8
ATOM      8  C   UNL A   1      33.112  22.649  25.267  1.00  0.00     0.047 A 
ATOM      9  C   UNL A   1      32.914  21.987  24.061  1.00  0.00     0.220 A 
ATOM     10  N   UNL A   1      33.020  20.656  23.882  1.00  0.00    -0.193 NA
ATOM     11  C   UNL A   1      33.293  19.950  24.990  1.00  0.00     0.163 A 
ATOM     12  C   UNL A   1      33.320  21.812  26.354  1.00  0.00     0.049 A 
ATOM     13  N   UNL A   1      33.422  20.474  26.222  1.00  0.00    -0.233 NA
ATOM     14  C   UNL A   1      33.212  22.289  27.773  1.00  0.00     0.067 C 
BRANCH   9  15
ATOM     15  O   UNL A   1      32.246  22.664  23.060  1.00  0.00    -0.481 OA
ATOM     16  C   UNL A   1      33.105  23.115  22.025  1.00  0.00     0.280 C 
ENDBRANCH   9  15
BRANCH  11  17
ATOM     17  C   UNL A   1      33.350  18.488  24.920  1.00  0.00     0.019 A 
ATOM     18  C   UNL A   1      34.075  17.848  23.897  1.00  0.00     0.012 A 
ATOM     19  C   UNL A   1      32.605  17.686  25.799  1.00  0.00     0.012 A 
ATOM     20  C   UNL A   1      34.045  16.457  23.749  1.00  0.00     0.001 A 
ATOM     21  C   UNL A   1      32.568  16.294  25.647  1.00  0.00     0.001 A 
ATOM     22  C   UNL A   1      33.285  15.683  24.621  1.00  0.00     0.000 A 
ENDBRANCH  11  17
ENDBRANCH   7   8
ENDBRANCH   5   7
ENDBRANCH   4   5
ENDBRANCH   3   4
ENDBRANCH   2   3
ENDBRANCH   1   2
BRANCH   1  23
ATOM     23  C   UNL A   1      37.747  20.319  25.014  1.00  0.00     0.202 C 
BRANCH  23  24
ATOM     24  C   UNL A   1      39.063  19.760  25.580  1.00  0.00     0.261 C 
BRANCH  24  25
ATOM     25  O   UNL A   1      40.094  20.712  25.791  1.00  0.00    -0.460 OA
BRANCH  25  26
ATOM     26  C   UNL A   1      40.591  20.715  27.050  1.00  0.00     0.338 C 
ATOM     27  O   UNL A   1      40.857  19.773  27.762  1.00  0.00    -0.246 OA
BRANCH  26  28
ATOM     28  C   UNL A   1      40.891  22.115  27.368  1.00  0.00     0.060 A 
ATOM     29  C   UNL A   1      40.220  23.109  26.650  1.00  0.00     0.016 A 
ATOM     30  C   UNL A   1      41.801  22.429  28.380  1.00  0.00     0.016 A 
ATOM     31  C   UNL A   1      40.488  24.443  26.925  1.00  0.00     0.010 A 
ATOM     32  C   UNL A   1      42.071  23.765  28.651  1.00  0.00     0.010 A 
ATOM     33  C   UNL A   1      41.438  24.770  27.901  1.00  0.00    -0.014 A 
BRANCH  33  34
ATOM     34  C   UNL A   1      41.895  26.167  28.032  1.00  0.00     0.031 A 
ATOM     35  C   UNL A   1      43.236  26.527  27.469  1.00  0.00     0.074 A 
ATOM     36  C   UNL A   1      41.116  27.077  28.639  1.00  0.00     0.049 A 
ATOM     37  N   UNL A   1      43.879  27.663  27.516  1.00  0.00    -0.248 NA
ATOM     38  C   UNL A   1      43.958  25.454  26.762  1.00  0.00     0.031 C 
ATOM     39  C   UNL A   1      39.786  26.818  29.187  1.00  0.00     0.029 A 
ATOM     40  N   UNL A   1      41.339  28.402  28.903  1.00  0.00    -0.354 N 
ATOM     41  C   UNL A   1      45.079  27.440  26.856  1.00  0.00     0.074 A 
ATOM     42  C   UNL A   1      45.095  26.053  26.449  1.00  0.00     0.031 C 
ATOM     43  C   UNL A   1      39.313  27.950  29.735  1.00  0.00     0.029 A 
ATOM     44  C   UNL A   1      40.323  28.997  29.608  1.00  0.00     0.049 A 
ATOM     45  H   UNL A   1      42.150  28.881  28.615  1.00  0.00     0.167 HD
ATOM     46  C   UNL A   1      46.072  28.324  26.607  1.00  0.00     0.037 A 
ATOM     47  C   UNL A   1      40.242  30.243  30.111  1.00  0.00     0.037 A 
ATOM     48  C   UNL A   1      46.032  29.699  27.028  1.00  0.00     0.049 A 
ATOM     49  C   UNL A   1      41.390  31.190  29.877  1.00  0.00     0.074 A 
ATOM     50  C   UNL A   1      46.970  30.692  26.824  1.00  0.00     0.029 A 
ATOM     51  N   UNL A   1      44.992  30.267  27.753  1.00  0.00    -0.354 N 
ATOM     52  N   UNL A   1      42.513  30.986  29.229  1.00  0.00    -0.248 NA
ATOM     53  C   UNL A   1      41.261  32.540  30.437  1.00  0.00     0.031 C 
ATOM     54  C   UNL A   1      46.527  31.846  27.478  1.00  0.00     0.029 A 
ATOM     55  C   UNL A   1      45.279  31.593  28.027  1.00  0.00     0.049 A 
ATOM     56  H   UNL A   1      44.173  29.796  28.031  1.00  0.00     0.167 HD
ATOM     57  C   UNL A   1      43.205  32.189  29.269  1.00  0.00     0.074 A 
ATOM     58  C   UNL A   1      42.371  33.120  30.002  1.00  0.00     0.031 C 
ATOM     59  C   UNL A   1      44.416  32.500  28.744  1.00  0.00     0.037 A 
BRANCH  46  60
ATOM     60  C   UNL A   1      47.287  27.822  25.880  1.00  0.00     0.064 A 
ATOM     61  C   UNL A   1      48.431  27.381  26.563  1.00  0.00     0.173 A 
ATOM     62  C   UNL A   1      47.300  27.766  24.478  1.00  0.00     0.173 A 
ATOM     63  F   UNL A   1      48.479  27.429  27.903  1.00  0.00    -0.203 F 
ATOM     64  C   UNL A   1      49.551  26.931  25.868  1.00  0.00     0.198 A 
ATOM     65  C   UNL A   1      48.409  27.284  23.788  1.00  0.00     0.198 A 
ATOM     66  F   UNL A   1      46.234  28.176  23.774  1.00  0.00    -0.203 F 
ATOM     67  F   UNL A   1      50.653  26.566  26.541  1.00  0.00    -0.200 F 
ATOM     68  C   UNL A   1      49.537  26.874  24.483  1.00  0.00     0.200 A 
ATOM     69  F   UNL A   1      48.387  27.218  22.450  1.00  0.00    -0.200 F 
ATOM     70  F   UNL A   1      50.613  26.433  23.817  1.00  0.00    -0.200 F 
ENDBRANCH  46  60
BRANCH  47  71
ATOM     71  C   UNL A   1      39.041  30.657  30.882  1.00  0.00     0.064 A 
ATOM     72  C   UNL A   1      38.987  30.511  32.275  1.00  0.00     0.173 A 
ATOM     73  C   UNL A   1      37.919  31.209  30.243  1.00  0.00     0.173 A 
ATOM     74  F   UNL A   1      40.026  29.974  32.932  1.00  0.00    -0.203 F 
ATOM     75  C   UNL A   1      37.852  30.880  32.996  1.00  0.00     0.198 A 
ATOM     76  C   UNL A   1      36.797  31.606  30.968  1.00  0.00     0.198 A 
ATOM     77  F   UNL A   1      37.918  31.377  28.912  1.00  0.00    -0.203 F 
ATOM     78  F   UNL A   1      37.811  30.685  34.321  1.00  0.00    -0.200 F 
ATOM     79  C   UNL A   1      36.761  31.432  32.343  1.00  0.00     0.200 A 
ATOM     80  F   UNL A   1      35.753  32.157  30.335  1.00  0.00    -0.200 F 
ATOM     81  F   UNL A   1      35.673  31.792  33.037  1.00  0.00    -0.200 F 
ENDBRANCH  47  71
BRANCH  59  82
ATOM     82  C   UNL A   1      44.887  33.918  28.887  1.00  0.00     0.064 A 
ATOM     83  C   UNL A   1      45.705  34.325  29.949  1.00  0.00     0.173 A 
ATOM     84  C   UNL A   1      44.562  34.866  27.905  1.00  0.00     0.173 A 
ATOM     85  F   UNL A   1      46.032  33.459  30.920  1.00  0.00    -0.203 F 
ATOM     86  C   UNL A   1      46.164  35.637  30.035  1.00  0.00     0.198 A 
ATOM     87  C   UNL A   1      45.052  36.167  27.974  1.00  0.00     0.198 A 
ATOM     88  F   UNL A   1      43.789  34.525  26.863  1.00  0.00    -0.203 F 
ATOM     89  F   UNL A   1      46.908  36.017  31.082  1.00  0.00    -0.200 F 
ATOM     90  C   UNL A   1      45.847  36.553  29.042  1.00  0.00     0.200 A 
ATOM     91  F   UNL A   1      44.760  37.044  27.003  1.00  0.00    -0.200 F 
ATOM     92  F   UNL A   1      46.304  37.809  29.118  1.00  0.00    -0.200 F 
ENDBRANCH  59  82
ENDBRANCH  33  34
ENDBRANCH  26  28
ENDBRANCH  25  26
ENDBRANCH  24  25
ENDBRANCH  23  24
ENDBRANCH   1  23
TORSDOF 17
ENDMDL
MODEL 2
REMARK VINA RESULT:     -11.4      1.832      4.192
REMARK SMILES COc1nc(-c2ccccc2)nc(C)c1CC(=O)OCCOCCOC(=O)c1ccc(-c2c3nc(c(-c4c(F)c(F)c(F)c(F)c4F)c4ccc([nH]4)c(-c4c(F)c(F)c(F)c(F)c4F)c4nc(c(-c5c(F)c(F)c(F)c(F)c5F)c5ccc2[nH]5)C=C4)C=C3)cc1
REMARK SMILES IDX 22 1 21 2 20 3 19 4 17 5 18 6 16 7 15 8 3 9 4 10 5 11 13 12
REMARK SMILES IDX 12 13 14 14 2 15 1 16 6 17 7 18 11 19 8 20 10 21 9 22 23 23
REMARK SMILES IDX 24 24 25 25 26 26 27 27 28 28 29 29 90 30 30 31 89 32 31 33
REMARK SMILES IDX 32 34 33 35 83 36 34 37 88 38 82 39 84 40 35 41 87 42 81 43
REMARK SMILES IDX 80 44 36 46 68 47 48 48 67 49 49 50 52 51 66 52 85 53 50 54
REMARK SMILES IDX 51 55 65 57 86 58 53 59 37 60 38 61 46 62 39 63 40 64 44 65
REMARK SMILES IDX 47 66 41 67 42 68 45 69 43 70 69 71 70 72 78 73 71 74 72 75
REMARK SMILES IDX 76 76 79 77 73 78 74 79 77 80 75 81 54 82 55 83 63 84 56 85
REMARK SMILES IDX 57 86 61 87 64 88 58 89 59 90 62 91 60 92
REMARK H PARENT 84 45 52 56
REMARK Flexibility Score: inf
ROOT
ATOM      1  O   UNL A   1      35.249  20.782  25.110  1.00  0.00    -0.374 OA
ENDROOT
BRANCH   1   2
ATOM      2  C   UNL A   1      33.960  20.356  25.540  1.00  0.00     0.202 C 
BRANCH   2   3
ATOM      3  C   UNL A   1      32.737  20.769  24.714  1.00  0.00     0.261 C 
BRANCH   3   4
ATOM      4  O   UNL A   1      33.058  21.233  23.380  1.00  0.00    -0.463 OA
BRANCH   4   5
ATOM      5  C   UNL A   1      32.809  22.554  23.157  1.00  0.00     0.310 C 
ATOM      6  O   UNL A   1      31.686  23.011  22.957  1.00  0.00    -0.252 OA
BRANCH   5   7
ATOM      7  C   UNL A   1      34.014  23.473  23.195  1.00  0.00     0.165 C 
BRANCH   7   8
ATOM      8  C   UNL A   1      33.887  24.797  23.894  1.00  0.00     0.047 A 
ATOM      9  C   UNL A   1      33.582  25.971  23.213  1.00  0.00     0.220 A 
ATOM     10  N   UNL A   1      33.429  27.180  23.787  1.00  0.00    -0.193 NA
ATOM     11  C   UNL A   1      33.642  27.218  25.111  1.00  0.00     0.163 A 
ATOM     12  C   UNL A   1      34.152  24.971  25.245  1.00  0.00     0.049 A 
ATOM     13  N   UNL A   1      34.021  26.165  25.857  1.00  0.00    -0.233 NA
ATOM     14  C   UNL A   1      34.825  23.918  26.078  1.00  0.00     0.067 C 
BRANCH   9  15
ATOM     15  O   UNL A   1      33.774  25.987  21.846  1.00  0.00    -0.481 OA
ATOM     16  C   UNL A   1      32.558  26.027  21.116  1.00  0.00     0.280 C 
ENDBRANCH   9  15
BRANCH  11  17
ATOM     17  C   UNL A   1      33.580  28.499  25.817  1.00  0.00     0.019 A 
ATOM     18  C   UNL A   1      34.605  28.876  26.707  1.00  0.00     0.012 A 
ATOM     19  C   UNL A   1      32.458  29.337  25.713  1.00  0.00     0.012 A 
ATOM     20  C   UNL A   1      34.505  30.041  27.474  1.00  0.00     0.001 A 
ATOM     21  C   UNL A   1      32.354  30.500  26.487  1.00  0.00     0.001 A 
ATOM     22  C   UNL A   1      33.376  30.848  27.368  1.00  0.00     0.000 A 
ENDBRANCH  11  17
ENDBRANCH   7   8
ENDBRANCH   5   7
ENDBRANCH   4   5
ENDBRANCH   3   4
ENDBRANCH   2   3
ENDBRANCH   1   2
BRANCH   1  23
ATOM     23  C   UNL A   1      36.264  19.801  24.969  1.00  0.00     0.202 C 
BRANCH  23  24
ATOM     24  C   UNL A   1      37.725  20.257  24.820  1.00  0.00     0.261 C 
BRANCH  24  25
ATOM     25  O   UNL A   1      38.135  21.298  25.694  1.00  0.00    -0.460 OA
BRANCH  25  26
ATOM     26  C   UNL A   1      39.382  21.138  26.192  1.00  0.00     0.338 C 
ATOM     27  O   UNL A   1      40.088  20.155  26.169  1.00  0.00    -0.246 OA
BRANCH  26  28
ATOM     28  C   UNL A   1      39.806  22.461  26.666  1.00  0.00     0.060 A 
ATOM     29  C   UNL A   1      39.182  23.584  26.117  1.00  0.00     0.016 A 
ATOM     30  C   UNL A   1      40.785  22.575  27.656  1.00  0.00     0.016 A 
ATOM     31  C   UNL A   1      39.565  24.849  26.542  1.00  0.00     0.010 A 
ATOM     32  C   UNL A   1      41.171  23.842  28.077  1.00  0.00     0.010 A 
ATOM     33  C   UNL A   1      40.583  24.978  27.496  1.00  0.00    -0.014 A 
BRANCH  33  34
ATOM     34  C   UNL A   1      41.153  26.310  27.775  1.00  0.00     0.031 A 
ATOM     35  C   UNL A   1      42.571  26.572  27.365  1.00  0.00     0.074 A 
ATOM     36  C   UNL A   1      40.408  27.250  28.378  1.00  0.00     0.049 A 
ATOM     37  N   UNL A   1      43.309  27.632  27.557  1.00  0.00    -0.248 NA
ATOM     38  C   UNL A   1      43.255  25.483  26.646  1.00  0.00     0.031 C 
ATOM     39  C   UNL A   1      39.012  27.089  28.782  1.00  0.00     0.029 A 
ATOM     40  N   UNL A   1      40.727  28.526  28.762  1.00  0.00    -0.354 N 
ATOM     41  C   UNL A   1      44.542  27.335  26.993  1.00  0.00     0.074 A 
ATOM     42  C   UNL A   1      44.469  25.984  26.485  1.00  0.00     0.031 C 
ATOM     43  C   UNL A   1      38.596  28.223  29.370  1.00  0.00     0.029 A 
ATOM     44  C   UNL A   1      39.707  29.169  29.417  1.00  0.00     0.049 A 
ATOM     45  H   UNL A   1      41.603  28.939  28.587  1.00  0.00     0.167 HD
ATOM     46  C   UNL A   1      45.633  28.130  26.905  1.00  0.00     0.037 A 
ATOM     47  C   UNL A   1      39.694  30.380  30.005  1.00  0.00     0.037 A 
ATOM     48  C   UNL A   1      45.680  29.470  27.426  1.00  0.00     0.049 A 
ATOM     49  C   UNL A   1      40.942  31.221  29.949  1.00  0.00     0.074 A 
ATOM     50  C   UNL A   1      46.723  30.376  27.384  1.00  0.00     0.029 A 
ATOM     51  N   UNL A   1      44.632  30.089  28.095  1.00  0.00    -0.354 N 
ATOM     52  N   UNL A   1      42.099  30.950  29.391  1.00  0.00    -0.248 NA
ATOM     53  C   UNL A   1      40.885  32.537  30.598  1.00  0.00     0.031 C 
ATOM     54  C   UNL A   1      46.327  31.522  28.083  1.00  0.00     0.029 A 
ATOM     55  C   UNL A   1      45.013  31.358  28.496  1.00  0.00     0.049 A 
ATOM     56  H   UNL A   1      43.750  29.685  28.261  1.00  0.00     0.167 HD
ATOM     57  C   UNL A   1      42.893  32.072  29.587  1.00  0.00     0.074 A 
ATOM     58  C   UNL A   1      42.082  33.030  30.311  1.00  0.00     0.031 C 
ATOM     59  C   UNL A   1      44.173  32.296  29.199  1.00  0.00     0.037 A 
BRANCH  46  60
ATOM     60  C   UNL A   1      46.861  27.559  26.254  1.00  0.00     0.064 A 
ATOM     61  C   UNL A   1      47.073  27.641  24.870  1.00  0.00     0.173 A 
ATOM     62  C   UNL A   1      47.849  26.936  27.032  1.00  0.00     0.173 A 
ATOM     63  F   UNL A   1      46.153  28.210  24.077  1.00  0.00    -0.203 F 
ATOM     64  C   UNL A   1      48.214  27.094  24.286  1.00  0.00     0.198 A 
ATOM     65  C   UNL A   1      49.004  26.421  26.449  1.00  0.00     0.198 A 
ATOM     66  F   UNL A   1      47.697  26.829  28.361  1.00  0.00    -0.203 F 
ATOM     67  F   UNL A   1      48.369  27.136  22.955  1.00  0.00    -0.200 F 
ATOM     68  C   UNL A   1      49.182  26.493  25.076  1.00  0.00     0.200 A 
ATOM     69  F   UNL A   1      49.943  25.853  27.217  1.00  0.00    -0.200 F 
ATOM     70  F   UNL A   1      50.283  25.975  24.514  1.00  0.00    -0.200 F 
ENDBRANCH  46  60
BRANCH  47  71
ATOM     71  C   UNL A   1      38.467  30.860  30.694  1.00  0.00     0.064 A 
ATOM     72  C   UNL A   1      38.364  30.836  32.091  1.00  0.00     0.173 A 
ATOM     73  C   UNL A   1      37.370  31.352  29.969  1.00  0.00     0.173 A 
ATOM     74  F   UNL A   1      39.377  30.359  32.829  1.00  0.00    -0.203 F 
ATOM     75  C   UNL A   1      37.204  31.265  32.737  1.00  0.00     0.198 A 
ATOM     76  C   UNL A   1      36.224  31.810  30.616  1.00  0.00     0.198 A 
ATOM     77  F   UNL A   1      37.416  31.403  28.629  1.00  0.00    -0.203 F 
ATOM     78  F   UNL A   1      37.116  31.186  34.071  1.00  0.00    -0.200 F 
ATOM     79  C   UNL A   1      36.138  31.757  31.999  1.00  0.00     0.200 A 
ATOM     80  F   UNL A   1      35.204  32.303  29.901  1.00  0.00    -0.200 F 
ATOM     81  F   UNL A   1      35.027  32.176  32.621  1.00  0.00    -0.200 F 
ENDBRANCH  47  71
BRANCH  59  82
ATOM     82  C   UNL A   1      44.758  33.647  29.493  1.00  0.00     0.064 A 
ATOM     83  C   UNL A   1      44.583  34.736  28.629  1.00  0.00     0.173 A 
ATOM     84  C   UNL A   1      45.448  33.864  30.696  1.00  0.00     0.173 A 
ATOM     85  F   UNL A   1      43.942  34.575  27.461  1.00  0.00    -0.203 F 
ATOM     86  C   UNL A   1      45.098  35.990  28.947  1.00  0.00     0.198 A 
ATOM     87  C   UNL A   1      45.929  35.126  31.028  1.00  0.00     0.198 A 
ATOM     88  F   UNL A   1      45.634  32.856  31.562  1.00  0.00    -0.203 F 
ATOM     89  F   UNL A   1      44.960  37.007  28.086  1.00  0.00    -0.200 F 
ATOM     90  C   UNL A   1      45.760  36.186  30.150  1.00  0.00     0.200 A 
ATOM     91  F   UNL A   1      46.551  35.318  32.200  1.00  0.00    -0.200 F 
ATOM     92  F   UNL A   1      46.240  37.397  30.462  1.00  0.00    -0.200 F 
ENDBRANCH  59  82
ENDBRANCH  33  34
ENDBRANCH  26  28
ENDBRANCH  25  26
ENDBRANCH  24  25
ENDBRANCH  23  24
ENDBRANCH   1  23
TORSDOF 17
ENDMDL
MODEL 3
REMARK VINA RESULT:     -11.3      1.042      2.472
REMARK SMILES COc1nc(-c2ccccc2)nc(C)c1CC(=O)OCCOCCOC(=O)c1ccc(-c2c3nc(c(-c4c(F)c(F)c(F)c(F)c4F)c4ccc([nH]4)c(-c4c(F)c(F)c(F)c(F)c4F)c4nc(c(-c5c(F)c(F)c(F)c(F)c5F)c5ccc2[nH]5)C=C4)C=C3)cc1
REMARK SMILES IDX 22 1 21 2 20 3 19 4 17 5 18 6 16 7 15 8 3 9 4 10 5 11 13 12
REMARK SMILES IDX 12 13 14 14 2 15 1 16 6 17 7 18 11 19 8 20 10 21 9 22 23 23
REMARK SMILES IDX 24 24 25 25 26 26 27 27 28 28 29 29 90 30 30 31 89 32 31 33
REMARK SMILES IDX 32 34 33 35 83 36 34 37 88 38 82 39 84 40 35 41 87 42 81 43
REMARK SMILES IDX 80 44 36 46 68 47 48 48 67 49 49 50 52 51 66 52 85 53 50 54
REMARK SMILES IDX 51 55 65 57 86 58 53 59 37 60 38 61 46 62 39 63 40 64 44 65
REMARK SMILES IDX 47 66 41 67 42 68 45 69 43 70 69 71 70 72 78 73 71 74 72 75
REMARK SMILES IDX 76 76 79 77 73 78 74 79 77 80 75 81 54 82 55 83 63 84 56 85
REMARK SMILES IDX 57 86 61 87 64 88 58 89 59 90 62 91 60 92
REMARK H PARENT 84 45 52 56
REMARK Flexibility Score: inf
ROOT
ATOM      1  O   UNL A   1      35.738  22.356  24.675  1.00  0.00    -0.374 OA
ENDROOT
BRANCH   1   2
ATOM      2  C   UNL A   1      35.151  23.213  25.651  1.00  0.00     0.202 C 
BRANCH   2   3
ATOM      3  C   UNL A   1      34.815  24.655  25.255  1.00  0.00     0.261 C 
BRANCH   3   4
ATOM      4  O   UNL A   1      33.470  25.063  25.605  1.00  0.00    -0.463 OA
BRANCH   4   5
ATOM      5  C   UNL A   1      32.691  25.433  24.550  1.00  0.00     0.310 C 
ATOM      6  O   UNL A   1      32.872  26.456  23.896  1.00  0.00    -0.252 OA
BRANCH   5   7
ATOM      7  C   UNL A   1      31.569  24.480  24.186  1.00  0.00     0.165 C 
BRANCH   7   8
ATOM      8  C   UNL A   1      31.839  23.002  24.225  1.00  0.00     0.047 A 
ATOM      9  C   UNL A   1      31.527  22.218  25.330  1.00  0.00     0.220 A 
ATOM     10  N   UNL A   1      31.722  20.888  25.414  1.00  0.00    -0.193 NA
ATOM     11  C   UNL A   1      32.306  20.325  24.345  1.00  0.00     0.163 A 
ATOM     12  C   UNL A   1      32.502  22.325  23.210  1.00  0.00     0.049 A 
ATOM     13  N   UNL A   1      32.726  20.997  23.258  1.00  0.00    -0.233 NA
ATOM     14  C   UNL A   1      33.223  23.036  22.102  1.00  0.00     0.067 C 
BRANCH   9  15
ATOM     15  O   UNL A   1      31.321  22.861  26.534  1.00  0.00    -0.481 OA
ATOM     16  C   UNL A   1      29.994  22.723  27.016  1.00  0.00     0.280 C 
ENDBRANCH   9  15
BRANCH  11  17
ATOM     17  C   UNL A   1      32.635  18.898  24.368  1.00  0.00     0.019 A 
ATOM     18  C   UNL A   1      32.638  18.184  25.581  1.00  0.00     0.012 A 
ATOM     19  C   UNL A   1      33.058  18.228  23.209  1.00  0.00     0.012 A 
ATOM     20  C   UNL A   1      33.061  16.851  25.636  1.00  0.00     0.001 A 
ATOM     21  C   UNL A   1      33.488  16.896  23.264  1.00  0.00     0.001 A 
ATOM     22  C   UNL A   1      33.492  16.212  24.478  1.00  0.00     0.000 A 
ENDBRANCH  11  17
ENDBRANCH   7   8
ENDBRANCH   5   7
ENDBRANCH   4   5
ENDBRANCH   3   4
ENDBRANCH   2   3
ENDBRANCH   1   2
BRANCH   1  23
ATOM     23  C   UNL A   1      35.939  20.994  25.017  1.00  0.00     0.202 C 
BRANCH  23  24
ATOM     24  C   UNL A   1      37.375  20.474  25.188  1.00  0.00     0.261 C 
BRANCH  24  25
ATOM     25  O   UNL A   1      38.387  21.468  25.234  1.00  0.00    -0.460 OA
BRANCH  25  26
ATOM     26  C   UNL A   1      39.372  21.208  26.124  1.00  0.00     0.338 C 
ATOM     27  O   UNL A   1      39.884  20.147  26.401  1.00  0.00    -0.246 OA
BRANCH  26  28
ATOM     28  C   UNL A   1      39.827  22.511  26.622  1.00  0.00     0.060 A 
ATOM     29  C   UNL A   1      39.199  23.657  26.129  1.00  0.00     0.016 A 
ATOM     30  C   UNL A   1      40.840  22.585  27.581  1.00  0.00     0.016 A 
ATOM     31  C   UNL A   1      39.611  24.904  26.577  1.00  0.00     0.010 A 
ATOM     32  C   UNL A   1      41.256  23.834  28.026  1.00  0.00     0.010 A 
ATOM     33  C   UNL A   1      40.662  24.994  27.499  1.00  0.00    -0.014 A 
BRANCH  33  34
ATOM     34  C   UNL A   1      41.258  26.311  27.798  1.00  0.00     0.031 A 
ATOM     35  C   UNL A   1      42.664  26.568  27.349  1.00  0.00     0.074 A 
ATOM     36  C   UNL A   1      40.544  27.241  28.451  1.00  0.00     0.049 A 
ATOM     37  N   UNL A   1      43.421  27.614  27.547  1.00  0.00    -0.248 NA
ATOM     38  C   UNL A   1      43.311  25.493  26.576  1.00  0.00     0.031 C 
ATOM     39  C   UNL A   1      39.160  27.084  28.896  1.00  0.00     0.029 A 
ATOM     40  N   UNL A   1      40.891  28.501  28.862  1.00  0.00    -0.354 N 
ATOM     41  C   UNL A   1      44.632  27.319  26.934  1.00  0.00     0.074 A 
ATOM     42  C   UNL A   1      44.525  25.985  26.389  1.00  0.00     0.031 C 
ATOM     43  C   UNL A   1      38.777  28.204  29.530  1.00  0.00     0.029 A 
ATOM     44  C   UNL A   1      39.901  29.137  29.568  1.00  0.00     0.049 A 
ATOM     45  H   UNL A   1      41.766  28.910  28.669  1.00  0.00     0.167 HD
ATOM     46  C   UNL A   1      45.728  28.104  26.833  1.00  0.00     0.037 A 
ATOM     47  C   UNL A   1      39.922  30.330  30.191  1.00  0.00     0.037 A 
ATOM     48  C   UNL A   1      45.809  29.428  27.390  1.00  0.00     0.049 A 
ATOM     49  C   UNL A   1      41.178  31.158  30.118  1.00  0.00     0.074 A 
ATOM     50  C   UNL A   1      46.861  30.323  27.341  1.00  0.00     0.029 A 
ATOM     51  N   UNL A   1      44.792  30.039  28.112  1.00  0.00    -0.354 N 
ATOM     52  N   UNL A   1      42.313  30.891  29.515  1.00  0.00    -0.248 NA
ATOM     53  C   UNL A   1      41.158  32.455  30.806  1.00  0.00     0.031 C 
ATOM     54  C   UNL A   1      46.502  31.452  28.085  1.00  0.00     0.029 A 
ATOM     55  C   UNL A   1      45.201  31.291  28.536  1.00  0.00     0.049 A 
ATOM     56  H   UNL A   1      43.910  29.640  28.294  1.00  0.00     0.167 HD
ATOM     57  C   UNL A   1      43.126  31.997  29.717  1.00  0.00     0.074 A 
ATOM     58  C   UNL A   1      42.351  32.943  30.494  1.00  0.00     0.031 C 
ATOM     59  C   UNL A   1      44.396  32.217  29.293  1.00  0.00     0.037 A 
BRANCH  46  60
ATOM     60  C   UNL A   1      46.927  27.539  26.126  1.00  0.00     0.064 A 
ATOM     61  C   UNL A   1      47.090  27.648  24.736  1.00  0.00     0.173 A 
ATOM     62  C   UNL A   1      47.939  26.894  26.854  1.00  0.00     0.173 A 
ATOM     63  F   UNL A   1      46.145  28.240  23.990  1.00  0.00    -0.203 F 
ATOM     64  C   UNL A   1      48.204  27.106  24.100  1.00  0.00     0.198 A 
ATOM     65  C   UNL A   1      49.067  26.383  26.218  1.00  0.00     0.198 A 
ATOM     66  F   UNL A   1      47.835  26.760  28.185  1.00  0.00    -0.203 F 
ATOM     67  F   UNL A   1      48.311  27.174  22.765  1.00  0.00    -0.200 F 
ATOM     68  C   UNL A   1      49.196  26.482  24.841  1.00  0.00     0.200 A 
ATOM     69  F   UNL A   1      50.030  25.792  26.939  1.00  0.00    -0.200 F 
ATOM     70  F   UNL A   1      50.271  25.969  24.228  1.00  0.00    -0.200 F 
ENDBRANCH  46  60
BRANCH  47  71
ATOM     71  C   UNL A   1      38.724  30.803  30.933  1.00  0.00     0.064 A 
ATOM     72  C   UNL A   1      37.671  31.450  30.274  1.00  0.00     0.173 A 
ATOM     73  C   UNL A   1      38.607  30.618  32.320  1.00  0.00     0.173 A 
ATOM     74  F   UNL A   1      37.741  31.666  28.952  1.00  0.00    -0.203 F 
ATOM     75  C   UNL A   1      36.556  31.913  30.973  1.00  0.00     0.198 A 
ATOM     76  C   UNL A   1      37.479  31.053  33.014  1.00  0.00     0.198 A 
ATOM     77  F   UNL A   1      39.583  30.000  33.002  1.00  0.00    -0.203 F 
ATOM     78  F   UNL A   1      35.587  32.570  30.324  1.00  0.00    -0.200 F 
ATOM     79  C   UNL A   1      36.459  31.709  32.342  1.00  0.00     0.200 A 
ATOM     80  F   UNL A   1      37.380  30.837  34.332  1.00  0.00    -0.200 F 
ATOM     81  F   UNL A   1      35.386  32.148  33.012  1.00  0.00    -0.200 F 
ENDBRANCH  47  71
BRANCH  59  82
ATOM     82  C   UNL A   1      45.006  33.553  29.607  1.00  0.00     0.064 A 
ATOM     83  C   UNL A   1      44.865  34.654  28.751  1.00  0.00     0.173 A 
ATOM     84  C   UNL A   1      45.687  33.743  30.819  1.00  0.00     0.173 A 
ATOM     85  F   UNL A   1      44.234  34.518  27.574  1.00  0.00    -0.203 F 
ATOM     86  C   UNL A   1      45.404  35.893  29.087  1.00  0.00     0.198 A 
ATOM     87  C   UNL A   1      46.192  34.992  31.169  1.00  0.00     0.198 A 
ATOM     88  F   UNL A   1      45.841  32.724  31.678  1.00  0.00    -0.203 F 
ATOM     89  F   UNL A   1      45.298  36.920  28.234  1.00  0.00    -0.200 F 
ATOM     90  C   UNL A   1      46.056  36.063  30.299  1.00  0.00     0.200 A 
ATOM     91  F   UNL A   1      46.804  35.159  32.349  1.00  0.00    -0.200 F 
ATOM     92  F   UNL A   1      46.558  37.261  30.628  1.00  0.00    -0.200 F 
ENDBRANCH  59  82
ENDBRANCH  33  34
ENDBRANCH  26  28
ENDBRANCH  25  26
ENDBRANCH  24  25
ENDBRANCH  23  24
ENDBRANCH   1  23
TORSDOF 17
ENDMDL
