MODEL 1
REMARK VINA RESULT:     -11.4      0.000      0.000
REMARK SMILES N#CCCn1cc(C(=O)OCCOCCOC(=O)c2ccc(-c3c4nc(c(-c5c(F)c(F)c(F)c(F)c5F)c5ccc([nH]5)c(-c5c(F)c(F)c(F)c(F)c5F)c5nc(c(-c6c(F)c(F)c(F)c(F)c6F)c6ccc3[nH]6)C=C5)C=C4)cc2)c(-c2cccc([N+](=O)[O-])c2)n1
REMARK SMILES IDX 12 1 11 2 10 3 8 4 9 5 7 6 5 7 6 8 92 9 82 10 4 11 3 12 2 13
REMARK SMILES IDX 1 14 83 15 84 16 91 17 85 18 87 19 86 20 88 21 89 22 90 23
REMARK SMILES IDX 13 24 14 25 15 26 16 27 17 28 18 29 19 30 20 31 81 32 21 33
REMARK SMILES IDX 80 34 22 35 23 36 24 37 74 38 25 39 79 40 73 41 75 42 26 43
REMARK SMILES IDX 78 44 72 45 71 46 27 48 59 49 39 50 58 51 40 52 43 53 57 54
REMARK SMILES IDX 76 55 41 56 42 57 56 59 77 60 44 61 28 62 29 63 37 64 30 65
REMARK SMILES IDX 31 66 35 67 38 68 32 69 33 70 36 71 34 72 60 73 61 74 69 75
REMARK SMILES IDX 62 76 63 77 67 78 70 79 64 80 65 81 68 82 66 83 45 84 46 85
REMARK SMILES IDX 54 86 47 87 48 88 52 89 55 90 49 91 50 92 53 93 51 94
REMARK H PARENT 75 47 43 58
REMARK Flexibility Score: inf
ROOT
ATOM      1  C   UNL A   1      33.996  32.193  27.648  1.00  0.00     0.202 C 
ENDROOT
BRANCH   1   2
ATOM      2  C   UNL A   1      34.079  30.669  27.533  1.00  0.00     0.261 C 
BRANCH   2   3
ATOM      3  O   UNL A   1      33.469  30.170  26.331  1.00  0.00    -0.460 OA
BRANCH   3   4
ATOM      4  C   UNL A   1      32.266  29.550  26.518  1.00  0.00     0.342 C 
ATOM      5  O   UNL A   1      31.719  29.403  27.598  1.00  0.00    -0.246 OA
BRANCH   4   6
ATOM      6  C   UNL A   1      31.631  29.179  25.273  1.00  0.00     0.106 A 
ATOM      7  N   UNL A   1      30.611  29.200  23.340  1.00  0.00    -0.270 N 
ATOM      8  C   UNL A   1      30.814  29.945  24.464  1.00  0.00     0.125 A 
ATOM      9  N   UNL A   1      31.120  27.965  23.422  1.00  0.00    -0.172 NA
ATOM     10  C   UNL A   1      31.735  27.925  24.605  1.00  0.00     0.107 A 
BRANCH   7  11
ATOM     11  C   UNL A   1      29.980  29.644  22.107  1.00  0.00     0.159 C 
BRANCH  11  12
ATOM     12  C   UNL A   1      28.488  29.937  22.244  1.00  0.00     0.144 C 
BRANCH  12  13
ATOM     13  C   UNL A   1      28.251  31.431  22.094  1.00  0.00     0.064 C 
ATOM     14  N   UNL A   1      28.055  32.670  21.969  1.00  0.00    -0.198 NA
ENDBRANCH  12  13
ENDBRANCH  11  12
ENDBRANCH   7  11
BRANCH  10  15
ATOM     15  C   UNL A   1      32.387  26.709  25.065  1.00  0.00     0.010 A 
ATOM     16  C   UNL A   1      33.693  26.407  24.654  1.00  0.00     0.011 A 
ATOM     17  C   UNL A   1      31.700  25.818  25.888  1.00  0.00     0.096 A 
ATOM     18  C   UNL A   1      34.273  25.175  24.964  1.00  0.00     0.008 A 
ATOM     19  C   UNL A   1      32.303  24.602  26.233  1.00  0.00     0.270 A 
ATOM     20  C   UNL A   1      33.574  24.261  25.747  1.00  0.00     0.085 A 
BRANCH  19  21
ATOM     21  N   UNL A   1      31.596  23.676  27.122  1.00  0.00     0.062 N 
ATOM     22  O   UNL A   1      32.276  22.879  27.783  1.00  0.00    -0.258 OA
ATOM     23  O   UNL A   1      30.359  23.751  27.169  1.00  0.00    -0.258 OA
ENDBRANCH  19  21
ENDBRANCH  10  15
ENDBRANCH   4   6
ENDBRANCH   3   4
ENDBRANCH   2   3
ENDBRANCH   1   2
BRANCH   1  24
ATOM     24  O   UNL A   1      34.330  32.814  28.889  1.00  0.00    -0.374 OA
BRANCH  24  25
ATOM     25  C   UNL A   1      34.635  34.201  28.950  1.00  0.00     0.202 C 
BRANCH  25  26
ATOM     26  C   UNL A   1      33.701  35.138  29.704  1.00  0.00     0.261 C 
BRANCH  26  27
ATOM     27  O   UNL A   1      33.161  34.527  30.854  1.00  0.00    -0.460 OA
BRANCH  27  28
ATOM     28  C   UNL A   1      33.475  35.194  31.988  1.00  0.00     0.338 C 
ATOM     29  O   UNL A   1      33.099  36.298  32.332  1.00  0.00    -0.246 OA
BRANCH  28  30
ATOM     30  C   UNL A   1      34.510  34.430  32.686  1.00  0.00     0.060 A 
ATOM     31  C   UNL A   1      35.661  35.159  32.983  1.00  0.00     0.016 A 
ATOM     32  C   UNL A   1      34.498  33.033  32.572  1.00  0.00     0.016 A 
ATOM     33  C   UNL A   1      36.863  34.521  32.833  1.00  0.00     0.010 A 
ATOM     34  C   UNL A   1      35.698  32.407  32.388  1.00  0.00     0.010 A 
ATOM     35  C   UNL A   1      36.851  33.186  32.420  1.00  0.00    -0.014 A 
BRANCH  35  36
ATOM     36  C   UNL A   1      38.117  32.556  32.144  1.00  0.00     0.031 A 
ATOM     37  C   UNL A   1      38.924  32.452  33.374  1.00  0.00     0.074 A 
ATOM     38  C   UNL A   1      38.406  32.051  30.932  1.00  0.00     0.049 A 
ATOM     39  N   UNL A   1      39.993  33.113  33.672  1.00  0.00    -0.248 NA
ATOM     40  C   UNL A   1      38.329  31.726  34.511  1.00  0.00     0.031 C 
ATOM     41  C   UNL A   1      37.523  31.907  29.771  1.00  0.00     0.029 A 
ATOM     42  N   UNL A   1      39.552  31.445  30.524  1.00  0.00    -0.354 N 
ATOM     43  C   UNL A   1      40.324  32.693  34.955  1.00  0.00     0.074 A 
ATOM     44  C   UNL A   1      39.142  32.090  35.500  1.00  0.00     0.031 C 
ATOM     45  C   UNL A   1      38.089  31.056  28.884  1.00  0.00     0.029 A 
ATOM     46  C   UNL A   1      39.412  30.695  29.359  1.00  0.00     0.049 A 
ATOM     47  H   UNL A   1      40.406  31.530  31.008  1.00  0.00     0.167 HD
ATOM     48  C   UNL A   1      41.629  32.544  35.304  1.00  0.00     0.037 A 
ATOM     49  C   UNL A   1      40.305  29.767  28.929  1.00  0.00     0.037 A 
ATOM     50  C   UNL A   1      42.474  33.328  34.431  1.00  0.00     0.049 A 
ATOM     51  C   UNL A   1      41.592  30.043  29.630  1.00  0.00     0.074 A 
ATOM     52  C   UNL A   1      42.566  34.672  34.122  1.00  0.00     0.029 A 
ATOM     53  N   UNL A   1      43.134  32.668  33.421  1.00  0.00    -0.354 N 
ATOM     54  N   UNL A   1      42.312  31.112  29.421  1.00  0.00    -0.248 NA
ATOM     55  C   UNL A   1      41.804  29.390  30.915  1.00  0.00     0.031 C 
ATOM     56  C   UNL A   1      42.865  34.717  32.728  1.00  0.00     0.029 A 
ATOM     57  C   UNL A   1      43.012  33.405  32.274  1.00  0.00     0.049 A 
ATOM     58  H   UNL A   1      43.612  31.813  33.509  1.00  0.00     0.167 HD
ATOM     59  C   UNL A   1      42.731  31.509  30.684  1.00  0.00     0.074 A 
ATOM     60  C   UNL A   1      42.435  30.376  31.559  1.00  0.00     0.031 C 
ATOM     61  C   UNL A   1      42.997  32.821  30.955  1.00  0.00     0.037 A 
BRANCH  48  62
ATOM     62  C   UNL A   1      42.148  31.344  36.078  1.00  0.00     0.064 A 
ATOM     63  C   UNL A   1      43.076  31.583  37.110  1.00  0.00     0.173 A 
ATOM     64  C   UNL A   1      42.042  29.993  35.670  1.00  0.00     0.173 A 
ATOM     65  F   UNL A   1      43.248  32.819  37.603  1.00  0.00    -0.203 F 
ATOM     66  C   UNL A   1      43.927  30.583  37.585  1.00  0.00     0.198 A 
ATOM     67  C   UNL A   1      42.864  28.990  36.177  1.00  0.00     0.198 A 
ATOM     68  F   UNL A   1      41.221  29.577  34.703  1.00  0.00    -0.203 F 
ATOM     69  F   UNL A   1      44.893  30.896  38.458  1.00  0.00    -0.200 F 
ATOM     70  C   UNL A   1      43.835  29.291  37.103  1.00  0.00     0.200 A 
ATOM     71  F   UNL A   1      42.755  27.745  35.691  1.00  0.00    -0.200 F 
ATOM     72  F   UNL A   1      44.700  28.350  37.497  1.00  0.00    -0.200 F 
ENDBRANCH  48  62
BRANCH  49  73
ATOM     73  C   UNL A   1      40.021  28.461  28.282  1.00  0.00     0.064 A 
ATOM     74  C   UNL A   1      40.589  28.127  27.042  1.00  0.00     0.173 A 
ATOM     75  C   UNL A   1      39.415  27.407  28.994  1.00  0.00     0.173 A 
ATOM     76  F   UNL A   1      41.234  29.059  26.324  1.00  0.00    -0.203 F 
ATOM     77  C   UNL A   1      40.566  26.816  26.552  1.00  0.00     0.198 A 
ATOM     78  C   UNL A   1      39.387  26.100  28.501  1.00  0.00     0.198 A 
ATOM     79  F   UNL A   1      38.926  27.598  30.227  1.00  0.00    -0.203 F 
ATOM     80  F   UNL A   1      41.173  26.524  25.392  1.00  0.00    -0.200 F 
ATOM     81  C   UNL A   1      39.973  25.802  27.286  1.00  0.00     0.200 A 
ATOM     82  F   UNL A   1      38.848  25.123  29.244  1.00  0.00    -0.200 F 
ATOM     83  F   UNL A   1      40.005  24.537  26.847  1.00  0.00    -0.200 F 
ENDBRANCH  49  73
BRANCH  61  84
ATOM     84  C   UNL A   1      43.075  33.773  29.795  1.00  0.00     0.064 A 
ATOM     85  C   UNL A   1      41.981  34.510  29.304  1.00  0.00     0.173 A 
ATOM     86  C   UNL A   1      44.337  34.061  29.262  1.00  0.00     0.173 A 
ATOM     87  F   UNL A   1      40.759  34.362  29.833  1.00  0.00    -0.203 F 
ATOM     88  C   UNL A   1      42.146  35.460  28.299  1.00  0.00     0.198 A 
ATOM     89  C   UNL A   1      44.504  35.036  28.286  1.00  0.00     0.198 A 
ATOM     90  F   UNL A   1      45.423  33.426  29.732  1.00  0.00    -0.203 F 
ATOM     91  F   UNL A   1      41.087  36.146  27.839  1.00  0.00    -0.200 F 
ATOM     92  C   UNL A   1      43.409  35.729  27.796  1.00  0.00     0.200 A 
ATOM     93  F   UNL A   1      45.734  35.328  27.841  1.00  0.00    -0.200 F 
ATOM     94  F   UNL A   1      43.575  36.675  26.861  1.00  0.00    -0.200 F 
ENDBRANCH  61  84
ENDBRANCH  35  36
ENDBRANCH  28  30
ENDBRANCH  27  28
ENDBRANCH  26  27
ENDBRANCH  25  26
ENDBRANCH  24  25
ENDBRANCH   1  24
TORSDOF 19
ENDMDL
MODEL 2
REMARK VINA RESULT:     -10.7      1.308      3.114
REMARK SMILES N#CCCn1cc(C(=O)OCCOCCOC(=O)c2ccc(-c3c4nc(c(-c5c(F)c(F)c(F)c(F)c5F)c5ccc([nH]5)c(-c5c(F)c(F)c(F)c(F)c5F)c5nc(c(-c6c(F)c(F)c(F)c(F)c6F)c6ccc3[nH]6)C=C5)C=C4)cc2)c(-c2cccc([N+](=O)[O-])c2)n1
REMARK SMILES IDX 12 1 11 2 10 3 8 4 9 5 7 6 5 7 6 8 92 9 82 10 4 11 3 12 2 13
REMARK SMILES IDX 1 14 83 15 84 16 91 17 85 18 87 19 86 20 88 21 89 22 90 23
REMARK SMILES IDX 13 24 14 25 15 26 16 27 17 28 18 29 19 30 20 31 81 32 21 33
REMARK SMILES IDX 80 34 22 35 23 36 24 37 74 38 25 39 79 40 73 41 75 42 26 43
REMARK SMILES IDX 78 44 72 45 71 46 27 48 59 49 39 50 58 51 40 52 43 53 57 54
REMARK SMILES IDX 76 55 41 56 42 57 56 59 77 60 44 61 28 62 29 63 37 64 30 65
REMARK SMILES IDX 31 66 35 67 38 68 32 69 33 70 36 71 34 72 60 73 61 74 69 75
REMARK SMILES IDX 62 76 63 77 67 78 70 79 64 80 65 81 68 82 66 83 45 84 46 85
REMARK SMILES IDX 54 86 47 87 48 88 52 89 55 90 49 91 50 92 53 93 51 94
REMARK H PARENT 75 47 43 58
REMARK Flexibility Score: inf
ROOT
ATOM      1  C   UNL A   1      33.572  31.790  27.856  1.00  0.00     0.202 C 
ENDROOT
BRANCH   1   2
ATOM      2  C   UNL A   1      34.097  30.406  27.472  1.00  0.00     0.261 C 
BRANCH   2   3
ATOM      3  O   UNL A   1      33.486  29.893  26.275  1.00  0.00    -0.460 OA
BRANCH   3   4
ATOM      4  C   UNL A   1      32.584  28.888  26.482  1.00  0.00     0.342 C 
ATOM      5  O   UNL A   1      31.541  29.006  27.103  1.00  0.00    -0.246 OA
BRANCH   4   6
ATOM      6  C   UNL A   1      32.934  27.672  25.782  1.00  0.00     0.106 A 
ATOM      7  N   UNL A   1      33.891  25.820  25.127  1.00  0.00    -0.270 N 
ATOM      8  C   UNL A   1      34.119  26.965  25.831  1.00  0.00     0.125 A 
ATOM      9  N   UNL A   1      32.699  25.800  24.517  1.00  0.00    -0.172 NA
ATOM     10  C   UNL A   1      32.104  26.934  24.891  1.00  0.00     0.107 A 
BRANCH   7  11
ATOM     11  C   UNL A   1      34.763  24.659  25.050  1.00  0.00     0.159 C 
BRANCH  11  12
ATOM     12  C   UNL A   1      34.519  23.625  26.148  1.00  0.00     0.144 C 
BRANCH  12  13
ATOM     13  C   UNL A   1      33.721  22.464  25.579  1.00  0.00     0.064 C 
ATOM     14  N   UNL A   1      33.059  21.500  25.107  1.00  0.00    -0.198 NA
ENDBRANCH  12  13
ENDBRANCH  11  12
ENDBRANCH   7  11
BRANCH  10  15
ATOM     15  C   UNL A   1      30.783  27.282  24.390  1.00  0.00     0.010 A 
ATOM     16  C   UNL A   1      29.710  26.395  24.548  1.00  0.00     0.011 A 
ATOM     17  C   UNL A   1      30.589  28.486  23.715  1.00  0.00     0.096 A 
ATOM     18  C   UNL A   1      28.478  26.648  23.941  1.00  0.00     0.008 A 
ATOM     19  C   UNL A   1      29.339  28.757  23.145  1.00  0.00     0.270 A 
ATOM     20  C   UNL A   1      28.290  27.828  23.227  1.00  0.00     0.085 A 
BRANCH  19  21
ATOM     21  N   UNL A   1      29.122  30.034  22.460  1.00  0.00     0.062 N 
ATOM     22  O   UNL A   1      29.482  30.123  21.278  1.00  0.00    -0.258 OA
ATOM     23  O   UNL A   1      28.581  30.948  23.100  1.00  0.00    -0.258 OA
ENDBRANCH  19  21
ENDBRANCH  10  15
ENDBRANCH   4   6
ENDBRANCH   3   4
ENDBRANCH   2   3
ENDBRANCH   1   2
BRANCH   1  24
ATOM     24  O   UNL A   1      34.491  32.877  27.959  1.00  0.00    -0.374 OA
BRANCH  24  25
ATOM     25  C   UNL A   1      34.026  34.214  28.092  1.00  0.00     0.202 C 
BRANCH  25  26
ATOM     26  C   UNL A   1      34.178  34.928  29.428  1.00  0.00     0.261 C 
BRANCH  26  27
ATOM     27  O   UNL A   1      33.220  34.493  30.368  1.00  0.00    -0.460 OA
BRANCH  27  28
ATOM     28  C   UNL A   1      33.357  35.106  31.564  1.00  0.00     0.338 C 
ATOM     29  O   UNL A   1      32.838  36.142  31.935  1.00  0.00    -0.246 OA
BRANCH  28  30
ATOM     30  C   UNL A   1      34.397  34.402  32.315  1.00  0.00     0.060 A 
ATOM     31  C   UNL A   1      35.538  35.161  32.571  1.00  0.00     0.016 A 
ATOM     32  C   UNL A   1      34.402  33.000  32.291  1.00  0.00     0.016 A 
ATOM     33  C   UNL A   1      36.748  34.529  32.467  1.00  0.00     0.010 A 
ATOM     34  C   UNL A   1      35.609  32.377  32.153  1.00  0.00     0.010 A 
ATOM     35  C   UNL A   1      36.754  33.170  32.141  1.00  0.00    -0.014 A 
BRANCH  35  36
ATOM     36  C   UNL A   1      38.028  32.539  31.912  1.00  0.00     0.031 A 
ATOM     37  C   UNL A   1      38.800  32.457  33.166  1.00  0.00     0.074 A 
ATOM     38  C   UNL A   1      38.353  32.015  30.717  1.00  0.00     0.049 A 
ATOM     39  N   UNL A   1      39.858  33.125  33.484  1.00  0.00    -0.248 NA
ATOM     40  C   UNL A   1      38.173  31.748  34.297  1.00  0.00     0.031 C 
ATOM     41  C   UNL A   1      37.504  31.850  29.534  1.00  0.00     0.029 A 
ATOM     42  N   UNL A   1      39.511  31.405  30.352  1.00  0.00    -0.354 N 
ATOM     43  C   UNL A   1      40.152  32.727  34.783  1.00  0.00     0.074 A 
ATOM     44  C   UNL A   1      38.957  32.130  35.303  1.00  0.00     0.031 C 
ATOM     45  C   UNL A   1      38.097  30.986  28.678  1.00  0.00     0.029 A 
ATOM     46  C   UNL A   1      39.407  30.636  29.196  1.00  0.00     0.049 A 
ATOM     47  H   UNL A   1      40.351  31.500  30.859  1.00  0.00     0.167 HD
ATOM     48  C   UNL A   1      41.448  32.586  35.171  1.00  0.00     0.037 A 
ATOM     49  C   UNL A   1      40.313  29.703  28.807  1.00  0.00     0.037 A 
ATOM     50  C   UNL A   1      42.316  33.358  34.311  1.00  0.00     0.049 A 
ATOM     51  C   UNL A   1      41.579  29.994  29.541  1.00  0.00     0.074 A 
ATOM     52  C   UNL A   1      42.414  34.697  33.983  1.00  0.00     0.029 A 
ATOM     53  N   UNL A   1      43.006  32.683  33.331  1.00  0.00    -0.354 N 
ATOM     54  N   UNL A   1      42.302  31.060  29.335  1.00  0.00    -0.248 NA
ATOM     55  C   UNL A   1      41.754  29.362  30.842  1.00  0.00     0.031 C 
ATOM     56  C   UNL A   1      42.753  34.720  32.598  1.00  0.00     0.029 A 
ATOM     57  C   UNL A   1      42.915  33.402  32.169  1.00  0.00     0.049 A 
ATOM     58  H   UNL A   1      43.483  31.831  33.447  1.00  0.00     0.167 HD
ATOM     59  C   UNL A   1      42.684  31.479  30.603  1.00  0.00     0.074 A 
ATOM     60  C   UNL A   1      42.365  30.360  31.488  1.00  0.00     0.031 C 
ATOM     61  C   UNL A   1      42.940  32.796  30.860  1.00  0.00     0.037 A 
BRANCH  48  62
ATOM     62  C   UNL A   1      41.946  31.401  35.980  1.00  0.00     0.064 A 
ATOM     63  C   UNL A   1      42.857  31.656  37.022  1.00  0.00     0.173 A 
ATOM     64  C   UNL A   1      41.839  30.042  35.599  1.00  0.00     0.173 A 
ATOM     65  F   UNL A   1      43.028  32.901  37.491  1.00  0.00    -0.203 F 
ATOM     66  C   UNL A   1      43.694  30.662  37.533  1.00  0.00     0.198 A 
ATOM     67  C   UNL A   1      42.646  29.046  36.142  1.00  0.00     0.198 A 
ATOM     68  F   UNL A   1      41.031  29.609  34.627  1.00  0.00    -0.203 F 
ATOM     69  F   UNL A   1      44.646  30.988  38.416  1.00  0.00    -0.200 F 
ATOM     70  C   UNL A   1      43.602  29.361  37.077  1.00  0.00     0.200 A 
ATOM     71  F   UNL A   1      42.538  27.791  35.680  1.00  0.00    -0.200 F 
ATOM     72  F   UNL A   1      44.455  28.423  37.506  1.00  0.00    -0.200 F 
ENDBRANCH  48  62
BRANCH  49  73
ATOM     73  C   UNL A   1      40.051  28.386  28.174  1.00  0.00     0.064 A 
ATOM     74  C   UNL A   1      40.649  28.036  26.953  1.00  0.00     0.173 A 
ATOM     75  C   UNL A   1      39.432  27.340  28.887  1.00  0.00     0.173 A 
ATOM     76  F   UNL A   1      41.308  28.959  26.237  1.00  0.00    -0.203 F 
ATOM     77  C   UNL A   1      40.644  26.717  26.483  1.00  0.00     0.198 A 
ATOM     78  C   UNL A   1      39.422  26.026  28.414  1.00  0.00     0.198 A 
ATOM     79  F   UNL A   1      38.913  27.547  30.105  1.00  0.00    -0.203 F 
ATOM     80  F   UNL A   1      41.280  26.410  25.343  1.00  0.00    -0.200 F 
ATOM     81  C   UNL A   1      40.037  25.712  27.219  1.00  0.00     0.200 A 
ATOM     82  F   UNL A   1      38.869  25.057  29.159  1.00  0.00    -0.200 F 
ATOM     83  F   UNL A   1      40.085  24.440  26.800  1.00  0.00    -0.200 F 
ENDBRANCH  49  73
BRANCH  61  84
ATOM     84  C   UNL A   1      43.049  33.729  29.688  1.00  0.00     0.064 A 
ATOM     85  C   UNL A   1      41.982  34.495  29.187  1.00  0.00     0.173 A 
ATOM     86  C   UNL A   1      44.321  33.967  29.151  1.00  0.00     0.173 A 
ATOM     87  F   UNL A   1      40.755  34.396  29.717  1.00  0.00    -0.203 F 
ATOM     88  C   UNL A   1      42.178  35.426  28.168  1.00  0.00     0.198 A 
ATOM     89  C   UNL A   1      44.520  34.922  28.161  1.00  0.00     0.198 A 
ATOM     90  F   UNL A   1      45.384  33.302  29.630  1.00  0.00    -0.203 F 
ATOM     91  F   UNL A   1      41.142  36.141  27.700  1.00  0.00    -0.200 F 
ATOM     92  C   UNL A   1      43.449  35.646  27.662  1.00  0.00     0.200 A 
ATOM     93  F   UNL A   1      45.759  35.166  27.713  1.00  0.00    -0.200 F 
ATOM     94  F   UNL A   1      43.646  36.572  26.715  1.00  0.00    -0.200 F 
ENDBRANCH  61  84
ENDBRANCH  35  36
ENDBRANCH  28  30
ENDBRANCH  27  28
ENDBRANCH  26  27
ENDBRANCH  25  26
ENDBRANCH  24  25
ENDBRANCH   1  24
TORSDOF 19
ENDMDL
MODEL 3
REMARK VINA RESULT:     -10.6      3.992      9.248
REMARK SMILES N#CCCn1cc(C(=O)OCCOCCOC(=O)c2ccc(-c3c4nc(c(-c5c(F)c(F)c(F)c(F)c5F)c5ccc([nH]5)c(-c5c(F)c(F)c(F)c(F)c5F)c5nc(c(-c6c(F)c(F)c(F)c(F)c6F)c6ccc3[nH]6)C=C5)C=C4)cc2)c(-c2cccc([N+](=O)[O-])c2)n1
REMARK SMILES IDX 12 1 11 2 10 3 8 4 9 5 7 6 5 7 6 8 92 9 82 10 4 11 3 12 2 13
REMARK SMILES IDX 1 14 83 15 84 16 91 17 85 18 87 19 86 20 88 21 89 22 90 23
REMARK SMILES IDX 13 24 14 25 15 26 16 27 17 28 18 29 19 30 20 31 81 32 21 33
REMARK SMILES IDX 80 34 22 35 23 36 24 37 74 38 25 39 79 40 73 41 75 42 26 43
REMARK SMILES IDX 78 44 72 45 71 46 27 48 59 49 39 50 58 51 40 52 43 53 57 54
REMARK SMILES IDX 76 55 41 56 42 57 56 59 77 60 44 61 28 62 29 63 37 64 30 65
REMARK SMILES IDX 31 66 35 67 38 68 32 69 33 70 36 71 34 72 60 73 61 74 69 75
REMARK SMILES IDX 62 76 63 77 67 78 70 79 64 80 65 81 68 82 66 83 45 84 46 85
REMARK SMILES IDX 54 86 47 87 48 88 52 89 55 90 49 91 50 92 53 93 51 94
REMARK H PARENT 75 47 43 58
REMARK Flexibility Score: inf
ROOT
ATOM      1  C   UNL A   1      37.401  23.139  24.942  1.00  0.00     0.202 C 
ENDROOT
BRANCH   1   2
ATOM      2  C   UNL A   1      36.032  23.135  24.259  1.00  0.00     0.261 C 
BRANCH   2   3
ATOM      3  O   UNL A   1      34.947  23.292  25.190  1.00  0.00    -0.460 OA
BRANCH   3   4
ATOM      4  C   UNL A   1      34.584  22.146  25.839  1.00  0.00     0.342 C 
ATOM      5  O   UNL A   1      34.758  21.933  27.026  1.00  0.00    -0.246 OA
BRANCH   4   6
ATOM      6  C   UNL A   1      33.851  21.233  24.988  1.00  0.00     0.106 A 
ATOM      7  N   UNL A   1      33.011  19.453  24.041  1.00  0.00    -0.270 N 
ATOM      8  C   UNL A   1      34.055  19.879  24.807  1.00  0.00     0.125 A 
ATOM      9  N   UNL A   1      32.230  20.449  23.605  1.00  0.00    -0.172 NA
ATOM     10  C   UNL A   1      32.737  21.550  24.160  1.00  0.00     0.107 A 
BRANCH   7  11
ATOM     11  C   UNL A   1      32.663  18.074  23.737  1.00  0.00     0.159 C 
BRANCH  11  12
ATOM     12  C   UNL A   1      33.839  17.231  23.248  1.00  0.00     0.144 C 
BRANCH  12  13
ATOM     13  C   UNL A   1      34.193  16.197  24.304  1.00  0.00     0.064 C 
ATOM     14  N   UNL A   1      34.487  15.339  25.180  1.00  0.00    -0.198 NA
ENDBRANCH  12  13
ENDBRANCH  11  12
ENDBRANCH   7  11
BRANCH  10  15
ATOM     15  C   UNL A   1      32.161  22.858  23.883  1.00  0.00     0.010 A 
ATOM     16  C   UNL A   1      31.108  23.348  24.668  1.00  0.00     0.011 A 
ATOM     17  C   UNL A   1      32.630  23.613  22.809  1.00  0.00     0.096 A 
ATOM     18  C   UNL A   1      30.447  24.528  24.322  1.00  0.00     0.008 A 
ATOM     19  C   UNL A   1      31.993  24.818  22.492  1.00  0.00     0.270 A 
ATOM     20  C   UNL A   1      30.882  25.264  23.223  1.00  0.00     0.085 A 
BRANCH  19  21
ATOM     21  N   UNL A   1      32.502  25.629  21.382  1.00  0.00     0.062 N 
ATOM     22  O   UNL A   1      31.706  25.944  20.486  1.00  0.00    -0.258 OA
ATOM     23  O   UNL A   1      33.695  25.962  21.410  1.00  0.00    -0.258 OA
ENDBRANCH  19  21
ENDBRANCH  10  15
ENDBRANCH   4   6
ENDBRANCH   3   4
ENDBRANCH   2   3
ENDBRANCH   1   2
BRANCH   1  24
ATOM     24  O   UNL A   1      38.131  21.916  25.042  1.00  0.00    -0.374 OA
BRANCH  24  25
ATOM     25  C   UNL A   1      38.907  21.624  26.196  1.00  0.00     0.202 C 
BRANCH  25  26
ATOM     26  C   UNL A   1      40.286  21.000  26.031  1.00  0.00     0.261 C 
BRANCH  26  27
ATOM     27  O   UNL A   1      41.287  21.979  25.859  1.00  0.00    -0.460 OA
BRANCH  27  28
ATOM     28  C   UNL A   1      41.765  22.440  27.036  1.00  0.00     0.338 C 
ATOM     29  O   UNL A   1      41.787  21.865  28.108  1.00  0.00    -0.246 OA
BRANCH  28  30
ATOM     30  C   UNL A   1      42.109  23.851  26.860  1.00  0.00     0.060 A 
ATOM     31  C   UNL A   1      43.204  24.275  27.611  1.00  0.00     0.016 A 
ATOM     32  C   UNL A   1      41.117  24.725  26.395  1.00  0.00     0.016 A 
ATOM     33  C   UNL A   1      43.130  25.517  28.182  1.00  0.00     0.010 A 
ATOM     34  C   UNL A   1      41.026  25.950  26.993  1.00  0.00     0.010 A 
ATOM     35  C   UNL A   1      41.979  26.278  27.953  1.00  0.00    -0.014 A 
BRANCH  35  36
ATOM     36  C   UNL A   1      41.850  27.529  28.655  1.00  0.00     0.031 A 
ATOM     37  C   UNL A   1      42.981  28.421  28.338  1.00  0.00     0.074 A 
ATOM     38  C   UNL A   1      40.761  27.820  29.387  1.00  0.00     0.049 A 
ATOM     39  N   UNL A   1      43.951  28.768  29.116  1.00  0.00    -0.248 NA
ATOM     40  C   UNL A   1      43.200  28.752  26.918  1.00  0.00     0.031 C 
ATOM     41  C   UNL A   1      39.513  27.061  29.504  1.00  0.00     0.029 A 
ATOM     42  N   UNL A   1      40.506  28.943  30.108  1.00  0.00    -0.354 N 
ATOM     43  C   UNL A   1      44.776  29.560  28.325  1.00  0.00     0.074 A 
ATOM     44  C   UNL A   1      44.424  29.275  26.965  1.00  0.00     0.031 C 
ATOM     45  C   UNL A   1      38.561  27.851  30.053  1.00  0.00     0.029 A 
ATOM     46  C   UNL A   1      39.162  29.116  30.431  1.00  0.00     0.049 A 
ATOM     47  H   UNL A   1      41.208  29.579  30.378  1.00  0.00     0.167 HD
ATOM     48  C   UNL A   1      45.399  30.640  28.865  1.00  0.00     0.037 A 
ATOM     49  C   UNL A   1      38.618  30.283  30.863  1.00  0.00     0.037 A 
ATOM     50  C   UNL A   1      45.495  30.498  30.301  1.00  0.00     0.049 A 
ATOM     51  C   UNL A   1      39.742  31.131  31.354  1.00  0.00     0.074 A 
ATOM     52  C   UNL A   1      46.071  29.568  31.146  1.00  0.00     0.029 A 
ATOM     53  N   UNL A   1      44.595  31.195  31.072  1.00  0.00    -0.354 N 
ATOM     54  N   UNL A   1      40.450  30.848  32.413  1.00  0.00    -0.248 NA
ATOM     55  C   UNL A   1      40.392  32.003  30.383  1.00  0.00     0.031 C 
ATOM     56  C   UNL A   1      45.167  29.447  32.242  1.00  0.00     0.029 A 
ATOM     57  C   UNL A   1      44.127  30.357  32.048  1.00  0.00     0.049 A 
ATOM     58  H   UNL A   1      44.334  32.134  30.944  1.00  0.00     0.167 HD
ATOM     59  C   UNL A   1      41.760  31.133  32.049  1.00  0.00     0.074 A 
ATOM     60  C   UNL A   1      41.655  31.896  30.807  1.00  0.00     0.031 C 
ATOM     61  C   UNL A   1      42.807  30.469  32.622  1.00  0.00     0.037 A 
BRANCH  48  62
ATOM     62  C   UNL A   1      45.462  31.991  28.174  1.00  0.00     0.064 A 
ATOM     63  C   UNL A   1      46.717  32.625  28.089  1.00  0.00     0.173 A 
ATOM     64  C   UNL A   1      44.353  32.823  27.890  1.00  0.00     0.173 A 
ATOM     65  F   UNL A   1      47.847  31.936  28.310  1.00  0.00    -0.203 F 
ATOM     66  C   UNL A   1      46.839  34.000  27.883  1.00  0.00     0.198 A 
ATOM     67  C   UNL A   1      44.482  34.187  27.643  1.00  0.00     0.198 A 
ATOM     68  F   UNL A   1      43.087  32.400  27.925  1.00  0.00    -0.203 F 
ATOM     69  F   UNL A   1      48.045  34.577  27.961  1.00  0.00    -0.200 F 
ATOM     70  C   UNL A   1      45.720  34.784  27.681  1.00  0.00     0.200 A 
ATOM     71  F   UNL A   1      43.379  34.925  27.451  1.00  0.00    -0.200 F 
ATOM     72  F   UNL A   1      45.826  36.113  27.564  1.00  0.00    -0.200 F 
ENDBRANCH  48  62
BRANCH  49  73
ATOM     73  C   UNL A   1      37.289  30.850  30.521  1.00  0.00     0.064 A 
ATOM     74  C   UNL A   1      36.392  31.252  31.523  1.00  0.00     0.173 A 
ATOM     75  C   UNL A   1      36.986  31.267  29.209  1.00  0.00     0.173 A 
ATOM     76  F   UNL A   1      36.635  30.945  32.807  1.00  0.00    -0.203 F 
ATOM     77  C   UNL A   1      35.270  32.037  31.234  1.00  0.00     0.198 A 
ATOM     78  C   UNL A   1      35.862  32.044  28.921  1.00  0.00     0.198 A 
ATOM     79  F   UNL A   1      37.823  31.016  28.194  1.00  0.00    -0.203 F 
ATOM     80  F   UNL A   1      34.470  32.453  32.227  1.00  0.00    -0.200 F 
ATOM     81  C   UNL A   1      35.011  32.439  29.934  1.00  0.00     0.200 A 
ATOM     82  F   UNL A   1      35.649  32.462  27.665  1.00  0.00    -0.200 F 
ATOM     83  F   UNL A   1      33.972  33.241  29.665  1.00  0.00    -0.200 F 
ENDBRANCH  49  73
BRANCH  61  84
ATOM     84  C   UNL A   1      42.522  29.619  33.827  1.00  0.00     0.064 A 
ATOM     85  C   UNL A   1      42.034  28.301  33.766  1.00  0.00     0.173 A 
ATOM     86  C   UNL A   1      42.903  30.108  35.083  1.00  0.00     0.173 A 
ATOM     87  F   UNL A   1      41.743  27.729  32.590  1.00  0.00    -0.203 F 
ATOM     88  C   UNL A   1      41.898  27.528  34.918  1.00  0.00     0.198 A 
ATOM     89  C   UNL A   1      42.801  29.322  36.226  1.00  0.00     0.198 A 
ATOM     90  F   UNL A   1      43.425  31.339  35.192  1.00  0.00    -0.203 F 
ATOM     91  F   UNL A   1      41.423  26.276  34.837  1.00  0.00    -0.200 F 
ATOM     92  C   UNL A   1      42.291  28.036  36.146  1.00  0.00     0.200 A 
ATOM     93  F   UNL A   1      43.231  29.800  37.402  1.00  0.00    -0.200 F 
ATOM     94  F   UNL A   1      42.203  27.279  37.248  1.00  0.00    -0.200 F 
ENDBRANCH  61  84
ENDBRANCH  35  36
ENDBRANCH  28  30
ENDBRANCH  27  28
ENDBRANCH  26  27
ENDBRANCH  25  26
ENDBRANCH  24  25
ENDBRANCH   1  24
TORSDOF 19
ENDMDL
