MODEL 1
REMARK VINA RESULT:     -11.9      0.000      0.000
REMARK SMILES O=C(OCCOCCOC(=O)[C@H]1C[C@](O)(c2ccc(Cl)cc2)[C@@H](c2ccc(Cl)cc2)O1)c1ccc(-c2c3nc(c(-c4c(F)c(F)c(F)c(F)c4F)c4ccc([nH]4)c(-c4c(F)c(F)c(F)c(F)c4F)c4nc(c(-c5c(F)c(F)c(F)c(F)c5F)c5ccc2[nH]5)C=C4)C=C3)cc1
REMARK SMILES IDX 5 1 4 2 3 3 2 4 1 5 32 6 33 7 94 8 34 9 93 10 35 11 36 12
REMARK SMILES IDX 37 13 87 14 38 15 92 16 86 17 88 18 39 19 91 20 85 21 84 22
REMARK SMILES IDX 40 24 72 25 52 26 71 27 53 28 56 29 70 30 89 31 54 32 55 33
REMARK SMILES IDX 69 35 90 36 57 37 41 38 42 39 50 40 43 41 44 42 48 43 51 44
REMARK SMILES IDX 45 45 46 46 49 47 47 48 73 49 74 50 82 51 75 52 76 53 80 54
REMARK SMILES IDX 83 55 77 56 78 57 81 58 79 59 58 60 59 61 67 62 60 63 61 64
REMARK SMILES IDX 65 65 68 66 62 67 63 68 66 69 64 70 6 71 7 72 8 73 9 74
REMARK SMILES IDX 10 75 11 76 12 77 13 78 31 79 14 80 23 81 16 82 17 83 22 84
REMARK SMILES IDX 18 85 21 86 19 87 20 88 15 89 24 91 25 92 30 93 26 94 29 95
REMARK SMILES IDX 27 96 28 97
REMARK H PARENT 88 23 56 34 15 90
REMARK Flexibility Score: inf
ROOT
ATOM      1  C   UNL A   1      33.839  34.425  28.425  1.00  0.00     0.202 C 
ENDROOT
BRANCH   1   2
ATOM      2  C   UNL A   1      33.085  35.607  29.052  1.00  0.00     0.261 C 
BRANCH   2   3
ATOM      3  O   UNL A   1      32.528  35.238  30.354  1.00  0.00    -0.460 OA
BRANCH   3   4
ATOM      4  C   UNL A   1      32.742  35.825  31.561  1.00  0.00     0.338 C 
ATOM      5  O   UNL A   1      32.154  36.829  31.934  1.00  0.00    -0.246 OA
BRANCH   4   6
ATOM      6  C   UNL A   1      33.693  35.133  32.427  1.00  0.00     0.060 A 
ATOM      7  C   UNL A   1      34.913  35.748  32.635  1.00  0.00     0.016 A 
ATOM      8  C   UNL A   1      33.471  33.815  32.821  1.00  0.00     0.016 A 
ATOM      9  C   UNL A   1      36.003  34.949  32.860  1.00  0.00     0.010 A 
ATOM     10  C   UNL A   1      34.543  33.078  33.323  1.00  0.00     0.010 A 
ATOM     11  C   UNL A   1      35.834  33.626  33.286  1.00  0.00    -0.014 A 
BRANCH  11  12
ATOM     12  C   UNL A   1      37.046  32.890  33.704  1.00  0.00     0.031 A 
ATOM     13  C   UNL A   1      37.590  33.029  35.090  1.00  0.00     0.074 A 
ATOM     14  C   UNL A   1      37.580  32.016  32.827  1.00  0.00     0.049 A 
ATOM     15  N   UNL A   1      38.734  32.605  35.559  1.00  0.00    -0.248 NA
ATOM     16  C   UNL A   1      36.775  33.759  36.074  1.00  0.00     0.031 C 
ATOM     17  C   UNL A   1      37.085  31.788  31.462  1.00  0.00     0.029 A 
ATOM     18  N   UNL A   1      38.592  31.108  32.952  1.00  0.00    -0.354 N 
ATOM     19  C   UNL A   1      38.826  33.112  36.847  1.00  0.00     0.074 A 
ATOM     20  C   UNL A   1      37.598  33.827  37.113  1.00  0.00     0.031 C 
ATOM     21  C   UNL A   1      37.670  30.705  30.950  1.00  0.00     0.029 A 
ATOM     22  C   UNL A   1      38.742  30.311  31.844  1.00  0.00     0.049 A 
ATOM     23  H   UNL A   1      39.156  31.033  33.755  1.00  0.00     0.167 HD
ATOM     24  C   UNL A   1      39.879  33.008  37.692  1.00  0.00     0.037 A 
ATOM     25  C   UNL A   1      39.701  29.424  31.532  1.00  0.00     0.037 A 
ATOM     26  C   UNL A   1      41.050  32.225  37.386  1.00  0.00     0.049 A 
ATOM     27  C   UNL A   1      40.830  29.289  32.499  1.00  0.00     0.074 A 
ATOM     28  C   UNL A   1      42.206  32.058  38.124  1.00  0.00     0.029 A 
ATOM     29  N   UNL A   1      41.193  31.451  36.237  1.00  0.00    -0.354 N 
ATOM     30  N   UNL A   1      40.989  29.889  33.656  1.00  0.00    -0.248 NA
ATOM     31  C   UNL A   1      41.935  28.417  32.103  1.00  0.00     0.031 C 
ATOM     32  C   UNL A   1      43.057  31.201  37.410  1.00  0.00     0.029 A 
ATOM     33  C   UNL A   1      42.417  30.804  36.246  1.00  0.00     0.049 A 
ATOM     34  H   UNL A   1      40.521  31.375  35.523  1.00  0.00     0.167 HD
ATOM     35  C   UNL A   1      42.233  29.501  34.114  1.00  0.00     0.074 A 
ATOM     36  C   UNL A   1      42.762  28.571  33.130  1.00  0.00     0.031 C 
ATOM     37  C   UNL A   1      42.893  29.897  35.230  1.00  0.00     0.037 A 
BRANCH  24  38
ATOM     38  C   UNL A   1      39.843  33.826  38.951  1.00  0.00     0.064 A 
ATOM     39  C   UNL A   1      39.234  33.377  40.131  1.00  0.00     0.173 A 
ATOM     40  C   UNL A   1      40.424  35.107  38.966  1.00  0.00     0.173 A 
ATOM     41  F   UNL A   1      38.643  32.174  40.168  1.00  0.00    -0.203 F 
ATOM     42  C   UNL A   1      39.179  34.187  41.265  1.00  0.00     0.198 A 
ATOM     43  C   UNL A   1      40.390  35.904  40.108  1.00  0.00     0.198 A 
ATOM     44  F   UNL A   1      41.017  35.592  37.865  1.00  0.00    -0.203 F 
ATOM     45  F   UNL A   1      38.543  33.757  42.364  1.00  0.00    -0.200 F 
ATOM     46  C   UNL A   1      39.759  35.446  41.254  1.00  0.00     0.200 A 
ATOM     47  F   UNL A   1      40.955  37.119  40.094  1.00  0.00    -0.200 F 
ATOM     48  F   UNL A   1      39.699  36.226  42.344  1.00  0.00    -0.200 F 
ENDBRANCH  24  38
BRANCH  25  49
ATOM     49  C   UNL A   1      39.655  28.741  30.212  1.00  0.00     0.064 A 
ATOM     50  C   UNL A   1      40.233  29.320  29.077  1.00  0.00     0.173 A 
ATOM     51  C   UNL A   1      39.149  27.434  30.092  1.00  0.00     0.173 A 
ATOM     52  F   UNL A   1      40.712  30.571  29.133  1.00  0.00    -0.203 F 
ATOM     53  C   UNL A   1      40.335  28.607  27.882  1.00  0.00     0.198 A 
ATOM     54  C   UNL A   1      39.291  26.709  28.912  1.00  0.00     0.198 A 
ATOM     55  F   UNL A   1      38.594  26.829  31.152  1.00  0.00    -0.203 F 
ATOM     56  F   UNL A   1      40.890  29.182  26.807  1.00  0.00    -0.200 F 
ATOM     57  C   UNL A   1      39.885  27.296  27.807  1.00  0.00     0.200 A 
ATOM     58  F   UNL A   1      38.889  25.431  28.861  1.00  0.00    -0.200 F 
ATOM     59  F   UNL A   1      40.031  26.597  26.674  1.00  0.00    -0.200 F 
ENDBRANCH  25  49
BRANCH  37  60
ATOM     60  C   UNL A   1      44.253  29.309  35.417  1.00  0.00     0.064 A 
ATOM     61  C   UNL A   1      44.432  28.105  36.113  1.00  0.00     0.173 A 
ATOM     62  C   UNL A   1      45.380  29.956  34.894  1.00  0.00     0.173 A 
ATOM     63  F   UNL A   1      43.378  27.471  36.647  1.00  0.00    -0.203 F 
ATOM     64  C   UNL A   1      45.704  27.577  36.296  1.00  0.00     0.198 A 
ATOM     65  C   UNL A   1      46.648  29.413  35.063  1.00  0.00     0.198 A 
ATOM     66  F   UNL A   1      45.247  31.112  34.227  1.00  0.00    -0.203 F 
ATOM     67  F   UNL A   1      45.864  26.449  37.001  1.00  0.00    -0.200 F 
ATOM     68  C   UNL A   1      46.810  28.229  35.768  1.00  0.00     0.200 A 
ATOM     69  F   UNL A   1      47.715  30.041  34.552  1.00  0.00    -0.200 F 
ATOM     70  F   UNL A   1      48.036  27.721  35.950  1.00  0.00    -0.200 F 
ENDBRANCH  37  60
ENDBRANCH  11  12
ENDBRANCH   4   6
ENDBRANCH   3   4
ENDBRANCH   2   3
ENDBRANCH   1   2
BRANCH   1  71
ATOM     71  O   UNL A   1      34.525  33.585  29.356  1.00  0.00    -0.374 OA
BRANCH  71  72
ATOM     72  C   UNL A   1      34.399  32.173  29.122  1.00  0.00     0.202 C 
BRANCH  72  73
ATOM     73  C   UNL A   1      34.262  31.842  27.636  1.00  0.00     0.261 C 
BRANCH  73  74
ATOM     74  O   UNL A   1      33.790  30.492  27.524  1.00  0.00    -0.461 OA
BRANCH  74  75
ATOM     75  C   UNL A   1      34.724  29.554  27.224  1.00  0.00     0.335 C 
ATOM     76  O   UNL A   1      35.834  29.475  27.736  1.00  0.00    -0.249 OA
BRANCH  75  77
ATOM     77  C   UNL A   1      34.170  28.571  26.189  1.00  0.00     0.232 C 
ATOM     78  C   UNL A   1      33.400  27.453  26.874  1.00  0.00     0.087 C 
ATOM     79  O   UNL A   1      33.267  29.167  25.250  1.00  0.00    -0.355 OA
ATOM     80  C   UNL A   1      32.184  27.160  25.983  1.00  0.00     0.123 C 
ATOM     81  C   UNL A   1      32.389  28.126  24.767  1.00  0.00     0.186 C 
BRANCH  80  82
ATOM     82  C   UNL A   1      32.100  25.660  25.732  1.00  0.00    -0.013 A 
ATOM     83  C   UNL A   1      33.260  24.878  25.937  1.00  0.00     0.008 A 
ATOM     84  C   UNL A   1      30.958  25.021  25.234  1.00  0.00     0.008 A 
ATOM     85  C   UNL A   1      33.285  23.518  25.624  1.00  0.00     0.021 A 
ATOM     86  C   UNL A   1      30.985  23.658  24.915  1.00  0.00     0.021 A 
ATOM     87  C   UNL A   1      32.147  22.915  25.105  1.00  0.00     0.041 A 
ATOM     88  Cl  UNL A   1      32.178  21.250  24.680  1.00  0.00    -0.084 Cl
ENDBRANCH  80  82
BRANCH  80  89
ATOM     89  O   UNL A   1      31.029  27.521  26.770  1.00  0.00    -0.382 OA
ATOM     90  H   UNL A   1      30.236  27.120  26.382  1.00  0.00     0.212 HD
ENDBRANCH  80  89
BRANCH  81  91
ATOM     91  C   UNL A   1      31.151  28.778  24.173  1.00  0.00    -0.016 A 
ATOM     92  C   UNL A   1      30.308  28.033  23.345  1.00  0.00     0.008 A 
ATOM     93  C   UNL A   1      30.773  30.097  24.442  1.00  0.00     0.008 A 
ATOM     94  C   UNL A   1      29.155  28.558  22.760  1.00  0.00     0.021 A 
ATOM     95  C   UNL A   1      29.602  30.636  23.876  1.00  0.00     0.021 A 
ATOM     96  C   UNL A   1      28.803  29.867  23.031  1.00  0.00     0.041 A 
ATOM     97  Cl  UNL A   1      27.380  30.527  22.329  1.00  0.00    -0.084 Cl
ENDBRANCH  81  91
ENDBRANCH  75  77
ENDBRANCH  74  75
ENDBRANCH  73  74
ENDBRANCH  72  73
ENDBRANCH  71  72
ENDBRANCH   1  71
TORSDOF 17
ENDMDL
MODEL 2
REMARK VINA RESULT:     -11.8      0.948      3.268
REMARK SMILES O=C(OCCOCCOC(=O)[C@H]1C[C@](O)(c2ccc(Cl)cc2)[C@@H](c2ccc(Cl)cc2)O1)c1ccc(-c2c3nc(c(-c4c(F)c(F)c(F)c(F)c4F)c4ccc([nH]4)c(-c4c(F)c(F)c(F)c(F)c4F)c4nc(c(-c5c(F)c(F)c(F)c(F)c5F)c5ccc2[nH]5)C=C4)C=C3)cc1
REMARK SMILES IDX 5 1 4 2 3 3 2 4 1 5 32 6 33 7 94 8 34 9 93 10 35 11 36 12
REMARK SMILES IDX 37 13 87 14 38 15 92 16 86 17 88 18 39 19 91 20 85 21 84 22
REMARK SMILES IDX 40 24 72 25 52 26 71 27 53 28 56 29 70 30 89 31 54 32 55 33
REMARK SMILES IDX 69 35 90 36 57 37 41 38 42 39 50 40 43 41 44 42 48 43 51 44
REMARK SMILES IDX 45 45 46 46 49 47 47 48 73 49 74 50 82 51 75 52 76 53 80 54
REMARK SMILES IDX 83 55 77 56 78 57 81 58 79 59 58 60 59 61 67 62 60 63 61 64
REMARK SMILES IDX 65 65 68 66 62 67 63 68 66 69 64 70 6 71 7 72 8 73 9 74
REMARK SMILES IDX 10 75 11 76 12 77 13 78 31 79 14 80 23 81 16 82 17 83 22 84
REMARK SMILES IDX 18 85 21 86 19 87 20 88 15 89 24 91 25 92 30 93 26 94 29 95
REMARK SMILES IDX 27 96 28 97
REMARK H PARENT 88 23 56 34 15 90
REMARK Flexibility Score: inf
ROOT
ATOM      1  C   UNL A   1      34.216  35.516  28.254  1.00  0.00     0.202 C 
ENDROOT
BRANCH   1   2
ATOM      2  C   UNL A   1      33.033  35.285  29.206  1.00  0.00     0.261 C 
BRANCH   2   3
ATOM      3  O   UNL A   1      33.152  36.126  30.398  1.00  0.00    -0.460 OA
BRANCH   3   4
ATOM      4  C   UNL A   1      32.706  35.873  31.656  1.00  0.00     0.338 C 
ATOM      5  O   UNL A   1      31.586  36.169  32.046  1.00  0.00    -0.246 OA
BRANCH   4   6
ATOM      6  C   UNL A   1      33.645  35.153  32.513  1.00  0.00     0.060 A 
ATOM      7  C   UNL A   1      34.848  35.776  32.784  1.00  0.00     0.016 A 
ATOM      8  C   UNL A   1      33.434  33.814  32.836  1.00  0.00     0.016 A 
ATOM      9  C   UNL A   1      35.945  34.983  32.999  1.00  0.00     0.010 A 
ATOM     10  C   UNL A   1      34.504  33.070  33.331  1.00  0.00     0.010 A 
ATOM     11  C   UNL A   1      35.786  33.639  33.355  1.00  0.00    -0.014 A 
BRANCH  11  12
ATOM     12  C   UNL A   1      36.999  32.901  33.770  1.00  0.00     0.031 A 
ATOM     13  C   UNL A   1      37.545  33.037  35.156  1.00  0.00     0.074 A 
ATOM     14  C   UNL A   1      37.531  32.029  32.890  1.00  0.00     0.049 A 
ATOM     15  N   UNL A   1      38.691  32.612  35.621  1.00  0.00    -0.248 NA
ATOM     16  C   UNL A   1      36.733  33.765  36.143  1.00  0.00     0.031 C 
ATOM     17  C   UNL A   1      37.033  31.804  31.526  1.00  0.00     0.029 A 
ATOM     18  N   UNL A   1      38.543  31.120  33.012  1.00  0.00    -0.354 N 
ATOM     19  C   UNL A   1      38.785  33.116  36.910  1.00  0.00     0.074 A 
ATOM     20  C   UNL A   1      37.557  33.831  37.180  1.00  0.00     0.031 C 
ATOM     21  C   UNL A   1      37.618  30.722  31.010  1.00  0.00     0.029 A 
ATOM     22  C   UNL A   1      38.691  30.326  31.902  1.00  0.00     0.049 A 
ATOM     23  H   UNL A   1      39.109  31.043  33.814  1.00  0.00     0.167 HD
ATOM     24  C   UNL A   1      39.839  33.010  37.753  1.00  0.00     0.037 A 
ATOM     25  C   UNL A   1      39.649  29.438  31.586  1.00  0.00     0.037 A 
ATOM     26  C   UNL A   1      41.010  32.227  37.444  1.00  0.00     0.049 A 
ATOM     27  C   UNL A   1      40.780  29.301  32.551  1.00  0.00     0.074 A 
ATOM     28  C   UNL A   1      42.167  32.059  38.179  1.00  0.00     0.029 A 
ATOM     29  N   UNL A   1      41.150  31.456  36.293  1.00  0.00    -0.354 N 
ATOM     30  N   UNL A   1      40.941  29.899  33.709  1.00  0.00    -0.248 NA
ATOM     31  C   UNL A   1      41.884  28.430  32.152  1.00  0.00     0.031 C 
ATOM     32  C   UNL A   1      43.016  31.203  37.463  1.00  0.00     0.029 A 
ATOM     33  C   UNL A   1      42.373  30.808  36.298  1.00  0.00     0.049 A 
ATOM     34  H   UNL A   1      40.476  31.381  35.579  1.00  0.00     0.167 HD
ATOM     35  C   UNL A   1      42.186  29.510  34.164  1.00  0.00     0.074 A 
ATOM     36  C   UNL A   1      42.712  28.581  33.177  1.00  0.00     0.031 C 
ATOM     37  C   UNL A   1      42.848  29.903  35.280  1.00  0.00     0.037 A 
BRANCH  24  38
ATOM     38  C   UNL A   1      39.806  33.826  39.014  1.00  0.00     0.064 A 
ATOM     39  C   UNL A   1      40.374  35.105  39.106  1.00  0.00     0.173 A 
ATOM     40  C   UNL A   1      39.202  33.298  40.168  1.00  0.00     0.173 A 
ATOM     41  F   UNL A   1      40.985  35.649  38.043  1.00  0.00    -0.203 F 
ATOM     42  C   UNL A   1      40.366  35.810  40.309  1.00  0.00     0.198 A 
ATOM     43  C   UNL A   1      39.172  34.016  41.363  1.00  0.00     0.198 A 
ATOM     44  F   UNL A   1      38.646  32.078  40.142  1.00  0.00    -0.203 F 
ATOM     45  F   UNL A   1      40.963  37.008  40.387  1.00  0.00    -0.200 F 
ATOM     46  C   UNL A   1      39.763  35.268  41.434  1.00  0.00     0.200 A 
ATOM     47  F   UNL A   1      38.585  33.489  42.446  1.00  0.00    -0.200 F 
ATOM     48  F   UNL A   1      39.762  35.945  42.592  1.00  0.00    -0.200 F 
ENDBRANCH  24  38
BRANCH  25  49
ATOM     49  C   UNL A   1      39.600  28.759  30.266  1.00  0.00     0.064 A 
ATOM     50  C   UNL A   1      40.143  29.356  29.123  1.00  0.00     0.173 A 
ATOM     51  C   UNL A   1      39.131  27.438  30.149  1.00  0.00     0.173 A 
ATOM     52  F   UNL A   1      40.586  30.621  29.174  1.00  0.00    -0.203 F 
ATOM     53  C   UNL A   1      40.245  28.650  27.924  1.00  0.00     0.198 A 
ATOM     54  C   UNL A   1      39.274  26.720  28.965  1.00  0.00     0.198 A 
ATOM     55  F   UNL A   1      38.611  26.813  31.216  1.00  0.00    -0.203 F 
ATOM     56  F   UNL A   1      40.765  29.244  26.841  1.00  0.00    -0.200 F 
ATOM     57  C   UNL A   1      39.831  27.327  27.852  1.00  0.00     0.200 A 
ATOM     58  F   UNL A   1      38.907  25.431  28.916  1.00  0.00    -0.200 F 
ATOM     59  F   UNL A   1      39.978  26.635  26.715  1.00  0.00    -0.200 F 
ENDBRANCH  25  49
BRANCH  37  60
ATOM     60  C   UNL A   1      44.208  29.315  35.463  1.00  0.00     0.064 A 
ATOM     61  C   UNL A   1      45.347  29.951  34.951  1.00  0.00     0.173 A 
ATOM     62  C   UNL A   1      44.368  28.109  36.158  1.00  0.00     0.173 A 
ATOM     63  F   UNL A   1      45.229  31.095  34.261  1.00  0.00    -0.203 F 
ATOM     64  C   UNL A   1      46.606  29.384  35.112  1.00  0.00     0.198 A 
ATOM     65  C   UNL A   1      45.631  27.557  36.333  1.00  0.00     0.198 A 
ATOM     66  F   UNL A   1      43.299  27.470  36.658  1.00  0.00    -0.203 F 
ATOM     67  F   UNL A   1      47.680  29.980  34.579  1.00  0.00    -0.200 F 
ATOM     68  C   UNL A   1      46.746  28.190  35.806  1.00  0.00     0.200 A 
ATOM     69  F   UNL A   1      45.767  26.405  37.004  1.00  0.00    -0.200 F 
ATOM     70  F   UNL A   1      47.960  27.642  35.956  1.00  0.00    -0.200 F 
ENDBRANCH  37  60
ENDBRANCH  11  12
ENDBRANCH   4   6
ENDBRANCH   3   4
ENDBRANCH   2   3
ENDBRANCH   1   2
BRANCH   1  71
ATOM     71  O   UNL A   1      34.790  34.327  27.706  1.00  0.00    -0.374 OA
BRANCH  71  72
ATOM     72  C   UNL A   1      35.314  33.395  28.665  1.00  0.00     0.202 C 
BRANCH  72  73
ATOM     73  C   UNL A   1      35.716  32.068  28.022  1.00  0.00     0.261 C 
BRANCH  73  74
ATOM     74  O   UNL A   1      34.521  31.310  27.783  1.00  0.00    -0.461 OA
BRANCH  74  75
ATOM     75  C   UNL A   1      34.653  29.960  27.806  1.00  0.00     0.335 C 
ATOM     76  O   UNL A   1      35.554  29.349  28.367  1.00  0.00    -0.249 OA
BRANCH  75  77
ATOM     77  C   UNL A   1      33.480  29.304  27.073  1.00  0.00     0.232 C 
ATOM     78  C   UNL A   1      33.200  30.024  25.763  1.00  0.00     0.087 C 
ATOM     79  O   UNL A   1      33.702  27.929  26.739  1.00  0.00    -0.355 OA
ATOM     80  C   UNL A   1      32.841  28.934  24.742  1.00  0.00     0.123 C 
ATOM     81  C   UNL A   1      32.878  27.619  25.593  1.00  0.00     0.186 C 
BRANCH  80  82
ATOM     82  C   UNL A   1      31.551  29.322  24.032  1.00  0.00    -0.013 A 
ATOM     83  C   UNL A   1      31.298  28.777  22.753  1.00  0.00     0.008 A 
ATOM     84  C   UNL A   1      30.635  30.251  24.541  1.00  0.00     0.008 A 
ATOM     85  C   UNL A   1      30.191  29.170  21.999  1.00  0.00     0.021 A 
ATOM     86  C   UNL A   1      29.528  30.650  23.785  1.00  0.00     0.021 A 
ATOM     87  C   UNL A   1      29.314  30.114  22.517  1.00  0.00     0.041 A 
ATOM     88  Cl  UNL A   1      27.968  30.635  21.584  1.00  0.00    -0.084 Cl
ENDBRANCH  80  82
BRANCH  80  89
ATOM     89  O   UNL A   1      33.892  28.967  23.753  1.00  0.00    -0.382 OA
ATOM     90  H   UNL A   1      34.577  29.595  24.029  1.00  0.00     0.212 HD
ENDBRANCH  80  89
BRANCH  81  91
ATOM     91  C   UNL A   1      33.431  26.369  24.927  1.00  0.00    -0.016 A 
ATOM     92  C   UNL A   1      34.417  25.620  25.575  1.00  0.00     0.008 A 
ATOM     93  C   UNL A   1      32.973  25.886  23.698  1.00  0.00     0.008 A 
ATOM     94  C   UNL A   1      34.976  24.464  25.031  1.00  0.00     0.021 A 
ATOM     95  C   UNL A   1      33.511  24.709  23.145  1.00  0.00     0.021 A 
ATOM     96  C   UNL A   1      34.517  24.008  23.810  1.00  0.00     0.041 A 
ATOM     97  Cl  UNL A   1      35.184  22.577  23.131  1.00  0.00    -0.084 Cl
ENDBRANCH  81  91
ENDBRANCH  75  77
ENDBRANCH  74  75
ENDBRANCH  73  74
ENDBRANCH  72  73
ENDBRANCH  71  72
ENDBRANCH   1  71
TORSDOF 17
ENDMDL
MODEL 3
REMARK VINA RESULT:     -11.7      7.588     12.225
REMARK SMILES O=C(OCCOCCOC(=O)[C@H]1C[C@](O)(c2ccc(Cl)cc2)[C@@H](c2ccc(Cl)cc2)O1)c1ccc(-c2c3nc(c(-c4c(F)c(F)c(F)c(F)c4F)c4ccc([nH]4)c(-c4c(F)c(F)c(F)c(F)c4F)c4nc(c(-c5c(F)c(F)c(F)c(F)c5F)c5ccc2[nH]5)C=C4)C=C3)cc1
REMARK SMILES IDX 5 1 4 2 3 3 2 4 1 5 32 6 33 7 94 8 34 9 93 10 35 11 36 12
REMARK SMILES IDX 37 13 87 14 38 15 92 16 86 17 88 18 39 19 91 20 85 21 84 22
REMARK SMILES IDX 40 24 72 25 52 26 71 27 53 28 56 29 70 30 89 31 54 32 55 33
REMARK SMILES IDX 69 35 90 36 57 37 41 38 42 39 50 40 43 41 44 42 48 43 51 44
REMARK SMILES IDX 45 45 46 46 49 47 47 48 73 49 74 50 82 51 75 52 76 53 80 54
REMARK SMILES IDX 83 55 77 56 78 57 81 58 79 59 58 60 59 61 67 62 60 63 61 64
REMARK SMILES IDX 65 65 68 66 62 67 63 68 66 69 64 70 6 71 7 72 8 73 9 74
REMARK SMILES IDX 10 75 11 76 12 77 13 78 31 79 14 80 23 81 16 82 17 83 22 84
REMARK SMILES IDX 18 85 21 86 19 87 20 88 15 89 24 91 25 92 30 93 26 94 29 95
REMARK SMILES IDX 27 96 28 97
REMARK H PARENT 88 23 56 34 15 90
REMARK Flexibility Score: inf
ROOT
ATOM      1  C   UNL A   1      44.958  22.585  23.894  1.00  0.00     0.202 C 
ENDROOT
BRANCH   1   2
ATOM      2  C   UNL A   1      46.149  22.685  24.857  1.00  0.00     0.261 C 
BRANCH   2   3
ATOM      3  O   UNL A   1      45.830  23.554  25.991  1.00  0.00    -0.460 OA
BRANCH   3   4
ATOM      4  C   UNL A   1      46.678  24.307  26.741  1.00  0.00     0.338 C 
ATOM      5  O   UNL A   1      47.874  24.079  26.837  1.00  0.00    -0.246 OA
BRANCH   4   6
ATOM      6  C   UNL A   1      46.069  25.467  27.388  1.00  0.00     0.060 A 
ATOM      7  C   UNL A   1      45.102  26.147  26.672  1.00  0.00     0.016 A 
ATOM      8  C   UNL A   1      46.609  25.995  28.559  1.00  0.00     0.016 A 
ATOM      9  C   UNL A   1      44.969  27.492  26.894  1.00  0.00     0.010 A 
ATOM     10  C   UNL A   1      46.244  27.287  28.938  1.00  0.00     0.010 A 
ATOM     11  C   UNL A   1      45.468  28.067  28.069  1.00  0.00    -0.014 A 
BRANCH  11  12
ATOM     12  C   UNL A   1      45.111  29.477  28.337  1.00  0.00     0.031 A 
ATOM     13  C   UNL A   1      43.869  29.826  29.093  1.00  0.00     0.074 A 
ATOM     14  C   UNL A   1      45.994  30.426  27.964  1.00  0.00     0.049 A 
ATOM     15  N   UNL A   1      43.318  31.001  29.250  1.00  0.00    -0.248 NA
ATOM     16  C   UNL A   1      43.125  28.728  29.729  1.00  0.00     0.031 C 
ATOM     17  C   UNL A   1      47.255  30.168  27.255  1.00  0.00     0.029 A 
ATOM     18  N   UNL A   1      46.023  31.774  28.181  1.00  0.00    -0.354 N 
ATOM     19  C   UNL A   1      42.114  30.770  29.899  1.00  0.00     0.074 A 
ATOM     20  C   UNL A   1      42.036  29.350  30.161  1.00  0.00     0.031 C 
ATOM     21  C   UNL A   1      47.999  31.274  27.251  1.00  0.00     0.029 A 
ATOM     22  C   UNL A   1      47.179  32.367  27.737  1.00  0.00     0.049 A 
ATOM     23  H   UNL A   1      45.290  32.269  28.613  1.00  0.00     0.167 HD
ATOM     24  C   UNL A   1      41.159  31.682  30.196  1.00  0.00     0.037 A 
ATOM     25  C   UNL A   1      47.510  33.665  27.636  1.00  0.00     0.037 A 
ATOM     26  C   UNL A   1      41.329  33.095  29.963  1.00  0.00     0.049 A 
ATOM     27  C   UNL A   1      46.459  34.656  28.013  1.00  0.00     0.074 A 
ATOM     28  C   UNL A   1      40.439  34.129  30.176  1.00  0.00     0.029 A 
ATOM     29  N   UNL A   1      42.502  33.670  29.478  1.00  0.00    -0.354 N 
ATOM     30  N   UNL A   1      45.256  34.429  28.487  1.00  0.00    -0.248 NA
ATOM     31  C   UNL A   1      46.772  36.066  27.786  1.00  0.00     0.031 C 
ATOM     32  C   UNL A   1      41.065  35.326  29.799  1.00  0.00     0.029 A 
ATOM     33  C   UNL A   1      42.359  35.043  29.386  1.00  0.00     0.049 A 
ATOM     34  H   UNL A   1      43.315  33.171  29.237  1.00  0.00     0.167 HD
ATOM     35  C   UNL A   1      44.647  35.664  28.580  1.00  0.00     0.074 A 
ATOM     36  C   UNL A   1      45.638  36.643  28.161  1.00  0.00     0.031 C 
ATOM     37  C   UNL A   1      43.378  35.965  28.950  1.00  0.00     0.037 A 
BRANCH  24  38
ATOM     38  C   UNL A   1      39.839  31.169  30.699  1.00  0.00     0.064 A 
ATOM     39  C   UNL A   1      39.476  31.210  32.053  1.00  0.00     0.173 A 
ATOM     40  C   UNL A   1      38.923  30.604  29.796  1.00  0.00     0.173 A 
ATOM     41  F   UNL A   1      40.321  31.716  32.963  1.00  0.00    -0.203 F 
ATOM     42  C   UNL A   1      38.261  30.678  32.487  1.00  0.00     0.198 A 
ATOM     43  C   UNL A   1      37.699  30.097  30.229  1.00  0.00     0.198 A 
ATOM     44  F   UNL A   1      39.217  30.534  28.489  1.00  0.00    -0.203 F 
ATOM     45  F   UNL A   1      37.959  30.679  33.793  1.00  0.00    -0.200 F 
ATOM     46  C   UNL A   1      37.373  30.126  31.575  1.00  0.00     0.200 A 
ATOM     47  F   UNL A   1      36.842  29.567  29.344  1.00  0.00    -0.200 F 
ATOM     48  F   UNL A   1      36.210  29.609  31.996  1.00  0.00    -0.200 F 
ENDBRANCH  24  38
BRANCH  25  49
ATOM     49  C   UNL A   1      48.822  34.034  27.044  1.00  0.00     0.064 A 
ATOM     50  C   UNL A   1      48.911  34.559  25.750  1.00  0.00     0.173 A 
ATOM     51  C   UNL A   1      49.999  33.996  27.813  1.00  0.00     0.173 A 
ATOM     52  F   UNL A   1      47.822  34.601  24.967  1.00  0.00    -0.203 F 
ATOM     53  C   UNL A   1      50.118  35.058  25.260  1.00  0.00     0.198 A 
ATOM     54  C   UNL A   1      51.192  34.534  27.339  1.00  0.00     0.198 A 
ATOM     55  F   UNL A   1      49.968  33.512  29.064  1.00  0.00    -0.203 F 
ATOM     56  F   UNL A   1      50.180  35.553  24.016  1.00  0.00    -0.200 F 
ATOM     57  C   UNL A   1      51.251  35.066  26.061  1.00  0.00     0.200 A 
ATOM     58  F   UNL A   1      52.270  34.573  28.134  1.00  0.00    -0.200 F 
ATOM     59  F   UNL A   1      52.395  35.593  25.607  1.00  0.00    -0.200 F 
ENDBRANCH  25  49
BRANCH  37  60
ATOM     60  C   UNL A   1      43.021  37.415  28.908  1.00  0.00     0.064 A 
ATOM     61  C   UNL A   1      43.408  38.286  29.936  1.00  0.00     0.173 A 
ATOM     62  C   UNL A   1      42.290  37.931  27.830  1.00  0.00     0.173 A 
ATOM     63  F   UNL A   1      44.088  37.822  30.995  1.00  0.00    -0.203 F 
ATOM     64  C   UNL A   1      43.054  39.629  29.894  1.00  0.00     0.198 A 
ATOM     65  C   UNL A   1      41.957  39.279  27.784  1.00  0.00     0.198 A 
ATOM     66  F   UNL A   1      41.900  37.126  26.831  1.00  0.00    -0.203 F 
ATOM     67  F   UNL A   1      43.392  40.440  30.906  1.00  0.00    -0.200 F 
ATOM     68  C   UNL A   1      42.332  40.125  28.817  1.00  0.00     0.200 A 
ATOM     69  F   UNL A   1      41.261  39.758  26.743  1.00  0.00    -0.200 F 
ATOM     70  F   UNL A   1      41.988  41.419  28.782  1.00  0.00    -0.200 F 
ENDBRANCH  37  60
ENDBRANCH  11  12
ENDBRANCH   4   6
ENDBRANCH   3   4
ENDBRANCH   2   3
ENDBRANCH   1   2
BRANCH   1  71
ATOM     71  O   UNL A   1      44.527  21.253  23.603  1.00  0.00    -0.374 OA
BRANCH  71  72
ATOM     72  C   UNL A   1      45.273  20.208  24.247  1.00  0.00     0.202 C 
BRANCH  72  73
ATOM     73  C   UNL A   1      44.450  18.931  24.419  1.00  0.00     0.261 C 
BRANCH  73  74
ATOM     74  O   UNL A   1      43.098  19.310  24.708  1.00  0.00    -0.461 OA
BRANCH  74  75
ATOM     75  C   UNL A   1      42.529  18.723  25.792  1.00  0.00     0.335 C 
ATOM     76  O   UNL A   1      42.437  17.516  25.973  1.00  0.00    -0.249 OA
BRANCH  75  77
ATOM     77  C   UNL A   1      42.065  19.791  26.786  1.00  0.00     0.232 C 
ATOM     78  C   UNL A   1      42.930  21.037  26.673  1.00  0.00     0.087 C 
ATOM     79  O   UNL A   1      40.713  20.219  26.588  1.00  0.00    -0.355 OA
ATOM     80  C   UNL A   1      41.983  22.234  26.840  1.00  0.00     0.123 C 
ATOM     81  C   UNL A   1      40.596  21.559  27.115  1.00  0.00     0.186 C 
BRANCH  80  82
ATOM     82  C   UNL A   1      42.561  23.187  27.878  1.00  0.00    -0.013 A 
ATOM     83  C   UNL A   1      43.535  22.692  28.775  1.00  0.00     0.008 A 
ATOM     84  C   UNL A   1      42.126  24.507  28.045  1.00  0.00     0.008 A 
ATOM     85  C   UNL A   1      44.029  23.477  29.818  1.00  0.00     0.021 A 
ATOM     86  C   UNL A   1      42.617  25.293  29.094  1.00  0.00     0.021 A 
ATOM     87  C   UNL A   1      43.560  24.775  29.979  1.00  0.00     0.041 A 
ATOM     88  Cl  UNL A   1      44.132  25.738  31.282  1.00  0.00    -0.084 Cl
ENDBRANCH  80  82
BRANCH  80  89
ATOM     89  O   UNL A   1      42.004  22.927  25.574  1.00  0.00    -0.382 OA
ATOM     90  H   UNL A   1      41.709  23.842  25.702  1.00  0.00     0.212 HD
ENDBRANCH  80  89
BRANCH  81  91
ATOM     91  C   UNL A   1      39.365  22.210  26.505  1.00  0.00    -0.016 A 
ATOM     92  C   UNL A   1      38.549  21.474  25.643  1.00  0.00     0.008 A 
ATOM     93  C   UNL A   1      38.966  23.519  26.792  1.00  0.00     0.008 A 
ATOM     94  C   UNL A   1      37.406  21.998  25.041  1.00  0.00     0.021 A 
ATOM     95  C   UNL A   1      37.803  24.057  26.210  1.00  0.00     0.021 A 
ATOM     96  C   UNL A   1      37.033  23.297  25.330  1.00  0.00     0.041 A 
ATOM     97  Cl  UNL A   1      35.619  23.956  24.608  1.00  0.00    -0.084 Cl
ENDBRANCH  81  91
ENDBRANCH  75  77
ENDBRANCH  74  75
ENDBRANCH  73  74
ENDBRANCH  72  73
ENDBRANCH  71  72
ENDBRANCH   1  71
TORSDOF 17
ENDMDL
