MODEL 1
REMARK VINA RESULT:     -10.8      0.000      0.000
REMARK SMILES CC[C@@](C)(NC(=O)Nc1cccc(C[NH2+]C)c1)C(=O)OCCOCCOC(=O)c1ccc(-c2c3nc(c(-c4c(F)c(F)c(F)c(F)c4F)c4ccc([nH]4)c(-c4c(F)c(F)c(F)c(F)c4F)c4nc(c(-c5c(F)c(F)c(F)c(F)c5F)c5ccc2[nH]5)C=C4)C=C3)cc1
REMARK SMILES IDX 22 1 21 2 20 3 18 4 19 5 3 6 4 7 2 8 1 9 5 10 6 11 7 13 8 14
REMARK SMILES IDX 9 16 10 17 17 18 11 19 13 20 12 21 14 22 15 23 16 24 23 27
REMARK SMILES IDX 24 28 25 29 26 30 27 31 28 32 29 33 30 34 91 35 31 36 90 37
REMARK SMILES IDX 32 38 33 39 34 40 84 41 35 42 89 43 83 44 85 45 36 46 88 47
REMARK SMILES IDX 82 48 81 49 37 51 69 52 49 53 68 54 50 55 53 56 67 57 86 58
REMARK SMILES IDX 51 59 52 60 66 62 87 63 54 64 38 65 39 66 47 67 40 68 41 69
REMARK SMILES IDX 45 70 48 71 42 72 43 73 46 74 44 75 70 76 71 77 79 78 72 79
REMARK SMILES IDX 73 80 77 81 80 82 74 83 75 84 78 85 76 86 55 87 56 88 64 89
REMARK SMILES IDX 57 90 58 91 62 92 65 93 59 94 60 95 63 96 61 97
REMARK H PARENT 5 12 8 15 15 25 15 26 85 50 53 61
REMARK Flexibility Score: inf
ROOT
ATOM      1  C   UNL A   1      36.050  23.089  24.368  1.00  0.00     0.202 C 
ENDROOT
BRANCH   1   2
ATOM      2  C   UNL A   1      34.540  22.999  23.949  1.00  0.00     0.261 C 
BRANCH   2   3
ATOM      3  O   UNL A   1      33.928  24.303  23.753  1.00  0.00    -0.462 OA
BRANCH   3   4
ATOM      4  C   UNL A   1      32.798  24.758  24.397  1.00  0.00     0.331 C 
ATOM      5  O   UNL A   1      32.796  25.116  25.572  1.00  0.00    -0.249 OA
BRANCH   4   6
ATOM      6  C   UNL A   1      31.497  24.857  23.387  1.00  0.00     0.136 C 
ATOM      7  C   UNL A   1      30.751  23.526  23.627  1.00  0.00     0.047 C 
BRANCH   6   8
ATOM      8  C   UNL A   1      30.324  25.907  23.123  1.00  0.00     0.037 C 
ATOM      9  C   UNL A   1      29.204  26.309  24.057  1.00  0.00     0.007 C 
ENDBRANCH   6   8
BRANCH   6  10
ATOM     10  N   UNL A   1      32.194  24.934  22.121  1.00  0.00    -0.322 N 
ATOM     11  C   UNL A   1      32.724  26.058  21.594  1.00  0.00     0.320 C 
ATOM     12  H   UNL A   1      32.290  24.101  21.605  1.00  0.00     0.166 HD
ATOM     13  O   UNL A   1      33.185  25.951  20.451  1.00  0.00    -0.248 OA
ATOM     14  N   UNL A   1      32.749  27.294  22.175  1.00  0.00    -0.308 N 
ATOM     15  H   UNL A   1      32.959  27.935  21.459  1.00  0.00     0.171 HD
BRANCH  14  16
ATOM     16  C   UNL A   1      32.601  28.067  23.383  1.00  0.00     0.043 A 
ATOM     17  C   UNL A   1      31.445  28.852  23.456  1.00  0.00     0.026 A 
ATOM     18  C   UNL A   1      33.436  28.200  24.499  1.00  0.00     0.035 A 
ATOM     19  C   UNL A   1      31.164  29.681  24.560  1.00  0.00     0.003 A 
ATOM     20  C   UNL A   1      33.181  28.990  25.646  1.00  0.00     0.008 A 
ATOM     21  C   UNL A   1      32.029  29.755  25.653  1.00  0.00     0.010 A 
BRANCH  20  22
ATOM     22  C   UNL A   1      34.084  28.841  26.866  1.00  0.00     0.297 C 
BRANCH  22  23
ATOM     23  N   UNL A   1      35.249  29.727  26.881  1.00  0.00    -0.345 N 
ATOM     24  C   UNL A   1      34.935  30.945  27.640  1.00  0.00     0.331 C 
ATOM     25  H   UNL A   1      35.498  29.978  25.924  1.00  0.00     0.346 HD
ATOM     26  H   UNL A   1      36.034  29.247  27.323  1.00  0.00     0.346 HD
ENDBRANCH  22  23
ENDBRANCH  20  22
ENDBRANCH  14  16
ENDBRANCH   6  10
ENDBRANCH   4   6
ENDBRANCH   3   4
ENDBRANCH   2   3
ENDBRANCH   1   2
BRANCH   1  27
ATOM     27  O   UNL A   1      36.417  22.019  25.226  1.00  0.00    -0.374 OA
BRANCH  27  28
ATOM     28  C   UNL A   1      36.666  20.726  24.672  1.00  0.00     0.202 C 
BRANCH  28  29
ATOM     29  C   UNL A   1      37.955  20.231  25.353  1.00  0.00     0.261 C 
BRANCH  29  30
ATOM     30  O   UNL A   1      38.896  21.315  25.412  1.00  0.00    -0.460 OA
BRANCH  30  31
ATOM     31  C   UNL A   1      39.861  21.093  26.324  1.00  0.00     0.338 C 
ATOM     32  O   UNL A   1      40.511  20.063  26.456  1.00  0.00    -0.246 OA
BRANCH  31  33
ATOM     33  C   UNL A   1      40.231  22.367  26.964  1.00  0.00     0.060 A 
ATOM     34  C   UNL A   1      39.540  23.509  26.534  1.00  0.00     0.016 A 
ATOM     35  C   UNL A   1      41.205  22.453  27.965  1.00  0.00     0.016 A 
ATOM     36  C   UNL A   1      39.896  24.756  27.019  1.00  0.00     0.010 A 
ATOM     37  C   UNL A   1      41.581  23.708  28.438  1.00  0.00     0.010 A 
ATOM     38  C   UNL A   1      40.975  24.858  27.904  1.00  0.00    -0.014 A 
BRANCH  38  39
ATOM     39  C   UNL A   1      41.675  26.153  27.969  1.00  0.00     0.031 A 
ATOM     40  C   UNL A   1      40.984  27.265  28.710  1.00  0.00     0.074 A 
ATOM     41  C   UNL A   1      42.911  26.305  27.473  1.00  0.00     0.049 A 
ATOM     42  N   UNL A   1      41.389  28.482  28.955  1.00  0.00    -0.248 NA
ATOM     43  C   UNL A   1      39.651  26.955  29.258  1.00  0.00     0.031 C 
ATOM     44  C   UNL A   1      43.686  25.268  26.800  1.00  0.00     0.029 A 
ATOM     45  N   UNL A   1      43.731  27.402  27.476  1.00  0.00    -0.354 N 
ATOM     46  C   UNL A   1      40.367  29.074  29.684  1.00  0.00     0.074 A 
ATOM     47  C   UNL A   1      39.306  28.104  29.810  1.00  0.00     0.031 C 
ATOM     48  C   UNL A   1      44.876  25.783  26.444  1.00  0.00     0.029 A 
ATOM     49  C   UNL A   1      44.927  27.188  26.842  1.00  0.00     0.049 A 
ATOM     50  H   UNL A   1      43.484  28.260  27.891  1.00  0.00     0.167 HD
ATOM     51  C   UNL A   1      40.323  30.317  30.214  1.00  0.00     0.037 A 
ATOM     52  C   UNL A   1      45.934  28.049  26.604  1.00  0.00     0.037 A 
ATOM     53  C   UNL A   1      41.379  31.279  30.066  1.00  0.00     0.049 A 
ATOM     54  C   UNL A   1      45.818  29.464  27.115  1.00  0.00     0.074 A 
ATOM     55  C   UNL A   1      41.446  32.570  30.552  1.00  0.00     0.029 A 
ATOM     56  N   UNL A   1      42.553  31.050  29.360  1.00  0.00    -0.354 N 
ATOM     57  N   UNL A   1      44.861  30.017  27.821  1.00  0.00    -0.248 NA
ATOM     58  C   UNL A   1      46.928  30.372  26.796  1.00  0.00     0.031 C 
ATOM     59  C   UNL A   1      42.632  33.146  30.086  1.00  0.00     0.029 A 
ATOM     60  C   UNL A   1      43.337  32.191  29.370  1.00  0.00     0.049 A 
ATOM     61  H   UNL A   1      42.792  30.203  28.920  1.00  0.00     0.167 HD
ATOM     62  C   UNL A   1      45.267  31.325  28.060  1.00  0.00     0.074 A 
ATOM     63  C   UNL A   1      46.563  31.477  27.431  1.00  0.00     0.031 C 
ATOM     64  C   UNL A   1      44.628  32.311  28.739  1.00  0.00     0.037 A 
BRANCH  51  65
ATOM     65  C   UNL A   1      39.075  30.709  30.947  1.00  0.00     0.064 A 
ATOM     66  C   UNL A   1      38.006  31.352  30.303  1.00  0.00     0.173 A 
ATOM     67  C   UNL A   1      38.952  30.448  32.320  1.00  0.00     0.173 A 
ATOM     68  F   UNL A   1      38.083  31.649  28.997  1.00  0.00    -0.203 F 
ATOM     69  C   UNL A   1      36.875  31.748  31.014  1.00  0.00     0.198 A 
ATOM     70  C   UNL A   1      37.805  30.814  33.019  1.00  0.00     0.198 A 
ATOM     71  F   UNL A   1      39.947  29.842  32.985  1.00  0.00    -0.203 F 
ATOM     72  F   UNL A   1      35.893  32.416  30.391  1.00  0.00    -0.200 F 
ATOM     73  C   UNL A   1      36.773  31.472  32.369  1.00  0.00     0.200 A 
ATOM     74  F   UNL A   1      37.706  30.539  34.327  1.00  0.00    -0.200 F 
ATOM     75  F   UNL A   1      35.684  31.851  33.051  1.00  0.00    -0.200 F 
ENDBRANCH  51  65
BRANCH  52  76
ATOM     76  C   UNL A   1      47.127  27.601  25.842  1.00  0.00     0.064 A 
ATOM     77  C   UNL A   1      47.173  27.698  24.445  1.00  0.00     0.173 A 
ATOM     78  C   UNL A   1      48.242  27.056  26.495  1.00  0.00     0.173 A 
ATOM     79  F   UNL A   1      46.123  28.192  23.772  1.00  0.00    -0.203 F 
ATOM     80  C   UNL A   1      48.280  27.247  23.729  1.00  0.00     0.198 A 
ATOM     81  C   UNL A   1      49.361  26.633  25.781  1.00  0.00     0.198 A 
ATOM     82  F   UNL A   1      48.249  26.941  27.831  1.00  0.00    -0.203 F 
ATOM     83  F   UNL A   1      48.278  27.307  22.390  1.00  0.00    -0.200 F 
ATOM     84  C   UNL A   1      49.375  26.721  24.397  1.00  0.00     0.200 A 
ATOM     85  F   UNL A   1      50.421  26.138  26.432  1.00  0.00    -0.200 F 
ATOM     86  F   UNL A   1      50.441  26.291  23.708  1.00  0.00    -0.200 F 
ENDBRANCH  52  76
BRANCH  64  87
ATOM     87  C   UNL A   1      45.339  33.628  28.874  1.00  0.00     0.064 A 
ATOM     88  C   UNL A   1      45.144  34.671  27.956  1.00  0.00     0.173 A 
ATOM     89  C   UNL A   1      46.183  33.866  29.969  1.00  0.00     0.173 A 
ATOM     90  F   UNL A   1      44.356  34.491  26.886  1.00  0.00    -0.203 F 
ATOM     91  C   UNL A   1      45.793  35.892  28.115  1.00  0.00     0.198 A 
ATOM     92  C   UNL A   1      46.800  35.100  30.145  1.00  0.00     0.198 A 
ATOM     93  F   UNL A   1      46.393  32.906  30.884  1.00  0.00    -0.203 F 
ATOM     94  F   UNL A   1      45.634  36.857  27.198  1.00  0.00    -0.200 F 
ATOM     95  C   UNL A   1      46.611  36.109  29.214  1.00  0.00     0.200 A 
ATOM     96  F   UNL A   1      47.574  35.314  31.218  1.00  0.00    -0.200 F 
ATOM     97  F   UNL A   1      47.225  37.291  29.370  1.00  0.00    -0.200 F 
ENDBRANCH  64  87
ENDBRANCH  38  39
ENDBRANCH  31  33
ENDBRANCH  30  31
ENDBRANCH  29  30
ENDBRANCH  28  29
ENDBRANCH  27  28
ENDBRANCH   1  27
TORSDOF 19
ENDMDL
MODEL 2
REMARK VINA RESULT:     -10.8      4.390      9.839
REMARK SMILES CC[C@@](C)(NC(=O)Nc1cccc(C[NH2+]C)c1)C(=O)OCCOCCOC(=O)c1ccc(-c2c3nc(c(-c4c(F)c(F)c(F)c(F)c4F)c4ccc([nH]4)c(-c4c(F)c(F)c(F)c(F)c4F)c4nc(c(-c5c(F)c(F)c(F)c(F)c5F)c5ccc2[nH]5)C=C4)C=C3)cc1
REMARK SMILES IDX 22 1 21 2 20 3 18 4 19 5 3 6 4 7 2 8 1 9 5 10 6 11 7 13 8 14
REMARK SMILES IDX 9 16 10 17 17 18 11 19 13 20 12 21 14 22 15 23 16 24 23 27
REMARK SMILES IDX 24 28 25 29 26 30 27 31 28 32 29 33 30 34 91 35 31 36 90 37
REMARK SMILES IDX 32 38 33 39 34 40 84 41 35 42 89 43 83 44 85 45 36 46 88 47
REMARK SMILES IDX 82 48 81 49 37 51 69 52 49 53 68 54 50 55 53 56 67 57 86 58
REMARK SMILES IDX 51 59 52 60 66 62 87 63 54 64 38 65 39 66 47 67 40 68 41 69
REMARK SMILES IDX 45 70 48 71 42 72 43 73 46 74 44 75 70 76 71 77 79 78 72 79
REMARK SMILES IDX 73 80 77 81 80 82 74 83 75 84 78 85 76 86 55 87 56 88 64 89
REMARK SMILES IDX 57 90 58 91 62 92 65 93 59 94 60 95 63 96 61 97
REMARK H PARENT 5 12 8 15 15 25 15 26 85 50 53 61
REMARK Flexibility Score: inf
ROOT
ATOM      1  C   UNL A   1      33.383  28.413  24.660  1.00  0.00     0.202 C 
ENDROOT
BRANCH   1   2
ATOM      2  C   UNL A   1      33.935  27.092  25.304  1.00  0.00     0.261 C 
BRANCH   2   3
ATOM      3  O   UNL A   1      33.077  25.944  25.063  1.00  0.00    -0.462 OA
BRANCH   3   4
ATOM      4  C   UNL A   1      31.965  25.609  25.805  1.00  0.00     0.331 C 
ATOM      5  O   UNL A   1      31.763  26.037  26.938  1.00  0.00    -0.249 OA
BRANCH   4   6
ATOM      6  C   UNL A   1      30.910  24.661  24.962  1.00  0.00     0.136 C 
ATOM      7  C   UNL A   1      30.335  25.619  23.896  1.00  0.00     0.047 C 
BRANCH   6   8
ATOM      8  C   UNL A   1      30.976  23.253  24.212  1.00  0.00     0.037 C 
ATOM      9  C   UNL A   1      31.760  22.895  22.969  1.00  0.00     0.007 C 
ENDBRANCH   6   8
BRANCH   6  10
ATOM     10  N   UNL A   1      29.991  24.334  26.031  1.00  0.00    -0.322 N 
ATOM     11  C   UNL A   1      30.146  23.315  26.904  1.00  0.00     0.320 C 
ATOM     12  H   UNL A   1      29.191  24.899  26.132  1.00  0.00     0.166 HD
ATOM     13  O   UNL A   1      29.203  23.122  27.679  1.00  0.00    -0.248 OA
ATOM     14  N   UNL A   1      31.209  22.457  26.970  1.00  0.00    -0.308 N 
ATOM     15  H   UNL A   1      30.916  21.692  27.515  1.00  0.00     0.171 HD
BRANCH  14  16
ATOM     16  C   UNL A   1      32.572  22.187  26.587  1.00  0.00     0.043 A 
ATOM     17  C   UNL A   1      33.529  23.059  27.117  1.00  0.00     0.026 A 
ATOM     18  C   UNL A   1      33.114  21.212  25.741  1.00  0.00     0.035 A 
ATOM     19  C   UNL A   1      34.902  22.943  26.821  1.00  0.00     0.003 A 
ATOM     20  C   UNL A   1      34.487  21.032  25.442  1.00  0.00     0.008 A 
ATOM     21  C   UNL A   1      35.383  21.935  25.984  1.00  0.00     0.010 A 
BRANCH  20  22
ATOM     22  C   UNL A   1      34.924  19.783  24.686  1.00  0.00     0.297 C 
BRANCH  22  23
ATOM     23  N   UNL A   1      34.267  18.545  25.109  1.00  0.00    -0.345 N 
ATOM     24  C   UNL A   1      34.821  17.410  24.361  1.00  0.00     0.331 C 
ATOM     25  H   UNL A   1      33.265  18.614  24.929  1.00  0.00     0.346 HD
ATOM     26  H   UNL A   1      34.425  18.402  26.107  1.00  0.00     0.346 HD
ENDBRANCH  22  23
ENDBRANCH  20  22
ENDBRANCH  14  16
ENDBRANCH   6  10
ENDBRANCH   4   6
ENDBRANCH   3   4
ENDBRANCH   2   3
ENDBRANCH   1   2
BRANCH   1  27
ATOM     27  O   UNL A   1      31.973  28.511  24.801  1.00  0.00    -0.374 OA
BRANCH  27  28
ATOM     28  C   UNL A   1      31.416  29.566  25.587  1.00  0.00     0.202 C 
BRANCH  28  29
ATOM     29  C   UNL A   1      32.578  30.542  25.843  1.00  0.00     0.261 C 
BRANCH  29  30
ATOM     30  O   UNL A   1      32.896  30.532  27.244  1.00  0.00    -0.460 OA
BRANCH  30  31
ATOM     31  C   UNL A   1      33.598  31.622  27.608  1.00  0.00     0.338 C 
ATOM     32  O   UNL A   1      33.139  32.732  27.851  1.00  0.00    -0.246 OA
BRANCH  31  33
ATOM     33  C   UNL A   1      34.973  31.224  27.954  1.00  0.00     0.060 A 
ATOM     34  C   UNL A   1      35.199  29.855  28.152  1.00  0.00     0.016 A 
ATOM     35  C   UNL A   1      36.018  32.147  28.067  1.00  0.00     0.016 A 
ATOM     36  C   UNL A   1      36.442  29.414  28.573  1.00  0.00     0.010 A 
ATOM     37  C   UNL A   1      37.264  31.709  28.512  1.00  0.00     0.010 A 
ATOM     38  C   UNL A   1      37.444  30.354  28.836  1.00  0.00    -0.014 A 
BRANCH  38  39
ATOM     39  C   UNL A   1      38.512  29.958  29.770  1.00  0.00     0.031 A 
ATOM     40  C   UNL A   1      39.529  28.971  29.266  1.00  0.00     0.074 A 
ATOM     41  C   UNL A   1      38.627  30.525  30.980  1.00  0.00     0.049 A 
ATOM     42  N   UNL A   1      40.589  28.490  29.858  1.00  0.00    -0.248 NA
ATOM     43  C   UNL A   1      39.324  28.464  27.897  1.00  0.00     0.031 C 
ATOM     44  C   UNL A   1      37.732  31.538  31.528  1.00  0.00     0.029 A 
ATOM     45  N   UNL A   1      39.563  30.325  31.959  1.00  0.00    -0.354 N 
ATOM     46  C   UNL A   1      41.172  27.631  28.934  1.00  0.00     0.074 A 
ATOM     47  C   UNL A   1      40.333  27.623  27.760  1.00  0.00     0.031 C 
ATOM     48  C   UNL A   1      38.159  31.870  32.759  1.00  0.00     0.029 A 
ATOM     49  C   UNL A   1      39.338  31.071  33.086  1.00  0.00     0.049 A 
ATOM     50  H   UNL A   1      40.322  29.706  31.863  1.00  0.00     0.167 HD
ATOM     51  C   UNL A   1      42.315  26.920  29.054  1.00  0.00     0.037 A 
ATOM     52  C   UNL A   1      40.012  31.082  34.252  1.00  0.00     0.037 A 
ATOM     53  C   UNL A   1      43.131  26.923  30.235  1.00  0.00     0.049 A 
ATOM     54  C   UNL A   1      41.226  30.201  34.400  1.00  0.00     0.074 A 
ATOM     55  C   UNL A   1      44.307  26.240  30.475  1.00  0.00     0.029 A 
ATOM     56  N   UNL A   1      42.838  27.642  31.387  1.00  0.00    -0.354 N 
ATOM     57  N   UNL A   1      41.789  29.406  33.521  1.00  0.00    -0.248 NA
ATOM     58  C   UNL A   1      41.902  30.224  35.704  1.00  0.00     0.031 C 
ATOM     59  C   UNL A   1      44.693  26.494  31.795  1.00  0.00     0.029 A 
ATOM     60  C   UNL A   1      43.795  27.391  32.354  1.00  0.00     0.049 A 
ATOM     61  H   UNL A   1      42.065  28.241  31.498  1.00  0.00     0.167 HD
ATOM     62  C   UNL A   1      42.900  28.860  34.152  1.00  0.00     0.074 A 
ATOM     63  C   UNL A   1      42.938  29.426  35.485  1.00  0.00     0.031 C 
ATOM     64  C   UNL A   1      43.811  27.974  33.673  1.00  0.00     0.037 A 
BRANCH  51  65
ATOM     65  C   UNL A   1      42.707  26.050  27.897  1.00  0.00     0.064 A 
ATOM     66  C   UNL A   1      43.571  26.503  26.886  1.00  0.00     0.173 A 
ATOM     67  C   UNL A   1      42.200  24.747  27.791  1.00  0.00     0.173 A 
ATOM     68  F   UNL A   1      44.063  27.750  26.926  1.00  0.00    -0.203 F 
ATOM     69  C   UNL A   1      43.885  25.693  25.797  1.00  0.00     0.198 A 
ATOM     70  C   UNL A   1      42.544  23.929  26.718  1.00  0.00     0.198 A 
ATOM     71  F   UNL A   1      41.365  24.267  28.725  1.00  0.00    -0.203 F 
ATOM     72  F   UNL A   1      44.661  26.168  24.813  1.00  0.00    -0.200 F 
ATOM     73  C   UNL A   1      43.377  24.406  25.718  1.00  0.00     0.200 A 
ATOM     74  F   UNL A   1      42.059  22.681  26.648  1.00  0.00    -0.200 F 
ATOM     75  F   UNL A   1      43.682  23.626  24.671  1.00  0.00    -0.200 F 
ENDBRANCH  51  65
BRANCH  52  76
ATOM     76  C   UNL A   1      39.547  31.946  35.367  1.00  0.00     0.064 A 
ATOM     77  C   UNL A   1      38.625  31.476  36.311  1.00  0.00     0.173 A 
ATOM     78  C   UNL A   1      40.008  33.263  35.505  1.00  0.00     0.173 A 
ATOM     79  F   UNL A   1      38.137  30.230  36.211  1.00  0.00    -0.203 F 
ATOM     80  C   UNL A   1      38.165  32.298  37.339  1.00  0.00     0.198 A 
ATOM     81  C   UNL A   1      39.571  34.075  36.549  1.00  0.00     0.198 A 
ATOM     82  F   UNL A   1      40.891  33.762  34.628  1.00  0.00    -0.203 F 
ATOM     83  F   UNL A   1      37.246  31.840  38.200  1.00  0.00    -0.200 F 
ATOM     84  C   UNL A   1      38.642  33.594  37.461  1.00  0.00     0.200 A 
ATOM     85  F   UNL A   1      40.045  35.322  36.670  1.00  0.00    -0.200 F 
ATOM     86  F   UNL A   1      38.203  34.383  38.451  1.00  0.00    -0.200 F 
ENDBRANCH  52  76
BRANCH  64  87
ATOM     87  C   UNL A   1      44.946  27.593  34.580  1.00  0.00     0.064 A 
ATOM     88  C   UNL A   1      44.878  26.471  35.419  1.00  0.00     0.173 A 
ATOM     89  C   UNL A   1      46.139  28.332  34.567  1.00  0.00     0.173 A 
ATOM     90  F   UNL A   1      43.756  25.738  35.477  1.00  0.00    -0.203 F 
ATOM     91  C   UNL A   1      45.953  26.121  36.232  1.00  0.00     0.198 A 
ATOM     92  C   UNL A   1      47.224  27.957  35.353  1.00  0.00     0.198 A 
ATOM     93  F   UNL A   1      46.261  29.407  33.772  1.00  0.00    -0.203 F 
ATOM     94  F   UNL A   1      45.847  25.076  37.065  1.00  0.00    -0.200 F 
ATOM     95  C   UNL A   1      47.127  26.858  36.191  1.00  0.00     0.200 A 
ATOM     96  F   UNL A   1      48.364  28.659  35.296  1.00  0.00    -0.200 F 
ATOM     97  F   UNL A   1      48.164  26.511  36.966  1.00  0.00    -0.200 F 
ENDBRANCH  64  87
ENDBRANCH  38  39
ENDBRANCH  31  33
ENDBRANCH  30  31
ENDBRANCH  29  30
ENDBRANCH  28  29
ENDBRANCH  27  28
ENDBRANCH   1  27
TORSDOF 19
ENDMDL
MODEL 3
REMARK VINA RESULT:     -10.8      4.143      7.375
REMARK SMILES CC[C@@](C)(NC(=O)Nc1cccc(C[NH2+]C)c1)C(=O)OCCOCCOC(=O)c1ccc(-c2c3nc(c(-c4c(F)c(F)c(F)c(F)c4F)c4ccc([nH]4)c(-c4c(F)c(F)c(F)c(F)c4F)c4nc(c(-c5c(F)c(F)c(F)c(F)c5F)c5ccc2[nH]5)C=C4)C=C3)cc1
REMARK SMILES IDX 22 1 21 2 20 3 18 4 19 5 3 6 4 7 2 8 1 9 5 10 6 11 7 13 8 14
REMARK SMILES IDX 9 16 10 17 17 18 11 19 13 20 12 21 14 22 15 23 16 24 23 27
REMARK SMILES IDX 24 28 25 29 26 30 27 31 28 32 29 33 30 34 91 35 31 36 90 37
REMARK SMILES IDX 32 38 33 39 34 40 84 41 35 42 89 43 83 44 85 45 36 46 88 47
REMARK SMILES IDX 82 48 81 49 37 51 69 52 49 53 68 54 50 55 53 56 67 57 86 58
REMARK SMILES IDX 51 59 52 60 66 62 87 63 54 64 38 65 39 66 47 67 40 68 41 69
REMARK SMILES IDX 45 70 48 71 42 72 43 73 46 74 44 75 70 76 71 77 79 78 72 79
REMARK SMILES IDX 73 80 77 81 80 82 74 83 75 84 78 85 76 86 55 87 56 88 64 89
REMARK SMILES IDX 57 90 58 91 62 92 65 93 59 94 60 95 63 96 61 97
REMARK H PARENT 5 12 8 15 15 25 15 26 85 50 53 61
REMARK Flexibility Score: inf
ROOT
ATOM      1  C   UNL A   1      33.039  28.251  25.140  1.00  0.00     0.202 C 
ENDROOT
BRANCH   1   2
ATOM      2  C   UNL A   1      33.200  27.401  26.449  1.00  0.00     0.261 C 
BRANCH   2   3
ATOM      3  O   UNL A   1      32.808  26.012  26.273  1.00  0.00    -0.462 OA
BRANCH   3   4
ATOM      4  C   UNL A   1      33.209  25.196  25.238  1.00  0.00     0.331 C 
ATOM      5  O   UNL A   1      34.388  24.993  24.964  1.00  0.00    -0.249 OA
BRANCH   4   6
ATOM      6  C   UNL A   1      31.936  24.461  24.488  1.00  0.00     0.136 C 
ATOM      7  C   UNL A   1      31.508  25.483  23.414  1.00  0.00     0.047 C 
BRANCH   6   8
ATOM      8  C   UNL A   1      31.670  23.047  23.795  1.00  0.00     0.037 C 
ATOM      9  C   UNL A   1      32.322  22.482  22.552  1.00  0.00     0.007 C 
ENDBRANCH   6   8
BRANCH   6  10
ATOM     10  N   UNL A   1      31.033  24.361  25.615  1.00  0.00    -0.322 N 
ATOM     11  C   UNL A   1      30.995  23.336  26.493  1.00  0.00     0.320 C 
ATOM     12  H   UNL A   1      30.397  25.100  25.754  1.00  0.00     0.166 HD
ATOM     13  O   UNL A   1      30.082  23.372  27.326  1.00  0.00    -0.248 OA
ATOM     14  N   UNL A   1      31.827  22.251  26.510  1.00  0.00    -0.308 N 
ATOM     15  H   UNL A   1      31.395  21.578  27.083  1.00  0.00     0.171 HD
BRANCH  14  16
ATOM     16  C   UNL A   1      33.062  21.665  26.051  1.00  0.00     0.043 A 
ATOM     17  C   UNL A   1      32.930  20.477  25.324  1.00  0.00     0.026 A 
ATOM     18  C   UNL A   1      34.392  22.061  26.235  1.00  0.00     0.035 A 
ATOM     19  C   UNL A   1      34.042  19.769  24.826  1.00  0.00     0.003 A 
ATOM     20  C   UNL A   1      35.539  21.405  25.725  1.00  0.00     0.008 A 
ATOM     21  C   UNL A   1      35.345  20.227  25.026  1.00  0.00     0.010 A 
BRANCH  20  22
ATOM     22  C   UNL A   1      36.895  22.096  25.824  1.00  0.00     0.297 C 
BRANCH  22  23
ATOM     23  N   UNL A   1      36.838  23.556  25.906  1.00  0.00    -0.345 N 
ATOM     24  C   UNL A   1      38.180  24.089  26.171  1.00  0.00     0.331 C 
ATOM     25  H   UNL A   1      36.208  23.829  26.661  1.00  0.00     0.346 HD
ATOM     26  H   UNL A   1      36.494  23.931  25.022  1.00  0.00     0.346 HD
ENDBRANCH  22  23
ENDBRANCH  20  22
ENDBRANCH  14  16
ENDBRANCH   6  10
ENDBRANCH   4   6
ENDBRANCH   3   4
ENDBRANCH   2   3
ENDBRANCH   1   2
BRANCH   1  27
ATOM     27  O   UNL A   1      32.129  29.325  25.325  1.00  0.00    -0.374 OA
BRANCH  27  28
ATOM     28  C   UNL A   1      31.833  29.778  26.648  1.00  0.00     0.202 C 
BRANCH  28  29
ATOM     29  C   UNL A   1      32.399  31.207  26.726  1.00  0.00     0.261 C 
BRANCH  29  30
ATOM     30  O   UNL A   1      33.090  31.368  27.975  1.00  0.00    -0.460 OA
BRANCH  30  31
ATOM     31  C   UNL A   1      33.919  32.428  27.958  1.00  0.00     0.338 C 
ATOM     32  O   UNL A   1      33.592  33.606  28.037  1.00  0.00    -0.246 OA
BRANCH  31  33
ATOM     33  C   UNL A   1      35.308  31.965  28.119  1.00  0.00     0.060 A 
ATOM     34  C   UNL A   1      35.531  30.588  27.973  1.00  0.00     0.016 A 
ATOM     35  C   UNL A   1      36.367  32.839  28.386  1.00  0.00     0.016 A 
ATOM     36  C   UNL A   1      36.792  30.065  28.204  1.00  0.00     0.010 A 
ATOM     37  C   UNL A   1      37.632  32.312  28.641  1.00  0.00     0.010 A 
ATOM     38  C   UNL A   1      37.817  30.919  28.622  1.00  0.00    -0.014 A 
BRANCH  38  39
ATOM     39  C   UNL A   1      38.934  30.318  29.373  1.00  0.00     0.031 A 
ATOM     40  C   UNL A   1      39.089  30.730  30.811  1.00  0.00     0.074 A 
ATOM     41  C   UNL A   1      39.714  29.375  28.826  1.00  0.00     0.049 A 
ATOM     42  N   UNL A   1      39.950  30.326  31.705  1.00  0.00    -0.248 NA
ATOM     43  C   UNL A   1      38.131  31.733  31.310  1.00  0.00     0.031 C 
ATOM     44  C   UNL A   1      39.597  28.863  27.465  1.00  0.00     0.029 A 
ATOM     45  N   UNL A   1      40.759  28.676  29.368  1.00  0.00    -0.354 N 
ATOM     46  C   UNL A   1      39.635  31.021  32.865  1.00  0.00     0.074 A 
ATOM     47  C   UNL A   1      38.533  31.901  32.557  1.00  0.00     0.031 C 
ATOM     48  C   UNL A   1      40.545  27.929  27.272  1.00  0.00     0.029 A 
ATOM     49  C   UNL A   1      41.345  27.804  28.488  1.00  0.00     0.049 A 
ATOM     50  H   UNL A   1      41.061  28.790  30.299  1.00  0.00     0.167 HD
ATOM     51  C   UNL A   1      40.208  30.924  34.086  1.00  0.00     0.037 A 
ATOM     52  C   UNL A   1      42.421  27.012  28.658  1.00  0.00     0.037 A 
ATOM     53  C   UNL A   1      41.316  30.057  34.374  1.00  0.00     0.049 A 
ATOM     54  C   UNL A   1      43.110  26.998  30.000  1.00  0.00     0.074 A 
ATOM     55  C   UNL A   1      41.984  29.877  35.569  1.00  0.00     0.029 A 
ATOM     56  N   UNL A   1      41.929  29.233  33.439  1.00  0.00    -0.354 N 
ATOM     57  N   UNL A   1      42.799  27.639  31.101  1.00  0.00    -0.248 NA
ATOM     58  C   UNL A   1      44.299  26.143  30.120  1.00  0.00     0.031 C 
ATOM     59  C   UNL A   1      43.043  28.992  35.344  1.00  0.00     0.029 A 
ATOM     60  C   UNL A   1      42.991  28.566  34.025  1.00  0.00     0.049 A 
ATOM     61  H   UNL A   1      41.649  29.137  32.501  1.00  0.00     0.167 HD
ATOM     62  C   UNL A   1      43.731  27.243  32.053  1.00  0.00     0.074 A 
ATOM     63  C   UNL A   1      44.611  26.295  31.399  1.00  0.00     0.031 C 
ATOM     64  C   UNL A   1      43.848  27.623  33.351  1.00  0.00     0.037 A 
BRANCH  51  65
ATOM     65  C   UNL A   1      39.676  31.815  35.168  1.00  0.00     0.064 A 
ATOM     66  C   UNL A   1      38.688  31.381  36.068  1.00  0.00     0.173 A 
ATOM     67  C   UNL A   1      40.151  33.128  35.299  1.00  0.00     0.173 A 
ATOM     68  F   UNL A   1      38.181  30.143  35.970  1.00  0.00    -0.203 F 
ATOM     69  C   UNL A   1      38.176  32.241  37.037  1.00  0.00     0.198 A 
ATOM     70  C   UNL A   1      39.661  33.972  36.291  1.00  0.00     0.198 A 
ATOM     71  F   UNL A   1      41.089  33.595  34.461  1.00  0.00    -0.203 F 
ATOM     72  F   UNL A   1      37.190  31.825  37.845  1.00  0.00    -0.200 F 
ATOM     73  C   UNL A   1      38.667  33.532  37.151  1.00  0.00     0.200 A 
ATOM     74  F   UNL A   1      40.143  35.218  36.405  1.00  0.00    -0.200 F 
ATOM     75  F   UNL A   1      38.175  34.357  38.086  1.00  0.00    -0.200 F 
ENDBRANCH  51  65
BRANCH  52  76
ATOM     76  C   UNL A   1      42.912  26.180  27.531  1.00  0.00     0.064 A 
ATOM     77  C   UNL A   1      43.912  26.647  26.669  1.00  0.00     0.173 A 
ATOM     78  C   UNL A   1      42.384  24.904  27.286  1.00  0.00     0.173 A 
ATOM     79  F   UNL A   1      44.435  27.870  26.847  1.00  0.00    -0.203 F 
ATOM     80  C   UNL A   1      44.351  25.878  25.591  1.00  0.00     0.198 A 
ATOM     81  C   UNL A   1      42.843  24.123  26.229  1.00  0.00     0.198 A 
ATOM     82  F   UNL A   1      41.424  24.410  28.083  1.00  0.00    -0.203 F 
ATOM     83  F   UNL A   1      45.275  26.368  24.754  1.00  0.00    -0.200 F 
ATOM     84  C   UNL A   1      43.820  24.615  25.376  1.00  0.00     0.200 A 
ATOM     85  F   UNL A   1      42.337  22.899  26.032  1.00  0.00    -0.200 F 
ATOM     86  F   UNL A   1      44.245  23.875  24.343  1.00  0.00    -0.200 F 
ENDBRANCH  52  76
BRANCH  64  87
ATOM     87  C   UNL A   1      44.941  26.986  34.161  1.00  0.00     0.064 A 
ATOM     88  C   UNL A   1      46.204  27.580  34.297  1.00  0.00     0.173 A 
ATOM     89  C   UNL A   1      44.700  25.790  34.855  1.00  0.00     0.173 A 
ATOM     90  F   UNL A   1      46.489  28.717  33.646  1.00  0.00    -0.203 F 
ATOM     91  C   UNL A   1      47.193  26.985  35.075  1.00  0.00     0.198 A 
ATOM     92  C   UNL A   1      45.678  25.218  35.660  1.00  0.00     0.198 A 
ATOM     93  F   UNL A   1      43.503  25.186  34.768  1.00  0.00    -0.203 F 
ATOM     94  F   UNL A   1      48.410  27.543  35.149  1.00  0.00    -0.200 F 
ATOM     95  C   UNL A   1      46.927  25.811  35.763  1.00  0.00     0.200 A 
ATOM     96  F   UNL A   1      45.412  24.094  36.341  1.00  0.00    -0.200 F 
ATOM     97  F   UNL A   1      47.878  25.247  36.521  1.00  0.00    -0.200 F 
ENDBRANCH  64  87
ENDBRANCH  38  39
ENDBRANCH  31  33
ENDBRANCH  30  31
ENDBRANCH  29  30
ENDBRANCH  28  29
ENDBRANCH  27  28
ENDBRANCH   1  27
TORSDOF 19
ENDMDL
