MODEL 1
REMARK VINA RESULT:     -11.2      0.000      0.000
REMARK SMILES CC[NH+]1CCN(C(=O)c2ccccc2C(=O)OCCOCCOC(=O)c2ccc(-c3c4nc(c(-c5c(F)c(F)c(F)c(F)c5F)c5ccc([nH]5)c(-c5c(F)c(F)c(F)c(F)c5F)c5nc(c(-c6c(F)c(F)c(F)c(F)c6F)c6ccc3[nH]6)C=C5)C=C4)cc2)CC1
REMARK SMILES IDX 20 1 19 2 18 3 17 4 15 5 16 6 14 7 9 8 10 9 11 10 13 11
REMARK SMILES IDX 12 12 7 13 3 14 4 15 90 16 5 18 89 19 6 20 8 21 2 22 1 23
REMARK SMILES IDX 21 24 22 25 23 26 24 27 25 28 26 29 27 30 88 31 28 32 87 33
REMARK SMILES IDX 29 34 30 35 31 36 81 37 32 38 86 39 80 40 82 41 33 42 85 43
REMARK SMILES IDX 79 44 78 45 34 47 66 48 46 49 65 50 47 51 50 52 64 53 83 54
REMARK SMILES IDX 48 55 49 56 63 58 84 59 51 60 35 61 36 62 44 63 37 64 38 65
REMARK SMILES IDX 42 66 45 67 39 68 40 69 43 70 41 71 67 72 68 73 76 74 69 75
REMARK SMILES IDX 70 76 74 77 77 78 71 79 72 80 75 81 73 82 52 83 53 84 61 85
REMARK SMILES IDX 54 86 55 87 59 88 62 89 56 90 57 91 60 92 58 93
REMARK H PARENT 3 17 82 46 50 57
REMARK Flexibility Score: inf
ROOT
ATOM      1  O   UNL A   1      33.973  30.994  27.649  1.00  0.00    -0.374 OA
ENDROOT
BRANCH   1   2
ATOM      2  C   UNL A   1      34.583  29.763  27.256  1.00  0.00     0.202 C 
BRANCH   2   3
ATOM      3  C   UNL A   1      33.778  28.926  26.263  1.00  0.00     0.261 C 
BRANCH   3   4
ATOM      4  O   UNL A   1      33.399  27.673  26.858  1.00  0.00    -0.460 OA
BRANCH   4   5
ATOM      5  C   UNL A   1      32.067  27.522  27.013  1.00  0.00     0.339 C 
ATOM      6  O   UNL A   1      31.394  27.964  27.930  1.00  0.00    -0.246 OA
BRANCH   5   7
ATOM      7  C   UNL A   1      31.451  26.858  25.848  1.00  0.00     0.072 A 
ATOM      8  C   UNL A   1      31.307  25.476  25.687  1.00  0.00     0.054 A 
ATOM      9  C   UNL A   1      30.644  24.977  24.550  1.00  0.00     0.015 A 
ATOM     10  C   UNL A   1      30.156  25.841  23.570  1.00  0.00     0.001 A 
ATOM     11  C   UNL A   1      30.968  27.720  24.846  1.00  0.00     0.016 A 
ATOM     12  C   UNL A   1      30.338  27.213  23.708  1.00  0.00     0.001 A 
BRANCH   8  13
ATOM     13  C   UNL A   1      31.998  24.471  26.511  1.00  0.00     0.255 C 
ATOM     14  N   UNL A   1      35.476  22.443  25.183  1.00  0.00    -0.332 N 
ATOM     15  C   UNL A   1      34.475  21.926  26.126  1.00  0.00     0.284 C 
ATOM     16  C   UNL A   1      35.005  23.653  24.488  1.00  0.00     0.284 C 
ATOM     17  H   UNL A   1      35.561  21.717  24.472  1.00  0.00     0.348 HD
ATOM     18  C   UNL A   1      33.832  22.976  27.043  1.00  0.00     0.181 C 
ATOM     19  C   UNL A   1      34.275  24.704  25.356  1.00  0.00     0.181 C 
ATOM     20  N   UNL A   1      33.300  24.084  26.259  1.00  0.00    -0.327 N 
ATOM     21  O   UNL A   1      31.338  24.015  27.446  1.00  0.00    -0.269 OA
BRANCH  14  22
ATOM     22  C   UNL A   1      36.852  22.507  25.669  1.00  0.00     0.258 C 
ATOM     23  C   UNL A   1      37.896  21.604  25.024  1.00  0.00     0.071 C 
ENDBRANCH  14  22
ENDBRANCH   8  13
ENDBRANCH   5   7
ENDBRANCH   4   5
ENDBRANCH   3   4
ENDBRANCH   2   3
ENDBRANCH   1   2
BRANCH   1  24
ATOM     24  C   UNL A   1      32.624  31.213  27.238  1.00  0.00     0.202 C 
BRANCH  24  25
ATOM     25  C   UNL A   1      32.119  32.661  27.289  1.00  0.00     0.261 C 
BRANCH  25  26
ATOM     26  O   UNL A   1      33.155  33.657  27.290  1.00  0.00    -0.460 OA
BRANCH  26  27
ATOM     27  C   UNL A   1      33.216  34.412  28.414  1.00  0.00     0.338 C 
ATOM     28  O   UNL A   1      32.411  35.243  28.797  1.00  0.00    -0.246 OA
BRANCH  27  29
ATOM     29  C   UNL A   1      34.395  34.040  29.222  1.00  0.00     0.060 A 
ATOM     30  C   UNL A   1      35.664  34.397  28.750  1.00  0.00     0.016 A 
ATOM     31  C   UNL A   1      34.266  33.240  30.359  1.00  0.00     0.016 A 
ATOM     32  C   UNL A   1      36.812  33.927  29.395  1.00  0.00     0.010 A 
ATOM     33  C   UNL A   1      35.417  32.766  30.999  1.00  0.00     0.010 A 
ATOM     34  C   UNL A   1      36.699  33.083  30.507  1.00  0.00    -0.014 A 
BRANCH  34  35
ATOM     35  C   UNL A   1      37.900  32.457  31.122  1.00  0.00     0.031 A 
ATOM     36  C   UNL A   1      38.530  31.254  30.482  1.00  0.00     0.074 A 
ATOM     37  C   UNL A   1      38.422  32.933  32.267  1.00  0.00     0.049 A 
ATOM     38  N   UNL A   1      39.517  30.512  30.916  1.00  0.00    -0.248 NA
ATOM     39  C   UNL A   1      38.001  30.852  29.170  1.00  0.00     0.031 C 
ATOM     40  C   UNL A   1      37.991  34.147  32.947  1.00  0.00     0.029 A 
ATOM     41  N   UNL A   1      39.402  32.424  33.084  1.00  0.00    -0.354 N 
ATOM     42  C   UNL A   1      39.759  29.584  29.914  1.00  0.00     0.074 A 
ATOM     43  C   UNL A   1      38.773  29.814  28.878  1.00  0.00     0.031 C 
ATOM     44  C   UNL A   1      38.618  34.232  34.131  1.00  0.00     0.029 A 
ATOM     45  C   UNL A   1      39.493  33.077  34.287  1.00  0.00     0.049 A 
ATOM     46  H   UNL A   1      39.979  31.667  32.833  1.00  0.00     0.167 HD
ATOM     47  C   UNL A   1      40.739  28.650  29.851  1.00  0.00     0.037 A 
ATOM     48  C   UNL A   1      40.172  32.772  35.408  1.00  0.00     0.037 A 
ATOM     49  C   UNL A   1      41.709  28.409  30.887  1.00  0.00     0.049 A 
ATOM     50  C   UNL A   1      41.111  31.604  35.403  1.00  0.00     0.074 A 
ATOM     51  C   UNL A   1      42.776  27.525  30.882  1.00  0.00     0.029 A 
ATOM     52  N   UNL A   1      41.718  29.035  32.124  1.00  0.00    -0.354 N 
ATOM     53  N   UNL A   1      41.378  30.769  34.430  1.00  0.00    -0.248 NA
ATOM     54  C   UNL A   1      41.870  31.355  36.636  1.00  0.00     0.031 C 
ATOM     55  C   UNL A   1      43.396  27.577  32.137  1.00  0.00     0.029 A 
ATOM     56  C   UNL A   1      42.742  28.525  32.908  1.00  0.00     0.049 A 
ATOM     57  H   UNL A   1      41.089  29.738  32.405  1.00  0.00     0.167 HD
ATOM     58  C   UNL A   1      42.372  29.932  34.910  1.00  0.00     0.074 A 
ATOM     59  C   UNL A   1      42.649  30.346  36.270  1.00  0.00     0.031 C 
ATOM     60  C   UNL A   1      43.015  28.929  34.263  1.00  0.00     0.037 A 
BRANCH  47  61
ATOM     61  C   UNL A   1      40.815  27.820  28.606  1.00  0.00     0.064 A 
ATOM     62  C   UNL A   1      40.091  26.624  28.484  1.00  0.00     0.173 A 
ATOM     63  C   UNL A   1      41.576  28.246  27.509  1.00  0.00     0.173 A 
ATOM     64  F   UNL A   1      39.354  26.172  29.510  1.00  0.00    -0.203 F 
ATOM     65  C   UNL A   1      40.144  25.873  27.313  1.00  0.00     0.198 A 
ATOM     66  C   UNL A   1      41.610  27.503  26.333  1.00  0.00     0.198 A 
ATOM     67  F   UNL A   1      42.280  29.386  27.577  1.00  0.00    -0.203 F 
ATOM     68  F   UNL A   1      39.473  24.717  27.229  1.00  0.00    -0.200 F 
ATOM     69  C   UNL A   1      40.899  26.315  26.237  1.00  0.00     0.200 A 
ATOM     70  F   UNL A   1      42.331  27.936  25.289  1.00  0.00    -0.200 F 
ATOM     71  F   UNL A   1      40.944  25.596  25.108  1.00  0.00    -0.200 F 
ENDBRANCH  47  61
BRANCH  48  72
ATOM     72  C   UNL A   1      39.960  33.574  36.638  1.00  0.00     0.064 A 
ATOM     73  C   UNL A   1      40.767  34.676  36.942  1.00  0.00     0.173 A 
ATOM     74  C   UNL A   1      38.938  33.239  37.539  1.00  0.00     0.173 A 
ATOM     75  F   UNL A   1      41.768  35.019  36.118  1.00  0.00    -0.203 F 
ATOM     76  C   UNL A   1      40.570  35.407  38.112  1.00  0.00     0.198 A 
ATOM     77  C   UNL A   1      38.730  33.981  38.698  1.00  0.00     0.198 A 
ATOM     78  F   UNL A   1      38.136  32.193  37.287  1.00  0.00    -0.203 F 
ATOM     79  F   UNL A   1      41.377  36.437  38.399  1.00  0.00    -0.200 F 
ATOM     80  C   UNL A   1      39.550  35.061  38.987  1.00  0.00     0.200 A 
ATOM     81  F   UNL A   1      37.736  33.651  39.534  1.00  0.00    -0.200 F 
ATOM     82  F   UNL A   1      39.361  35.765  40.111  1.00  0.00    -0.200 F 
ENDBRANCH  48  72
BRANCH  60  83
ATOM     83  C   UNL A   1      44.117  28.236  35.005  1.00  0.00     0.064 A 
ATOM     84  C   UNL A   1      43.887  27.063  35.740  1.00  0.00     0.173 A 
ATOM     85  C   UNL A   1      45.423  28.746  34.973  1.00  0.00     0.173 A 
ATOM     86  F   UNL A   1      42.650  26.551  35.822  1.00  0.00    -0.203 F 
ATOM     87  C   UNL A   1      44.922  26.440  36.433  1.00  0.00     0.198 A 
ATOM     88  C   UNL A   1      46.460  28.106  35.645  1.00  0.00     0.198 A 
ATOM     89  F   UNL A   1      45.695  29.866  34.287  1.00  0.00    -0.203 F 
ATOM     90  F   UNL A   1      44.670  25.349  37.168  1.00  0.00    -0.200 F 
ATOM     91  C   UNL A   1      46.208  26.958  36.380  1.00  0.00     0.200 A 
ATOM     92  F   UNL A   1      47.703  28.604  35.586  1.00  0.00    -0.200 F 
ATOM     93  F   UNL A   1      47.202  26.356  37.046  1.00  0.00    -0.200 F 
ENDBRANCH  60  83
ENDBRANCH  34  35
ENDBRANCH  27  29
ENDBRANCH  26  27
ENDBRANCH  25  26
ENDBRANCH  24  25
ENDBRANCH   1  24
TORSDOF 16
ENDMDL
MODEL 2
REMARK VINA RESULT:     -11.1      3.269      8.947
REMARK SMILES CC[NH+]1CCN(C(=O)c2ccccc2C(=O)OCCOCCOC(=O)c2ccc(-c3c4nc(c(-c5c(F)c(F)c(F)c(F)c5F)c5ccc([nH]5)c(-c5c(F)c(F)c(F)c(F)c5F)c5nc(c(-c6c(F)c(F)c(F)c(F)c6F)c6ccc3[nH]6)C=C5)C=C4)cc2)CC1
REMARK SMILES IDX 20 1 19 2 18 3 17 4 15 5 16 6 14 7 9 8 10 9 11 10 13 11
REMARK SMILES IDX 12 12 7 13 3 14 4 15 90 16 5 18 89 19 6 20 8 21 2 22 1 23
REMARK SMILES IDX 21 24 22 25 23 26 24 27 25 28 26 29 27 30 88 31 28 32 87 33
REMARK SMILES IDX 29 34 30 35 31 36 81 37 32 38 86 39 80 40 82 41 33 42 85 43
REMARK SMILES IDX 79 44 78 45 34 47 66 48 46 49 65 50 47 51 50 52 64 53 83 54
REMARK SMILES IDX 48 55 49 56 63 58 84 59 51 60 35 61 36 62 44 63 37 64 38 65
REMARK SMILES IDX 42 66 45 67 39 68 40 69 43 70 41 71 67 72 68 73 76 74 69 75
REMARK SMILES IDX 70 76 74 77 77 78 71 79 72 80 75 81 73 82 52 83 53 84 61 85
REMARK SMILES IDX 54 86 55 87 59 88 62 89 56 90 57 91 60 92 58 93
REMARK H PARENT 3 17 82 46 50 57
REMARK Flexibility Score: inf
ROOT
ATOM      1  O   UNL A   1      40.029  20.920  26.909  1.00  0.00    -0.374 OA
ENDROOT
BRANCH   1   2
ATOM      2  C   UNL A   1      39.223  21.801  26.124  1.00  0.00     0.202 C 
BRANCH   2   3
ATOM      3  C   UNL A   1      38.074  21.133  25.370  1.00  0.00     0.261 C 
BRANCH   3   4
ATOM      4  O   UNL A   1      36.866  21.897  25.523  1.00  0.00    -0.460 OA
BRANCH   4   5
ATOM      5  C   UNL A   1      36.233  22.159  24.361  1.00  0.00     0.339 C 
ATOM      6  O   UNL A   1      36.727  22.684  23.375  1.00  0.00    -0.246 OA
BRANCH   5   7
ATOM      7  C   UNL A   1      34.867  21.603  24.341  1.00  0.00     0.072 A 
ATOM      8  C   UNL A   1      33.763  22.192  23.717  1.00  0.00     0.054 A 
ATOM      9  C   UNL A   1      32.525  21.523  23.724  1.00  0.00     0.015 A 
ATOM     10  C   UNL A   1      32.380  20.295  24.370  1.00  0.00     0.001 A 
ATOM     11  C   UNL A   1      34.706  20.372  25.003  1.00  0.00     0.016 A 
ATOM     12  C   UNL A   1      33.466  19.730  25.029  1.00  0.00     0.001 A 
BRANCH   8  13
ATOM     13  C   UNL A   1      33.729  23.583  23.235  1.00  0.00     0.255 C 
ATOM     14  N   UNL A   1      31.705  26.666  25.325  1.00  0.00    -0.332 N 
ATOM     15  C   UNL A   1      31.935  26.604  23.875  1.00  0.00     0.284 C 
ATOM     16  C   UNL A   1      31.992  25.380  25.984  1.00  0.00     0.284 C 
ATOM     17  H   UNL A   1      30.701  26.821  25.422  1.00  0.00     0.348 HD
ATOM     18  C   UNL A   1      33.257  25.952  23.447  1.00  0.00     0.181 C 
ATOM     19  C   UNL A   1      33.271  24.643  25.524  1.00  0.00     0.181 C 
ATOM     20  N   UNL A   1      33.404  24.639  24.064  1.00  0.00    -0.327 N 
ATOM     21  O   UNL A   1      34.028  23.735  22.049  1.00  0.00    -0.269 OA
BRANCH  14  22
ATOM     22  C   UNL A   1      32.228  27.842  26.014  1.00  0.00     0.258 C 
ATOM     23  C   UNL A   1      32.127  29.197  25.324  1.00  0.00     0.071 C 
ENDBRANCH  14  22
ENDBRANCH   8  13
ENDBRANCH   5   7
ENDBRANCH   4   5
ENDBRANCH   3   4
ENDBRANCH   2   3
ENDBRANCH   1   2
BRANCH   1  24
ATOM     24  C   UNL A   1      40.890  20.025  26.207  1.00  0.00     0.202 C 
BRANCH  24  25
ATOM     25  C   UNL A   1      42.314  20.520  25.926  1.00  0.00     0.261 C 
BRANCH  25  26
ATOM     26  O   UNL A   1      42.667  21.741  26.599  1.00  0.00    -0.460 OA
BRANCH  26  27
ATOM     27  C   UNL A   1      42.740  22.831  25.796  1.00  0.00     0.338 C 
ATOM     28  O   UNL A   1      43.026  22.864  24.612  1.00  0.00    -0.246 OA
BRANCH  27  29
ATOM     29  C   UNL A   1      42.331  24.043  26.533  1.00  0.00     0.060 A 
ATOM     30  C   UNL A   1      43.031  25.233  26.295  1.00  0.00     0.016 A 
ATOM     31  C   UNL A   1      41.363  23.984  27.537  1.00  0.00     0.016 A 
ATOM     32  C   UNL A   1      42.787  26.361  27.084  1.00  0.00     0.010 A 
ATOM     33  C   UNL A   1      41.126  25.114  28.329  1.00  0.00     0.010 A 
ATOM     34  C   UNL A   1      41.854  26.303  28.127  1.00  0.00    -0.014 A 
BRANCH  34  35
ATOM     35  C   UNL A   1      41.680  27.442  29.067  1.00  0.00     0.031 A 
ATOM     36  C   UNL A   1      42.542  27.542  30.292  1.00  0.00     0.074 A 
ATOM     37  C   UNL A   1      40.738  28.380  28.856  1.00  0.00     0.049 A 
ATOM     38  N   UNL A   1      42.478  28.402  31.278  1.00  0.00    -0.248 NA
ATOM     39  C   UNL A   1      43.636  26.567  30.410  1.00  0.00     0.031 C 
ATOM     40  C   UNL A   1      39.901  28.479  27.669  1.00  0.00     0.029 A 
ATOM     41  N   UNL A   1      40.298  29.403  29.660  1.00  0.00    -0.354 N 
ATOM     42  C   UNL A   1      43.547  28.103  32.109  1.00  0.00     0.074 A 
ATOM     43  C   UNL A   1      44.206  26.941  31.548  1.00  0.00     0.031 C 
ATOM     44  C   UNL A   1      38.974  29.429  27.865  1.00  0.00     0.029 A 
ATOM     45  C   UNL A   1      39.156  30.003  29.191  1.00  0.00     0.049 A 
ATOM     46  H   UNL A   1      40.754  29.677  30.489  1.00  0.00     0.167 HD
ATOM     47  C   UNL A   1      43.960  28.762  33.218  1.00  0.00     0.037 A 
ATOM     48  C   UNL A   1      38.324  30.888  29.769  1.00  0.00     0.037 A 
ATOM     49  C   UNL A   1      43.297  29.907  33.787  1.00  0.00     0.049 A 
ATOM     50  C   UNL A   1      38.680  31.470  31.103  1.00  0.00     0.074 A 
ATOM     51  C   UNL A   1      43.680  30.675  34.873  1.00  0.00     0.029 A 
ATOM     52  N   UNL A   1      42.099  30.433  33.330  1.00  0.00    -0.354 N 
ATOM     53  N   UNL A   1      39.725  31.225  31.853  1.00  0.00    -0.248 NA
ATOM     54  C   UNL A   1      37.763  32.475  31.657  1.00  0.00     0.031 C 
ATOM     55  C   UNL A   1      42.685  31.632  35.107  1.00  0.00     0.029 A 
ATOM     56  C   UNL A   1      41.703  31.488  34.140  1.00  0.00     0.049 A 
ATOM     57  H   UNL A   1      41.600  30.107  32.546  1.00  0.00     0.167 HD
ATOM     58  C   UNL A   1      39.624  32.082  32.937  1.00  0.00     0.074 A 
ATOM     59  C   UNL A   1      38.403  32.841  32.759  1.00  0.00     0.031 C 
ATOM     60  C   UNL A   1      40.486  32.240  33.971  1.00  0.00     0.037 A 
BRANCH  47  61
ATOM     61  C   UNL A   1      45.203  28.261  33.889  1.00  0.00     0.064 A 
ATOM     62  C   UNL A   1      46.468  28.761  33.543  1.00  0.00     0.173 A 
ATOM     63  C   UNL A   1      45.127  27.313  34.918  1.00  0.00     0.173 A 
ATOM     64  F   UNL A   1      46.592  29.664  32.559  1.00  0.00    -0.203 F 
ATOM     65  C   UNL A   1      47.615  28.312  34.191  1.00  0.00     0.198 A 
ATOM     66  C   UNL A   1      46.274  26.883  35.578  1.00  0.00     0.198 A 
ATOM     67  F   UNL A   1      43.939  26.812  35.288  1.00  0.00    -0.203 F 
ATOM     68  F   UNL A   1      48.816  28.776  33.822  1.00  0.00    -0.200 F 
ATOM     69  C   UNL A   1      47.517  27.377  35.211  1.00  0.00     0.200 A 
ATOM     70  F   UNL A   1      46.177  25.988  36.571  1.00  0.00    -0.200 F 
ATOM     71  F   UNL A   1      48.621  26.951  35.839  1.00  0.00    -0.200 F 
ENDBRANCH  47  61
BRANCH  48  72
ATOM     72  C   UNL A   1      37.053  31.251  29.094  1.00  0.00     0.064 A 
ATOM     73  C   UNL A   1      36.011  30.329  28.951  1.00  0.00     0.173 A 
ATOM     74  C   UNL A   1      36.868  32.540  28.572  1.00  0.00     0.173 A 
ATOM     75  F   UNL A   1      36.154  29.080  29.419  1.00  0.00    -0.203 F 
ATOM     76  C   UNL A   1      34.831  30.678  28.296  1.00  0.00     0.198 A 
ATOM     77  C   UNL A   1      35.681  32.893  27.933  1.00  0.00     0.198 A 
ATOM     78  F   UNL A   1      37.837  33.459  28.689  1.00  0.00    -0.203 F 
ATOM     79  F   UNL A   1      33.860  29.768  28.141  1.00  0.00    -0.200 F 
ATOM     80  C   UNL A   1      34.666  31.959  27.791  1.00  0.00     0.200 A 
ATOM     81  F   UNL A   1      35.522  34.135  27.458  1.00  0.00    -0.200 F 
ATOM     82  F   UNL A   1      33.532  32.293  27.162  1.00  0.00    -0.200 F 
ENDBRANCH  48  72
BRANCH  60  83
ATOM     83  C   UNL A   1      40.164  33.308  34.970  1.00  0.00     0.064 A 
ATOM     84  C   UNL A   1      39.465  33.026  36.153  1.00  0.00     0.173 A 
ATOM     85  C   UNL A   1      40.570  34.633  34.746  1.00  0.00     0.173 A 
ATOM     86  F   UNL A   1      39.035  31.780  36.399  1.00  0.00    -0.203 F 
ATOM     87  C   UNL A   1      39.165  34.035  37.063  1.00  0.00     0.198 A 
ATOM     88  C   UNL A   1      40.290  35.635  35.671  1.00  0.00     0.198 A 
ATOM     89  F   UNL A   1      41.238  34.956  33.629  1.00  0.00    -0.203 F 
ATOM     90  F   UNL A   1      38.453  33.752  38.162  1.00  0.00    -0.200 F 
ATOM     91  C   UNL A   1      39.583  35.337  36.825  1.00  0.00     0.200 A 
ATOM     92  F   UNL A   1      40.702  36.889  35.443  1.00  0.00    -0.200 F 
ATOM     93  F   UNL A   1      39.293  36.306  37.704  1.00  0.00    -0.200 F 
ENDBRANCH  60  83
ENDBRANCH  34  35
ENDBRANCH  27  29
ENDBRANCH  26  27
ENDBRANCH  25  26
ENDBRANCH  24  25
ENDBRANCH   1  24
TORSDOF 16
ENDMDL
MODEL 3
REMARK VINA RESULT:     -11.0      0.718      7.339
REMARK SMILES CC[NH+]1CCN(C(=O)c2ccccc2C(=O)OCCOCCOC(=O)c2ccc(-c3c4nc(c(-c5c(F)c(F)c(F)c(F)c5F)c5ccc([nH]5)c(-c5c(F)c(F)c(F)c(F)c5F)c5nc(c(-c6c(F)c(F)c(F)c(F)c6F)c6ccc3[nH]6)C=C5)C=C4)cc2)CC1
REMARK SMILES IDX 20 1 19 2 18 3 17 4 15 5 16 6 14 7 9 8 10 9 11 10 13 11
REMARK SMILES IDX 12 12 7 13 3 14 4 15 90 16 5 18 89 19 6 20 8 21 2 22 1 23
REMARK SMILES IDX 21 24 22 25 23 26 24 27 25 28 26 29 27 30 88 31 28 32 87 33
REMARK SMILES IDX 29 34 30 35 31 36 81 37 32 38 86 39 80 40 82 41 33 42 85 43
REMARK SMILES IDX 79 44 78 45 34 47 66 48 46 49 65 50 47 51 50 52 64 53 83 54
REMARK SMILES IDX 48 55 49 56 63 58 84 59 51 60 35 61 36 62 44 63 37 64 38 65
REMARK SMILES IDX 42 66 45 67 39 68 40 69 43 70 41 71 67 72 68 73 76 74 69 75
REMARK SMILES IDX 70 76 74 77 77 78 71 79 72 80 75 81 73 82 52 83 53 84 61 85
REMARK SMILES IDX 54 86 55 87 59 88 62 89 56 90 57 91 60 92 58 93
REMARK H PARENT 3 17 82 46 50 57
REMARK Flexibility Score: inf
ROOT
ATOM      1  O   UNL A   1      34.532  31.302  27.739  1.00  0.00    -0.374 OA
ENDROOT
BRANCH   1   2
ATOM      2  C   UNL A   1      34.491  29.909  27.426  1.00  0.00     0.202 C 
BRANCH   2   3
ATOM      3  C   UNL A   1      33.224  29.439  26.715  1.00  0.00     0.261 C 
BRANCH   3   4
ATOM      4  O   UNL A   1      33.098  28.010  26.812  1.00  0.00    -0.460 OA
BRANCH   4   5
ATOM      5  C   UNL A   1      31.833  27.584  27.012  1.00  0.00     0.339 C 
ATOM      6  O   UNL A   1      31.155  27.784  28.007  1.00  0.00    -0.246 OA
BRANCH   5   7
ATOM      7  C   UNL A   1      31.272  26.943  25.807  1.00  0.00     0.072 A 
ATOM      8  C   UNL A   1      31.138  25.565  25.613  1.00  0.00     0.054 A 
ATOM      9  C   UNL A   1      30.529  25.087  24.438  1.00  0.00     0.015 A 
ATOM     10  C   UNL A   1      30.084  25.971  23.454  1.00  0.00     0.001 A 
ATOM     11  C   UNL A   1      30.834  27.825  24.802  1.00  0.00     0.016 A 
ATOM     12  C   UNL A   1      30.257  27.340  23.627  1.00  0.00     0.001 A 
BRANCH   8  13
ATOM     13  C   UNL A   1      31.793  24.544  26.448  1.00  0.00     0.255 C 
ATOM     14  N   UNL A   1      35.265  22.462  25.189  1.00  0.00    -0.332 N 
ATOM     15  C   UNL A   1      34.233  21.958  26.107  1.00  0.00     0.284 C 
ATOM     16  C   UNL A   1      34.830  23.683  24.489  1.00  0.00     0.284 C 
ATOM     17  H   UNL A   1      35.353  21.737  24.476  1.00  0.00     0.348 HD
ATOM     18  C   UNL A   1      33.588  23.016  27.014  1.00  0.00     0.181 C 
ATOM     19  C   UNL A   1      34.099  24.743  25.345  1.00  0.00     0.181 C 
ATOM     20  N   UNL A   1      33.093  24.136  26.223  1.00  0.00    -0.327 N 
ATOM     21  O   UNL A   1      31.104  24.096  27.366  1.00  0.00    -0.269 OA
BRANCH  14  22
ATOM     22  C   UNL A   1      36.630  22.500  25.706  1.00  0.00     0.258 C 
ATOM     23  C   UNL A   1      37.530  23.660  25.301  1.00  0.00     0.071 C 
ENDBRANCH  14  22
ENDBRANCH   8  13
ENDBRANCH   5   7
ENDBRANCH   4   5
ENDBRANCH   3   4
ENDBRANCH   2   3
ENDBRANCH   1   2
BRANCH   1  24
ATOM     24  C   UNL A   1      33.296  32.016  27.702  1.00  0.00     0.202 C 
BRANCH  24  25
ATOM     25  C   UNL A   1      33.387  33.534  27.504  1.00  0.00     0.261 C 
BRANCH  25  26
ATOM     26  O   UNL A   1      32.494  34.300  28.331  1.00  0.00    -0.460 OA
BRANCH  26  27
ATOM     27  C   UNL A   1      33.091  35.273  29.061  1.00  0.00     0.338 C 
ATOM     28  O   UNL A   1      32.755  36.441  29.158  1.00  0.00    -0.246 OA
BRANCH  27  29
ATOM     29  C   UNL A   1      34.215  34.719  29.841  1.00  0.00     0.060 A 
ATOM     30  C   UNL A   1      35.477  34.657  29.237  1.00  0.00     0.016 A 
ATOM     31  C   UNL A   1      34.006  34.147  31.097  1.00  0.00     0.016 A 
ATOM     32  C   UNL A   1      36.530  33.994  29.875  1.00  0.00     0.010 A 
ATOM     33  C   UNL A   1      35.061  33.477  31.730  1.00  0.00     0.010 A 
ATOM     34  C   UNL A   1      36.323  33.373  31.113  1.00  0.00    -0.014 A 
BRANCH  34  35
ATOM     35  C   UNL A   1      37.385  32.543  31.743  1.00  0.00     0.031 A 
ATOM     36  C   UNL A   1      38.044  33.003  33.010  1.00  0.00     0.074 A 
ATOM     37  C   UNL A   1      37.791  31.391  31.179  1.00  0.00     0.049 A 
ATOM     38  N   UNL A   1      39.052  32.470  33.655  1.00  0.00    -0.248 NA
ATOM     39  C   UNL A   1      37.479  34.198  33.651  1.00  0.00     0.031 C 
ATOM     40  C   UNL A   1      37.181  30.762  30.015  1.00  0.00     0.029 A 
ATOM     41  N   UNL A   1      38.846  30.566  31.487  1.00  0.00    -0.354 N 
ATOM     42  C   UNL A   1      39.214  33.237  34.799  1.00  0.00     0.074 A 
ATOM     43  C   UNL A   1      38.244  34.311  34.729  1.00  0.00     0.031 C 
ATOM     44  C   UNL A   1      37.934  29.718  29.636  1.00  0.00     0.029 A 
ATOM     45  C   UNL A   1      39.077  29.607  30.533  1.00  0.00     0.049 A 
ATOM     46  H   UNL A   1      39.383  30.656  32.307  1.00  0.00     0.167 HD
ATOM     47  C   UNL A   1      40.070  33.039  35.830  1.00  0.00     0.037 A 
ATOM     48  C   UNL A   1      40.105  28.755  30.369  1.00  0.00     0.037 A 
ATOM     49  C   UNL A   1      41.047  31.983  35.894  1.00  0.00     0.049 A 
ATOM     50  C   UNL A   1      41.172  28.680  31.418  1.00  0.00     0.074 A 
ATOM     51  C   UNL A   1      41.913  31.669  36.927  1.00  0.00     0.029 A 
ATOM     52  N   UNL A   1      41.304  31.082  34.873  1.00  0.00    -0.354 N 
ATOM     53  N   UNL A   1      41.283  29.367  32.527  1.00  0.00    -0.248 NA
ATOM     54  C   UNL A   1      42.237  27.689  31.214  1.00  0.00     0.031 C 
ATOM     55  C   UNL A   1      42.734  30.614  36.509  1.00  0.00     0.029 A 
ATOM     56  C   UNL A   1      42.348  30.242  35.231  1.00  0.00     0.049 A 
ATOM     57  H   UNL A   1      40.819  31.044  34.017  1.00  0.00     0.167 HD
ATOM     58  C   UNL A   1      42.393  28.858  33.180  1.00  0.00     0.074 A 
ATOM     59  C   UNL A   1      42.936  27.815  32.334  1.00  0.00     0.031 C 
ATOM     60  C   UNL A   1      42.895  29.209  34.389  1.00  0.00     0.037 A 
BRANCH  47  61
ATOM     61  C   UNL A   1      39.981  33.988  36.987  1.00  0.00     0.064 A 
ATOM     62  C   UNL A   1      40.734  35.171  37.016  1.00  0.00     0.173 A 
ATOM     63  C   UNL A   1      39.101  33.739  38.049  1.00  0.00     0.173 A 
ATOM     64  F   UNL A   1      41.595  35.449  36.026  1.00  0.00    -0.203 F 
ATOM     65  C   UNL A   1      40.624  36.062  38.081  1.00  0.00     0.198 A 
ATOM     66  C   UNL A   1      38.979  34.641  39.100  1.00  0.00     0.198 A 
ATOM     67  F   UNL A   1      38.356  32.623  38.061  1.00  0.00    -0.203 F 
ATOM     68  F   UNL A   1      41.378  37.169  38.106  1.00  0.00    -0.200 F 
ATOM     69  C   UNL A   1      39.743  35.799  39.119  1.00  0.00     0.200 A 
ATOM     70  F   UNL A   1      38.119  34.393  40.098  1.00  0.00    -0.200 F 
ATOM     71  F   UNL A   1      39.633  36.660  40.139  1.00  0.00    -0.200 F 
ENDBRANCH  47  61
BRANCH  48  72
ATOM     72  C   UNL A   1      40.184  27.926  29.140  1.00  0.00     0.064 A 
ATOM     73  C   UNL A   1      39.555  26.679  29.057  1.00  0.00     0.173 A 
ATOM     74  C   UNL A   1      40.904  28.376  28.023  1.00  0.00     0.173 A 
ATOM     75  F   UNL A   1      38.873  26.203  30.109  1.00  0.00    -0.203 F 
ATOM     76  C   UNL A   1      39.656  25.901  27.905  1.00  0.00     0.198 A 
ATOM     77  C   UNL A   1      40.989  27.606  26.866  1.00  0.00     0.198 A 
ATOM     78  F   UNL A   1      41.519  29.567  28.055  1.00  0.00    -0.203 F 
ATOM     79  F   UNL A   1      39.075  24.696  27.861  1.00  0.00    -0.200 F 
ATOM     80  C   UNL A   1      40.370  26.367  26.810  1.00  0.00     0.200 A 
ATOM     81  F   UNL A   1      41.669  28.065  25.807  1.00  0.00    -0.200 F 
ATOM     82  F   UNL A   1      40.465  25.619  25.703  1.00  0.00    -0.200 F 
ENDBRANCH  48  72
BRANCH  60  83
ATOM     83  C   UNL A   1      44.069  28.427  34.893  1.00  0.00     0.064 A 
ATOM     84  C   UNL A   1      43.907  27.227  35.602  1.00  0.00     0.173 A 
ATOM     85  C   UNL A   1      45.377  28.878  34.654  1.00  0.00     0.173 A 
ATOM     86  F   UNL A   1      42.677  26.769  35.877  1.00  0.00    -0.203 F 
ATOM     87  C   UNL A   1      45.010  26.521  36.073  1.00  0.00     0.198 A 
ATOM     88  C   UNL A   1      46.478  28.155  35.103  1.00  0.00     0.198 A 
ATOM     89  F   UNL A   1      45.586  30.020  33.983  1.00  0.00    -0.203 F 
ATOM     90  F   UNL A   1      44.831  25.404  36.791  1.00  0.00    -0.200 F 
ATOM     91  C   UNL A   1      46.294  26.981  35.818  1.00  0.00     0.200 A 
ATOM     92  F   UNL A   1      47.717  28.597  34.849  1.00  0.00    -0.200 F 
ATOM     93  F   UNL A   1      47.355  26.299  36.271  1.00  0.00    -0.200 F 
ENDBRANCH  60  83
ENDBRANCH  34  35
ENDBRANCH  27  29
ENDBRANCH  26  27
ENDBRANCH  25  26
ENDBRANCH  24  25
ENDBRANCH   1  24
TORSDOF 16
ENDMDL
