MODEL 1
REMARK VINA RESULT:     -12.4      0.000      0.000
REMARK SMILES O=C(CCc1cn(-c2ccc(Br)cc2)nc1-c1ccccc1)OCCOCCOC(=O)c1ccc(-c2c3nc(c(-c4c(F)c(F)c(F)c(F)c4F)c4ccc([nH]4)c(-c4c(F)c(F)c(F)c(F)c4F)c4nc(c(-c5c(F)c(F)c(F)c(F)c5F)c5ccc2[nH]5)C=C4)C=C3)cc1
REMARK SMILES IDX 25 1 24 2 23 3 2 4 1 5 3 6 4 7 5 8 6 9 16 10 7 11 15 12
REMARK SMILES IDX 17 13 18 14 22 15 19 16 21 17 20 18 8 19 9 20 14 21 10 22
REMARK SMILES IDX 13 23 11 24 12 25 26 26 27 27 28 28 29 29 30 30 31 31 32 32
REMARK SMILES IDX 33 33 94 34 34 35 93 36 35 37 36 38 37 39 87 40 38 41 92 42
REMARK SMILES IDX 86 43 88 44 39 45 91 46 85 47 84 48 40 50 72 51 52 52 71 53
REMARK SMILES IDX 53 54 56 55 70 56 89 57 54 58 55 59 69 61 90 62 57 63 41 64
REMARK SMILES IDX 42 65 50 66 43 67 44 68 48 69 51 70 45 71 46 72 49 73 47 74
REMARK SMILES IDX 73 75 74 76 82 77 75 78 76 79 80 80 83 81 77 82 78 83 81 84
REMARK SMILES IDX 79 85 58 86 59 87 67 88 60 89 61 90 65 91 68 92 62 93 63 94
REMARK SMILES IDX 66 95 64 96
REMARK H PARENT 88 49 56 60
REMARK Flexibility Score: inf
ROOT
ATOM      1  C   UNL A   1      42.890  19.853  26.263  1.00  0.00     0.202 C 
ENDROOT
BRANCH   1   2
ATOM      2  C   UNL A   1      41.743  20.231  27.174  1.00  0.00     0.261 C 
BRANCH   2   3
ATOM      3  O   UNL A   1      40.700  20.946  26.502  1.00  0.00    -0.463 OA
BRANCH   3   4
ATOM      4  C   UNL A   1      39.589  20.455  25.922  1.00  0.00     0.306 C 
ATOM      5  O   UNL A   1      39.619  19.282  25.539  1.00  0.00    -0.252 OA
BRANCH   4   6
ATOM      6  C   UNL A   1      38.341  21.280  25.655  1.00  0.00     0.127 C 
BRANCH   6   7
ATOM      7  C   UNL A   1      37.189  20.668  24.880  1.00  0.00     0.051 C 
BRANCH   7   8
ATOM      8  C   UNL A   1      35.830  21.232  25.144  1.00  0.00    -0.001 A 
ATOM      9  C   UNL A   1      35.624  22.497  25.649  1.00  0.00     0.119 A 
ATOM     10  C   UNL A   1      34.501  20.713  24.952  1.00  0.00     0.096 A 
ATOM     11  N   UNL A   1      34.280  22.748  25.600  1.00  0.00    -0.240 N 
ATOM     12  N   UNL A   1      33.578  21.641  25.282  1.00  0.00    -0.168 NA
BRANCH  10  13
ATOM     13  C   UNL A   1      34.081  19.400  24.444  1.00  0.00     0.002 A 
ATOM     14  C   UNL A   1      32.852  19.254  23.784  1.00  0.00     0.010 A 
ATOM     15  C   UNL A   1      34.883  18.263  24.607  1.00  0.00     0.010 A 
ATOM     16  C   UNL A   1      32.456  18.009  23.281  1.00  0.00     0.001 A 
ATOM     17  C   UNL A   1      34.492  17.025  24.078  1.00  0.00     0.001 A 
ATOM     18  C   UNL A   1      33.285  16.902  23.400  1.00  0.00     0.000 A 
ENDBRANCH  10  13
BRANCH  11  19
ATOM     19  C   UNL A   1      33.675  24.017  25.782  1.00  0.00     0.065 A 
ATOM     20  C   UNL A   1      34.373  25.175  25.397  1.00  0.00     0.029 A 
ATOM     21  C   UNL A   1      32.404  24.125  26.353  1.00  0.00     0.029 A 
ATOM     22  C   UNL A   1      33.820  26.435  25.618  1.00  0.00     0.018 A 
ATOM     23  C   UNL A   1      31.870  25.394  26.609  1.00  0.00     0.018 A 
ATOM     24  C   UNL A   1      32.582  26.540  26.245  1.00  0.00     0.018 A 
ATOM     25  Br  UNL A   1      31.872  28.253  26.613  1.00  0.00    -0.051 Br
ENDBRANCH  11  19
ENDBRANCH   7   8
ENDBRANCH   6   7
ENDBRANCH   4   6
ENDBRANCH   3   4
ENDBRANCH   2   3
ENDBRANCH   1   2
BRANCH   1  26
ATOM     26  O   UNL A   1      43.077  20.808  25.225  1.00  0.00    -0.374 OA
BRANCH  26  27
ATOM     27  C   UNL A   1      44.247  21.626  25.364  1.00  0.00     0.202 C 
BRANCH  27  28
ATOM     28  C   UNL A   1      44.051  22.956  24.654  1.00  0.00     0.261 C 
BRANCH  28  29
ATOM     29  O   UNL A   1      44.004  23.944  25.675  1.00  0.00    -0.460 OA
BRANCH  29  30
ATOM     30  C   UNL A   1      43.023  24.871  25.528  1.00  0.00     0.338 C 
ATOM     31  O   UNL A   1      43.152  25.965  25.019  1.00  0.00    -0.246 OA
BRANCH  30  32
ATOM     32  C   UNL A   1      41.789  24.415  26.274  1.00  0.00     0.060 A 
ATOM     33  C   UNL A   1      40.729  25.271  25.978  1.00  0.00     0.016 A 
ATOM     34  C   UNL A   1      42.094  24.155  27.608  1.00  0.00     0.016 A 
ATOM     35  C   UNL A   1      40.560  26.338  26.832  1.00  0.00     0.010 A 
ATOM     36  C   UNL A   1      42.078  25.262  28.407  1.00  0.00     0.010 A 
ATOM     37  C   UNL A   1      41.362  26.380  27.973  1.00  0.00    -0.014 A 
BRANCH  37  38
ATOM     38  C   UNL A   1      41.373  27.565  28.791  1.00  0.00     0.031 A 
ATOM     39  C   UNL A   1      42.481  28.474  28.440  1.00  0.00     0.074 A 
ATOM     40  C   UNL A   1      40.352  27.913  29.591  1.00  0.00     0.049 A 
ATOM     41  N   UNL A   1      43.550  28.738  29.114  1.00  0.00    -0.248 NA
ATOM     42  C   UNL A   1      42.490  28.992  27.060  1.00  0.00     0.031 C 
ATOM     43  C   UNL A   1      39.021  27.313  29.705  1.00  0.00     0.029 A 
ATOM     44  N   UNL A   1      40.269  29.005  30.391  1.00  0.00    -0.354 N 
ATOM     45  C   UNL A   1      44.283  29.578  28.287  1.00  0.00     0.074 A 
ATOM     46  C   UNL A   1      43.730  29.459  26.967  1.00  0.00     0.031 C 
ATOM     47  C   UNL A   1      38.206  28.181  30.350  1.00  0.00     0.029 A 
ATOM     48  C   UNL A   1      38.984  29.339  30.769  1.00  0.00     0.049 A 
ATOM     49  H   UNL A   1      41.060  29.516  30.677  1.00  0.00     0.167 HD
ATOM     50  C   UNL A   1      45.090  30.556  28.771  1.00  0.00     0.037 A 
ATOM     51  C   UNL A   1      38.614  30.549  31.258  1.00  0.00     0.037 A 
ATOM     52  C   UNL A   1      45.378  30.379  30.165  1.00  0.00     0.049 A 
ATOM     53  C   UNL A   1      39.858  31.266  31.667  1.00  0.00     0.074 A 
ATOM     54  C   UNL A   1      45.966  29.374  30.908  1.00  0.00     0.029 A 
ATOM     55  N   UNL A   1      44.692  31.157  31.067  1.00  0.00    -0.354 N 
ATOM     56  N   UNL A   1      40.621  30.913  32.667  1.00  0.00    -0.248 NA
ATOM     57  C   UNL A   1      40.497  32.131  30.682  1.00  0.00     0.031 C 
ATOM     58  C   UNL A   1      45.227  29.329  32.127  1.00  0.00     0.029 A 
ATOM     59  C   UNL A   1      44.248  30.322  32.063  1.00  0.00     0.049 A 
ATOM     60  H   UNL A   1      44.546  32.129  31.010  1.00  0.00     0.167 HD
ATOM     61  C   UNL A   1      41.919  31.181  32.247  1.00  0.00     0.074 A 
ATOM     62  C   UNL A   1      41.774  32.006  31.054  1.00  0.00     0.031 C 
ATOM     63  C   UNL A   1      42.982  30.477  32.739  1.00  0.00     0.037 A 
BRANCH  50  64
ATOM     64  C   UNL A   1      45.317  31.844  28.036  1.00  0.00     0.064 A 
ATOM     65  C   UNL A   1      44.245  32.725  27.837  1.00  0.00     0.173 A 
ATOM     66  C   UNL A   1      46.503  32.147  27.326  1.00  0.00     0.173 A 
ATOM     67  F   UNL A   1      43.060  32.493  28.422  1.00  0.00    -0.203 F 
ATOM     68  C   UNL A   1      44.349  33.820  26.978  1.00  0.00     0.198 A 
ATOM     69  C   UNL A   1      46.629  33.282  26.533  1.00  0.00     0.198 A 
ATOM     70  F   UNL A   1      47.546  31.306  27.286  1.00  0.00    -0.203 F 
ATOM     71  F   UNL A   1      43.271  34.574  26.732  1.00  0.00    -0.200 F 
ATOM     72  C   UNL A   1      45.544  34.105  26.337  1.00  0.00     0.200 A 
ATOM     73  F   UNL A   1      47.791  33.524  25.908  1.00  0.00    -0.200 F 
ATOM     74  F   UNL A   1      45.634  35.137  25.489  1.00  0.00    -0.200 F 
ENDBRANCH  50  64
BRANCH  51  75
ATOM     75  C   UNL A   1      37.322  31.243  31.043  1.00  0.00     0.064 A 
ATOM     76  C   UNL A   1      36.473  31.539  32.120  1.00  0.00     0.173 A 
ATOM     77  C   UNL A   1      36.999  31.843  29.809  1.00  0.00     0.173 A 
ATOM     78  F   UNL A   1      36.742  31.059  33.343  1.00  0.00    -0.203 F 
ATOM     79  C   UNL A   1      35.367  32.385  31.971  1.00  0.00     0.198 A 
ATOM     80  C   UNL A   1      35.887  32.672  29.658  1.00  0.00     0.198 A 
ATOM     81  F   UNL A   1      37.803  31.713  28.745  1.00  0.00    -0.203 F 
ATOM     82  F   UNL A   1      34.610  32.690  33.034  1.00  0.00    -0.200 F 
ATOM     83  C   UNL A   1      35.078  32.952  30.741  1.00  0.00     0.200 A 
ATOM     84  F   UNL A   1      35.643  33.243  28.470  1.00  0.00    -0.200 F 
ATOM     85  F   UNL A   1      34.047  33.797  30.606  1.00  0.00    -0.200 F 
ENDBRANCH  51  75
BRANCH  63  86
ATOM     86  C   UNL A   1      42.730  29.577  33.915  1.00  0.00     0.064 A 
ATOM     87  C   UNL A   1      42.193  28.285  33.794  1.00  0.00     0.173 A 
ATOM     88  C   UNL A   1      43.178  29.973  35.182  1.00  0.00     0.173 A 
ATOM     89  F   UNL A   1      41.852  27.794  32.596  1.00  0.00    -0.203 F 
ATOM     90  C   UNL A   1      42.058  27.448  34.899  1.00  0.00     0.198 A 
ATOM     91  C   UNL A   1      43.077  29.121  36.279  1.00  0.00     0.198 A 
ATOM     92  F   UNL A   1      43.762  31.171  35.345  1.00  0.00    -0.203 F 
ATOM     93  F   UNL A   1      41.528  26.225  34.756  1.00  0.00    -0.200 F 
ATOM     94  C   UNL A   1      42.506  27.866  36.140  1.00  0.00     0.200 A 
ATOM     95  F   UNL A   1      43.560  29.507  37.468  1.00  0.00    -0.200 F 
ATOM     96  F   UNL A   1      42.416  27.047  37.199  1.00  0.00    -0.200 F 
ENDBRANCH  63  86
ENDBRANCH  37  38
ENDBRANCH  30  32
ENDBRANCH  29  30
ENDBRANCH  28  29
ENDBRANCH  27  28
ENDBRANCH  26  27
ENDBRANCH   1  26
TORSDOF 18
ENDMDL
MODEL 2
REMARK VINA RESULT:     -12.3      4.258     10.002
REMARK SMILES O=C(CCc1cn(-c2ccc(Br)cc2)nc1-c1ccccc1)OCCOCCOC(=O)c1ccc(-c2c3nc(c(-c4c(F)c(F)c(F)c(F)c4F)c4ccc([nH]4)c(-c4c(F)c(F)c(F)c(F)c4F)c4nc(c(-c5c(F)c(F)c(F)c(F)c5F)c5ccc2[nH]5)C=C4)C=C3)cc1
REMARK SMILES IDX 25 1 24 2 23 3 2 4 1 5 3 6 4 7 5 8 6 9 16 10 7 11 15 12
REMARK SMILES IDX 17 13 18 14 22 15 19 16 21 17 20 18 8 19 9 20 14 21 10 22
REMARK SMILES IDX 13 23 11 24 12 25 26 26 27 27 28 28 29 29 30 30 31 31 32 32
REMARK SMILES IDX 33 33 94 34 34 35 93 36 35 37 36 38 37 39 87 40 38 41 92 42
REMARK SMILES IDX 86 43 88 44 39 45 91 46 85 47 84 48 40 50 72 51 52 52 71 53
REMARK SMILES IDX 53 54 56 55 70 56 89 57 54 58 55 59 69 61 90 62 57 63 41 64
REMARK SMILES IDX 42 65 50 66 43 67 44 68 48 69 51 70 45 71 46 72 49 73 47 74
REMARK SMILES IDX 73 75 74 76 82 77 75 78 76 79 80 80 83 81 77 82 78 83 81 84
REMARK SMILES IDX 79 85 58 86 59 87 67 88 60 89 61 90 65 91 68 92 62 93 63 94
REMARK SMILES IDX 66 95 64 96
REMARK H PARENT 88 49 56 60
REMARK Flexibility Score: inf
ROOT
ATOM      1  C   UNL A   1      34.011  34.722  30.172  1.00  0.00     0.202 C 
ENDROOT
BRANCH   1   2
ATOM      2  C   UNL A   1      34.417  34.450  28.740  1.00  0.00     0.261 C 
BRANCH   2   3
ATOM      3  O   UNL A   1      34.162  33.103  28.326  1.00  0.00    -0.463 OA
BRANCH   3   4
ATOM      4  C   UNL A   1      33.110  32.625  27.637  1.00  0.00     0.306 C 
ATOM      5  O   UNL A   1      32.171  33.397  27.425  1.00  0.00    -0.252 OA
BRANCH   4   6
ATOM      6  C   UNL A   1      32.989  31.183  27.174  1.00  0.00     0.127 C 
BRANCH   6   7
ATOM      7  C   UNL A   1      31.732  30.728  26.456  1.00  0.00     0.051 C 
BRANCH   7   8
ATOM      8  C   UNL A   1      31.894  29.638  25.447  1.00  0.00    -0.001 A 
ATOM      9  C   UNL A   1      32.927  28.726  25.481  1.00  0.00     0.119 A 
ATOM     10  C   UNL A   1      31.116  29.238  24.304  1.00  0.00     0.096 A 
ATOM     11  N   UNL A   1      32.674  27.778  24.528  1.00  0.00    -0.240 N 
ATOM     12  N   UNL A   1      31.641  28.132  23.736  1.00  0.00    -0.168 NA
BRANCH  10  13
ATOM     13  C   UNL A   1      29.893  29.840  23.757  1.00  0.00     0.002 A 
ATOM     14  C   UNL A   1      29.578  31.180  24.027  1.00  0.00     0.010 A 
ATOM     15  C   UNL A   1      29.007  29.101  22.963  1.00  0.00     0.010 A 
ATOM     16  C   UNL A   1      28.424  31.764  23.492  1.00  0.00     0.001 A 
ATOM     17  C   UNL A   1      27.866  29.699  22.409  1.00  0.00     0.001 A 
ATOM     18  C   UNL A   1      27.584  31.037  22.661  1.00  0.00     0.000 A 
ENDBRANCH  10  13
BRANCH  11  19
ATOM     19  C   UNL A   1      33.347  26.536  24.408  1.00  0.00     0.065 A 
ATOM     20  C   UNL A   1      34.060  26.029  25.508  1.00  0.00     0.029 A 
ATOM     21  C   UNL A   1      33.319  25.824  23.205  1.00  0.00     0.029 A 
ATOM     22  C   UNL A   1      34.774  24.837  25.393  1.00  0.00     0.018 A 
ATOM     23  C   UNL A   1      34.069  24.648  23.084  1.00  0.00     0.018 A 
ATOM     24  C   UNL A   1      34.795  24.165  24.175  1.00  0.00     0.018 A 
ATOM     25  Br  UNL A   1      35.828  22.591  24.003  1.00  0.00    -0.051 Br
ENDBRANCH  11  19
ENDBRANCH   7   8
ENDBRANCH   6   7
ENDBRANCH   4   6
ENDBRANCH   3   4
ENDBRANCH   2   3
ENDBRANCH   1   2
BRANCH   1  26
ATOM     26  O   UNL A   1      34.937  34.163  31.098  1.00  0.00    -0.374 OA
BRANCH  26  27
ATOM     27  C   UNL A   1      34.362  33.257  32.050  1.00  0.00     0.202 C 
BRANCH  27  28
ATOM     28  C   UNL A   1      35.433  32.346  32.628  1.00  0.00     0.261 C 
BRANCH  28  29
ATOM     29  O   UNL A   1      36.329  32.066  31.561  1.00  0.00    -0.460 OA
BRANCH  29  30
ATOM     30  C   UNL A   1      36.224  30.817  31.039  1.00  0.00     0.338 C 
ATOM     31  O   UNL A   1      36.160  29.786  31.676  1.00  0.00    -0.246 OA
BRANCH  30  32
ATOM     32  C   UNL A   1      36.398  30.886  29.538  1.00  0.00     0.060 A 
ATOM     33  C   UNL A   1      36.462  29.592  29.022  1.00  0.00     0.016 A 
ATOM     34  C   UNL A   1      37.399  31.796  29.205  1.00  0.00     0.016 A 
ATOM     35  C   UNL A   1      37.724  29.053  28.904  1.00  0.00     0.010 A 
ATOM     36  C   UNL A   1      38.661  31.276  29.253  1.00  0.00     0.010 A 
ATOM     37  C   UNL A   1      38.807  29.890  29.174  1.00  0.00    -0.014 A 
BRANCH  37  38
ATOM     38  C   UNL A   1      40.131  29.331  29.264  1.00  0.00     0.031 A 
ATOM     39  C   UNL A   1      40.522  29.044  30.658  1.00  0.00     0.074 A 
ATOM     40  C   UNL A   1      40.816  28.888  28.196  1.00  0.00     0.049 A 
ATOM     41  N   UNL A   1      41.390  29.656  31.393  1.00  0.00    -0.248 NA
ATOM     42  C   UNL A   1      39.677  28.083  31.390  1.00  0.00     0.031 C 
ATOM     43  C   UNL A   1      40.365  28.730  26.812  1.00  0.00     0.029 A 
ATOM     44  N   UNL A   1      42.058  28.347  28.182  1.00  0.00    -0.354 N 
ATOM     45  C   UNL A   1      41.292  29.039  32.632  1.00  0.00     0.074 A 
ATOM     46  C   UNL A   1      40.056  28.307  32.643  1.00  0.00     0.031 C 
ATOM     47  C   UNL A   1      41.241  27.929  26.159  1.00  0.00     0.029 A 
ATOM     48  C   UNL A   1      42.346  27.608  27.051  1.00  0.00     0.049 A 
ATOM     49  H   UNL A   1      42.701  28.470  28.917  1.00  0.00     0.167 HD
ATOM     50  C   UNL A   1      42.356  28.895  33.462  1.00  0.00     0.037 A 
ATOM     51  C   UNL A   1      43.353  26.705  26.957  1.00  0.00     0.037 A 
ATOM     52  C   UNL A   1      43.447  29.751  33.095  1.00  0.00     0.049 A 
ATOM     53  C   UNL A   1      44.283  26.947  28.099  1.00  0.00     0.074 A 
ATOM     54  C   UNL A   1      43.598  31.118  32.958  1.00  0.00     0.029 A 
ATOM     55  N   UNL A   1      44.505  29.191  32.419  1.00  0.00    -0.354 N 
ATOM     56  N   UNL A   1      45.030  28.010  28.233  1.00  0.00    -0.248 NA
ATOM     57  C   UNL A   1      44.053  26.199  29.330  1.00  0.00     0.031 C 
ATOM     58  C   UNL A   1      44.453  31.288  31.830  1.00  0.00     0.029 A 
ATOM     59  C   UNL A   1      44.791  30.017  31.361  1.00  0.00     0.049 A 
ATOM     60  H   UNL A   1      44.970  28.354  32.650  1.00  0.00     0.167 HD
ATOM     61  C   UNL A   1      45.042  28.279  29.597  1.00  0.00     0.074 A 
ATOM     62  C   UNL A   1      44.494  27.085  30.228  1.00  0.00     0.031 C 
ATOM     63  C   UNL A   1      45.227  29.549  30.067  1.00  0.00     0.037 A 
BRANCH  50  64
ATOM     64  C   UNL A   1      42.498  27.723  34.387  1.00  0.00     0.064 A 
ATOM     65  C   UNL A   1      43.051  26.528  33.908  1.00  0.00     0.173 A 
ATOM     66  C   UNL A   1      41.910  27.658  35.673  1.00  0.00     0.173 A 
ATOM     67  F   UNL A   1      43.584  26.473  32.678  1.00  0.00    -0.203 F 
ATOM     68  C   UNL A   1      43.005  25.350  34.656  1.00  0.00     0.198 A 
ATOM     69  C   UNL A   1      41.934  26.504  36.447  1.00  0.00     0.198 A 
ATOM     70  F   UNL A   1      41.197  28.672  36.184  1.00  0.00    -0.203 F 
ATOM     71  F   UNL A   1      43.446  24.206  34.119  1.00  0.00    -0.200 F 
ATOM     72  C   UNL A   1      42.457  25.342  35.929  1.00  0.00     0.200 A 
ATOM     73  F   UNL A   1      41.380  26.518  37.669  1.00  0.00    -0.200 F 
ATOM     74  F   UNL A   1      42.384  24.205  36.632  1.00  0.00    -0.200 F 
ENDBRANCH  50  64
BRANCH  51  75
ATOM     75  C   UNL A   1      43.353  25.444  26.177  1.00  0.00     0.064 A 
ATOM     76  C   UNL A   1      44.375  25.160  25.260  1.00  0.00     0.173 A 
ATOM     77  C   UNL A   1      42.478  24.382  26.487  1.00  0.00     0.173 A 
ATOM     78  F   UNL A   1      45.286  26.095  24.955  1.00  0.00    -0.203 F 
ATOM     79  C   UNL A   1      44.514  23.890  24.687  1.00  0.00     0.198 A 
ATOM     80  C   UNL A   1      42.608  23.122  25.903  1.00  0.00     0.198 A 
ATOM     81  F   UNL A   1      41.535  24.515  27.430  1.00  0.00    -0.203 F 
ATOM     82  F   UNL A   1      45.536  23.639  23.856  1.00  0.00    -0.200 F 
ATOM     83  C   UNL A   1      43.632  22.873  25.011  1.00  0.00     0.200 A 
ATOM     84  F   UNL A   1      41.769  22.138  26.257  1.00  0.00    -0.200 F 
ATOM     85  F   UNL A   1      43.791  21.645  24.499  1.00  0.00    -0.200 F 
ENDBRANCH  51  75
BRANCH  63  86
ATOM     86  C   UNL A   1      45.656  30.596  29.079  1.00  0.00     0.064 A 
ATOM     87  C   UNL A   1      46.999  30.827  28.739  1.00  0.00     0.173 A 
ATOM     88  C   UNL A   1      44.678  31.281  28.347  1.00  0.00     0.173 A 
ATOM     89  F   UNL A   1      47.982  30.124  29.313  1.00  0.00    -0.203 F 
ATOM     90  C   UNL A   1      47.350  31.746  27.752  1.00  0.00     0.198 A 
ATOM     91  C   UNL A   1      45.029  32.171  27.335  1.00  0.00     0.198 A 
ATOM     92  F   UNL A   1      43.376  31.049  28.582  1.00  0.00    -0.203 F 
ATOM     93  F   UNL A   1      48.641  31.958  27.459  1.00  0.00    -0.200 F 
ATOM     94  C   UNL A   1      46.363  32.412  27.047  1.00  0.00     0.200 A 
ATOM     95  F   UNL A   1      44.071  32.775  26.618  1.00  0.00    -0.200 F 
ATOM     96  F   UNL A   1      46.696  33.266  26.068  1.00  0.00    -0.200 F 
ENDBRANCH  63  86
ENDBRANCH  37  38
ENDBRANCH  30  32
ENDBRANCH  29  30
ENDBRANCH  28  29
ENDBRANCH  27  28
ENDBRANCH  26  27
ENDBRANCH   1  26
TORSDOF 18
ENDMDL
MODEL 3
REMARK VINA RESULT:     -12.1      1.597      3.374
REMARK SMILES O=C(CCc1cn(-c2ccc(Br)cc2)nc1-c1ccccc1)OCCOCCOC(=O)c1ccc(-c2c3nc(c(-c4c(F)c(F)c(F)c(F)c4F)c4ccc([nH]4)c(-c4c(F)c(F)c(F)c(F)c4F)c4nc(c(-c5c(F)c(F)c(F)c(F)c5F)c5ccc2[nH]5)C=C4)C=C3)cc1
REMARK SMILES IDX 25 1 24 2 23 3 2 4 1 5 3 6 4 7 5 8 6 9 16 10 7 11 15 12
REMARK SMILES IDX 17 13 18 14 22 15 19 16 21 17 20 18 8 19 9 20 14 21 10 22
REMARK SMILES IDX 13 23 11 24 12 25 26 26 27 27 28 28 29 29 30 30 31 31 32 32
REMARK SMILES IDX 33 33 94 34 34 35 93 36 35 37 36 38 37 39 87 40 38 41 92 42
REMARK SMILES IDX 86 43 88 44 39 45 91 46 85 47 84 48 40 50 72 51 52 52 71 53
REMARK SMILES IDX 53 54 56 55 70 56 89 57 54 58 55 59 69 61 90 62 57 63 41 64
REMARK SMILES IDX 42 65 50 66 43 67 44 68 48 69 51 70 45 71 46 72 49 73 47 74
REMARK SMILES IDX 73 75 74 76 82 77 75 78 76 79 80 80 83 81 77 82 78 83 81 84
REMARK SMILES IDX 79 85 58 86 59 87 67 88 60 89 61 90 65 91 68 92 62 93 63 94
REMARK SMILES IDX 66 95 64 96
REMARK H PARENT 88 49 56 60
REMARK Flexibility Score: inf
ROOT
ATOM      1  C   UNL A   1      42.921  19.866  25.880  1.00  0.00     0.202 C 
ENDROOT
BRANCH   1   2
ATOM      2  C   UNL A   1      41.872  20.593  26.691  1.00  0.00     0.261 C 
BRANCH   2   3
ATOM      3  O   UNL A   1      40.718  20.959  25.925  1.00  0.00    -0.463 OA
BRANCH   3   4
ATOM      4  C   UNL A   1      39.711  21.782  26.272  1.00  0.00     0.306 C 
ATOM      5  O   UNL A   1      39.618  22.097  27.462  1.00  0.00    -0.252 OA
BRANCH   4   6
ATOM      6  C   UNL A   1      38.655  22.280  25.299  1.00  0.00     0.127 C 
BRANCH   6   7
ATOM      7  C   UNL A   1      37.323  22.778  25.829  1.00  0.00     0.051 C 
BRANCH   7   8
ATOM      8  C   UNL A   1      36.103  22.054  25.358  1.00  0.00    -0.001 A 
ATOM      9  C   UNL A   1      36.043  20.684  25.225  1.00  0.00     0.119 A 
ATOM     10  C   UNL A   1      34.787  22.497  24.979  1.00  0.00     0.096 A 
ATOM     11  N   UNL A   1      34.746  20.351  24.946  1.00  0.00    -0.240 N 
ATOM     12  N   UNL A   1      33.997  21.443  24.688  1.00  0.00    -0.168 NA
BRANCH  10  13
ATOM     13  C   UNL A   1      34.250  23.864  24.913  1.00  0.00     0.002 A 
ATOM     14  C   UNL A   1      33.608  24.428  26.024  1.00  0.00     0.010 A 
ATOM     15  C   UNL A   1      34.356  24.635  23.749  1.00  0.00     0.010 A 
ATOM     16  C   UNL A   1      33.112  25.737  25.974  1.00  0.00     0.001 A 
ATOM     17  C   UNL A   1      33.880  25.953  23.713  1.00  0.00     0.001 A 
ATOM     18  C   UNL A   1      33.273  26.510  24.832  1.00  0.00     0.000 A 
ENDBRANCH  10  13
BRANCH  11  19
ATOM     19  C   UNL A   1      34.208  19.040  24.988  1.00  0.00     0.065 A 
ATOM     20  C   UNL A   1      32.984  18.818  25.644  1.00  0.00     0.029 A 
ATOM     21  C   UNL A   1      34.890  17.971  24.400  1.00  0.00     0.029 A 
ATOM     22  C   UNL A   1      32.466  17.528  25.745  1.00  0.00     0.018 A 
ATOM     23  C   UNL A   1      34.385  16.673  24.538  1.00  0.00     0.018 A 
ATOM     24  C   UNL A   1      33.180  16.459  25.213  1.00  0.00     0.018 A 
ATOM     25  Br  UNL A   1      32.511  14.703  25.421  1.00  0.00    -0.051 Br
ENDBRANCH  11  19
ENDBRANCH   7   8
ENDBRANCH   6   7
ENDBRANCH   4   6
ENDBRANCH   3   4
ENDBRANCH   2   3
ENDBRANCH   1   2
BRANCH   1  26
ATOM     26  O   UNL A   1      43.552  20.727  24.940  1.00  0.00    -0.374 OA
BRANCH  26  27
ATOM     27  C   UNL A   1      44.060  21.951  25.492  1.00  0.00     0.202 C 
BRANCH  27  28
ATOM     28  C   UNL A   1      43.706  23.124  24.594  1.00  0.00     0.261 C 
BRANCH  28  29
ATOM     29  O   UNL A   1      43.895  24.293  25.380  1.00  0.00    -0.460 OA
BRANCH  29  30
ATOM     30  C   UNL A   1      42.857  25.169  25.361  1.00  0.00     0.338 C 
ATOM     31  O   UNL A   1      42.875  26.277  24.866  1.00  0.00    -0.246 OA
BRANCH  30  32
ATOM     32  C   UNL A   1      41.736  24.635  26.224  1.00  0.00     0.060 A 
ATOM     33  C   UNL A   1      40.586  25.391  26.004  1.00  0.00     0.016 A 
ATOM     34  C   UNL A   1      42.178  24.441  27.531  1.00  0.00     0.016 A 
ATOM     35  C   UNL A   1      40.402  26.466  26.847  1.00  0.00     0.010 A 
ATOM     36  C   UNL A   1      42.137  25.566  28.303  1.00  0.00     0.010 A 
ATOM     37  C   UNL A   1      41.294  26.608  27.910  1.00  0.00    -0.014 A 
BRANCH  37  38
ATOM     38  C   UNL A   1      41.275  27.814  28.697  1.00  0.00     0.031 A 
ATOM     39  C   UNL A   1      42.345  28.751  28.306  1.00  0.00     0.074 A 
ATOM     40  C   UNL A   1      40.254  28.148  29.503  1.00  0.00     0.049 A 
ATOM     41  N   UNL A   1      43.415  29.069  28.956  1.00  0.00    -0.248 NA
ATOM     42  C   UNL A   1      42.318  29.233  26.912  1.00  0.00     0.031 C 
ATOM     43  C   UNL A   1      38.947  27.505  29.652  1.00  0.00     0.029 A 
ATOM     44  N   UNL A   1      40.145  29.257  30.275  1.00  0.00    -0.354 N 
ATOM     45  C   UNL A   1      44.106  29.911  28.097  1.00  0.00     0.074 A 
ATOM     46  C   UNL A   1      43.539  29.739  26.788  1.00  0.00     0.031 C 
ATOM     47  C   UNL A   1      38.111  28.362  30.287  1.00  0.00     0.029 A 
ATOM     48  C   UNL A   1      38.854  29.556  30.664  1.00  0.00     0.049 A 
ATOM     49  H   UNL A   1      40.921  29.802  30.537  1.00  0.00     0.167 HD
ATOM     50  C   UNL A   1      44.885  30.929  28.543  1.00  0.00     0.037 A 
ATOM     51  C   UNL A   1      38.450  30.765  31.127  1.00  0.00     0.037 A 
ATOM     52  C   UNL A   1      45.199  30.799  29.937  1.00  0.00     0.049 A 
ATOM     53  C   UNL A   1      39.673  31.535  31.499  1.00  0.00     0.074 A 
ATOM     54  C   UNL A   1      45.833  29.834  30.697  1.00  0.00     0.029 A 
ATOM     55  N   UNL A   1      44.500  31.576  30.829  1.00  0.00    -0.354 N 
ATOM     56  N   UNL A   1      40.463  31.235  32.496  1.00  0.00    -0.248 NA
ATOM     57  C   UNL A   1      40.268  32.395  30.482  1.00  0.00     0.031 C 
ATOM     58  C   UNL A   1      45.112  29.796  31.927  1.00  0.00     0.029 A 
ATOM     59  C   UNL A   1      44.099  30.753  31.852  1.00  0.00     0.049 A 
ATOM     60  H   UNL A   1      44.320  32.540  30.749  1.00  0.00     0.167 HD
ATOM     61  C   UNL A   1      41.745  31.536  32.050  1.00  0.00     0.074 A 
ATOM     62  C   UNL A   1      41.554  32.324  30.838  1.00  0.00     0.031 C 
ATOM     63  C   UNL A   1      42.838  30.882  32.544  1.00  0.00     0.037 A 
BRANCH  50  64
ATOM     64  C   UNL A   1      45.057  32.204  27.772  1.00  0.00     0.064 A 
ATOM     65  C   UNL A   1      46.264  32.451  27.104  1.00  0.00     0.173 A 
ATOM     66  C   UNL A   1      44.159  33.296  27.843  1.00  0.00     0.173 A 
ATOM     67  F   UNL A   1      47.205  31.497  27.031  1.00  0.00    -0.203 F 
ATOM     68  C   UNL A   1      46.556  33.703  26.561  1.00  0.00     0.198 A 
ATOM     69  C   UNL A   1      44.419  34.518  27.234  1.00  0.00     0.198 A 
ATOM     70  F   UNL A   1      43.048  33.258  28.592  1.00  0.00    -0.203 F 
ATOM     71  F   UNL A   1      47.763  33.928  26.027  1.00  0.00    -0.200 F 
ATOM     72  C   UNL A   1      45.629  34.731  26.615  1.00  0.00     0.200 A 
ATOM     73  F   UNL A   1      43.512  35.503  27.317  1.00  0.00    -0.200 F 
ATOM     74  F   UNL A   1      45.922  35.940  26.122  1.00  0.00    -0.200 F 
ENDBRANCH  50  64
BRANCH  51  75
ATOM     75  C   UNL A   1      37.131  31.409  30.915  1.00  0.00     0.064 A 
ATOM     76  C   UNL A   1      36.307  31.745  31.999  1.00  0.00     0.173 A 
ATOM     77  C   UNL A   1      36.752  31.925  29.659  1.00  0.00     0.173 A 
ATOM     78  F   UNL A   1      36.628  31.345  33.238  1.00  0.00    -0.203 F 
ATOM     79  C   UNL A   1      35.173  32.548  31.836  1.00  0.00     0.198 A 
ATOM     80  C   UNL A   1      35.613  32.712  29.495  1.00  0.00     0.198 A 
ATOM     81  F   UNL A   1      37.527  31.754  28.579  1.00  0.00    -0.203 F 
ATOM     82  F   UNL A   1      34.439  32.894  32.904  1.00  0.00    -0.200 F 
ATOM     83  C   UNL A   1      34.828  33.032  30.585  1.00  0.00     0.200 A 
ATOM     84  F   UNL A   1      35.315  33.204  28.284  1.00  0.00    -0.200 F 
ATOM     85  F   UNL A   1      33.769  33.839  30.435  1.00  0.00    -0.200 F 
ENDBRANCH  51  75
BRANCH  63  86
ATOM     86  C   UNL A   1      42.634  30.006  33.746  1.00  0.00     0.064 A 
ATOM     87  C   UNL A   1      42.201  28.672  33.661  1.00  0.00     0.173 A 
ATOM     88  C   UNL A   1      43.026  30.477  35.005  1.00  0.00     0.173 A 
ATOM     89  F   UNL A   1      41.921  28.117  32.476  1.00  0.00    -0.203 F 
ATOM     90  C   UNL A   1      42.110  27.865  34.793  1.00  0.00     0.198 A 
ATOM     91  C   UNL A   1      42.971  29.657  36.129  1.00  0.00     0.198 A 
ATOM     92  F   UNL A   1      43.513  31.721  35.136  1.00  0.00    -0.203 F 
ATOM     93  F   UNL A   1      41.679  26.600  34.684  1.00  0.00    -0.200 F 
ATOM     94  C   UNL A   1      42.501  28.358  36.026  1.00  0.00     0.200 A 
ATOM     95  F   UNL A   1      43.401  30.119  37.312  1.00  0.00    -0.200 F 
ATOM     96  F   UNL A   1      42.455  27.570  37.110  1.00  0.00    -0.200 F 
ENDBRANCH  63  86
ENDBRANCH  37  38
ENDBRANCH  30  32
ENDBRANCH  29  30
ENDBRANCH  28  29
ENDBRANCH  27  28
ENDBRANCH  26  27
ENDBRANCH   1  26
TORSDOF 18
ENDMDL
