MODEL 1
REMARK VINA RESULT:     -10.8      0.000      0.000
REMARK SMILES CCN1C(=O)/C(=C/c2cc([N+](=O)[O-])ccc2O)S/C1=[NH+]\c1ccc(C(=O)OCCOCCOC(=O)c2ccc(-c3c4nc(c(-c5c(F)c(F)c(F)c(F)c5F)c5ccc([nH]5)c(-c5c(F)c(F)c(F)c(F)c5F)c5nc(c(-c6c(F)c(F)c(F)c(F)c6F)c6ccc3[nH]6)C=C5)C=C4)cc2)cc1
REMARK SMILES IDX 29 1 28 2 27 3 25 4 26 5 24 6 21 7 22 8 100 9 23 10 99 11
REMARK SMILES IDX 20 12 3 13 4 14 19 15 5 16 6 17 18 18 7 19 2 21 1 22 8 23
REMARK SMILES IDX 9 24 16 25 10 26 15 27 14 28 17 29 11 31 12 32 13 33 30 34
REMARK SMILES IDX 31 35 32 36 33 37 34 38 35 39 36 40 37 41 98 42 38 43 97 44
REMARK SMILES IDX 39 45 40 46 41 47 91 48 42 49 96 50 90 51 92 52 43 53 95 54
REMARK SMILES IDX 89 55 88 56 44 58 76 59 56 60 75 61 57 62 60 63 74 64 93 65
REMARK SMILES IDX 58 66 59 67 73 69 94 70 61 71 45 72 46 73 54 74 47 75 48 76
REMARK SMILES IDX 52 77 55 78 49 79 50 80 53 81 51 82 77 83 78 84 86 85 79 86
REMARK SMILES IDX 80 87 84 88 87 89 81 90 82 91 85 92 83 93 62 94 63 95 71 96
REMARK SMILES IDX 64 97 65 98 69 99 72 100 66 101 67 102 70 103 68 104
REMARK H PARENT 20 20 17 30 92 57 60 68
REMARK Flexibility Score: inf
ROOT
ATOM      1  C   UNL A   1      43.708  39.230  28.934  1.00  0.00     0.202 C 
ENDROOT
BRANCH   1   2
ATOM      2  C   UNL A   1      42.815  38.351  28.053  1.00  0.00     0.261 C 
BRANCH   2   3
ATOM      3  O   UNL A   1      43.205  36.973  28.161  1.00  0.00    -0.460 OA
BRANCH   3   4
ATOM      4  C   UNL A   1      42.224  36.073  27.909  1.00  0.00     0.338 C 
ATOM      5  O   UNL A   1      41.858  35.683  26.810  1.00  0.00    -0.246 OA
BRANCH   4   6
ATOM      6  C   UNL A   1      41.713  35.500  29.178  1.00  0.00     0.060 A 
ATOM      7  C   UNL A   1      40.911  34.346  31.606  1.00  0.00     0.125 A 
ATOM      8  C   UNL A   1      42.177  34.922  31.486  1.00  0.00     0.052 A 
ATOM      9  C   UNL A   1      40.012  34.445  30.536  1.00  0.00     0.052 A 
ATOM     10  C   UNL A   1      42.580  35.492  30.279  1.00  0.00     0.020 A 
ATOM     11  C   UNL A   1      40.413  34.999  29.317  1.00  0.00     0.020 A 
BRANCH   7  12
ATOM     12  N   UNL A   1      40.596  33.657  32.788  1.00  0.00    -0.234 N 
ATOM     13  N   UNL A   1      38.965  32.762  34.225  1.00  0.00    -0.186 N 
ATOM     14  C   UNL A   1      37.603  32.693  34.457  1.00  0.00     0.348 C 
ATOM     15  C   UNL A   1      39.354  33.479  33.113  1.00  0.00     0.324 C 
ATOM     16  O   UNL A   1      37.030  32.102  35.362  1.00  0.00    -0.240 OA
ATOM     17  C   UNL A   1      36.864  33.472  33.425  1.00  0.00     0.110 C 
ATOM     18  S   UNL A   1      37.955  34.073  32.250  1.00  0.00     0.007 SA
ATOM     19  C   UNL A   1      35.538  33.668  33.459  1.00  0.00     0.036 C 
ATOM     20  H   UNL A   1      41.315  33.312  33.367  1.00  0.00     0.313 HD
BRANCH  13  21
ATOM     21  C   UNL A   1      39.973  32.040  35.001  1.00  0.00     0.244 C 
ATOM     22  C   UNL A   1      40.393  32.624  36.339  1.00  0.00     0.055 C 
ENDBRANCH  13  21
BRANCH  19  23
ATOM     23  C   UNL A   1      34.796  34.435  32.445  1.00  0.00     0.024 A 
ATOM     24  C   UNL A   1      34.635  33.890  31.165  1.00  0.00     0.097 A 
ATOM     25  C   UNL A   1      34.202  35.673  32.742  1.00  0.00     0.123 A 
ATOM     26  C   UNL A   1      33.871  34.578  30.209  1.00  0.00     0.270 A 
ATOM     27  C   UNL A   1      33.440  36.355  31.791  1.00  0.00     0.054 A 
ATOM     28  C   UNL A   1      33.271  35.806  30.519  1.00  0.00     0.089 A 
BRANCH  25  29
ATOM     29  O   UNL A   1      34.369  36.209  33.990  1.00  0.00    -0.507 OA
ATOM     30  H   UNL A   1      35.018  35.860  34.567  1.00  0.00     0.293 HD
ENDBRANCH  25  29
BRANCH  26  31
ATOM     31  N   UNL A   1      33.688  34.001  28.871  1.00  0.00     0.062 N 
ATOM     32  O   UNL A   1      32.659  34.302  28.249  1.00  0.00    -0.258 OA
ATOM     33  O   UNL A   1      34.575  33.250  28.441  1.00  0.00    -0.258 OA
ENDBRANCH  26  31
ENDBRANCH  19  23
ENDBRANCH   7  12
ENDBRANCH   4   6
ENDBRANCH   3   4
ENDBRANCH   2   3
ENDBRANCH   1   2
BRANCH   1  34
ATOM     34  O   UNL A   1      44.791  39.876  28.265  1.00  0.00    -0.374 OA
BRANCH  34  35
ATOM     35  C   UNL A   1      45.796  39.033  27.695  1.00  0.00     0.202 C 
BRANCH  35  36
ATOM     36  C   UNL A   1      46.970  38.678  28.614  1.00  0.00     0.261 C 
BRANCH  36  37
ATOM     37  O   UNL A   1      46.793  37.388  29.228  1.00  0.00    -0.460 OA
BRANCH  37  38
ATOM     38  C   UNL A   1      47.442  36.373  28.613  1.00  0.00     0.338 C 
ATOM     39  O   UNL A   1      48.618  36.333  28.285  1.00  0.00    -0.246 OA
BRANCH  38  40
ATOM     40  C   UNL A   1      46.562  35.193  28.527  1.00  0.00     0.060 A 
ATOM     41  C   UNL A   1      46.638  34.257  29.565  1.00  0.00     0.016 A 
ATOM     42  C   UNL A   1      45.732  34.966  27.426  1.00  0.00     0.016 A 
ATOM     43  C   UNL A   1      45.923  33.064  29.484  1.00  0.00     0.010 A 
ATOM     44  C   UNL A   1      45.019  33.764  27.343  1.00  0.00     0.010 A 
ATOM     45  C   UNL A   1      45.141  32.793  28.354  1.00  0.00    -0.014 A 
BRANCH  45  46
ATOM     46  C   UNL A   1      44.568  31.438  28.176  1.00  0.00     0.031 A 
ATOM     47  C   UNL A   1      45.342  30.412  27.396  1.00  0.00     0.074 A 
ATOM     48  C   UNL A   1      43.391  31.111  28.736  1.00  0.00     0.049 A 
ATOM     49  N   UNL A   1      45.044  29.164  27.136  1.00  0.00    -0.248 NA
ATOM     50  C   UNL A   1      46.626  30.855  26.831  1.00  0.00     0.031 C 
ATOM     51  C   UNL A   1      42.566  32.005  29.544  1.00  0.00     0.029 A 
ATOM     52  N   UNL A   1      42.691  29.931  28.713  1.00  0.00    -0.354 N 
ATOM     53  C   UNL A   1      46.098  28.675  26.376  1.00  0.00     0.074 A 
ATOM     54  C   UNL A   1      47.026  29.768  26.188  1.00  0.00     0.031 C 
ATOM     55  C   UNL A   1      41.471  31.339  29.948  1.00  0.00     0.029 A 
ATOM     56  C   UNL A   1      41.507  29.983  29.404  1.00  0.00     0.049 A 
ATOM     57  H   UNL A   1      43.008  29.125  28.245  1.00  0.00     0.167 HD
ATOM     58  C   UNL A   1      46.280  27.424  25.889  1.00  0.00     0.037 A 
ATOM     59  C   UNL A   1      40.559  29.040  29.571  1.00  0.00     0.037 A 
ATOM     60  C   UNL A   1      45.357  26.336  26.079  1.00  0.00     0.049 A 
ATOM     61  C   UNL A   1      40.749  27.680  28.955  1.00  0.00     0.074 A 
ATOM     62  C   UNL A   1      45.470  25.022  25.659  1.00  0.00     0.029 A 
ATOM     63  N   UNL A   1      44.138  26.442  26.734  1.00  0.00    -0.354 N 
ATOM     64  N   UNL A   1      41.766  27.212  28.275  1.00  0.00    -0.248 NA
ATOM     65  C   UNL A   1      39.652  26.717  29.132  1.00  0.00     0.031 C 
ATOM     66  C   UNL A   1      44.295  24.348  26.011  1.00  0.00     0.029 A 
ATOM     67  C   UNL A   1      43.472  25.226  26.698  1.00  0.00     0.049 A 
ATOM     68  H   UNL A   1      43.796  27.261  27.160  1.00  0.00     0.167 HD
ATOM     69  C   UNL A   1      41.449  25.895  27.968  1.00  0.00     0.074 A 
ATOM     70  C   UNL A   1      40.147  25.636  28.546  1.00  0.00     0.031 C 
ATOM     71  C   UNL A   1      42.174  24.982  27.275  1.00  0.00     0.037 A 
BRANCH  58  72
ATOM     72  C   UNL A   1      47.516  27.181  25.071  1.00  0.00     0.064 A 
ATOM     73  C   UNL A   1      48.644  26.540  25.606  1.00  0.00     0.173 A 
ATOM     74  C   UNL A   1      47.570  27.593  23.731  1.00  0.00     0.173 A 
ATOM     75  F   UNL A   1      48.649  26.138  26.886  1.00  0.00    -0.203 F 
ATOM     76  C   UNL A   1      49.794  26.357  24.841  1.00  0.00     0.198 A 
ATOM     77  C   UNL A   1      48.710  27.381  22.961  1.00  0.00     0.198 A 
ATOM     78  F   UNL A   1      46.517  28.206  23.168  1.00  0.00    -0.203 F 
ATOM     79  F   UNL A   1      50.881  25.797  25.392  1.00  0.00    -0.200 F 
ATOM     80  C   UNL A   1      49.824  26.774  23.519  1.00  0.00     0.200 A 
ATOM     81  F   UNL A   1      48.734  27.776  21.680  1.00  0.00    -0.200 F 
ATOM     82  F   UNL A   1      50.933  26.601  22.785  1.00  0.00    -0.200 F 
ENDBRANCH  58  72
BRANCH  59  83
ATOM     83  C   UNL A   1      39.349  29.349  30.374  1.00  0.00     0.064 A 
ATOM     84  C   UNL A   1      39.372  29.252  31.773  1.00  0.00     0.173 A 
ATOM     85  C   UNL A   1      38.150  29.748  29.766  1.00  0.00     0.173 A 
ATOM     86  F   UNL A   1      40.488  28.848  32.397  1.00  0.00    -0.203 F 
ATOM     87  C   UNL A   1      38.238  29.537  32.532  1.00  0.00     0.198 A 
ATOM     88  C   UNL A   1      37.025  30.057  30.527  1.00  0.00     0.198 A 
ATOM     89  F   UNL A   1      38.078  29.853  28.431  1.00  0.00    -0.203 F 
ATOM     90  F   UNL A   1      38.277  29.404  33.864  1.00  0.00    -0.200 F 
ATOM     91  C   UNL A   1      37.069  29.947  31.909  1.00  0.00     0.200 A 
ATOM     92  F   UNL A   1      35.900  30.463  29.924  1.00  0.00    -0.200 F 
ATOM     93  F   UNL A   1      35.982  30.230  32.641  1.00  0.00    -0.200 F 
ENDBRANCH  59  83
BRANCH  71  94
ATOM     94  C   UNL A   1      41.588  23.607  27.127  1.00  0.00     0.064 A 
ATOM     95  C   UNL A   1      40.433  23.376  26.365  1.00  0.00     0.173 A 
ATOM     96  C   UNL A   1      42.205  22.502  27.734  1.00  0.00     0.173 A 
ATOM     97  F   UNL A   1      39.795  24.400  25.779  1.00  0.00    -0.203 F 
ATOM     98  C   UNL A   1      39.902  22.093  26.240  1.00  0.00     0.198 A 
ATOM     99  C   UNL A   1      41.690  21.218  27.580  1.00  0.00     0.198 A 
ATOM    100  F   UNL A   1      43.316  22.667  28.467  1.00  0.00    -0.203 F 
ATOM    101  F   UNL A   1      38.770  21.905  25.549  1.00  0.00    -0.200 F 
ATOM    102  C   UNL A   1      40.534  21.016  26.841  1.00  0.00     0.200 A 
ATOM    103  F   UNL A   1      42.309  20.175  28.152  1.00  0.00    -0.200 F 
ATOM    104  F   UNL A   1      40.025  19.783  26.715  1.00  0.00    -0.200 F 
ENDBRANCH  71  94
ENDBRANCH  45  46
ENDBRANCH  38  40
ENDBRANCH  37  38
ENDBRANCH  36  37
ENDBRANCH  35  36
ENDBRANCH  34  35
ENDBRANCH   1  34
TORSDOF 19
ENDMDL
MODEL 2
REMARK VINA RESULT:     -10.8      5.988     11.423
REMARK SMILES CCN1C(=O)/C(=C/c2cc([N+](=O)[O-])ccc2O)S/C1=[NH+]\c1ccc(C(=O)OCCOCCOC(=O)c2ccc(-c3c4nc(c(-c5c(F)c(F)c(F)c(F)c5F)c5ccc([nH]5)c(-c5c(F)c(F)c(F)c(F)c5F)c5nc(c(-c6c(F)c(F)c(F)c(F)c6F)c6ccc3[nH]6)C=C5)C=C4)cc2)cc1
REMARK SMILES IDX 29 1 28 2 27 3 25 4 26 5 24 6 21 7 22 8 100 9 23 10 99 11
REMARK SMILES IDX 20 12 3 13 4 14 19 15 5 16 6 17 18 18 7 19 2 21 1 22 8 23
REMARK SMILES IDX 9 24 16 25 10 26 15 27 14 28 17 29 11 31 12 32 13 33 30 34
REMARK SMILES IDX 31 35 32 36 33 37 34 38 35 39 36 40 37 41 98 42 38 43 97 44
REMARK SMILES IDX 39 45 40 46 41 47 91 48 42 49 96 50 90 51 92 52 43 53 95 54
REMARK SMILES IDX 89 55 88 56 44 58 76 59 56 60 75 61 57 62 60 63 74 64 93 65
REMARK SMILES IDX 58 66 59 67 73 69 94 70 61 71 45 72 46 73 54 74 47 75 48 76
REMARK SMILES IDX 52 77 55 78 49 79 50 80 53 81 51 82 77 83 78 84 86 85 79 86
REMARK SMILES IDX 80 87 84 88 87 89 81 90 82 91 85 92 83 93 62 94 63 95 71 96
REMARK SMILES IDX 64 97 65 98 69 99 72 100 66 101 67 102 70 103 68 104
REMARK H PARENT 20 20 17 30 92 57 60 68
REMARK Flexibility Score: inf
ROOT
ATOM      1  C   UNL A   1      34.613  34.125  28.211  1.00  0.00     0.202 C 
ENDROOT
BRANCH   1   2
ATOM      2  C   UNL A   1      35.324  33.193  29.197  1.00  0.00     0.261 C 
BRANCH   2   3
ATOM      3  O   UNL A   1      34.795  31.861  29.098  1.00  0.00    -0.460 OA
BRANCH   3   4
ATOM      4  C   UNL A   1      35.314  31.105  28.101  1.00  0.00     0.338 C 
ATOM      5  O   UNL A   1      36.494  30.843  27.923  1.00  0.00    -0.246 OA
BRANCH   4   6
ATOM      6  C   UNL A   1      34.225  30.506  27.290  1.00  0.00     0.060 A 
ATOM      7  C   UNL A   1      32.289  29.346  25.624  1.00  0.00     0.125 A 
ATOM      8  C   UNL A   1      33.581  28.818  25.675  1.00  0.00     0.052 A 
ATOM      9  C   UNL A   1      31.945  30.393  26.491  1.00  0.00     0.052 A 
ATOM     10  C   UNL A   1      34.546  29.395  26.499  1.00  0.00     0.020 A 
ATOM     11  C   UNL A   1      32.911  30.989  27.306  1.00  0.00     0.020 A 
BRANCH   7  12
ATOM     12  N   UNL A   1      31.389  28.829  24.680  1.00  0.00    -0.234 N 
ATOM     13  N   UNL A   1      30.292  26.969  23.749  1.00  0.00    -0.186 N 
ATOM     14  C   UNL A   1      30.238  25.587  23.763  1.00  0.00     0.348 C 
ATOM     15  C   UNL A   1      31.203  27.547  24.608  1.00  0.00     0.324 C 
ATOM     16  O   UNL A   1      29.502  24.863  23.108  1.00  0.00    -0.240 OA
ATOM     17  C   UNL A   1      31.242  25.041  24.718  1.00  0.00     0.110 C 
ATOM     18  S   UNL A   1      32.022  26.321  25.546  1.00  0.00     0.007 SA
ATOM     19  C   UNL A   1      31.486  23.731  24.862  1.00  0.00     0.036 C 
ATOM     20  H   UNL A   1      30.902  29.435  24.075  1.00  0.00     0.313 HD
BRANCH  13  21
ATOM     21  C   UNL A   1      29.384  27.824  22.985  1.00  0.00     0.244 C 
ATOM     22  C   UNL A   1      27.965  27.993  23.500  1.00  0.00     0.055 C 
ENDBRANCH  13  21
BRANCH  19  23
ATOM     23  C   UNL A   1      32.475  23.178  25.802  1.00  0.00     0.024 A 
ATOM     24  C   UNL A   1      33.818  23.107  25.409  1.00  0.00     0.097 A 
ATOM     25  C   UNL A   1      32.118  22.770  27.098  1.00  0.00     0.123 A 
ATOM     26  C   UNL A   1      34.783  22.646  26.319  1.00  0.00     0.270 A 
ATOM     27  C   UNL A   1      33.079  22.316  28.002  1.00  0.00     0.054 A 
ATOM     28  C   UNL A   1      34.418  22.255  27.615  1.00  0.00     0.089 A 
BRANCH  25  29
ATOM     29  O   UNL A   1      30.804  22.831  27.476  1.00  0.00    -0.507 OA
ATOM     30  H   UNL A   1      30.438  22.155  28.010  1.00  0.00     0.293 HD
ENDBRANCH  25  29
BRANCH  26  31
ATOM     31  N   UNL A   1      36.194  22.584  25.915  1.00  0.00     0.062 N 
ATOM     32  O   UNL A   1      36.641  21.488  25.548  1.00  0.00    -0.258 OA
ATOM     33  O   UNL A   1      36.852  23.633  25.962  1.00  0.00    -0.258 OA
ENDBRANCH  26  31
ENDBRANCH  19  23
ENDBRANCH   7  12
ENDBRANCH   4   6
ENDBRANCH   3   4
ENDBRANCH   2   3
ENDBRANCH   1   2
BRANCH   1  34
ATOM     34  O   UNL A   1      34.349  35.444  28.690  1.00  0.00    -0.374 OA
BRANCH  34  35
ATOM     35  C   UNL A   1      32.978  35.839  28.778  1.00  0.00     0.202 C 
BRANCH  35  36
ATOM     36  C   UNL A   1      32.544  36.457  30.112  1.00  0.00     0.261 C 
BRANCH  36  37
ATOM     37  O   UNL A   1      32.291  35.447  31.106  1.00  0.00    -0.460 OA
BRANCH  37  38
ATOM     38  C   UNL A   1      32.856  35.683  32.312  1.00  0.00     0.338 C 
ATOM     39  O   UNL A   1      32.376  36.300  33.251  1.00  0.00    -0.246 OA
BRANCH  38  40
ATOM     40  C   UNL A   1      34.119  34.931  32.431  1.00  0.00     0.060 A 
ATOM     41  C   UNL A   1      34.046  33.626  32.932  1.00  0.00     0.016 A 
ATOM     42  C   UNL A   1      35.356  35.505  32.127  1.00  0.00     0.016 A 
ATOM     43  C   UNL A   1      35.212  32.907  33.182  1.00  0.00     0.010 A 
ATOM     44  C   UNL A   1      36.528  34.784  32.384  1.00  0.00     0.010 A 
ATOM     45  C   UNL A   1      36.461  33.496  32.947  1.00  0.00    -0.014 A 
BRANCH  45  46
ATOM     46  C   UNL A   1      37.687  32.813  33.422  1.00  0.00     0.031 A 
ATOM     47  C   UNL A   1      38.337  31.780  32.546  1.00  0.00     0.074 A 
ATOM     48  C   UNL A   1      38.240  33.138  34.604  1.00  0.00     0.049 A 
ATOM     49  N   UNL A   1      39.424  31.078  32.750  1.00  0.00    -0.248 NA
ATOM     50  C   UNL A   1      37.671  31.500  31.264  1.00  0.00     0.031 C 
ATOM     51  C   UNL A   1      37.724  34.147  35.525  1.00  0.00     0.029 A 
ATOM     52  N   UNL A   1      39.362  32.653  35.225  1.00  0.00    -0.354 N 
ATOM     53  C   UNL A   1      39.568  30.272  31.628  1.00  0.00     0.074 A 
ATOM     54  C   UNL A   1      38.442  30.546  30.763  1.00  0.00     0.031 C 
ATOM     55  C   UNL A   1      38.535  34.213  36.595  1.00  0.00     0.029 A 
ATOM     56  C   UNL A   1      39.607  33.231  36.445  1.00  0.00     0.049 A 
ATOM     57  H   UNL A   1      39.937  31.955  34.834  1.00  0.00     0.167 HD
ATOM     58  C   UNL A   1      40.557  29.391  31.342  1.00  0.00     0.037 A 
ATOM     59  C   UNL A   1      40.586  32.990  37.339  1.00  0.00     0.037 A 
ATOM     60  C   UNL A   1      41.678  29.121  32.203  1.00  0.00     0.049 A 
ATOM     61  C   UNL A   1      41.630  31.950  37.031  1.00  0.00     0.074 A 
ATOM     62  C   UNL A   1      42.753  28.276  31.985  1.00  0.00     0.029 A 
ATOM     63  N   UNL A   1      41.861  29.683  33.458  1.00  0.00    -0.354 N 
ATOM     64  N   UNL A   1      41.786  31.223  35.952  1.00  0.00    -0.248 NA
ATOM     65  C   UNL A   1      42.638  31.699  38.072  1.00  0.00     0.031 C 
ATOM     66  C   UNL A   1      43.555  28.284  33.131  1.00  0.00     0.029 A 
ATOM     67  C   UNL A   1      43.012  29.176  34.043  1.00  0.00     0.049 A 
ATOM     68  H   UNL A   1      41.261  30.344  33.874  1.00  0.00     0.167 HD
ATOM     69  C   UNL A   1      42.920  30.452  36.168  1.00  0.00     0.074 A 
ATOM     70  C   UNL A   1      43.420  30.808  37.480  1.00  0.00     0.031 C 
ATOM     71  C   UNL A   1      43.498  29.536  35.352  1.00  0.00     0.037 A 
BRANCH  58  72
ATOM     72  C   UNL A   1      40.444  28.630  30.053  1.00  0.00     0.064 A 
ATOM     73  C   UNL A   1      41.064  29.073  28.874  1.00  0.00     0.173 A 
ATOM     74  C   UNL A   1      39.706  27.438  29.997  1.00  0.00     0.173 A 
ATOM     75  F   UNL A   1      41.769  30.214  28.870  1.00  0.00    -0.203 F 
ATOM     76  C   UNL A   1      40.915  28.372  27.680  1.00  0.00     0.198 A 
ATOM     77  C   UNL A   1      39.585  26.724  28.808  1.00  0.00     0.198 A 
ATOM     78  F   UNL A   1      39.097  26.967  31.096  1.00  0.00    -0.203 F 
ATOM     79  F   UNL A   1      41.466  28.846  26.553  1.00  0.00    -0.200 F 
ATOM     80  C   UNL A   1      40.180  27.196  27.649  1.00  0.00     0.200 A 
ATOM     81  F   UNL A   1      38.883  25.582  28.783  1.00  0.00    -0.200 F 
ATOM     82  F   UNL A   1      40.035  26.524  26.497  1.00  0.00    -0.200 F 
ENDBRANCH  58  72
BRANCH  59  83
ATOM     83  C   UNL A   1      40.632  33.761  38.606  1.00  0.00     0.064 A 
ATOM     84  C   UNL A   1      39.841  33.387  39.702  1.00  0.00     0.173 A 
ATOM     85  C   UNL A   1      41.465  34.880  38.751  1.00  0.00     0.173 A 
ATOM     86  F   UNL A   1      39.011  32.340  39.602  1.00  0.00    -0.203 F 
ATOM     87  C   UNL A   1      39.878  34.110  40.894  1.00  0.00     0.198 A 
ATOM     88  C   UNL A   1      41.519  35.585  39.951  1.00  0.00     0.198 A 
ATOM     89  F   UNL A   1      42.237  35.278  37.730  1.00  0.00    -0.203 F 
ATOM     90  F   UNL A   1      39.088  33.751  41.915  1.00  0.00    -0.200 F 
ATOM     91  C   UNL A   1      40.722  35.202  41.020  1.00  0.00     0.200 A 
ATOM     92  F   UNL A   1      42.342  36.635  40.073  1.00  0.00    -0.200 F 
ATOM     93  F   UNL A   1      40.763  35.890  42.169  1.00  0.00    -0.200 F 
ENDBRANCH  59  83
BRANCH  71  94
ATOM     94  C   UNL A   1      44.754  28.874  35.841  1.00  0.00     0.064 A 
ATOM     95  C   UNL A   1      46.020  29.426  35.600  1.00  0.00     0.173 A 
ATOM     96  C   UNL A   1      44.688  27.684  36.583  1.00  0.00     0.173 A 
ATOM     97  F   UNL A   1      46.140  30.552  34.881  1.00  0.00    -0.203 F 
ATOM     98  C   UNL A   1      47.176  28.797  36.061  1.00  0.00     0.198 A 
ATOM     99  C   UNL A   1      45.841  27.075  37.069  1.00  0.00     0.198 A 
ATOM    100  F   UNL A   1      43.501  27.118  36.848  1.00  0.00    -0.203 F 
ATOM    101  F   UNL A   1      48.377  29.317  35.775  1.00  0.00    -0.200 F 
ATOM    102  C   UNL A   1      47.085  27.628  36.799  1.00  0.00     0.200 A 
ATOM    103  F   UNL A   1      45.751  25.951  37.794  1.00  0.00    -0.200 F 
ATOM    104  F   UNL A   1      48.197  27.026  37.245  1.00  0.00    -0.200 F 
ENDBRANCH  71  94
ENDBRANCH  45  46
ENDBRANCH  38  40
ENDBRANCH  37  38
ENDBRANCH  36  37
ENDBRANCH  35  36
ENDBRANCH  34  35
ENDBRANCH   1  34
TORSDOF 19
ENDMDL
MODEL 3
REMARK VINA RESULT:     -10.8      5.955     12.298
REMARK SMILES CCN1C(=O)/C(=C/c2cc([N+](=O)[O-])ccc2O)S/C1=[NH+]\c1ccc(C(=O)OCCOCCOC(=O)c2ccc(-c3c4nc(c(-c5c(F)c(F)c(F)c(F)c5F)c5ccc([nH]5)c(-c5c(F)c(F)c(F)c(F)c5F)c5nc(c(-c6c(F)c(F)c(F)c(F)c6F)c6ccc3[nH]6)C=C5)C=C4)cc2)cc1
REMARK SMILES IDX 29 1 28 2 27 3 25 4 26 5 24 6 21 7 22 8 100 9 23 10 99 11
REMARK SMILES IDX 20 12 3 13 4 14 19 15 5 16 6 17 18 18 7 19 2 21 1 22 8 23
REMARK SMILES IDX 9 24 16 25 10 26 15 27 14 28 17 29 11 31 12 32 13 33 30 34
REMARK SMILES IDX 31 35 32 36 33 37 34 38 35 39 36 40 37 41 98 42 38 43 97 44
REMARK SMILES IDX 39 45 40 46 41 47 91 48 42 49 96 50 90 51 92 52 43 53 95 54
REMARK SMILES IDX 89 55 88 56 44 58 76 59 56 60 75 61 57 62 60 63 74 64 93 65
REMARK SMILES IDX 58 66 59 67 73 69 94 70 61 71 45 72 46 73 54 74 47 75 48 76
REMARK SMILES IDX 52 77 55 78 49 79 50 80 53 81 51 82 77 83 78 84 86 85 79 86
REMARK SMILES IDX 80 87 84 88 87 89 81 90 82 91 85 92 83 93 62 94 63 95 71 96
REMARK SMILES IDX 64 97 65 98 69 99 72 100 66 101 67 102 70 103 68 104
REMARK H PARENT 20 20 17 30 92 57 60 68
REMARK Flexibility Score: inf
ROOT
ATOM      1  C   UNL A   1      34.434  34.135  28.420  1.00  0.00     0.202 C 
ENDROOT
BRANCH   1   2
ATOM      2  C   UNL A   1      35.184  33.133  29.302  1.00  0.00     0.261 C 
BRANCH   2   3
ATOM      3  O   UNL A   1      34.687  31.803  29.085  1.00  0.00    -0.460 OA
BRANCH   3   4
ATOM      4  C   UNL A   1      35.204  31.159  28.012  1.00  0.00     0.338 C 
ATOM      5  O   UNL A   1      36.390  30.990  27.766  1.00  0.00    -0.246 OA
BRANCH   4   6
ATOM      6  C   UNL A   1      34.119  30.552  27.203  1.00  0.00     0.060 A 
ATOM      7  C   UNL A   1      32.190  29.372  25.543  1.00  0.00     0.125 A 
ATOM      8  C   UNL A   1      33.477  28.835  25.617  1.00  0.00     0.052 A 
ATOM      9  C   UNL A   1      31.846  30.439  26.384  1.00  0.00     0.052 A 
ATOM     10  C   UNL A   1      34.439  29.422  26.438  1.00  0.00     0.020 A 
ATOM     11  C   UNL A   1      32.809  31.045  27.197  1.00  0.00     0.020 A 
BRANCH   7  12
ATOM     12  N   UNL A   1      31.295  28.842  24.601  1.00  0.00    -0.234 N 
ATOM     13  N   UNL A   1      30.203  26.970  23.689  1.00  0.00    -0.186 N 
ATOM     14  C   UNL A   1      30.148  25.588  23.722  1.00  0.00     0.348 C 
ATOM     15  C   UNL A   1      31.110  27.560  24.545  1.00  0.00     0.324 C 
ATOM     16  O   UNL A   1      29.416  24.856  23.072  1.00  0.00    -0.240 OA
ATOM     17  C   UNL A   1      31.148  25.055  24.689  1.00  0.00     0.110 C 
ATOM     18  S   UNL A   1      31.923  26.346  25.504  1.00  0.00     0.007 SA
ATOM     19  C   UNL A   1      31.391  23.747  24.852  1.00  0.00     0.036 C 
ATOM     20  H   UNL A   1      30.811  29.440  23.985  1.00  0.00     0.313 HD
BRANCH  13  21
ATOM     21  C   UNL A   1      29.299  27.814  22.909  1.00  0.00     0.244 C 
ATOM     22  C   UNL A   1      27.895  28.037  23.444  1.00  0.00     0.055 C 
ENDBRANCH  13  21
BRANCH  19  23
ATOM     23  C   UNL A   1      32.375  23.207  25.804  1.00  0.00     0.024 A 
ATOM     24  C   UNL A   1      33.712  23.089  25.404  1.00  0.00     0.097 A 
ATOM     25  C   UNL A   1      32.019  22.857  27.118  1.00  0.00     0.123 A 
ATOM     26  C   UNL A   1      34.674  22.640  26.324  1.00  0.00     0.270 A 
ATOM     27  C   UNL A   1      32.977  22.414  28.032  1.00  0.00     0.054 A 
ATOM     28  C   UNL A   1      34.311  22.307  27.636  1.00  0.00     0.089 A 
BRANCH  25  29
ATOM     29  O   UNL A   1      30.711  22.964  27.503  1.00  0.00    -0.507 OA
ATOM     30  H   UNL A   1      30.334  22.317  28.066  1.00  0.00     0.293 HD
ENDBRANCH  25  29
BRANCH  26  31
ATOM     31  N   UNL A   1      36.079  22.529  25.911  1.00  0.00     0.062 N 
ATOM     32  O   UNL A   1      36.546  21.392  25.755  1.00  0.00    -0.258 OA
ATOM     33  O   UNL A   1      36.713  23.580  25.741  1.00  0.00    -0.258 OA
ENDBRANCH  26  31
ENDBRANCH  19  23
ENDBRANCH   7  12
ENDBRANCH   4   6
ENDBRANCH   3   4
ENDBRANCH   2   3
ENDBRANCH   1   2
BRANCH   1  34
ATOM     34  O   UNL A   1      34.230  35.427  28.991  1.00  0.00    -0.374 OA
BRANCH  34  35
ATOM     35  C   UNL A   1      32.876  35.851  29.168  1.00  0.00     0.202 C 
BRANCH  35  36
ATOM     36  C   UNL A   1      32.576  36.602  30.471  1.00  0.00     0.261 C 
BRANCH  36  37
ATOM     37  O   UNL A   1      32.286  35.696  31.551  1.00  0.00    -0.460 OA
BRANCH  37  38
ATOM     38  C   UNL A   1      33.014  35.898  32.673  1.00  0.00     0.338 C 
ATOM     39  O   UNL A   1      32.693  36.543  33.660  1.00  0.00    -0.246 OA
BRANCH  38  40
ATOM     40  C   UNL A   1      34.235  35.073  32.636  1.00  0.00     0.060 A 
ATOM     41  C   UNL A   1      34.142  33.764  33.123  1.00  0.00     0.016 A 
ATOM     42  C   UNL A   1      35.461  35.582  32.202  1.00  0.00     0.016 A 
ATOM     43  C   UNL A   1      35.284  32.974  33.228  1.00  0.00     0.010 A 
ATOM     44  C   UNL A   1      36.610  34.790  32.313  1.00  0.00     0.010 A 
ATOM     45  C   UNL A   1      36.531  33.496  32.861  1.00  0.00    -0.014 A 
BRANCH  45  46
ATOM     46  C   UNL A   1      37.761  32.734  33.183  1.00  0.00     0.031 A 
ATOM     47  C   UNL A   1      38.478  33.012  34.474  1.00  0.00     0.074 A 
ATOM     48  C   UNL A   1      38.212  31.776  32.355  1.00  0.00     0.049 A 
ATOM     49  N   UNL A   1      39.553  32.451  34.968  1.00  0.00    -0.248 NA
ATOM     50  C   UNL A   1      37.904  34.067  35.325  1.00  0.00     0.031 C 
ATOM     51  C   UNL A   1      37.585  31.390  31.094  1.00  0.00     0.029 A 
ATOM     52  N   UNL A   1      39.303  30.951  32.459  1.00  0.00    -0.354 N 
ATOM     53  C   UNL A   1      39.787  33.087  36.181  1.00  0.00     0.074 A 
ATOM     54  C   UNL A   1      38.762  34.097  36.333  1.00  0.00     0.031 C 
ATOM     55  C   UNL A   1      38.299  30.394  30.541  1.00  0.00     0.029 A 
ATOM     56  C   UNL A   1      39.446  30.095  31.397  1.00  0.00     0.049 A 
ATOM     57  H   UNL A   1      39.925  30.972  33.222  1.00  0.00     0.167 HD
ATOM     58  C   UNL A   1      40.761  32.842  37.089  1.00  0.00     0.037 A 
ATOM     59  C   UNL A   1      40.400  29.178  31.144  1.00  0.00     0.037 A 
ATOM     60  C   UNL A   1      41.779  31.835  36.938  1.00  0.00     0.049 A 
ATOM     61  C   UNL A   1      41.516  28.978  32.134  1.00  0.00     0.074 A 
ATOM     62  C   UNL A   1      42.785  31.482  37.820  1.00  0.00     0.029 A 
ATOM     63  N   UNL A   1      41.927  31.027  35.820  1.00  0.00    -0.354 N 
ATOM     64  N   UNL A   1      41.707  29.550  33.297  1.00  0.00    -0.248 NA
ATOM     65  C   UNL A   1      42.551  27.998  31.771  1.00  0.00     0.031 C 
ATOM     66  C   UNL A   1      43.576  30.501  37.212  1.00  0.00     0.029 A 
ATOM     67  C   UNL A   1      43.031  30.201  35.973  1.00  0.00     0.049 A 
ATOM     68  H   UNL A   1      41.336  31.038  35.033  1.00  0.00     0.167 HD
ATOM     69  C   UNL A   1      42.863  28.983  33.818  1.00  0.00     0.074 A 
ATOM     70  C   UNL A   1      43.325  28.013  32.848  1.00  0.00     0.031 C 
ATOM     71  C   UNL A   1      43.482  29.241  34.997  1.00  0.00     0.037 A 
BRANCH  58  72
ATOM     72  C   UNL A   1      40.788  33.709  38.316  1.00  0.00     0.064 A 
ATOM     73  C   UNL A   1      39.997  33.426  39.440  1.00  0.00     0.173 A 
ATOM     74  C   UNL A   1      41.620  34.837  38.366  1.00  0.00     0.173 A 
ATOM     75  F   UNL A   1      39.174  32.367  39.437  1.00  0.00    -0.203 F 
ATOM     76  C   UNL A   1      40.009  34.264  40.553  1.00  0.00     0.198 A 
ATOM     77  C   UNL A   1      41.652  35.656  39.492  1.00  0.00     0.198 A 
ATOM     78  F   UNL A   1      42.401  35.150  37.320  1.00  0.00    -0.203 F 
ATOM     79  F   UNL A   1      39.199  34.008  41.591  1.00  0.00    -0.200 F 
ATOM     80  C   UNL A   1      40.839  35.375  40.579  1.00  0.00     0.200 A 
ATOM     81  F   UNL A   1      42.462  36.723  39.520  1.00  0.00    -0.200 F 
ATOM     82  F   UNL A   1      40.846  36.183  41.650  1.00  0.00    -0.200 F 
ENDBRANCH  58  72
BRANCH  59  83
ATOM     83  C   UNL A   1      40.330  28.366  29.903  1.00  0.00     0.064 A 
ATOM     84  C   UNL A   1      41.000  28.772  28.741  1.00  0.00     0.173 A 
ATOM     85  C   UNL A   1      39.599  27.170  29.852  1.00  0.00     0.173 A 
ATOM     86  F   UNL A   1      41.690  29.922  28.734  1.00  0.00    -0.203 F 
ATOM     87  C   UNL A   1      40.935  28.016  27.572  1.00  0.00     0.198 A 
ATOM     88  C   UNL A   1      39.556  26.402  28.691  1.00  0.00     0.198 A 
ATOM     89  F   UNL A   1      38.938  26.741  30.937  1.00  0.00    -0.203 F 
ATOM     90  F   UNL A   1      41.558  28.444  26.466  1.00  0.00    -0.200 F 
ATOM     91  C   UNL A   1      40.220  26.828  27.550  1.00  0.00     0.200 A 
ATOM     92  F   UNL A   1      38.872  25.250  28.676  1.00  0.00    -0.200 F 
ATOM     93  F   UNL A   1      40.167  26.097  26.429  1.00  0.00    -0.200 F 
ENDBRANCH  59  83
BRANCH  71  94
ATOM     94  C   UNL A   1      44.712  28.440  35.317  1.00  0.00     0.064 A 
ATOM     95  C   UNL A   1      44.640  27.222  36.008  1.00  0.00     0.173 A 
ATOM     96  C   UNL A   1      45.977  28.885  34.903  1.00  0.00     0.173 A 
ATOM     97  F   UNL A   1      43.457  26.761  36.441  1.00  0.00    -0.203 F 
ATOM     98  C   UNL A   1      45.792  26.493  36.298  1.00  0.00     0.198 A 
ATOM     99  C   UNL A   1      47.123  28.139  35.166  1.00  0.00     0.198 A 
ATOM    100  F   UNL A   1      46.101  30.041  34.233  1.00  0.00    -0.203 F 
ATOM    101  F   UNL A   1      45.703  25.358  37.003  1.00  0.00    -0.200 F 
ATOM    102  C   UNL A   1      47.029  26.948  35.871  1.00  0.00     0.200 A 
ATOM    103  F   UNL A   1      48.317  28.574  34.742  1.00  0.00    -0.200 F 
ATOM    104  F   UNL A   1      48.136  26.244  36.147  1.00  0.00    -0.200 F 
ENDBRANCH  71  94
ENDBRANCH  45  46
ENDBRANCH  38  40
ENDBRANCH  37  38
ENDBRANCH  36  37
ENDBRANCH  35  36
ENDBRANCH  34  35
ENDBRANCH   1  34
TORSDOF 19
ENDMDL
