MODEL 1
REMARK VINA RESULT:     -12.2      0.000      0.000
REMARK SMILES O=C(OCCOCCOC(=O)[C@@]1([C@@H]2CCO[C@@]3(CCOC3)C2)CCOC1)c1ccc(-c2c3nc(c(-c4c(F)c(F)c(F)c(F)c4F)c4ccc([nH]4)c(-c4c(F)c(F)c(F)c(F)c4F)c4nc(c(-c5c(F)c(F)c(F)c(F)c5F)c5ccc2[nH]5)C=C4)C=C3)cc1
REMARK SMILES IDX 5 1 4 2 3 3 2 4 1 5 27 6 28 7 89 8 29 9 88 10 30 11 31 12
REMARK SMILES IDX 32 13 82 14 33 15 87 16 81 17 83 18 34 19 86 20 80 21 79 22
REMARK SMILES IDX 35 24 67 25 47 26 66 27 48 28 51 29 65 30 84 31 49 32 50 33
REMARK SMILES IDX 64 35 85 36 52 37 36 38 37 39 45 40 38 41 39 42 43 43 46 44
REMARK SMILES IDX 40 45 41 46 44 47 42 48 68 49 69 50 77 51 70 52 71 53 75 54
REMARK SMILES IDX 78 55 72 56 73 57 76 58 74 59 53 60 54 61 62 62 55 63 56 64
REMARK SMILES IDX 60 65 63 66 57 67 58 68 61 69 59 70 6 71 7 72 8 73 9 74
REMARK SMILES IDX 10 75 11 76 12 77 23 78 26 79 24 80 25 81 13 82 14 83 22 84
REMARK SMILES IDX 15 85 17 86 16 87 18 88 21 89 19 90 20 91
REMARK H PARENT 83 23 51 34
REMARK Flexibility Score: inf
ROOT
ATOM      1  C   UNL A   1      31.532  32.136  26.818  1.00  0.00     0.202 C 
ENDROOT
BRANCH   1   2
ATOM      2  C   UNL A   1      32.673  33.148  27.029  1.00  0.00     0.261 C 
BRANCH   2   3
ATOM      3  O   UNL A   1      32.388  34.122  28.053  1.00  0.00    -0.460 OA
BRANCH   3   4
ATOM      4  C   UNL A   1      33.258  34.585  28.991  1.00  0.00     0.338 C 
ATOM      5  O   UNL A   1      33.030  35.634  29.586  1.00  0.00    -0.246 OA
BRANCH   4   6
ATOM      6  C   UNL A   1      34.499  33.833  29.309  1.00  0.00     0.060 A 
ATOM      7  C   UNL A   1      34.454  32.618  29.972  1.00  0.00     0.016 A 
ATOM      8  C   UNL A   1      35.748  34.309  28.915  1.00  0.00     0.016 A 
ATOM      9  C   UNL A   1      35.557  31.955  30.410  1.00  0.00     0.010 A 
ATOM     10  C   UNL A   1      36.900  33.581  29.246  1.00  0.00     0.010 A 
ATOM     11  C   UNL A   1      36.794  32.417  30.023  1.00  0.00    -0.014 A 
BRANCH  11  12
ATOM     12  C   UNL A   1      37.912  31.704  30.640  1.00  0.00     0.031 A 
ATOM     13  C   UNL A   1      38.100  31.881  32.107  1.00  0.00     0.074 A 
ATOM     14  C   UNL A   1      38.536  30.742  29.935  1.00  0.00     0.049 A 
ATOM     15  N   UNL A   1      39.011  31.375  32.886  1.00  0.00    -0.248 NA
ATOM     16  C   UNL A   1      37.117  32.737  32.797  1.00  0.00     0.031 C 
ATOM     17  C   UNL A   1      38.223  30.363  28.549  1.00  0.00     0.029 A 
ATOM     18  N   UNL A   1      39.514  29.865  30.300  1.00  0.00    -0.354 N 
ATOM     19  C   UNL A   1      38.752  31.905  34.141  1.00  0.00     0.074 A 
ATOM     20  C   UNL A   1      37.602  32.767  34.026  1.00  0.00     0.031 C 
ATOM     21  C   UNL A   1      38.983  29.316  28.195  1.00  0.00     0.029 A 
ATOM     22  C   UNL A   1      39.896  29.021  29.287  1.00  0.00     0.049 A 
ATOM     23  H   UNL A   1      39.908  29.839  31.203  1.00  0.00     0.167 HD
ATOM     24  C   UNL A   1      39.448  31.689  35.278  1.00  0.00     0.037 A 
ATOM     25  C   UNL A   1      40.913  28.145  29.251  1.00  0.00     0.037 A 
ATOM     26  C   UNL A   1      40.581  30.808  35.331  1.00  0.00     0.049 A 
ATOM     27  C   UNL A   1      41.755  28.031  30.493  1.00  0.00     0.074 A 
ATOM     28  C   UNL A   1      41.419  30.539  36.392  1.00  0.00     0.029 A 
ATOM     29  N   UNL A   1      41.035  30.055  34.252  1.00  0.00    -0.354 N 
ATOM     30  N   UNL A   1      41.590  28.608  31.661  1.00  0.00    -0.248 NA
ATOM     31  C   UNL A   1      42.925  27.155  30.412  1.00  0.00     0.031 C 
ATOM     32  C   UNL A   1      42.429  29.687  35.933  1.00  0.00     0.029 A 
ATOM     33  C   UNL A   1      42.164  29.343  34.614  1.00  0.00     0.049 A 
ATOM     34  H   UNL A   1      40.613  30.031  33.362  1.00  0.00     0.167 HD
ATOM     35  C   UNL A   1      42.609  28.135  32.470  1.00  0.00     0.074 A 
ATOM     36  C   UNL A   1      43.380  27.213  31.655  1.00  0.00     0.031 C 
ATOM     37  C   UNL A   1      42.886  28.424  33.767  1.00  0.00     0.037 A 
BRANCH  24  38
ATOM     38  C   UNL A   1      39.070  32.511  36.472  1.00  0.00     0.064 A 
ATOM     39  C   UNL A   1      39.647  33.760  36.749  1.00  0.00     0.173 A 
ATOM     40  C   UNL A   1      38.156  31.992  37.403  1.00  0.00     0.173 A 
ATOM     41  F   UNL A   1      40.560  34.283  35.917  1.00  0.00    -0.203 F 
ATOM     42  C   UNL A   1      39.354  34.437  37.931  1.00  0.00     0.198 A 
ATOM     43  C   UNL A   1      37.834  32.690  38.561  1.00  0.00     0.198 A 
ATOM     44  F   UNL A   1      37.590  30.793  37.199  1.00  0.00    -0.203 F 
ATOM     45  F   UNL A   1      39.985  35.584  38.218  1.00  0.00    -0.200 F 
ATOM     46  C   UNL A   1      38.444  33.905  38.832  1.00  0.00     0.200 A 
ATOM     47  F   UNL A   1      36.952  32.174  39.428  1.00  0.00    -0.200 F 
ATOM     48  F   UNL A   1      38.169  34.553  39.973  1.00  0.00    -0.200 F 
ENDBRANCH  24  38
BRANCH  25  49
ATOM     49  C   UNL A   1      41.220  27.379  28.014  1.00  0.00     0.064 A 
ATOM     50  C   UNL A   1      40.701  26.094  27.811  1.00  0.00     0.173 A 
ATOM     51  C   UNL A   1      42.062  27.901  27.019  1.00  0.00     0.173 A 
ATOM     52  F   UNL A   1      39.901  25.541  28.735  1.00  0.00    -0.203 F 
ATOM     53  C   UNL A   1      41.039  25.348  26.682  1.00  0.00     0.198 A 
ATOM     54  C   UNL A   1      42.371  27.170  25.874  1.00  0.00     0.198 A 
ATOM     55  F   UNL A   1      42.588  29.128  27.156  1.00  0.00    -0.203 F 
ATOM     56  F   UNL A   1      40.579  24.097  26.546  1.00  0.00    -0.200 F 
ATOM     57  C   UNL A   1      41.871  25.888  25.712  1.00  0.00     0.200 A 
ATOM     58  F   UNL A   1      43.162  27.705  24.934  1.00  0.00    -0.200 F 
ATOM     59  F   UNL A   1      42.200  25.169  24.631  1.00  0.00    -0.200 F 
ENDBRANCH  25  49
BRANCH  37  60
ATOM     60  C   UNL A   1      44.017  27.668  34.400  1.00  0.00     0.064 A 
ATOM     61  C   UNL A   1      43.838  26.408  34.986  1.00  0.00     0.173 A 
ATOM     62  C   UNL A   1      45.310  28.212  34.381  1.00  0.00     0.173 A 
ATOM     63  F   UNL A   1      42.619  25.850  35.037  1.00  0.00    -0.203 F 
ATOM     64  C   UNL A   1      44.908  25.738  35.571  1.00  0.00     0.198 A 
ATOM     65  C   UNL A   1      46.386  27.518  34.922  1.00  0.00     0.198 A 
ATOM     66  F   UNL A   1      45.534  29.411  33.821  1.00  0.00    -0.203 F 
ATOM     67  F   UNL A   1      44.705  24.569  36.192  1.00  0.00    -0.200 F 
ATOM     68  C   UNL A   1      46.181  26.289  35.529  1.00  0.00     0.200 A 
ATOM     69  F   UNL A   1      47.617  28.040  34.855  1.00  0.00    -0.200 F 
ATOM     70  F   UNL A   1      47.213  25.637  36.083  1.00  0.00    -0.200 F 
ENDBRANCH  37  60
ENDBRANCH  11  12
ENDBRANCH   4   6
ENDBRANCH   3   4
ENDBRANCH   2   3
ENDBRANCH   1   2
BRANCH   1  71
ATOM     71  O   UNL A   1      31.803  30.754  26.589  1.00  0.00    -0.374 OA
BRANCH  71  72
ATOM     72  C   UNL A   1      32.940  30.168  27.225  1.00  0.00     0.202 C 
BRANCH  72  73
ATOM     73  C   UNL A   1      33.675  29.297  26.219  1.00  0.00     0.261 C 
BRANCH  73  74
ATOM     74  O   UNL A   1      32.972  29.433  24.978  1.00  0.00    -0.463 OA
BRANCH  74  75
ATOM     75  C   UNL A   1      33.071  28.424  24.058  1.00  0.00     0.314 C 
ATOM     76  O   UNL A   1      34.094  28.175  23.438  1.00  0.00    -0.252 OA
BRANCH  75  77
ATOM     77  C   UNL A   1      31.685  27.656  23.938  1.00  0.00     0.096 C 
ATOM     78  C   UNL A   1      30.565  28.698  24.186  1.00  0.00     0.050 C 
ATOM     79  C   UNL A   1      31.594  27.534  22.394  1.00  0.00     0.179 C 
ATOM     80  C   UNL A   1      29.544  28.432  23.115  1.00  0.00     0.161 C 
ATOM     81  O   UNL A   1      30.252  27.892  21.998  1.00  0.00    -0.380 OA
BRANCH  77  82
ATOM     82  C   UNL A   1      31.797  26.147  24.999  1.00  0.00     0.014 C 
ATOM     83  C   UNL A   1      31.666  23.967  24.931  1.00  0.00     0.033 C 
ATOM     84  C   UNL A   1      31.036  26.695  26.232  1.00  0.00     0.043 C 
ATOM     85  C   UNL A   1      30.701  23.314  26.094  1.00  0.00     0.161 C 
ATOM     86  C   UNL A   1      30.996  25.314  26.057  1.00  0.00     0.094 C 
ATOM     87  O   UNL A   1      30.327  24.423  26.868  1.00  0.00    -0.372 OA
ATOM     88  C   UNL A   1      30.302  25.177  24.177  1.00  0.00     0.066 C 
ATOM     89  C   UNL A   1      32.954  24.933  26.118  1.00  0.00     0.195 C 
ATOM     90  C   UNL A   1      31.969  25.001  23.193  1.00  0.00     0.163 C 
ATOM     91  O   UNL A   1      33.395  24.947  24.320  1.00  0.00    -0.378 OA
ENDBRANCH  77  82
ENDBRANCH  75  77
ENDBRANCH  74  75
ENDBRANCH  73  74
ENDBRANCH  72  73
ENDBRANCH  71  72
ENDBRANCH   1  71
TORSDOF 15
ENDMDL
MODEL 2
REMARK VINA RESULT:     -12.1      0.980      2.424
REMARK SMILES O=C(OCCOCCOC(=O)[C@@]1([C@@H]2CCO[C@@]3(CCOC3)C2)CCOC1)c1ccc(-c2c3nc(c(-c4c(F)c(F)c(F)c(F)c4F)c4ccc([nH]4)c(-c4c(F)c(F)c(F)c(F)c4F)c4nc(c(-c5c(F)c(F)c(F)c(F)c5F)c5ccc2[nH]5)C=C4)C=C3)cc1
REMARK SMILES IDX 5 1 4 2 3 3 2 4 1 5 27 6 28 7 89 8 29 9 88 10 30 11 31 12
REMARK SMILES IDX 32 13 82 14 33 15 87 16 81 17 83 18 34 19 86 20 80 21 79 22
REMARK SMILES IDX 35 24 67 25 47 26 66 27 48 28 51 29 65 30 84 31 49 32 50 33
REMARK SMILES IDX 64 35 85 36 52 37 36 38 37 39 45 40 38 41 39 42 43 43 46 44
REMARK SMILES IDX 40 45 41 46 44 47 42 48 68 49 69 50 77 51 70 52 71 53 75 54
REMARK SMILES IDX 78 55 72 56 73 57 76 58 74 59 53 60 54 61 62 62 55 63 56 64
REMARK SMILES IDX 60 65 63 66 57 67 58 68 61 69 59 70 6 71 7 72 8 73 9 74
REMARK SMILES IDX 10 75 11 76 12 77 23 78 26 79 24 80 25 81 13 82 14 83 22 84
REMARK SMILES IDX 15 85 17 86 16 87 18 88 21 89 19 90 20 91
REMARK H PARENT 83 23 51 34
REMARK Flexibility Score: inf
ROOT
ATOM      1  C   UNL A   1      31.847  31.480  26.825  1.00  0.00     0.202 C 
ENDROOT
BRANCH   1   2
ATOM      2  C   UNL A   1      31.647  33.006  26.886  1.00  0.00     0.261 C 
BRANCH   2   3
ATOM      3  O   UNL A   1      32.848  33.726  27.225  1.00  0.00    -0.460 OA
BRANCH   3   4
ATOM      4  C   UNL A   1      33.367  33.891  28.471  1.00  0.00     0.338 C 
ATOM      5  O   UNL A   1      32.783  34.581  29.301  1.00  0.00    -0.246 OA
BRANCH   4   6
ATOM      6  C   UNL A   1      34.648  33.241  28.850  1.00  0.00     0.060 A 
ATOM      7  C   UNL A   1      34.683  31.941  29.324  1.00  0.00     0.016 A 
ATOM      8  C   UNL A   1      35.863  33.909  28.703  1.00  0.00     0.016 A 
ATOM      9  C   UNL A   1      35.804  31.345  29.814  1.00  0.00     0.010 A 
ATOM     10  C   UNL A   1      37.052  33.271  29.084  1.00  0.00     0.010 A 
ATOM     11  C   UNL A   1      37.007  31.997  29.670  1.00  0.00    -0.014 A 
BRANCH  11  12
ATOM     12  C   UNL A   1      38.126  31.326  30.329  1.00  0.00     0.031 A 
ATOM     13  C   UNL A   1      38.261  31.522  31.800  1.00  0.00     0.074 A 
ATOM     14  C   UNL A   1      38.803  30.378  29.655  1.00  0.00     0.049 A 
ATOM     15  N   UNL A   1      39.162  31.054  32.613  1.00  0.00    -0.248 NA
ATOM     16  C   UNL A   1      37.229  32.353  32.449  1.00  0.00     0.031 C 
ATOM     17  C   UNL A   1      38.547  29.976  28.263  1.00  0.00     0.029 A 
ATOM     18  N   UNL A   1      39.797  29.536  30.061  1.00  0.00    -0.354 N 
ATOM     19  C   UNL A   1      38.846  31.587  33.853  1.00  0.00     0.074 A 
ATOM     20  C   UNL A   1      37.673  32.410  33.693  1.00  0.00     0.031 C 
ATOM     21  C   UNL A   1      39.351  28.950  27.945  1.00  0.00     0.029 A 
ATOM     22  C   UNL A   1      40.237  28.695  29.069  1.00  0.00     0.049 A 
ATOM     23  H   UNL A   1      40.161  29.531  30.976  1.00  0.00     0.167 HD
ATOM     24  C   UNL A   1      39.511  31.404  35.014  1.00  0.00     0.037 A 
ATOM     25  C   UNL A   1      41.283  27.852  29.075  1.00  0.00     0.037 A 
ATOM     26  C   UNL A   1      40.669  30.560  35.112  1.00  0.00     0.049 A 
ATOM     27  C   UNL A   1      42.087  27.777  30.344  1.00  0.00     0.074 A 
ATOM     28  C   UNL A   1      41.481  30.328  36.203  1.00  0.00     0.029 A 
ATOM     29  N   UNL A   1      41.182  29.812  34.056  1.00  0.00    -0.354 N 
ATOM     30  N   UNL A   1      41.866  28.360  31.500  1.00  0.00    -0.248 NA
ATOM     31  C   UNL A   1      43.286  26.938  30.310  1.00  0.00     0.031 C 
ATOM     32  C   UNL A   1      42.531  29.505  35.786  1.00  0.00     0.029 A 
ATOM     33  C   UNL A   1      42.320  29.141  34.462  1.00  0.00     0.049 A 
ATOM     34  H   UNL A   1      40.790  29.766  33.154  1.00  0.00     0.167 HD
ATOM     35  C   UNL A   1      42.873  27.927  32.346  1.00  0.00     0.074 A 
ATOM     36  C   UNL A   1      43.699  27.023  31.566  1.00  0.00     0.031 C 
ATOM     37  C   UNL A   1      43.098  28.237  33.649  1.00  0.00     0.037 A 
BRANCH  24  38
ATOM     38  C   UNL A   1      39.068  32.225  36.187  1.00  0.00     0.064 A 
ATOM     39  C   UNL A   1      39.588  33.498  36.463  1.00  0.00     0.173 A 
ATOM     40  C   UNL A   1      38.150  31.682  37.099  1.00  0.00     0.173 A 
ATOM     41  F   UNL A   1      40.502  34.047  35.649  1.00  0.00    -0.203 F 
ATOM     42  C   UNL A   1      39.237  34.178  37.628  1.00  0.00     0.198 A 
ATOM     43  C   UNL A   1      37.769  32.380  38.239  1.00  0.00     0.198 A 
ATOM     44  F   UNL A   1      37.637  30.459  36.896  1.00  0.00    -0.203 F 
ATOM     45  F   UNL A   1      39.815  35.352  37.917  1.00  0.00    -0.200 F 
ATOM     46  C   UNL A   1      38.324  33.621  38.511  1.00  0.00     0.200 A 
ATOM     47  F   UNL A   1      36.885  31.840  39.088  1.00  0.00    -0.200 F 
ATOM     48  F   UNL A   1      37.993  34.272  39.635  1.00  0.00    -0.200 F 
ENDBRANCH  24  38
BRANCH  25  49
ATOM     49  C   UNL A   1      41.653  27.085  27.857  1.00  0.00     0.064 A 
ATOM     50  C   UNL A   1      41.164  25.790  27.639  1.00  0.00     0.173 A 
ATOM     51  C   UNL A   1      42.529  27.615  26.894  1.00  0.00     0.173 A 
ATOM     52  F   UNL A   1      40.335  25.229  28.532  1.00  0.00    -0.203 F 
ATOM     53  C   UNL A   1      41.562  25.044  26.530  1.00  0.00     0.198 A 
ATOM     54  C   UNL A   1      42.897  26.884  25.768  1.00  0.00     0.198 A 
ATOM     55  F   UNL A   1      43.028  28.851  27.046  1.00  0.00    -0.203 F 
ATOM     56  F   UNL A   1      41.128  23.785  26.382  1.00  0.00    -0.200 F 
ATOM     57  C   UNL A   1      42.425  25.593  25.593  1.00  0.00     0.200 A 
ATOM     58  F   UNL A   1      43.718  27.427  24.858  1.00  0.00    -0.200 F 
ATOM     59  F   UNL A   1      42.811  24.873  24.531  1.00  0.00    -0.200 F 
ENDBRANCH  25  49
BRANCH  37  60
ATOM     60  C   UNL A   1      44.231  27.524  34.325  1.00  0.00     0.064 A 
ATOM     61  C   UNL A   1      45.520  28.070  34.400  1.00  0.00     0.173 A 
ATOM     62  C   UNL A   1      44.002  26.283  34.940  1.00  0.00     0.173 A 
ATOM     63  F   UNL A   1      45.792  29.249  33.819  1.00  0.00    -0.203 F 
ATOM     64  C   UNL A   1      46.549  27.377  35.028  1.00  0.00     0.198 A 
ATOM     65  C   UNL A   1      45.021  25.618  35.610  1.00  0.00     0.198 A 
ATOM     66  F   UNL A   1      42.782  25.725  34.906  1.00  0.00    -0.203 F 
ATOM     67  F   UNL A   1      47.791  27.879  35.025  1.00  0.00    -0.200 F 
ATOM     68  C   UNL A   1      46.297  26.158  35.641  1.00  0.00     0.200 A 
ATOM     69  F   UNL A   1      44.766  24.455  36.224  1.00  0.00    -0.200 F 
ATOM     70  F   UNL A   1      47.288  25.498  36.256  1.00  0.00    -0.200 F 
ENDBRANCH  37  60
ENDBRANCH  11  12
ENDBRANCH   4   6
ENDBRANCH   3   4
ENDBRANCH   2   3
ENDBRANCH   1   2
BRANCH   1  71
ATOM     71  O   UNL A   1      31.431  30.725  25.688  1.00  0.00    -0.374 OA
BRANCH  71  72
ATOM     72  C   UNL A   1      31.868  29.370  25.573  1.00  0.00     0.202 C 
BRANCH  72  73
ATOM     73  C   UNL A   1      31.966  28.762  26.963  1.00  0.00     0.261 C 
BRANCH  73  74
ATOM     74  O   UNL A   1      32.549  27.464  26.796  1.00  0.00    -0.463 OA
BRANCH  74  75
ATOM     75  C   UNL A   1      31.734  26.421  26.445  1.00  0.00     0.314 C 
ATOM     76  O   UNL A   1      30.578  26.314  26.824  1.00  0.00    -0.252 OA
BRANCH  75  77
ATOM     77  C   UNL A   1      32.514  25.413  25.498  1.00  0.00     0.096 C 
ATOM     78  C   UNL A   1      33.933  25.233  26.093  1.00  0.00     0.050 C 
ATOM     79  C   UNL A   1      31.865  24.080  25.954  1.00  0.00     0.179 C 
ATOM     80  C   UNL A   1      34.193  23.753  26.037  1.00  0.00     0.161 C 
ATOM     81  O   UNL A   1      32.921  23.109  26.133  1.00  0.00    -0.380 OA
BRANCH  77  82
ATOM     82  C   UNL A   1      32.308  26.016  23.762  1.00  0.00     0.014 C 
ATOM     83  C   UNL A   1      31.523  25.436  21.808  1.00  0.00     0.033 C 
ATOM     84  C   UNL A   1      33.690  26.700  23.608  1.00  0.00     0.043 C 
ATOM     85  C   UNL A   1      32.563  25.701  20.559  1.00  0.00     0.161 C 
ATOM     86  C   UNL A   1      33.098  26.250  22.430  1.00  0.00     0.094 C 
ATOM     87  O   UNL A   1      33.648  26.347  21.171  1.00  0.00    -0.372 OA
ATOM     88  C   UNL A   1      32.753  24.323  22.876  1.00  0.00     0.066 C 
ATOM     89  C   UNL A   1      31.407  27.308  22.503  1.00  0.00     0.195 C 
ATOM     90  C   UNL A   1      30.904  24.420  23.471  1.00  0.00     0.163 C 
ATOM     91  O   UNL A   1      30.249  26.108  23.307  1.00  0.00    -0.378 OA
ENDBRANCH  77  82
ENDBRANCH  75  77
ENDBRANCH  74  75
ENDBRANCH  73  74
ENDBRANCH  72  73
ENDBRANCH  71  72
ENDBRANCH   1  71
TORSDOF 15
ENDMDL
MODEL 3
REMARK VINA RESULT:     -12.1      0.822      7.577
REMARK SMILES O=C(OCCOCCOC(=O)[C@@]1([C@@H]2CCO[C@@]3(CCOC3)C2)CCOC1)c1ccc(-c2c3nc(c(-c4c(F)c(F)c(F)c(F)c4F)c4ccc([nH]4)c(-c4c(F)c(F)c(F)c(F)c4F)c4nc(c(-c5c(F)c(F)c(F)c(F)c5F)c5ccc2[nH]5)C=C4)C=C3)cc1
REMARK SMILES IDX 5 1 4 2 3 3 2 4 1 5 27 6 28 7 89 8 29 9 88 10 30 11 31 12
REMARK SMILES IDX 32 13 82 14 33 15 87 16 81 17 83 18 34 19 86 20 80 21 79 22
REMARK SMILES IDX 35 24 67 25 47 26 66 27 48 28 51 29 65 30 84 31 49 32 50 33
REMARK SMILES IDX 64 35 85 36 52 37 36 38 37 39 45 40 38 41 39 42 43 43 46 44
REMARK SMILES IDX 40 45 41 46 44 47 42 48 68 49 69 50 77 51 70 52 71 53 75 54
REMARK SMILES IDX 78 55 72 56 73 57 76 58 74 59 53 60 54 61 62 62 55 63 56 64
REMARK SMILES IDX 60 65 63 66 57 67 58 68 61 69 59 70 6 71 7 72 8 73 9 74
REMARK SMILES IDX 10 75 11 76 12 77 23 78 26 79 24 80 25 81 13 82 14 83 22 84
REMARK SMILES IDX 15 85 17 86 16 87 18 88 21 89 19 90 20 91
REMARK H PARENT 83 23 51 34
REMARK Flexibility Score: inf
ROOT
ATOM      1  C   UNL A   1      31.418  32.063  26.877  1.00  0.00     0.202 C 
ENDROOT
BRANCH   1   2
ATOM      2  C   UNL A   1      32.486  33.171  26.939  1.00  0.00     0.261 C 
BRANCH   2   3
ATOM      3  O   UNL A   1      32.154  34.232  27.856  1.00  0.00    -0.460 OA
BRANCH   3   4
ATOM      4  C   UNL A   1      32.988  34.801  28.768  1.00  0.00     0.338 C 
ATOM      5  O   UNL A   1      32.749  35.918  29.216  1.00  0.00    -0.246 OA
BRANCH   4   6
ATOM      6  C   UNL A   1      34.202  34.083  29.235  1.00  0.00     0.060 A 
ATOM      7  C   UNL A   1      34.109  32.943  30.014  1.00  0.00     0.016 A 
ATOM      8  C   UNL A   1      35.476  34.515  28.869  1.00  0.00     0.016 A 
ATOM      9  C   UNL A   1      35.180  32.326  30.582  1.00  0.00     0.010 A 
ATOM     10  C   UNL A   1      36.601  33.822  29.340  1.00  0.00     0.010 A 
ATOM     11  C   UNL A   1      36.441  32.744  30.224  1.00  0.00    -0.014 A 
BRANCH  11  12
ATOM     12  C   UNL A   1      37.515  32.097  30.976  1.00  0.00     0.031 A 
ATOM     13  C   UNL A   1      38.348  31.102  30.244  1.00  0.00     0.074 A 
ATOM     14  C   UNL A   1      37.867  32.604  32.172  1.00  0.00     0.049 A 
ATOM     15  N   UNL A   1      39.345  30.386  30.677  1.00  0.00    -0.248 NA
ATOM     16  C   UNL A   1      38.022  30.891  28.821  1.00  0.00     0.031 C 
ATOM     17  C   UNL A   1      37.223  33.749  32.834  1.00  0.00     0.029 A 
ATOM     18  N   UNL A   1      38.887  32.270  33.014  1.00  0.00    -0.354 N 
ATOM     19  C   UNL A   1      39.718  29.594  29.603  1.00  0.00     0.074 A 
ATOM     20  C   UNL A   1      38.850  29.913  28.497  1.00  0.00     0.031 C 
ATOM     21  C   UNL A   1      37.882  34.031  33.968  1.00  0.00     0.029 A 
ATOM     22  C   UNL A   1      38.921  33.031  34.156  1.00  0.00     0.049 A 
ATOM     23  H   UNL A   1      39.536  31.555  32.821  1.00  0.00     0.167 HD
ATOM     24  C   UNL A   1      40.699  28.666  29.575  1.00  0.00     0.037 A 
ATOM     25  C   UNL A   1      39.687  32.884  35.250  1.00  0.00     0.037 A 
ATOM     26  C   UNL A   1      41.540  28.401  30.708  1.00  0.00     0.049 A 
ATOM     27  C   UNL A   1      40.676  31.751  35.238  1.00  0.00     0.074 A 
ATOM     28  C   UNL A   1      42.530  27.451  30.848  1.00  0.00     0.029 A 
ATOM     29  N   UNL A   1      41.472  29.099  31.911  1.00  0.00    -0.354 N 
ATOM     30  N   UNL A   1      40.969  30.917  34.267  1.00  0.00    -0.248 NA
ATOM     31  C   UNL A   1      41.431  31.530  36.473  1.00  0.00     0.031 C 
ATOM     32  C   UNL A   1      43.004  27.519  32.161  1.00  0.00     0.029 A 
ATOM     33  C   UNL A   1      42.383  28.578  32.811  1.00  0.00     0.049 A 
ATOM     34  H   UNL A   1      40.866  29.853  32.092  1.00  0.00     0.167 HD
ATOM     35  C   UNL A   1      41.974  30.099  34.754  1.00  0.00     0.074 A 
ATOM     36  C   UNL A   1      42.243  30.548  36.109  1.00  0.00     0.031 C 
ATOM     37  C   UNL A   1      42.624  29.074  34.145  1.00  0.00     0.037 A 
BRANCH  24  38
ATOM     38  C   UNL A   1      40.798  27.820  28.342  1.00  0.00     0.064 A 
ATOM     39  C   UNL A   1      40.116  26.602  28.199  1.00  0.00     0.173 A 
ATOM     40  C   UNL A   1      41.662  28.210  27.307  1.00  0.00     0.173 A 
ATOM     41  F   UNL A   1      39.311  26.159  29.176  1.00  0.00    -0.203 F 
ATOM     42  C   UNL A   1      40.327  25.789  27.087  1.00  0.00     0.198 A 
ATOM     43  C   UNL A   1      41.840  27.417  26.180  1.00  0.00     0.198 A 
ATOM     44  F   UNL A   1      42.356  29.354  27.401  1.00  0.00    -0.203 F 
ATOM     45  F   UNL A   1      39.735  24.589  27.014  1.00  0.00    -0.200 F 
ATOM     46  C   UNL A   1      41.184  26.200  26.076  1.00  0.00     0.200 A 
ATOM     47  F   UNL A   1      42.665  27.818  25.204  1.00  0.00    -0.200 F 
ATOM     48  F   UNL A   1      41.393  25.413  25.012  1.00  0.00    -0.200 F 
ENDBRANCH  24  38
BRANCH  25  49
ATOM     49  C   UNL A   1      39.509  33.768  36.432  1.00  0.00     0.064 A 
ATOM     50  C   UNL A   1      40.167  35.002  36.520  1.00  0.00     0.173 A 
ATOM     51  C   UNL A   1      38.700  33.387  37.516  1.00  0.00     0.173 A 
ATOM     52  F   UNL A   1      40.961  35.409  35.519  1.00  0.00    -0.203 F 
ATOM     53  C   UNL A   1      40.052  35.802  37.656  1.00  0.00     0.198 A 
ATOM     54  C   UNL A   1      38.558  34.204  38.636  1.00  0.00     0.198 A 
ATOM     55  F   UNL A   1      38.043  32.218  37.490  1.00  0.00    -0.203 F 
ATOM     56  F   UNL A   1      40.744  36.947  37.738  1.00  0.00    -0.200 F 
ATOM     57  C   UNL A   1      39.245  35.405  38.712  1.00  0.00     0.200 A 
ATOM     58  F   UNL A   1      37.763  33.821  39.644  1.00  0.00    -0.200 F 
ATOM     59  F   UNL A   1      39.141  36.172  39.805  1.00  0.00    -0.200 F 
ENDBRANCH  25  49
BRANCH  37  60
ATOM     60  C   UNL A   1      43.742  28.434  34.912  1.00  0.00     0.064 A 
ATOM     61  C   UNL A   1      45.054  28.927  34.873  1.00  0.00     0.173 A 
ATOM     62  C   UNL A   1      43.477  27.325  35.730  1.00  0.00     0.173 A 
ATOM     63  F   UNL A   1      45.360  29.980  34.099  1.00  0.00    -0.203 F 
ATOM     64  C   UNL A   1      46.069  28.304  35.592  1.00  0.00     0.198 A 
ATOM     65  C   UNL A   1      44.483  26.736  36.485  1.00  0.00     0.198 A 
ATOM     66  F   UNL A   1      42.234  26.824  35.810  1.00  0.00    -0.203 F 
ATOM     67  F   UNL A   1      47.330  28.743  35.484  1.00  0.00    -0.200 F 
ATOM     68  C   UNL A   1      45.781  27.216  36.404  1.00  0.00     0.200 A 
ATOM     69  F   UNL A   1      44.195  25.704  37.289  1.00  0.00    -0.200 F 
ATOM     70  F   UNL A   1      46.758  26.624  37.105  1.00  0.00    -0.200 F 
ENDBRANCH  37  60
ENDBRANCH  11  12
ENDBRANCH   4   6
ENDBRANCH   3   4
ENDBRANCH   2   3
ENDBRANCH   1   2
BRANCH   1  71
ATOM     71  O   UNL A   1      31.782  30.694  26.713  1.00  0.00    -0.374 OA
BRANCH  71  72
ATOM     72  C   UNL A   1      33.031  30.253  27.248  1.00  0.00     0.202 C 
BRANCH  72  73
ATOM     73  C   UNL A   1      33.742  29.402  26.208  1.00  0.00     0.261 C 
BRANCH  73  74
ATOM     74  O   UNL A   1      32.964  29.498  25.008  1.00  0.00    -0.463 OA
BRANCH  74  75
ATOM     75  C   UNL A   1      33.064  28.495  24.083  1.00  0.00     0.314 C 
ATOM     76  O   UNL A   1      34.090  28.245  23.467  1.00  0.00    -0.252 OA
BRANCH  75  77
ATOM     77  C   UNL A   1      31.676  27.735  23.948  1.00  0.00     0.096 C 
ATOM     78  C   UNL A   1      30.559  28.781  24.193  1.00  0.00     0.050 C 
ATOM     79  C   UNL A   1      31.595  27.620  22.404  1.00  0.00     0.179 C 
ATOM     80  C   UNL A   1      29.544  28.525  23.113  1.00  0.00     0.161 C 
ATOM     81  O   UNL A   1      30.258  27.987  21.999  1.00  0.00    -0.380 OA
BRANCH  77  82
ATOM     82  C   UNL A   1      31.772  26.220  25.004  1.00  0.00     0.014 C 
ATOM     83  C   UNL A   1      31.616  24.042  24.927  1.00  0.00     0.033 C 
ATOM     84  C   UNL A   1      31.020  26.772  26.240  1.00  0.00     0.043 C 
ATOM     85  C   UNL A   1      30.647  23.395  26.090  1.00  0.00     0.161 C 
ATOM     86  C   UNL A   1      30.964  25.392  26.060  1.00  0.00     0.094 C 
ATOM     87  O   UNL A   1      30.287  24.506  26.869  1.00  0.00    -0.372 OA
ATOM     88  C   UNL A   1      30.264  25.271  24.181  1.00  0.00     0.066 C 
ATOM     89  C   UNL A   1      32.918  24.988  26.115  1.00  0.00     0.195 C 
ATOM     90  C   UNL A   1      31.927  25.080  23.193  1.00  0.00     0.163 C 
ATOM     91  O   UNL A   1      33.355  25.004  24.316  1.00  0.00    -0.378 OA
ENDBRANCH  77  82
ENDBRANCH  75  77
ENDBRANCH  74  75
ENDBRANCH  73  74
ENDBRANCH  72  73
ENDBRANCH  71  72
ENDBRANCH   1  71
TORSDOF 15
ENDMDL
