MODEL 1
REMARK VINA RESULT:     -11.2      0.000      0.000
REMARK SMILES [NH3+][C@H](C(=O)OCCOCCOC(=O)c1ccc(-c2c3nc(c(-c4c(F)c(F)c(F)c(F)c4F)c4ccc([nH]4)c(-c4c(F)c(F)c(F)c(F)c4F)c4nc(c(-c5c(F)c(F)c(F)c(F)c5F)c5ccc2[nH]5)C=C4)C=C3)cc1)c1cc2c(cc1Br)OCO2
REMARK SMILES IDX 9 1 8 2 7 3 6 4 5 5 3 6 4 7 2 8 1 9 77 13 78 14 82 15 79 16
REMARK SMILES IDX 81 17 83 18 80 19 86 20 84 21 85 22 10 23 11 24 12 25 13 26
REMARK SMILES IDX 14 27 15 28 76 29 16 30 75 31 17 32 18 33 19 34 69 35 20 36
REMARK SMILES IDX 74 37 68 38 70 39 21 40 73 41 67 42 66 43 22 45 54 46 34 47
REMARK SMILES IDX 53 48 35 49 38 50 52 51 71 52 36 53 37 54 51 56 72 57 39 58
REMARK SMILES IDX 23 59 24 60 32 61 25 62 26 63 30 64 33 65 27 66 28 67 31 68
REMARK SMILES IDX 29 69 55 70 56 71 64 72 57 73 58 74 62 75 65 76 59 77 60 78
REMARK SMILES IDX 63 79 61 80 40 81 41 82 49 83 42 84 43 85 47 86 50 87 44 88
REMARK SMILES IDX 45 89 48 90 46 91
REMARK H PARENT 1 10 1 11 1 12 70 44 38 55
REMARK Flexibility Score: inf
ROOT
ATOM      1  C   UNL A   1      31.397  31.559  26.427  1.00  0.00     0.202 C 
ENDROOT
BRANCH   1   2
ATOM      2  O   UNL A   1      31.966  30.410  27.055  1.00  0.00    -0.374 OA
BRANCH   2   3
ATOM      3  C   UNL A   1      32.881  29.626  26.296  1.00  0.00     0.202 C 
BRANCH   3   4
ATOM      4  C   UNL A   1      33.419  28.351  26.952  1.00  0.00     0.261 C 
BRANCH   4   5
ATOM      5  O   UNL A   1      32.969  27.141  26.318  1.00  0.00    -0.459 OA
BRANCH   5   6
ATOM      6  C   UNL A   1      31.618  26.924  26.342  1.00  0.00     0.369 C 
ATOM      7  O   UNL A   1      30.897  27.088  27.321  1.00  0.00    -0.245 OA
BRANCH   6   8
ATOM      8  C   UNL A   1      31.120  26.352  24.999  1.00  0.00     0.324 C 
BRANCH   8   9
ATOM      9  N   UNL A   1      30.018  25.383  25.221  1.00  0.00    -0.342 N 
ATOM     10  H   UNL A   1      29.842  24.865  24.361  1.00  0.00     0.345 HD
ATOM     11  H   UNL A   1      29.173  25.885  25.494  1.00  0.00     0.345 HD
ATOM     12  H   UNL A   1      30.281  24.733  25.962  1.00  0.00     0.345 HD
ENDBRANCH   8   9
BRANCH   8  13
ATOM     13  C   UNL A   1      30.766  27.410  23.959  1.00  0.00     0.039 A 
ATOM     14  C   UNL A   1      29.401  27.760  23.839  1.00  0.00     0.062 A 
ATOM     15  C   UNL A   1      31.696  28.048  23.093  1.00  0.00     0.031 A 
ATOM     16  C   UNL A   1      29.030  28.716  22.916  1.00  0.00     0.166 A 
ATOM     17  C   UNL A   1      31.290  29.041  22.187  1.00  0.00     0.066 A 
ATOM     18  Br  UNL A   1      33.539  27.577  23.018  1.00  0.00    -0.050 Br
ATOM     19  C   UNL A   1      29.951  29.350  22.122  1.00  0.00     0.166 A 
ATOM     20  O   UNL A   1      27.759  29.132  22.669  1.00  0.00    -0.454 OA
ATOM     21  O   UNL A   1      29.382  30.256  21.285  1.00  0.00    -0.454 OA
ATOM     22  C   UNL A   1      27.986  30.087  21.611  1.00  0.00     0.468 C 
ENDBRANCH   8  13
ENDBRANCH   6   8
ENDBRANCH   5   6
ENDBRANCH   4   5
ENDBRANCH   3   4
ENDBRANCH   2   3
ENDBRANCH   1   2
BRANCH   1  23
ATOM     23  C   UNL A   1      31.998  32.918  26.801  1.00  0.00     0.261 C 
BRANCH  23  24
ATOM     24  O   UNL A   1      32.796  32.854  27.998  1.00  0.00    -0.460 OA
BRANCH  24  25
ATOM     25  C   UNL A   1      33.882  33.665  27.987  1.00  0.00     0.338 C 
ATOM     26  O   UNL A   1      33.899  34.881  27.901  1.00  0.00    -0.246 OA
BRANCH  25  27
ATOM     27  C   UNL A   1      35.112  32.897  28.251  1.00  0.00     0.060 A 
ATOM     28  C   UNL A   1      34.967  31.556  28.629  1.00  0.00     0.016 A 
ATOM     29  C   UNL A   1      36.363  33.513  28.286  1.00  0.00     0.016 A 
ATOM     30  C   UNL A   1      36.066  30.841  29.102  1.00  0.00     0.010 A 
ATOM     31  C   UNL A   1      37.465  32.796  28.770  1.00  0.00     0.010 A 
ATOM     32  C   UNL A   1      37.313  31.471  29.220  1.00  0.00    -0.014 A 
BRANCH  32  33
ATOM     33  C   UNL A   1      38.408  30.786  29.952  1.00  0.00     0.031 A 
ATOM     34  C   UNL A   1      38.637  31.111  31.403  1.00  0.00     0.074 A 
ATOM     35  C   UNL A   1      39.159  29.850  29.346  1.00  0.00     0.049 A 
ATOM     36  N   UNL A   1      39.532  30.632  32.230  1.00  0.00    -0.248 NA
ATOM     37  C   UNL A   1      37.736  32.107  32.001  1.00  0.00     0.031 C 
ATOM     38  C   UNL A   1      39.009  29.416  27.959  1.00  0.00     0.029 A 
ATOM     39  N   UNL A   1      40.203  29.098  29.825  1.00  0.00    -0.354 N 
ATOM     40  C   UNL A   1      39.305  31.270  33.443  1.00  0.00     0.074 A 
ATOM     41  C   UNL A   1      38.204  32.188  33.239  1.00  0.00     0.031 C 
ATOM     42  C   UNL A   1      39.932  28.475  27.695  1.00  0.00     0.029 A 
ATOM     43  C   UNL A   1      40.753  28.261  28.887  1.00  0.00     0.049 A 
ATOM     44  H   UNL A   1      40.527  29.153  30.753  1.00  0.00     0.167 HD
ATOM     45  C   UNL A   1      39.948  31.098  34.623  1.00  0.00     0.037 A 
ATOM     46  C   UNL A   1      41.809  27.430  28.975  1.00  0.00     0.037 A 
ATOM     47  C   UNL A   1      41.038  30.181  34.831  1.00  0.00     0.049 A 
ATOM     48  C   UNL A   1      42.551  27.307  30.281  1.00  0.00     0.074 A 
ATOM     49  C   UNL A   1      41.734  29.917  35.999  1.00  0.00     0.029 A 
ATOM     50  N   UNL A   1      41.593  29.382  33.845  1.00  0.00    -0.354 N 
ATOM     51  N   UNL A   1      42.310  27.892  31.429  1.00  0.00    -0.248 NA
ATOM     52  C   UNL A   1      43.714  26.407  30.300  1.00  0.00     0.031 C 
ATOM     53  C   UNL A   1      42.742  28.992  35.707  1.00  0.00     0.029 A 
ATOM     54  C   UNL A   1      42.644  28.644  34.369  1.00  0.00     0.049 A 
ATOM     55  H   UNL A   1      41.288  29.343  32.909  1.00  0.00     0.167 HD
ATOM     56  C   UNL A   1      43.269  27.412  32.312  1.00  0.00     0.074 A 
ATOM     57  C   UNL A   1      44.092  26.480  31.569  1.00  0.00     0.031 C 
ATOM     58  C   UNL A   1      43.449  27.715  33.620  1.00  0.00     0.037 A 
BRANCH  45  59
ATOM     59  C   UNL A   1      39.505  31.941  35.781  1.00  0.00     0.064 A 
ATOM     60  C   UNL A   1      40.067  33.202  36.034  1.00  0.00     0.173 A 
ATOM     61  C   UNL A   1      38.475  31.500  36.626  1.00  0.00     0.173 A 
ATOM     62  F   UNL A   1      41.061  33.663  35.262  1.00  0.00    -0.203 F 
ATOM     63  C   UNL A   1      39.629  33.978  37.103  1.00  0.00     0.198 A 
ATOM     64  C   UNL A   1      38.024  32.290  37.680  1.00  0.00     0.198 A 
ATOM     65  F   UNL A   1      37.902  30.304  36.424  1.00  0.00    -0.203 F 
ATOM     66  F   UNL A   1      40.207  35.163  37.350  1.00  0.00    -0.200 F 
ATOM     67  C   UNL A   1      38.605  33.525  37.922  1.00  0.00     0.200 A 
ATOM     68  F   UNL A   1      37.027  31.853  38.463  1.00  0.00    -0.200 F 
ATOM     69  F   UNL A   1      38.182  34.277  38.946  1.00  0.00    -0.200 F 
ENDBRANCH  45  59
BRANCH  46  70
ATOM     70  C   UNL A   1      42.236  26.645  27.788  1.00  0.00     0.064 A 
ATOM     71  C   UNL A   1      41.687  25.385  27.518  1.00  0.00     0.173 A 
ATOM     72  C   UNL A   1      43.212  27.136  26.909  1.00  0.00     0.173 A 
ATOM     73  F   UNL A   1      40.769  24.863  28.345  1.00  0.00    -0.203 F 
ATOM     74  C   UNL A   1      42.108  24.638  26.420  1.00  0.00     0.198 A 
ATOM     75  C   UNL A   1      43.615  26.398  25.798  1.00  0.00     0.198 A 
ATOM     76  F   UNL A   1      43.772  28.335  27.127  1.00  0.00    -0.203 F 
ATOM     77  F   UNL A   1      41.597  23.418  26.207  1.00  0.00    -0.200 F 
ATOM     78  C   UNL A   1      43.068  25.147  25.557  1.00  0.00     0.200 A 
ATOM     79  F   UNL A   1      44.535  26.899  24.961  1.00  0.00    -0.200 F 
ATOM     80  F   UNL A   1      43.469  24.429  24.500  1.00  0.00    -0.200 F 
ENDBRANCH  46  70
BRANCH  58  81
ATOM     81  C   UNL A   1      44.560  27.012  34.345  1.00  0.00     0.064 A 
ATOM     82  C   UNL A   1      44.369  25.761  34.947  1.00  0.00     0.173 A 
ATOM     83  C   UNL A   1      45.843  27.581  34.400  1.00  0.00     0.173 A 
ATOM     84  F   UNL A   1      43.158  25.184  34.934  1.00  0.00    -0.203 F 
ATOM     85  C   UNL A   1      45.416  25.113  35.598  1.00  0.00     0.198 A 
ATOM     86  C   UNL A   1      46.894  26.918  35.029  1.00  0.00     0.198 A 
ATOM     87  F   UNL A   1      46.079  28.774  33.833  1.00  0.00    -0.203 F 
ATOM     88  F   UNL A   1      45.201  23.937  36.203  1.00  0.00    -0.200 F 
ATOM     89  C   UNL A   1      46.678  25.688  35.631  1.00  0.00     0.200 A 
ATOM     90  F   UNL A   1      48.114  27.470  35.051  1.00  0.00    -0.200 F 
ATOM     91  F   UNL A   1      47.686  25.060  36.253  1.00  0.00    -0.200 F 
ENDBRANCH  58  81
ENDBRANCH  32  33
ENDBRANCH  25  27
ENDBRANCH  24  25
ENDBRANCH  23  24
ENDBRANCH   1  23
TORSDOF 16
ENDMDL
MODEL 2
REMARK VINA RESULT:     -11.0      4.863     10.297
REMARK SMILES [NH3+][C@H](C(=O)OCCOCCOC(=O)c1ccc(-c2c3nc(c(-c4c(F)c(F)c(F)c(F)c4F)c4ccc([nH]4)c(-c4c(F)c(F)c(F)c(F)c4F)c4nc(c(-c5c(F)c(F)c(F)c(F)c5F)c5ccc2[nH]5)C=C4)C=C3)cc1)c1cc2c(cc1Br)OCO2
REMARK SMILES IDX 9 1 8 2 7 3 6 4 5 5 3 6 4 7 2 8 1 9 77 13 78 14 82 15 79 16
REMARK SMILES IDX 81 17 83 18 80 19 86 20 84 21 85 22 10 23 11 24 12 25 13 26
REMARK SMILES IDX 14 27 15 28 76 29 16 30 75 31 17 32 18 33 19 34 69 35 20 36
REMARK SMILES IDX 74 37 68 38 70 39 21 40 73 41 67 42 66 43 22 45 54 46 34 47
REMARK SMILES IDX 53 48 35 49 38 50 52 51 71 52 36 53 37 54 51 56 72 57 39 58
REMARK SMILES IDX 23 59 24 60 32 61 25 62 26 63 30 64 33 65 27 66 28 67 31 68
REMARK SMILES IDX 29 69 55 70 56 71 64 72 57 73 58 74 62 75 65 76 59 77 60 78
REMARK SMILES IDX 63 79 61 80 40 81 41 82 49 83 42 84 43 85 47 86 50 87 44 88
REMARK SMILES IDX 45 89 48 90 46 91
REMARK H PARENT 1 10 1 11 1 12 70 44 38 55
REMARK Flexibility Score: inf
ROOT
ATOM      1  C   UNL A   1      45.463  21.909  24.875  1.00  0.00     0.202 C 
ENDROOT
BRANCH   1   2
ATOM      2  O   UNL A   1      45.954  20.690  24.319  1.00  0.00    -0.374 OA
BRANCH   2   3
ATOM      3  C   UNL A   1      46.413  19.688  25.221  1.00  0.00     0.202 C 
BRANCH   3   4
ATOM      4  C   UNL A   1      45.514  18.464  25.420  1.00  0.00     0.261 C 
BRANCH   4   5
ATOM      5  O   UNL A   1      44.387  18.708  26.278  1.00  0.00    -0.459 OA
BRANCH   5   6
ATOM      6  C   UNL A   1      43.191  18.910  25.644  1.00  0.00     0.369 C 
ATOM      7  O   UNL A   1      43.064  19.198  24.458  1.00  0.00    -0.245 OA
BRANCH   6   8
ATOM      8  C   UNL A   1      42.011  18.822  26.634  1.00  0.00     0.324 C 
BRANCH   8   9
ATOM      9  N   UNL A   1      42.508  18.705  28.028  1.00  0.00    -0.342 N 
ATOM     10  H   UNL A   1      43.259  19.378  28.178  1.00  0.00     0.345 HD
ATOM     11  H   UNL A   1      42.860  17.761  28.186  1.00  0.00     0.345 HD
ATOM     12  H   UNL A   1      41.746  18.896  28.678  1.00  0.00     0.345 HD
ENDBRANCH   8   9
BRANCH   8  13
ATOM     13  C   UNL A   1      40.974  19.928  26.475  1.00  0.00     0.039 A 
ATOM     14  C   UNL A   1      39.807  19.611  25.741  1.00  0.00     0.062 A 
ATOM     15  C   UNL A   1      41.102  21.249  26.984  1.00  0.00     0.031 A 
ATOM     16  C   UNL A   1      38.835  20.576  25.572  1.00  0.00     0.166 A 
ATOM     17  C   UNL A   1      40.079  22.198  26.823  1.00  0.00     0.066 A 
ATOM     18  Br  UNL A   1      42.674  21.880  27.853  1.00  0.00    -0.050 Br
ATOM     19  C   UNL A   1      38.961  21.830  26.111  1.00  0.00     0.166 A 
ATOM     20  O   UNL A   1      37.679  20.426  24.871  1.00  0.00    -0.454 OA
ATOM     21  O   UNL A   1      37.897  22.627  25.832  1.00  0.00    -0.454 OA
ATOM     22  C   UNL A   1      37.103  21.742  25.014  1.00  0.00     0.468 C 
ENDBRANCH   8  13
ENDBRANCH   6   8
ENDBRANCH   5   6
ENDBRANCH   4   5
ENDBRANCH   3   4
ENDBRANCH   2   3
ENDBRANCH   1   2
BRANCH   1  23
ATOM     23  C   UNL A   1      44.516  22.735  23.997  1.00  0.00     0.261 C 
BRANCH  23  24
ATOM     24  O   UNL A   1      43.693  23.631  24.770  1.00  0.00    -0.460 OA
BRANCH  24  25
ATOM     25  C   UNL A   1      44.269  24.830  25.030  1.00  0.00     0.338 C 
ATOM     26  O   UNL A   1      45.293  25.281  24.548  1.00  0.00    -0.246 OA
BRANCH  25  27
ATOM     27  C   UNL A   1      43.403  25.648  25.898  1.00  0.00     0.060 A 
ATOM     28  C   UNL A   1      43.753  26.992  26.078  1.00  0.00     0.016 A 
ATOM     29  C   UNL A   1      42.369  25.077  26.642  1.00  0.00     0.016 A 
ATOM     30  C   UNL A   1      43.109  27.757  27.050  1.00  0.00     0.010 A 
ATOM     31  C   UNL A   1      41.730  25.844  27.624  1.00  0.00     0.010 A 
ATOM     32  C   UNL A   1      42.125  27.174  27.861  1.00  0.00    -0.014 A 
BRANCH  32  33
ATOM     33  C   UNL A   1      41.628  27.916  29.047  1.00  0.00     0.031 A 
ATOM     34  C   UNL A   1      42.379  27.811  30.347  1.00  0.00     0.074 A 
ATOM     35  C   UNL A   1      40.548  28.711  28.958  1.00  0.00     0.049 A 
ATOM     36  N   UNL A   1      42.124  28.373  31.502  1.00  0.00    -0.248 NA
ATOM     37  C   UNL A   1      43.580  26.962  30.343  1.00  0.00     0.031 C 
ATOM     38  C   UNL A   1      39.761  28.930  27.747  1.00  0.00     0.029 A 
ATOM     39  N   UNL A   1      39.928  29.481  29.910  1.00  0.00    -0.354 N 
ATOM     40  C   UNL A   1      43.127  27.943  32.362  1.00  0.00     0.074 A 
ATOM     41  C   UNL A   1      43.981  27.054  31.603  1.00  0.00     0.031 C 
ATOM     42  C   UNL A   1      38.755  29.776  28.029  1.00  0.00     0.029 A 
ATOM     43  C   UNL A   1      38.814  30.136  29.446  1.00  0.00     0.049 A 
ATOM     44  H   UNL A   1      40.250  29.557  30.837  1.00  0.00     0.167 HD
ATOM     45  C   UNL A   1      43.323  28.267  33.662  1.00  0.00     0.037 A 
ATOM     46  C   UNL A   1      37.935  30.923  30.095  1.00  0.00     0.037 A 
ATOM     47  C   UNL A   1      42.480  29.157  34.417  1.00  0.00     0.049 A 
ATOM     48  C   UNL A   1      38.137  31.215  31.559  1.00  0.00     0.074 A 
ATOM     49  C   UNL A   1      42.615  29.568  35.732  1.00  0.00     0.029 A 
ATOM     50  N   UNL A   1      41.337  29.766  33.922  1.00  0.00    -0.354 N 
ATOM     51  N   UNL A   1      39.105  30.828  32.355  1.00  0.00    -0.248 NA
ATOM     52  C   UNL A   1      37.123  32.054  32.215  1.00  0.00     0.031 C 
ATOM     53  C   UNL A   1      41.528  30.390  36.047  1.00  0.00     0.029 A 
ATOM     54  C   UNL A   1      40.741  30.529  34.915  1.00  0.00     0.049 A 
ATOM     55  H   UNL A   1      40.998  29.672  33.002  1.00  0.00     0.167 HD
ATOM     56  C   UNL A   1      38.833  31.396  33.593  1.00  0.00     0.074 A 
ATOM     57  C   UNL A   1      37.614  32.163  33.441  1.00  0.00     0.031 C 
ATOM     58  C   UNL A   1      39.532  31.293  34.749  1.00  0.00     0.037 A 
BRANCH  45  59
ATOM     59  C   UNL A   1      44.488  27.636  34.364  1.00  0.00     0.064 A 
ATOM     60  C   UNL A   1      44.368  26.410  35.036  1.00  0.00     0.173 A 
ATOM     61  C   UNL A   1      45.752  28.246  34.328  1.00  0.00     0.173 A 
ATOM     62  F   UNL A   1      43.180  25.795  35.107  1.00  0.00    -0.203 F 
ATOM     63  C   UNL A   1      45.466  25.830  35.666  1.00  0.00     0.198 A 
ATOM     64  C   UNL A   1      46.852  27.650  34.939  1.00  0.00     0.198 A 
ATOM     65  F   UNL A   1      45.920  29.416  33.694  1.00  0.00    -0.203 F 
ATOM     66  F   UNL A   1      45.321  24.678  36.336  1.00  0.00    -0.200 F 
ATOM     67  C   UNL A   1      46.708  26.447  35.612  1.00  0.00     0.200 A 
ATOM     68  F   UNL A   1      48.053  28.243  34.877  1.00  0.00    -0.200 F 
ATOM     69  F   UNL A   1      47.764  25.883  36.214  1.00  0.00    -0.200 F 
ENDBRANCH  45  59
BRANCH  46  70
ATOM     70  C   UNL A   1      36.772  31.493  29.366  1.00  0.00     0.064 A 
ATOM     71  C   UNL A   1      35.703  30.683  28.962  1.00  0.00     0.173 A 
ATOM     72  C   UNL A   1      36.716  32.857  29.047  1.00  0.00     0.173 A 
ATOM     73  F   UNL A   1      35.725  29.367  29.222  1.00  0.00    -0.203 F 
ATOM     74  C   UNL A   1      34.627  31.213  28.254  1.00  0.00     0.198 A 
ATOM     75  C   UNL A   1      35.628  33.391  28.360  1.00  0.00     0.198 A 
ATOM     76  F   UNL A   1      37.717  33.674  29.406  1.00  0.00    -0.203 F 
ATOM     77  F   UNL A   1      33.637  30.409  27.843  1.00  0.00    -0.200 F 
ATOM     78  C   UNL A   1      34.587  32.568  27.958  1.00  0.00     0.200 A 
ATOM     79  F   UNL A   1      35.589  34.703  28.085  1.00  0.00    -0.200 F 
ATOM     80  F   UNL A   1      33.550  33.077  27.281  1.00  0.00    -0.200 F 
ENDBRANCH  46  70
BRANCH  58  81
ATOM     81  C   UNL A   1      39.015  32.050  35.937  1.00  0.00     0.064 A 
ATOM     82  C   UNL A   1      38.193  31.441  36.896  1.00  0.00     0.173 A 
ATOM     83  C   UNL A   1      39.382  33.390  36.139  1.00  0.00     0.173 A 
ATOM     84  F   UNL A   1      37.803  30.168  36.739  1.00  0.00    -0.203 F 
ATOM     85  C   UNL A   1      37.739  32.153  38.004  1.00  0.00     0.198 A 
ATOM     86  C   UNL A   1      38.947  34.090  37.262  1.00  0.00     0.198 A 
ATOM     87  F   UNL A   1      40.172  34.016  35.254  1.00  0.00    -0.203 F 
ATOM     88  F   UNL A   1      36.921  31.564  38.887  1.00  0.00    -0.200 F 
ATOM     89  C   UNL A   1      38.122  33.473  38.189  1.00  0.00     0.200 A 
ATOM     90  F   UNL A   1      39.327  35.362  37.444  1.00  0.00    -0.200 F 
ATOM     91  F   UNL A   1      37.689  34.154  39.259  1.00  0.00    -0.200 F 
ENDBRANCH  58  81
ENDBRANCH  32  33
ENDBRANCH  25  27
ENDBRANCH  24  25
ENDBRANCH  23  24
ENDBRANCH   1  23
TORSDOF 16
ENDMDL
MODEL 3
REMARK VINA RESULT:     -10.9      2.195      8.176
REMARK SMILES [NH3+][C@H](C(=O)OCCOCCOC(=O)c1ccc(-c2c3nc(c(-c4c(F)c(F)c(F)c(F)c4F)c4ccc([nH]4)c(-c4c(F)c(F)c(F)c(F)c4F)c4nc(c(-c5c(F)c(F)c(F)c(F)c5F)c5ccc2[nH]5)C=C4)C=C3)cc1)c1cc2c(cc1Br)OCO2
REMARK SMILES IDX 9 1 8 2 7 3 6 4 5 5 3 6 4 7 2 8 1 9 77 13 78 14 82 15 79 16
REMARK SMILES IDX 81 17 83 18 80 19 86 20 84 21 85 22 10 23 11 24 12 25 13 26
REMARK SMILES IDX 14 27 15 28 76 29 16 30 75 31 17 32 18 33 19 34 69 35 20 36
REMARK SMILES IDX 74 37 68 38 70 39 21 40 73 41 67 42 66 43 22 45 54 46 34 47
REMARK SMILES IDX 53 48 35 49 38 50 52 51 71 52 36 53 37 54 51 56 72 57 39 58
REMARK SMILES IDX 23 59 24 60 32 61 25 62 26 63 30 64 33 65 27 66 28 67 31 68
REMARK SMILES IDX 29 69 55 70 56 71 64 72 57 73 58 74 62 75 65 76 59 77 60 78
REMARK SMILES IDX 63 79 61 80 40 81 41 82 49 83 42 84 43 85 47 86 50 87 44 88
REMARK SMILES IDX 45 89 48 90 46 91
REMARK H PARENT 1 10 1 11 1 12 70 44 38 55
REMARK Flexibility Score: inf
ROOT
ATOM      1  C   UNL A   1      31.523  29.355  25.098  1.00  0.00     0.202 C 
ENDROOT
BRANCH   1   2
ATOM      2  O   UNL A   1      30.734  29.303  23.909  1.00  0.00    -0.374 OA
BRANCH   2   3
ATOM      3  C   UNL A   1      31.363  28.846  22.716  1.00  0.00     0.202 C 
BRANCH   3   4
ATOM      4  C   UNL A   1      31.494  27.331  22.532  1.00  0.00     0.261 C 
BRANCH   4   5
ATOM      5  O   UNL A   1      32.854  26.869  22.481  1.00  0.00    -0.459 OA
BRANCH   5   6
ATOM      6  C   UNL A   1      33.049  25.660  21.871  1.00  0.00     0.369 C 
ATOM      7  O   UNL A   1      33.317  25.506  20.684  1.00  0.00    -0.245 OA
BRANCH   6   8
ATOM      8  C   UNL A   1      32.796  24.494  22.849  1.00  0.00     0.324 C 
BRANCH   8   9
ATOM      9  N   UNL A   1      32.283  23.305  22.122  1.00  0.00    -0.342 N 
ATOM     10  H   UNL A   1      31.497  22.907  22.635  1.00  0.00     0.345 HD
ATOM     11  H   UNL A   1      33.025  22.610  22.043  1.00  0.00     0.345 HD
ATOM     12  H   UNL A   1      31.976  23.583  21.190  1.00  0.00     0.345 HD
ENDBRANCH   8   9
BRANCH   8  13
ATOM     13  C   UNL A   1      33.981  24.162  23.750  1.00  0.00     0.039 A 
ATOM     14  C   UNL A   1      34.868  23.158  23.297  1.00  0.00     0.062 A 
ATOM     15  C   UNL A   1      34.244  24.765  25.010  1.00  0.00     0.031 A 
ATOM     16  C   UNL A   1      35.960  22.825  24.073  1.00  0.00     0.166 A 
ATOM     17  C   UNL A   1      35.382  24.425  25.761  1.00  0.00     0.066 A 
ATOM     18  Br  UNL A   1      33.065  26.012  25.833  1.00  0.00    -0.050 Br
ATOM     19  C   UNL A   1      36.217  23.451  25.264  1.00  0.00     0.166 A 
ATOM     20  O   UNL A   1      36.879  21.865  23.782  1.00  0.00    -0.454 OA
ATOM     21  O   UNL A   1      37.338  22.978  25.870  1.00  0.00    -0.454 OA
ATOM     22  C   UNL A   1      37.733  21.946  24.942  1.00  0.00     0.468 C 
ENDBRANCH   8  13
ENDBRANCH   6   8
ENDBRANCH   5   6
ENDBRANCH   4   5
ENDBRANCH   3   4
ENDBRANCH   2   3
ENDBRANCH   1   2
BRANCH   1  23
ATOM     23  C   UNL A   1      31.573  30.699  25.833  1.00  0.00     0.261 C 
BRANCH  23  24
ATOM     24  O   UNL A   1      32.343  30.629  27.049  1.00  0.00    -0.460 OA
BRANCH  24  25
ATOM     25  C   UNL A   1      33.089  31.733  27.299  1.00  0.00     0.338 C 
ATOM     26  O   UNL A   1      32.714  32.892  27.324  1.00  0.00    -0.246 OA
BRANCH  25  27
ATOM     27  C   UNL A   1      34.455  31.359  27.707  1.00  0.00     0.060 A 
ATOM     28  C   UNL A   1      34.706  30.004  27.962  1.00  0.00     0.016 A 
ATOM     29  C   UNL A   1      35.422  32.325  27.989  1.00  0.00     0.016 A 
ATOM     30  C   UNL A   1      35.905  29.617  28.558  1.00  0.00     0.010 A 
ATOM     31  C   UNL A   1      36.622  31.935  28.596  1.00  0.00     0.010 A 
ATOM     32  C   UNL A   1      36.851  30.584  28.921  1.00  0.00    -0.014 A 
BRANCH  32  33
ATOM     33  C   UNL A   1      38.002  30.192  29.773  1.00  0.00     0.031 A 
ATOM     34  C   UNL A   1      39.029  29.236  29.227  1.00  0.00     0.074 A 
ATOM     35  C   UNL A   1      38.158  30.715  31.001  1.00  0.00     0.049 A 
ATOM     36  N   UNL A   1      40.109  28.762  29.796  1.00  0.00    -0.248 NA
ATOM     37  C   UNL A   1      38.809  28.752  27.856  1.00  0.00     0.031 C 
ATOM     38  C   UNL A   1      37.259  31.682  31.626  1.00  0.00     0.029 A 
ATOM     39  N   UNL A   1      39.135  30.503  31.943  1.00  0.00    -0.354 N 
ATOM     40  C   UNL A   1      40.694  27.923  28.856  1.00  0.00     0.074 A 
ATOM     41  C   UNL A   1      39.837  27.933  27.689  1.00  0.00     0.031 C 
ATOM     42  C   UNL A   1      37.722  31.977  32.853  1.00  0.00     0.029 A 
ATOM     43  C   UNL A   1      38.935  31.200  33.108  1.00  0.00     0.049 A 
ATOM     44  H   UNL A   1      39.905  29.908  31.797  1.00  0.00     0.167 HD
ATOM     45  C   UNL A   1      41.846  27.217  28.953  1.00  0.00     0.037 A 
ATOM     46  C   UNL A   1      39.642  31.199  34.254  1.00  0.00     0.037 A 
ATOM     47  C   UNL A   1      42.704  27.212  30.109  1.00  0.00     0.049 A 
ATOM     48  C   UNL A   1      40.883  30.352  34.362  1.00  0.00     0.074 A 
ATOM     49  C   UNL A   1      43.906  26.549  30.290  1.00  0.00     0.029 A 
ATOM     50  N   UNL A   1      42.444  27.898  31.285  1.00  0.00    -0.354 N 
ATOM     51  N   UNL A   1      41.444  29.585  33.457  1.00  0.00    -0.248 NA
ATOM     52  C   UNL A   1      41.589  30.370  35.651  1.00  0.00     0.031 C 
ATOM     53  C   UNL A   1      44.350  26.798  31.593  1.00  0.00     0.029 A 
ATOM     54  C   UNL A   1      43.449  27.652  32.208  1.00  0.00     0.049 A 
ATOM     55  H   UNL A   1      41.661  28.474  31.443  1.00  0.00     0.167 HD
ATOM     56  C   UNL A   1      42.579  29.055  34.056  1.00  0.00     0.074 A 
ATOM     57  C   UNL A   1      42.634  29.593  35.399  1.00  0.00     0.031 C 
ATOM     58  C   UNL A   1      43.494  28.200  33.538  1.00  0.00     0.037 A 
BRANCH  45  59
ATOM     59  C   UNL A   1      42.237  26.368  27.781  1.00  0.00     0.064 A 
ATOM     60  C   UNL A   1      43.167  26.810  26.828  1.00  0.00     0.173 A 
ATOM     61  C   UNL A   1      41.706  25.077  27.632  1.00  0.00     0.173 A 
ATOM     62  F   UNL A   1      43.694  28.039  26.920  1.00  0.00    -0.203 F 
ATOM     63  C   UNL A   1      43.532  26.000  25.756  1.00  0.00     0.198 A 
ATOM     64  C   UNL A   1      42.092  24.261  26.572  1.00  0.00     0.198 A 
ATOM     65  F   UNL A   1      40.817  24.607  28.520  1.00  0.00    -0.203 F 
ATOM     66  F   UNL A   1      44.392  26.456  24.835  1.00  0.00    -0.200 F 
ATOM     67  C   UNL A   1      42.999  24.724  25.632  1.00  0.00     0.200 A 
ATOM     68  F   UNL A   1      41.583  23.026  26.461  1.00  0.00    -0.200 F 
ATOM     69  F   UNL A   1      43.357  23.944  24.603  1.00  0.00    -0.200 F 
ENDBRANCH  45  59
BRANCH  46  70
ATOM     70  C   UNL A   1      39.191  32.026  35.404  1.00  0.00     0.064 A 
ATOM     71  C   UNL A   1      39.544  33.378  35.504  1.00  0.00     0.173 A 
ATOM     72  C   UNL A   1      38.411  31.475  36.430  1.00  0.00     0.173 A 
ATOM     73  F   UNL A   1      40.312  33.942  34.559  1.00  0.00    -0.203 F 
ATOM     74  C   UNL A   1      39.145  34.146  36.596  1.00  0.00     0.198 A 
ATOM     75  C   UNL A   1      37.992  32.251  37.509  1.00  0.00     0.198 A 
ATOM     76  F   UNL A   1      38.051  30.184  36.383  1.00  0.00    -0.203 F 
ATOM     77  F   UNL A   1      39.531  35.426  36.689  1.00  0.00    -0.200 F 
ATOM     78  C   UNL A   1      38.364  33.583  37.595  1.00  0.00     0.200 A 
ATOM     79  F   UNL A   1      37.229  31.705  38.467  1.00  0.00    -0.200 F 
ATOM     80  F   UNL A   1      37.978  34.323  38.643  1.00  0.00    -0.200 F 
ENDBRANCH  46  70
BRANCH  58  81
ATOM     81  C   UNL A   1      44.652  27.815  34.413  1.00  0.00     0.064 A 
ATOM     82  C   UNL A   1      44.611  26.673  35.225  1.00  0.00     0.173 A 
ATOM     83  C   UNL A   1      45.831  28.577  34.407  1.00  0.00     0.173 A 
ATOM     84  F   UNL A   1      43.502  25.921  35.278  1.00  0.00    -0.203 F 
ATOM     85  C   UNL A   1      45.702  26.319  36.016  1.00  0.00     0.198 A 
ATOM     86  C   UNL A   1      46.928  28.205  35.179  1.00  0.00     0.198 A 
ATOM     87  F   UNL A   1      45.921  29.676  33.642  1.00  0.00    -0.203 F 
ATOM     88  F   UNL A   1      45.626  25.246  36.816  1.00  0.00    -0.200 F 
ATOM     89  C   UNL A   1      46.861  27.081  35.986  1.00  0.00     0.200 A 
ATOM     90  F   UNL A   1      48.051  28.936  35.140  1.00  0.00    -0.200 F 
ATOM     91  F   UNL A   1      47.911  26.735  36.743  1.00  0.00    -0.200 F 
ENDBRANCH  58  81
ENDBRANCH  32  33
ENDBRANCH  25  27
ENDBRANCH  24  25
ENDBRANCH  23  24
ENDBRANCH   1  23
TORSDOF 16
ENDMDL
