MODEL 1
REMARK VINA RESULT:     -10.9      0.000      0.000
REMARK SMILES CC(C)(C)C(=O)C[N@@H+]1CCCC[C@H]1C(=O)OCCOCCOC(=O)c1ccc(-c2c3nc(c(-c4c(F)c(F)c(F)c(F)c4F)c4ccc([nH]4)c(-c4c(F)c(F)c(F)c(F)c4F)c4nc(c(-c5c(F)c(F)c(F)c(F)c5F)c5ccc2[nH]5)C=C4)C=C3)cc1
REMARK SMILES IDX 18 1 17 2 16 3 14 4 15 5 13 6 8 7 9 8 10 10 12 11 11 12 7 13
REMARK SMILES IDX 5 14 6 15 2 16 1 17 3 18 4 19 19 20 20 21 21 22 22 23 23 24
REMARK SMILES IDX 24 25 25 26 26 27 87 28 27 29 86 30 28 31 29 32 30 33 80 34
REMARK SMILES IDX 31 35 85 36 79 37 81 38 32 39 84 40 78 41 77 42 33 44 65 45
REMARK SMILES IDX 45 46 64 47 46 48 49 49 63 50 82 51 47 52 48 53 62 55 83 56
REMARK SMILES IDX 50 57 34 58 35 59 43 60 36 61 37 62 41 63 44 64 38 65 39 66
REMARK SMILES IDX 42 67 40 68 66 69 67 70 75 71 68 72 69 73 73 74 76 75 70 76
REMARK SMILES IDX 71 77 74 78 72 79 51 80 52 81 60 82 53 83 54 84 58 85 61 86
REMARK SMILES IDX 55 87 56 88 59 89 57 90
REMARK H PARENT 8 9 81 43 49 54
REMARK Flexibility Score: inf
ROOT
ATOM      1  C   UNL A   1      32.953  29.675  26.869  1.00  0.00     0.202 C 
ENDROOT
BRANCH   1   2
ATOM      2  C   UNL A   1      33.449  29.447  25.423  1.00  0.00     0.261 C 
BRANCH   2   3
ATOM      3  O   UNL A   1      33.251  28.117  24.951  1.00  0.00    -0.459 OA
BRANCH   3   4
ATOM      4  C   UNL A   1      32.391  27.933  23.912  1.00  0.00     0.365 C 
ATOM      5  O   UNL A   1      32.719  27.881  22.733  1.00  0.00    -0.245 OA
BRANCH   4   6
ATOM      6  C   UNL A   1      30.957  27.679  24.439  1.00  0.00     0.295 C 
ATOM      7  N   UNL A   1      30.013  28.336  23.510  1.00  0.00    -0.317 N 
ATOM      8  C   UNL A   1      28.681  27.762  23.328  1.00  0.00     0.263 C 
ATOM      9  H   UNL A   1      30.446  28.105  22.616  1.00  0.00     0.349 HD
ATOM     10  C   UNL A   1      28.432  26.390  23.946  1.00  0.00     0.062 C 
ATOM     11  C   UNL A   1      30.786  26.162  24.683  1.00  0.00     0.078 C 
ATOM     12  C   UNL A   1      29.665  25.514  23.886  1.00  0.00     0.013 C 
BRANCH   7  13
ATOM     13  C   UNL A   1      29.982  29.804  23.668  1.00  0.00     0.340 C 
BRANCH  13  14
ATOM     14  C   UNL A   1      29.499  30.511  22.391  1.00  0.00     0.192 C 
ATOM     15  O   UNL A   1      29.965  30.171  21.297  1.00  0.00    -0.293 OA
BRANCH  14  16
ATOM     16  C   UNL A   1      28.464  31.660  22.494  1.00  0.00     0.026 C 
ATOM     17  C   UNL A   1      27.443  31.356  23.607  1.00  0.00     0.019 C 
ATOM     18  C   UNL A   1      27.680  31.751  21.184  1.00  0.00     0.019 C 
ATOM     19  C   UNL A   1      29.133  32.997  22.839  1.00  0.00     0.019 C 
ENDBRANCH  14  16
ENDBRANCH  13  14
ENDBRANCH   7  13
ENDBRANCH   4   6
ENDBRANCH   3   4
ENDBRANCH   2   3
ENDBRANCH   1   2
BRANCH   1  20
ATOM     20  O   UNL A   1      31.828  30.476  27.215  1.00  0.00    -0.374 OA
BRANCH  20  21
ATOM     21  C   UNL A   1      31.492  31.639  26.480  1.00  0.00     0.202 C 
BRANCH  21  22
ATOM     22  C   UNL A   1      32.120  32.968  26.905  1.00  0.00     0.261 C 
BRANCH  22  23
ATOM     23  O   UNL A   1      32.931  32.861  28.079  1.00  0.00    -0.460 OA
BRANCH  23  24
ATOM     24  C   UNL A   1      33.979  33.723  28.102  1.00  0.00     0.338 C 
ATOM     25  O   UNL A   1      33.951  34.935  28.033  1.00  0.00    -0.246 OA
BRANCH  24  26
ATOM     26  C   UNL A   1      35.213  32.972  28.399  1.00  0.00     0.060 A 
ATOM     27  C   UNL A   1      35.070  31.620  28.733  1.00  0.00     0.016 A 
ATOM     28  C   UNL A   1      36.470  33.581  28.389  1.00  0.00     0.016 A 
ATOM     29  C   UNL A   1      36.184  30.875  29.098  1.00  0.00     0.010 A 
ATOM     30  C   UNL A   1      37.585  32.840  28.783  1.00  0.00     0.010 A 
ATOM     31  C   UNL A   1      37.435  31.498  29.176  1.00  0.00    -0.014 A 
BRANCH  31  32
ATOM     32  C   UNL A   1      38.521  30.805  29.899  1.00  0.00     0.031 A 
ATOM     33  C   UNL A   1      38.721  31.140  31.350  1.00  0.00     0.074 A 
ATOM     34  C   UNL A   1      39.268  29.866  29.297  1.00  0.00     0.049 A 
ATOM     35  N   UNL A   1      39.587  30.659  32.204  1.00  0.00    -0.248 NA
ATOM     36  C   UNL A   1      37.814  32.155  31.916  1.00  0.00     0.031 C 
ATOM     37  C   UNL A   1      39.127  29.436  27.909  1.00  0.00     0.029 A 
ATOM     38  N   UNL A   1      40.299  29.106  29.787  1.00  0.00    -0.354 N 
ATOM     39  C   UNL A   1      39.325  31.307  33.404  1.00  0.00     0.074 A 
ATOM     40  C   UNL A   1      38.241  32.233  33.167  1.00  0.00     0.031 C 
ATOM     41  C   UNL A   1      40.050  28.492  27.651  1.00  0.00     0.029 A 
ATOM     42  C   UNL A   1      40.856  28.272  28.851  1.00  0.00     0.049 A 
ATOM     43  H   UNL A   1      40.609  29.155  30.720  1.00  0.00     0.167 HD
ATOM     44  C   UNL A   1      39.934  31.138  34.600  1.00  0.00     0.037 A 
ATOM     45  C   UNL A   1      41.909  27.439  28.958  1.00  0.00     0.037 A 
ATOM     46  C   UNL A   1      41.021  30.226  34.825  1.00  0.00     0.049 A 
ATOM     47  C   UNL A   1      42.615  27.318  30.284  1.00  0.00     0.074 A 
ATOM     48  C   UNL A   1      41.713  29.976  35.995  1.00  0.00     0.029 A 
ATOM     49  N   UNL A   1      41.582  29.420  33.844  1.00  0.00    -0.354 N 
ATOM     50  N   UNL A   1      42.349  27.914  31.422  1.00  0.00    -0.248 NA
ATOM     51  C   UNL A   1      43.764  26.404  30.343  1.00  0.00     0.031 C 
ATOM     52  C   UNL A   1      42.720  29.048  35.714  1.00  0.00     0.029 A 
ATOM     53  C   UNL A   1      42.627  28.686  34.379  1.00  0.00     0.049 A 
ATOM     54  H   UNL A   1      41.281  29.376  32.908  1.00  0.00     0.167 HD
ATOM     55  C   UNL A   1      43.279  27.434  32.334  1.00  0.00     0.074 A 
ATOM     56  C   UNL A   1      44.109  26.485  31.621  1.00  0.00     0.031 C 
ATOM     57  C   UNL A   1      43.434  27.746  33.645  1.00  0.00     0.037 A 
BRANCH  44  58
ATOM     58  C   UNL A   1      39.453  31.982  35.741  1.00  0.00     0.064 A 
ATOM     59  C   UNL A   1      39.954  33.273  35.963  1.00  0.00     0.173 A 
ATOM     60  C   UNL A   1      38.476  31.495  36.619  1.00  0.00     0.173 A 
ATOM     61  F   UNL A   1      40.908  33.774  35.163  1.00  0.00    -0.203 F 
ATOM     62  C   UNL A   1      39.508  34.038  37.038  1.00  0.00     0.198 A 
ATOM     63  C   UNL A   1      38.014  32.271  37.678  1.00  0.00     0.198 A 
ATOM     64  F   UNL A   1      37.969  30.264  36.453  1.00  0.00    -0.203 F 
ATOM     65  F   UNL A   1      40.033  35.251  37.258  1.00  0.00    -0.200 F 
ATOM     66  C   UNL A   1      38.535  33.539  37.890  1.00  0.00     0.200 A 
ATOM     67  F   UNL A   1      37.071  31.790  38.500  1.00  0.00    -0.200 F 
ATOM     68  F   UNL A   1      38.106  34.277  38.924  1.00  0.00    -0.200 F 
ENDBRANCH  44  58
BRANCH  45  69
ATOM     69  C   UNL A   1      42.367  26.666  27.776  1.00  0.00     0.064 A 
ATOM     70  C   UNL A   1      41.895  25.370  27.528  1.00  0.00     0.173 A 
ATOM     71  C   UNL A   1      43.297  27.205  26.874  1.00  0.00     0.173 A 
ATOM     72  F   UNL A   1      41.025  24.802  28.376  1.00  0.00    -0.203 F 
ATOM     73  C   UNL A   1      42.346  24.637  26.431  1.00  0.00     0.198 A 
ATOM     74  C   UNL A   1      43.728  26.482  25.765  1.00  0.00     0.198 A 
ATOM     75  F   UNL A   1      43.781  28.441  27.068  1.00  0.00    -0.203 F 
ATOM     76  F   UNL A   1      41.910  23.385  26.240  1.00  0.00    -0.200 F 
ATOM     77  C   UNL A   1      43.257  25.196  25.547  1.00  0.00     0.200 A 
ATOM     78  F   UNL A   1      44.602  27.030  24.908  1.00  0.00    -0.200 F 
ATOM     79  F   UNL A   1      43.688  24.493  24.492  1.00  0.00    -0.200 F 
ENDBRANCH  45  69
BRANCH  57  80
ATOM     80  C   UNL A   1      44.523  27.039  34.395  1.00  0.00     0.064 A 
ATOM     81  C   UNL A   1      44.309  25.792  34.997  1.00  0.00     0.173 A 
ATOM     82  C   UNL A   1      45.810  27.594  34.466  1.00  0.00     0.173 A 
ATOM     83  F   UNL A   1      43.091  25.228  34.966  1.00  0.00    -0.203 F 
ATOM     84  C   UNL A   1      45.339  25.134  35.662  1.00  0.00     0.198 A 
ATOM     85  C   UNL A   1      46.845  26.922  35.109  1.00  0.00     0.198 A 
ATOM     86  F   UNL A   1      46.066  28.782  33.897  1.00  0.00    -0.203 F 
ATOM     87  F   UNL A   1      45.103  23.961  36.265  1.00  0.00    -0.200 F 
ATOM     88  C   UNL A   1      46.606  25.696  35.711  1.00  0.00     0.200 A 
ATOM     89  F   UNL A   1      48.071  27.459  35.144  1.00  0.00    -0.200 F 
ATOM     90  F   UNL A   1      47.600  25.056  36.344  1.00  0.00    -0.200 F 
ENDBRANCH  57  80
ENDBRANCH  31  32
ENDBRANCH  24  26
ENDBRANCH  23  24
ENDBRANCH  22  23
ENDBRANCH  21  22
ENDBRANCH  20  21
ENDBRANCH   1  20
TORSDOF 17
ENDMDL
MODEL 2
REMARK VINA RESULT:     -10.8      0.604      1.844
REMARK SMILES CC(C)(C)C(=O)C[N@@H+]1CCCC[C@H]1C(=O)OCCOCCOC(=O)c1ccc(-c2c3nc(c(-c4c(F)c(F)c(F)c(F)c4F)c4ccc([nH]4)c(-c4c(F)c(F)c(F)c(F)c4F)c4nc(c(-c5c(F)c(F)c(F)c(F)c5F)c5ccc2[nH]5)C=C4)C=C3)cc1
REMARK SMILES IDX 18 1 17 2 16 3 14 4 15 5 13 6 8 7 9 8 10 10 12 11 11 12 7 13
REMARK SMILES IDX 5 14 6 15 2 16 1 17 3 18 4 19 19 20 20 21 21 22 22 23 23 24
REMARK SMILES IDX 24 25 25 26 26 27 87 28 27 29 86 30 28 31 29 32 30 33 80 34
REMARK SMILES IDX 31 35 85 36 79 37 81 38 32 39 84 40 78 41 77 42 33 44 65 45
REMARK SMILES IDX 45 46 64 47 46 48 49 49 63 50 82 51 47 52 48 53 62 55 83 56
REMARK SMILES IDX 50 57 34 58 35 59 43 60 36 61 37 62 41 63 44 64 38 65 39 66
REMARK SMILES IDX 42 67 40 68 66 69 67 70 75 71 68 72 69 73 73 74 76 75 70 76
REMARK SMILES IDX 71 77 74 78 72 79 51 80 52 81 60 82 53 83 54 84 58 85 61 86
REMARK SMILES IDX 55 87 56 88 59 89 57 90
REMARK H PARENT 8 9 81 43 49 54
REMARK Flexibility Score: inf
ROOT
ATOM      1  C   UNL A   1      32.769  29.699  26.754  1.00  0.00     0.202 C 
ENDROOT
BRANCH   1   2
ATOM      2  C   UNL A   1      33.276  29.619  25.296  1.00  0.00     0.261 C 
BRANCH   2   3
ATOM      3  O   UNL A   1      33.736  28.324  24.918  1.00  0.00    -0.459 OA
BRANCH   3   4
ATOM      4  C   UNL A   1      33.152  27.733  23.840  1.00  0.00     0.365 C 
ATOM      5  O   UNL A   1      33.534  27.854  22.683  1.00  0.00    -0.245 OA
BRANCH   4   6
ATOM      6  C   UNL A   1      32.012  26.789  24.297  1.00  0.00     0.295 C 
ATOM      7  N   UNL A   1      30.811  27.114  23.498  1.00  0.00    -0.317 N 
ATOM      8  C   UNL A   1      29.849  26.055  23.199  1.00  0.00     0.263 C 
ATOM      9  H   UNL A   1      31.235  27.253  22.580  1.00  0.00     0.349 HD
ATOM     10  C   UNL A   1      30.264  24.629  23.549  1.00  0.00     0.062 C 
ATOM     11  C   UNL A   1      32.532  25.335  24.253  1.00  0.00     0.078 C 
ATOM     12  C   UNL A   1      31.746  24.408  23.339  1.00  0.00     0.013 C 
BRANCH   7  13
ATOM     13  C   UNL A   1      30.160  28.369  23.925  1.00  0.00     0.340 C 
BRANCH  13  14
ATOM     14  C   UNL A   1      29.781  29.259  22.730  1.00  0.00     0.192 C 
ATOM     15  O   UNL A   1      30.609  29.449  21.830  1.00  0.00    -0.293 OA
BRANCH  14  16
ATOM     16  C   UNL A   1      28.385  29.929  22.684  1.00  0.00     0.026 C 
ATOM     17  C   UNL A   1      28.053  30.368  21.246  1.00  0.00     0.019 C 
ATOM     18  C   UNL A   1      28.406  31.196  23.542  1.00  0.00     0.019 C 
ATOM     19  C   UNL A   1      27.279  28.967  23.137  1.00  0.00     0.019 C 
ENDBRANCH  14  16
ENDBRANCH  13  14
ENDBRANCH   7  13
ENDBRANCH   4   6
ENDBRANCH   3   4
ENDBRANCH   2   3
ENDBRANCH   1   2
BRANCH   1  20
ATOM     20  O   UNL A   1      31.774  30.610  27.209  1.00  0.00    -0.374 OA
BRANCH  20  21
ATOM     21  C   UNL A   1      31.480  31.800  26.500  1.00  0.00     0.202 C 
BRANCH  21  22
ATOM     22  C   UNL A   1      32.072  33.114  27.014  1.00  0.00     0.261 C 
BRANCH  22  23
ATOM     23  O   UNL A   1      33.010  32.931  28.080  1.00  0.00    -0.460 OA
BRANCH  23  24
ATOM     24  C   UNL A   1      34.085  33.757  28.010  1.00  0.00     0.338 C 
ATOM     25  O   UNL A   1      34.094  34.961  27.860  1.00  0.00    -0.246 OA
BRANCH  24  26
ATOM     26  C   UNL A   1      35.304  32.986  28.320  1.00  0.00     0.060 A 
ATOM     27  C   UNL A   1      35.138  31.630  28.627  1.00  0.00     0.016 A 
ATOM     28  C   UNL A   1      36.568  33.579  28.346  1.00  0.00     0.016 A 
ATOM     29  C   UNL A   1      36.235  30.865  29.000  1.00  0.00     0.010 A 
ATOM     30  C   UNL A   1      37.666  32.818  28.750  1.00  0.00     0.010 A 
ATOM     31  C   UNL A   1      37.492  31.471  29.116  1.00  0.00    -0.014 A 
BRANCH  31  32
ATOM     32  C   UNL A   1      38.554  30.753  29.849  1.00  0.00     0.031 A 
ATOM     33  C   UNL A   1      38.748  31.083  31.302  1.00  0.00     0.074 A 
ATOM     34  C   UNL A   1      39.284  29.796  29.254  1.00  0.00     0.049 A 
ATOM     35  N   UNL A   1      39.594  30.581  32.163  1.00  0.00    -0.248 NA
ATOM     36  C   UNL A   1      37.861  32.118  31.860  1.00  0.00     0.031 C 
ATOM     37  C   UNL A   1      39.146  29.370  27.864  1.00  0.00     0.029 A 
ATOM     38  N   UNL A   1      40.292  29.012  29.753  1.00  0.00    -0.354 N 
ATOM     39  C   UNL A   1      39.337  31.235  33.361  1.00  0.00     0.074 A 
ATOM     40  C   UNL A   1      38.277  32.186  33.115  1.00  0.00     0.031 C 
ATOM     41  C   UNL A   1      40.049  28.405  27.615  1.00  0.00     0.029 A 
ATOM     42  C   UNL A   1      40.838  28.165  28.822  1.00  0.00     0.049 A 
ATOM     43  H   UNL A   1      40.595  29.053  30.689  1.00  0.00     0.167 HD
ATOM     44  C   UNL A   1      39.930  31.050  34.563  1.00  0.00     0.037 A 
ATOM     45  C   UNL A   1      41.870  27.307  28.938  1.00  0.00     0.037 A 
ATOM     46  C   UNL A   1      40.993  30.113  34.798  1.00  0.00     0.049 A 
ATOM     47  C   UNL A   1      42.560  27.169  30.271  1.00  0.00     0.074 A 
ATOM     48  C   UNL A   1      41.668  29.846  35.975  1.00  0.00     0.029 A 
ATOM     49  N   UNL A   1      41.544  29.294  33.822  1.00  0.00    -0.354 N 
ATOM     50  N   UNL A   1      42.298  27.771  31.407  1.00  0.00    -0.248 NA
ATOM     51  C   UNL A   1      43.687  26.228  30.340  1.00  0.00     0.031 C 
ATOM     52  C   UNL A   1      42.656  28.894  35.703  1.00  0.00     0.029 A 
ATOM     53  C   UNL A   1      42.566  28.536  34.366  1.00  0.00     0.049 A 
ATOM     54  H   UNL A   1      41.251  29.257  32.883  1.00  0.00     0.167 HD
ATOM     55  C   UNL A   1      43.207  27.268  32.327  1.00  0.00     0.074 A 
ATOM     56  C   UNL A   1      44.021  26.300  31.621  1.00  0.00     0.031 C 
ATOM     57  C   UNL A   1      43.357  27.576  33.639  1.00  0.00     0.037 A 
BRANCH  44  58
ATOM     58  C   UNL A   1      39.458  31.906  35.700  1.00  0.00     0.064 A 
ATOM     59  C   UNL A   1      38.438  31.482  36.564  1.00  0.00     0.173 A 
ATOM     60  C   UNL A   1      40.037  33.161  35.929  1.00  0.00     0.173 A 
ATOM     61  F   UNL A   1      37.837  30.299  36.371  1.00  0.00    -0.203 F 
ATOM     62  C   UNL A   1      38.000  32.297  37.605  1.00  0.00     0.198 A 
ATOM     63  C   UNL A   1      39.613  33.962  36.985  1.00  0.00     0.198 A 
ATOM     64  F   UNL A   1      41.012  33.613  35.126  1.00  0.00    -0.203 F 
ATOM     65  F   UNL A   1      36.992  31.892  38.392  1.00  0.00    -0.200 F 
ATOM     66  C   UNL A   1      38.592  33.532  37.818  1.00  0.00     0.200 A 
ATOM     67  F   UNL A   1      40.189  35.155  37.193  1.00  0.00    -0.200 F 
ATOM     68  F   UNL A   1      38.169  34.314  38.822  1.00  0.00    -0.200 F 
ENDBRANCH  44  58
BRANCH  45  69
ATOM     69  C   UNL A   1      42.320  26.524  27.760  1.00  0.00     0.064 A 
ATOM     70  C   UNL A   1      41.753  25.280  27.455  1.00  0.00     0.173 A 
ATOM     71  C   UNL A   1      43.338  27.000  26.920  1.00  0.00     0.173 A 
ATOM     72  F   UNL A   1      40.795  24.770  28.244  1.00  0.00    -0.203 F 
ATOM     73  C   UNL A   1      42.195  24.535  26.363  1.00  0.00     0.198 A 
ATOM     74  C   UNL A   1      43.762  26.267  25.814  1.00  0.00     0.198 A 
ATOM     75  F   UNL A   1      43.915  28.184  27.171  1.00  0.00    -0.203 F 
ATOM     76  F   UNL A   1      41.664  23.329  26.117  1.00  0.00    -0.200 F 
ATOM     77  C   UNL A   1      43.195  25.032  25.540  1.00  0.00     0.200 A 
ATOM     78  F   UNL A   1      44.722  26.756  25.017  1.00  0.00    -0.200 F 
ATOM     79  F   UNL A   1      43.618  24.317  24.489  1.00  0.00    -0.200 F 
ENDBRANCH  45  69
BRANCH  57  80
ATOM     80  C   UNL A   1      44.422  26.844  34.399  1.00  0.00     0.064 A 
ATOM     81  C   UNL A   1      45.705  27.382  34.567  1.00  0.00     0.173 A 
ATOM     82  C   UNL A   1      44.137  25.613  35.011  1.00  0.00     0.173 A 
ATOM     83  F   UNL A   1      46.027  28.550  33.990  1.00  0.00    -0.203 F 
ATOM     84  C   UNL A   1      46.673  26.705  35.304  1.00  0.00     0.198 A 
ATOM     85  C   UNL A   1      45.099  24.951  35.768  1.00  0.00     0.198 A 
ATOM     86  F   UNL A   1      42.920  25.062  34.885  1.00  0.00    -0.203 F 
ATOM     87  F   UNL A   1      47.904  27.218  35.420  1.00  0.00    -0.200 F 
ATOM     88  C   UNL A   1      46.366  25.495  35.909  1.00  0.00     0.200 A 
ATOM     89  F   UNL A   1      44.798  23.790  36.363  1.00  0.00    -0.200 F 
ATOM     90  F   UNL A   1      47.297  24.849  36.625  1.00  0.00    -0.200 F 
ENDBRANCH  57  80
ENDBRANCH  31  32
ENDBRANCH  24  26
ENDBRANCH  23  24
ENDBRANCH  22  23
ENDBRANCH  21  22
ENDBRANCH  20  21
ENDBRANCH   1  20
TORSDOF 17
ENDMDL
MODEL 3
REMARK VINA RESULT:     -10.6      1.580      3.482
REMARK SMILES CC(C)(C)C(=O)C[N@@H+]1CCCC[C@H]1C(=O)OCCOCCOC(=O)c1ccc(-c2c3nc(c(-c4c(F)c(F)c(F)c(F)c4F)c4ccc([nH]4)c(-c4c(F)c(F)c(F)c(F)c4F)c4nc(c(-c5c(F)c(F)c(F)c(F)c5F)c5ccc2[nH]5)C=C4)C=C3)cc1
REMARK SMILES IDX 18 1 17 2 16 3 14 4 15 5 13 6 8 7 9 8 10 10 12 11 11 12 7 13
REMARK SMILES IDX 5 14 6 15 2 16 1 17 3 18 4 19 19 20 20 21 21 22 22 23 23 24
REMARK SMILES IDX 24 25 25 26 26 27 87 28 27 29 86 30 28 31 29 32 30 33 80 34
REMARK SMILES IDX 31 35 85 36 79 37 81 38 32 39 84 40 78 41 77 42 33 44 65 45
REMARK SMILES IDX 45 46 64 47 46 48 49 49 63 50 82 51 47 52 48 53 62 55 83 56
REMARK SMILES IDX 50 57 34 58 35 59 43 60 36 61 37 62 41 63 44 64 38 65 39 66
REMARK SMILES IDX 42 67 40 68 66 69 67 70 75 71 68 72 69 73 73 74 76 75 70 76
REMARK SMILES IDX 71 77 74 78 72 79 51 80 52 81 60 82 53 83 54 84 58 85 61 86
REMARK SMILES IDX 55 87 56 88 59 89 57 90
REMARK H PARENT 8 9 81 43 49 54
REMARK Flexibility Score: inf
ROOT
ATOM      1  C   UNL A   1      33.533  28.575  25.421  1.00  0.00     0.202 C 
ENDROOT
BRANCH   1   2
ATOM      2  C   UNL A   1      33.908  27.397  24.493  1.00  0.00     0.261 C 
BRANCH   2   3
ATOM      3  O   UNL A   1      33.444  27.550  23.155  1.00  0.00    -0.459 OA
BRANCH   3   4
ATOM      4  C   UNL A   1      33.137  26.422  22.457  1.00  0.00     0.365 C 
ATOM      5  O   UNL A   1      33.959  25.657  21.968  1.00  0.00    -0.245 OA
BRANCH   4   6
ATOM      6  C   UNL A   1      31.608  26.179  22.475  1.00  0.00     0.295 C 
ATOM      7  N   UNL A   1      31.302  25.325  23.643  1.00  0.00    -0.317 N 
ATOM      8  C   UNL A   1      30.006  25.465  24.304  1.00  0.00     0.263 C 
ATOM      9  H   UNL A   1      31.920  25.742  24.340  1.00  0.00     0.349 HD
ATOM     10  C   UNL A   1      29.138  26.644  23.875  1.00  0.00     0.062 C 
ATOM     11  C   UNL A   1      30.892  27.545  22.376  1.00  0.00     0.078 C 
ATOM     12  C   UNL A   1      29.970  27.863  23.543  1.00  0.00     0.013 C 
BRANCH   7  13
ATOM     13  C   UNL A   1      31.686  23.914  23.439  1.00  0.00     0.340 C 
BRANCH  13  14
ATOM     14  C   UNL A   1      32.622  23.404  24.546  1.00  0.00     0.192 C 
ATOM     15  O   UNL A   1      32.943  24.166  25.466  1.00  0.00    -0.293 OA
BRANCH  14  16
ATOM     16  C   UNL A   1      33.176  21.958  24.477  1.00  0.00     0.026 C 
ATOM     17  C   UNL A   1      32.528  21.196  23.306  1.00  0.00     0.019 C 
ATOM     18  C   UNL A   1      32.797  21.212  25.758  1.00  0.00     0.019 C 
ATOM     19  C   UNL A   1      34.693  21.943  24.251  1.00  0.00     0.019 C 
ENDBRANCH  14  16
ENDBRANCH  13  14
ENDBRANCH   7  13
ENDBRANCH   4   6
ENDBRANCH   3   4
ENDBRANCH   2   3
ENDBRANCH   1   2
BRANCH   1  20
ATOM     20  O   UNL A   1      32.811  29.729  25.003  1.00  0.00    -0.374 OA
BRANCH  20  21
ATOM     21  C   UNL A   1      31.692  30.205  25.729  1.00  0.00     0.202 C 
BRANCH  21  22
ATOM     22  C   UNL A   1      31.846  31.503  26.524  1.00  0.00     0.261 C 
BRANCH  22  23
ATOM     23  O   UNL A   1      32.780  31.397  27.604  1.00  0.00    -0.460 OA
BRANCH  23  24
ATOM     24  C   UNL A   1      33.649  32.437  27.680  1.00  0.00     0.338 C 
ATOM     25  O   UNL A   1      33.401  33.624  27.626  1.00  0.00    -0.246 OA
BRANCH  24  26
ATOM     26  C   UNL A   1      34.988  31.919  28.017  1.00  0.00     0.060 A 
ATOM     27  C   UNL A   1      35.130  30.529  28.105  1.00  0.00     0.016 A 
ATOM     28  C   UNL A   1      36.067  32.769  28.276  1.00  0.00     0.016 A 
ATOM     29  C   UNL A   1      36.345  29.980  28.492  1.00  0.00     0.010 A 
ATOM     30  C   UNL A   1      37.279  32.218  28.693  1.00  0.00     0.010 A 
ATOM     31  C   UNL A   1      37.406  30.825  28.839  1.00  0.00    -0.014 A 
BRANCH  31  32
ATOM     32  C   UNL A   1      38.547  30.252  29.582  1.00  0.00     0.031 A 
ATOM     33  C   UNL A   1      38.746  30.690  31.005  1.00  0.00     0.074 A 
ATOM     34  C   UNL A   1      39.346  29.328  29.024  1.00  0.00     0.049 A 
ATOM     35  N   UNL A   1      39.656  30.321  31.869  1.00  0.00    -0.248 NA
ATOM     36  C   UNL A   1      37.783  31.675  31.526  1.00  0.00     0.031 C 
ATOM     37  C   UNL A   1      39.212  28.804  27.667  1.00  0.00     0.029 A 
ATOM     38  N   UNL A   1      40.433  28.671  29.538  1.00  0.00    -0.354 N 
ATOM     39  C   UNL A   1      39.371  31.023  33.032  1.00  0.00     0.074 A 
ATOM     40  C   UNL A   1      38.223  31.859  32.761  1.00  0.00     0.031 C 
ATOM     41  C   UNL A   1      40.192  27.910  27.449  1.00  0.00     0.029 A 
ATOM     42  C   UNL A   1      41.030  27.819  28.644  1.00  0.00     0.049 A 
ATOM     43  H   UNL A   1      40.754  28.798  30.460  1.00  0.00     0.167 HD
ATOM     44  C   UNL A   1      40.008  30.969  34.224  1.00  0.00     0.037 A 
ATOM     45  C   UNL A   1      42.139  27.066  28.780  1.00  0.00     0.037 A 
ATOM     46  C   UNL A   1      41.158  30.148  34.483  1.00  0.00     0.049 A 
ATOM     47  C   UNL A   1      42.871  27.074  30.097  1.00  0.00     0.074 A 
ATOM     48  C   UNL A   1      41.883  30.017  35.652  1.00  0.00     0.029 A 
ATOM     49  N   UNL A   1      41.757  29.321  33.542  1.00  0.00    -0.354 N 
ATOM     50  N   UNL A   1      42.585  27.721  31.202  1.00  0.00    -0.248 NA
ATOM     51  C   UNL A   1      44.081  26.244  30.188  1.00  0.00     0.031 C 
ATOM     52  C   UNL A   1      42.947  29.142  35.408  1.00  0.00     0.029 A 
ATOM     53  C   UNL A   1      42.857  28.693  34.100  1.00  0.00     0.049 A 
ATOM     54  H   UNL A   1      41.444  29.199  32.617  1.00  0.00     0.167 HD
ATOM     55  C   UNL A   1      43.559  27.361  32.123  1.00  0.00     0.074 A 
ATOM     56  C   UNL A   1      44.440  26.427  31.452  1.00  0.00     0.031 C 
ATOM     57  C   UNL A   1      43.713  27.764  33.408  1.00  0.00     0.037 A 
BRANCH  44  58
ATOM     58  C   UNL A   1      39.489  31.849  35.321  1.00  0.00     0.064 A 
ATOM     59  C   UNL A   1      39.898  33.186  35.447  1.00  0.00     0.173 A 
ATOM     60  C   UNL A   1      38.570  31.351  36.254  1.00  0.00     0.173 A 
ATOM     61  F   UNL A   1      40.794  33.701  34.592  1.00  0.00    -0.203 F 
ATOM     62  C   UNL A   1      39.418  33.984  36.482  1.00  0.00     0.198 A 
ATOM     63  C   UNL A   1      38.075  32.160  37.272  1.00  0.00     0.198 A 
ATOM     64  F   UNL A   1      38.153  30.078  36.179  1.00  0.00    -0.203 F 
ATOM     65  F   UNL A   1      39.856  35.245  36.610  1.00  0.00    -0.200 F 
ATOM     66  C   UNL A   1      38.503  33.473  37.389  1.00  0.00     0.200 A 
ATOM     67  F   UNL A   1      37.187  31.666  38.147  1.00  0.00    -0.200 F 
ATOM     68  F   UNL A   1      38.042  34.244  38.384  1.00  0.00    -0.200 F 
ENDBRANCH  44  58
BRANCH  45  69
ATOM     69  C   UNL A   1      42.628  26.253  27.639  1.00  0.00     0.064 A 
ATOM     70  C   UNL A   1      43.598  26.747  26.758  1.00  0.00     0.173 A 
ATOM     71  C   UNL A   1      42.125  24.965  27.399  1.00  0.00     0.173 A 
ATOM     72  F   UNL A   1      44.091  27.983  26.930  1.00  0.00    -0.203 F 
ATOM     73  C   UNL A   1      44.038  25.991  25.672  1.00  0.00     0.198 A 
ATOM     74  C   UNL A   1      42.582  24.200  26.328  1.00  0.00     0.198 A 
ATOM     75  F   UNL A   1      41.192  24.447  28.211  1.00  0.00    -0.203 F 
ATOM     76  F   UNL A   1      44.937  26.503  24.821  1.00  0.00    -0.200 F 
ATOM     77  C   UNL A   1      43.533  24.716  25.461  1.00  0.00     0.200 A 
ATOM     78  F   UNL A   1      42.098  22.966  26.134  1.00  0.00    -0.200 F 
ATOM     79  F   UNL A   1      43.958  23.989  24.420  1.00  0.00    -0.200 F 
ENDBRANCH  45  69
BRANCH  57  80
ATOM     80  C   UNL A   1      44.859  27.179  34.178  1.00  0.00     0.064 A 
ATOM     81  C   UNL A   1      46.101  27.824  34.247  1.00  0.00     0.173 A 
ATOM     82  C   UNL A   1      44.693  25.986  34.899  1.00  0.00     0.173 A 
ATOM     83  F   UNL A   1      46.310  28.960  33.565  1.00  0.00    -0.203 F 
ATOM     84  C   UNL A   1      47.145  27.285  34.994  1.00  0.00     0.198 A 
ATOM     85  C   UNL A   1      45.731  25.463  35.665  1.00  0.00     0.198 A 
ATOM     86  F   UNL A   1      43.520  25.337  34.871  1.00  0.00    -0.203 F 
ATOM     87  F   UNL A   1      48.337  27.896  35.015  1.00  0.00    -0.200 F 
ATOM     88  C   UNL A   1      46.956  26.110  35.707  1.00  0.00     0.200 A 
ATOM     89  F   UNL A   1      45.543  24.336  36.364  1.00  0.00    -0.200 F 
ATOM     90  F   UNL A   1      47.960  25.597  36.432  1.00  0.00    -0.200 F 
ENDBRANCH  57  80
ENDBRANCH  31  32
ENDBRANCH  24  26
ENDBRANCH  23  24
ENDBRANCH  22  23
ENDBRANCH  21  22
ENDBRANCH  20  21
ENDBRANCH   1  20
TORSDOF 17
ENDMDL
