MODEL 1
REMARK VINA RESULT:     -12.2      0.000      0.000
REMARK SMILES O=C(OCCOCCOC(=O)c1cc(N2Cc3ccccc3CC2=O)ccn1)c1ccc(-c2c3nc(c(-c4c(F)c(F)c(F)c(F)c4F)c4ccc([nH]4)c(-c4c(F)c(F)c(F)c(F)c4F)c4nc(c(-c5c(F)c(F)c(F)c(F)c5F)c5ccc2[nH]5)C=C4)C=C3)cc1
REMARK SMILES IDX 5 1 4 2 3 3 2 4 1 5 29 6 30 7 91 8 31 9 90 10 32 11 33 12
REMARK SMILES IDX 34 13 84 14 35 15 89 16 83 17 85 18 36 19 88 20 82 21 81 22
REMARK SMILES IDX 37 24 69 25 49 26 68 27 50 28 53 29 67 30 86 31 51 32 52 33
REMARK SMILES IDX 66 35 87 36 54 37 38 38 39 39 47 40 40 41 41 42 45 43 48 44
REMARK SMILES IDX 42 45 43 46 46 47 44 48 70 49 71 50 79 51 72 52 73 53 77 54
REMARK SMILES IDX 80 55 74 56 75 57 78 58 76 59 55 60 56 61 64 62 57 63 58 64
REMARK SMILES IDX 62 65 65 66 59 67 60 68 63 69 61 70 6 71 7 72 8 73 9 74
REMARK SMILES IDX 10 75 11 76 12 77 13 78 28 79 14 80 27 81 26 82 15 83 16 84
REMARK SMILES IDX 24 85 17 86 23 87 25 88 18 89 22 90 19 91 21 92 20 93
REMARK H PARENT 85 23 53 34
REMARK Flexibility Score: inf
ROOT
ATOM      1  C   UNL A   1      31.271  31.861  26.501  1.00  0.00     0.202 C 
ENDROOT
BRANCH   1   2
ATOM      2  C   UNL A   1      32.555  32.585  26.905  1.00  0.00     0.261 C 
BRANCH   2   3
ATOM      3  O   UNL A   1      32.244  33.797  27.610  1.00  0.00    -0.460 OA
BRANCH   3   4
ATOM      4  C   UNL A   1      33.007  34.481  28.491  1.00  0.00     0.338 C 
ATOM      5  O   UNL A   1      32.687  35.642  28.750  1.00  0.00    -0.246 OA
BRANCH   4   6
ATOM      6  C   UNL A   1      34.208  33.925  29.196  1.00  0.00     0.060 A 
ATOM      7  C   UNL A   1      35.533  34.317  28.994  1.00  0.00     0.016 A 
ATOM      8  C   UNL A   1      33.956  32.990  30.217  1.00  0.00     0.016 A 
ATOM      9  C   UNL A   1      36.574  33.794  29.752  1.00  0.00     0.010 A 
ATOM     10  C   UNL A   1      34.992  32.469  30.997  1.00  0.00     0.010 A 
ATOM     11  C   UNL A   1      36.309  32.870  30.756  1.00  0.00    -0.014 A 
BRANCH  11  12
ATOM     12  C   UNL A   1      37.450  32.276  31.469  1.00  0.00     0.031 A 
ATOM     13  C   UNL A   1      38.260  31.233  30.770  1.00  0.00     0.074 A 
ATOM     14  C   UNL A   1      37.808  32.764  32.669  1.00  0.00     0.049 A 
ATOM     15  N   UNL A   1      39.300  30.568  31.195  1.00  0.00    -0.248 NA
ATOM     16  C   UNL A   1      37.851  30.905  29.394  1.00  0.00     0.031 C 
ATOM     17  C   UNL A   1      37.129  33.857  33.366  1.00  0.00     0.029 A 
ATOM     18  N   UNL A   1      38.840  32.423  33.500  1.00  0.00    -0.354 N 
ATOM     19  C   UNL A   1      39.659  29.731  30.149  1.00  0.00     0.074 A 
ATOM     20  C   UNL A   1      38.726  29.966  29.069  1.00  0.00     0.031 C 
ATOM     21  C   UNL A   1      37.772  34.104  34.518  1.00  0.00     0.029 A 
ATOM     22  C   UNL A   1      38.869  33.153  34.662  1.00  0.00     0.049 A 
ATOM     23  H   UNL A   1      39.497  31.722  33.285  1.00  0.00     0.167 HD
ATOM     24  C   UNL A   1      40.676  28.840  30.108  1.00  0.00     0.037 A 
ATOM     25  C   UNL A   1      39.680  33.036  35.729  1.00  0.00     0.037 A 
ATOM     26  C   UNL A   1      41.580  28.621  31.203  1.00  0.00     0.049 A 
ATOM     27  C   UNL A   1      40.756  31.984  35.690  1.00  0.00     0.074 A 
ATOM     28  C   UNL A   1      42.612  27.708  31.309  1.00  0.00     0.029 A 
ATOM     29  N   UNL A   1      41.549  29.336  32.394  1.00  0.00    -0.354 N 
ATOM     30  N   UNL A   1      41.064  31.155  34.719  1.00  0.00    -0.248 NA
ATOM     31  C   UNL A   1      41.588  31.839  36.890  1.00  0.00     0.031 C 
ATOM     32  C   UNL A   1      43.178  27.842  32.582  1.00  0.00     0.029 A 
ATOM     33  C   UNL A   1      42.530  28.870  33.252  1.00  0.00     0.049 A 
ATOM     34  H   UNL A   1      40.921  30.066  32.599  1.00  0.00     0.167 HD
ATOM     35  C   UNL A   1      42.126  30.395  35.185  1.00  0.00     0.074 A 
ATOM     36  C   UNL A   1      42.425  30.879  36.519  1.00  0.00     0.031 C 
ATOM     37  C   UNL A   1      42.792  29.383  34.575  1.00  0.00     0.037 A 
BRANCH  24  38
ATOM     38  C   UNL A   1      40.791  28.002  28.870  1.00  0.00     0.064 A 
ATOM     39  C   UNL A   1      41.582  28.393  27.779  1.00  0.00     0.173 A 
ATOM     40  C   UNL A   1      40.053  26.815  28.755  1.00  0.00     0.173 A 
ATOM     41  F   UNL A   1      42.283  29.535  27.828  1.00  0.00    -0.203 F 
ATOM     42  C   UNL A   1      41.601  27.644  26.605  1.00  0.00     0.198 A 
ATOM     43  C   UNL A   1      40.094  26.056  27.588  1.00  0.00     0.198 A 
ATOM     44  F   UNL A   1      39.274  26.403  29.765  1.00  0.00    -0.203 F 
ATOM     45  F   UNL A   1      42.312  28.069  25.550  1.00  0.00    -0.200 F 
ATOM     46  C   UNL A   1      40.859  26.476  26.511  1.00  0.00     0.200 A 
ATOM     47  F   UNL A   1      39.376  24.928  27.500  1.00  0.00    -0.200 F 
ATOM     48  F   UNL A   1      40.865  25.765  25.375  1.00  0.00    -0.200 F 
ENDBRANCH  24  38
BRANCH  25  49
ATOM     49  C   UNL A   1      39.471  33.900  36.921  1.00  0.00     0.064 A 
ATOM     50  C   UNL A   1      38.722  33.462  38.021  1.00  0.00     0.173 A 
ATOM     51  C   UNL A   1      40.029  35.187  36.987  1.00  0.00     0.173 A 
ATOM     52  F   UNL A   1      38.147  32.250  37.999  1.00  0.00    -0.203 F 
ATOM     53  C   UNL A   1      38.532  34.278  39.136  1.00  0.00     0.198 A 
ATOM     54  C   UNL A   1      39.863  35.991  38.113  1.00  0.00     0.198 A 
ATOM     55  F   UNL A   1      40.750  35.661  35.960  1.00  0.00    -0.203 F 
ATOM     56  F   UNL A   1      37.779  33.850  40.157  1.00  0.00    -0.200 F 
ATOM     57  C   UNL A   1      39.109  35.538  39.184  1.00  0.00     0.200 A 
ATOM     58  F   UNL A   1      40.433  37.203  38.158  1.00  0.00    -0.200 F 
ATOM     59  F   UNL A   1      38.932  36.319  40.258  1.00  0.00    -0.200 F 
ENDBRANCH  25  49
BRANCH  37  60
ATOM     60  C   UNL A   1      43.907  28.747  35.345  1.00  0.00     0.064 A 
ATOM     61  C   UNL A   1      45.231  29.186  35.207  1.00  0.00     0.173 A 
ATOM     62  C   UNL A   1      43.639  27.728  36.270  1.00  0.00     0.173 A 
ATOM     63  F   UNL A   1      45.536  30.149  34.323  1.00  0.00    -0.203 F 
ATOM     64  C   UNL A   1      46.253  28.615  35.959  1.00  0.00     0.198 A 
ATOM     65  C   UNL A   1      44.659  27.177  37.039  1.00  0.00     0.198 A 
ATOM     66  F   UNL A   1      42.386  27.280  36.439  1.00  0.00    -0.203 F 
ATOM     67  F   UNL A   1      47.517  29.024  35.788  1.00  0.00    -0.200 F 
ATOM     68  C   UNL A   1      45.965  27.617  36.880  1.00  0.00     0.200 A 
ATOM     69  F   UNL A   1      44.379  26.222  37.936  1.00  0.00    -0.200 F 
ATOM     70  F   UNL A   1      46.949  27.076  37.611  1.00  0.00    -0.200 F 
ENDBRANCH  37  60
ENDBRANCH  11  12
ENDBRANCH   4   6
ENDBRANCH   3   4
ENDBRANCH   2   3
ENDBRANCH   1   2
BRANCH   1  71
ATOM     71  O   UNL A   1      31.476  30.475  26.236  1.00  0.00    -0.374 OA
BRANCH  71  72
ATOM     72  C   UNL A   1      32.334  29.773  27.139  1.00  0.00     0.202 C 
BRANCH  72  73
ATOM     73  C   UNL A   1      31.779  28.360  27.339  1.00  0.00     0.261 C 
BRANCH  73  74
ATOM     74  O   UNL A   1      32.540  27.458  26.521  1.00  0.00    -0.459 OA
BRANCH  74  75
ATOM     75  C   UNL A   1      31.862  26.913  25.469  1.00  0.00     0.357 C 
ATOM     76  O   UNL A   1      31.706  27.407  24.366  1.00  0.00    -0.244 OA
BRANCH  75  77
ATOM     77  C   UNL A   1      31.533  25.512  25.859  1.00  0.00     0.150 A 
ATOM     78  C   UNL A   1      32.348  24.478  25.432  1.00  0.00     0.062 A 
ATOM     79  N   UNL A   1      30.353  25.313  26.502  1.00  0.00    -0.249 NA
ATOM     80  C   UNL A   1      31.943  23.162  25.642  1.00  0.00     0.048 A 
ATOM     81  C   UNL A   1      29.975  24.033  26.687  1.00  0.00     0.114 A 
ATOM     82  C   UNL A   1      30.711  22.937  26.258  1.00  0.00     0.046 A 
BRANCH  80  83
ATOM     83  N   UNL A   1      32.791  22.088  25.233  1.00  0.00    -0.308 N 
ATOM     84  C   UNL A   1      32.516  21.415  23.958  1.00  0.00     0.161 C 
ATOM     85  C   UNL A   1      33.970  21.820  25.945  1.00  0.00     0.231 C 
ATOM     86  C   UNL A   1      33.019  19.998  23.927  1.00  0.00    -0.024 A 
ATOM     87  C   UNL A   1      34.907  20.793  25.347  1.00  0.00     0.136 C 
ATOM     88  O   UNL A   1      34.291  22.379  26.997  1.00  0.00    -0.274 OA
ATOM     89  C   UNL A   1      32.389  19.005  23.170  1.00  0.00     0.006 A 
ATOM     90  C   UNL A   1      34.192  19.689  24.630  1.00  0.00    -0.034 A 
ATOM     91  C   UNL A   1      32.904  17.708  23.151  1.00  0.00     0.000 A 
ATOM     92  C   UNL A   1      34.706  18.389  24.606  1.00  0.00     0.004 A 
ATOM     93  C   UNL A   1      34.054  17.398  23.876  1.00  0.00     0.000 A 
ENDBRANCH  80  83
ENDBRANCH  75  77
ENDBRANCH  74  75
ENDBRANCH  73  74
ENDBRANCH  72  73
ENDBRANCH  71  72
ENDBRANCH   1  71
TORSDOF 15
ENDMDL
MODEL 2
REMARK VINA RESULT:     -12.1      5.570     11.050
REMARK SMILES O=C(OCCOCCOC(=O)c1cc(N2Cc3ccccc3CC2=O)ccn1)c1ccc(-c2c3nc(c(-c4c(F)c(F)c(F)c(F)c4F)c4ccc([nH]4)c(-c4c(F)c(F)c(F)c(F)c4F)c4nc(c(-c5c(F)c(F)c(F)c(F)c5F)c5ccc2[nH]5)C=C4)C=C3)cc1
REMARK SMILES IDX 5 1 4 2 3 3 2 4 1 5 29 6 30 7 91 8 31 9 90 10 32 11 33 12
REMARK SMILES IDX 34 13 84 14 35 15 89 16 83 17 85 18 36 19 88 20 82 21 81 22
REMARK SMILES IDX 37 24 69 25 49 26 68 27 50 28 53 29 67 30 86 31 51 32 52 33
REMARK SMILES IDX 66 35 87 36 54 37 38 38 39 39 47 40 40 41 41 42 45 43 48 44
REMARK SMILES IDX 42 45 43 46 46 47 44 48 70 49 71 50 79 51 72 52 73 53 77 54
REMARK SMILES IDX 80 55 74 56 75 57 78 58 76 59 55 60 56 61 64 62 57 63 58 64
REMARK SMILES IDX 62 65 65 66 59 67 60 68 63 69 61 70 6 71 7 72 8 73 9 74
REMARK SMILES IDX 10 75 11 76 12 77 13 78 28 79 14 80 27 81 26 82 15 83 16 84
REMARK SMILES IDX 24 85 17 86 23 87 25 88 18 89 22 90 19 91 21 92 20 93
REMARK H PARENT 85 23 53 34
REMARK Flexibility Score: inf
ROOT
ATOM      1  C   UNL A   1      38.155  19.230  24.988  1.00  0.00     0.202 C 
ENDROOT
BRANCH   1   2
ATOM      2  C   UNL A   1      39.322  19.958  25.656  1.00  0.00     0.261 C 
BRANCH   2   3
ATOM      3  O   UNL A   1      40.465  19.093  25.741  1.00  0.00    -0.460 OA
BRANCH   3   4
ATOM      4  C   UNL A   1      41.754  19.420  25.985  1.00  0.00     0.338 C 
ATOM      5  O   UNL A   1      42.594  18.521  25.939  1.00  0.00    -0.246 OA
BRANCH   4   6
ATOM      6  C   UNL A   1      42.244  20.804  26.289  1.00  0.00     0.060 A 
ATOM      7  C   UNL A   1      42.626  21.765  25.350  1.00  0.00     0.016 A 
ATOM      8  C   UNL A   1      42.224  21.191  27.642  1.00  0.00     0.016 A 
ATOM      9  C   UNL A   1      42.997  23.050  25.727  1.00  0.00     0.010 A 
ATOM     10  C   UNL A   1      42.578  22.486  28.033  1.00  0.00     0.010 A 
ATOM     11  C   UNL A   1      42.973  23.416  27.068  1.00  0.00    -0.014 A 
BRANCH  11  12
ATOM     12  C   UNL A   1      43.461  24.757  27.428  1.00  0.00     0.031 A 
ATOM     13  C   UNL A   1      42.465  25.783  27.860  1.00  0.00     0.074 A 
ATOM     14  C   UNL A   1      44.784  24.988  27.478  1.00  0.00     0.049 A 
ATOM     15  N   UNL A   1      42.656  27.025  28.217  1.00  0.00    -0.248 NA
ATOM     16  C   UNL A   1      41.060  25.346  27.912  1.00  0.00     0.031 C 
ATOM     17  C   UNL A   1      45.820  24.000  27.175  1.00  0.00     0.029 A 
ATOM     18  N   UNL A   1      45.480  26.114  27.822  1.00  0.00    -0.354 N 
ATOM     19  C   UNL A   1      41.396  27.522  28.518  1.00  0.00     0.074 A 
ATOM     20  C   UNL A   1      40.447  26.454  28.298  1.00  0.00     0.031 C 
ATOM     21  C   UNL A   1      47.025  24.564  27.358  1.00  0.00     0.029 A 
ATOM     22  C   UNL A   1      46.842  25.961  27.737  1.00  0.00     0.049 A 
ATOM     23  H   UNL A   1      45.048  26.952  28.104  1.00  0.00     0.167 HD
ATOM     24  C   UNL A   1      41.071  28.768  28.931  1.00  0.00     0.037 A 
ATOM     25  C   UNL A   1      47.821  26.866  27.919  1.00  0.00     0.037 A 
ATOM     26  C   UNL A   1      42.039  29.813  29.128  1.00  0.00     0.049 A 
ATOM     27  C   UNL A   1      47.428  28.267  28.303  1.00  0.00     0.074 A 
ATOM     28  C   UNL A   1      41.832  31.131  29.487  1.00  0.00     0.029 A 
ATOM     29  N   UNL A   1      43.409  29.645  28.976  1.00  0.00    -0.354 N 
ATOM     30  N   UNL A   1      46.231  28.753  28.538  1.00  0.00    -0.248 NA
ATOM     31  C   UNL A   1      48.511  29.249  28.437  1.00  0.00     0.031 C 
ATOM     32  C   UNL A   1      43.076  31.772  29.510  1.00  0.00     0.029 A 
ATOM     33  C   UNL A   1      44.062  30.842  29.212  1.00  0.00     0.049 A 
ATOM     34  H   UNL A   1      43.852  28.799  28.736  1.00  0.00     0.167 HD
ATOM     35  C   UNL A   1      46.414  30.091  28.853  1.00  0.00     0.074 A 
ATOM     36  C   UNL A   1      47.843  30.335  28.802  1.00  0.00     0.031 C 
ATOM     37  C   UNL A   1      45.490  31.039  29.149  1.00  0.00     0.037 A 
BRANCH  24  38
ATOM     38  C   UNL A   1      39.613  29.062  29.111  1.00  0.00     0.064 A 
ATOM     39  C   UNL A   1      38.978  28.939  30.357  1.00  0.00     0.173 A 
ATOM     40  C   UNL A   1      38.827  29.419  28.006  1.00  0.00     0.173 A 
ATOM     41  F   UNL A   1      39.679  28.570  31.438  1.00  0.00    -0.203 F 
ATOM     42  C   UNL A   1      37.604  29.129  30.480  1.00  0.00     0.198 A 
ATOM     43  C   UNL A   1      37.457  29.632  28.138  1.00  0.00     0.198 A 
ATOM     44  F   UNL A   1      39.384  29.541  26.791  1.00  0.00    -0.203 F 
ATOM     45  F   UNL A   1      37.006  28.942  31.666  1.00  0.00    -0.200 F 
ATOM     46  C   UNL A   1      36.845  29.476  29.372  1.00  0.00     0.200 A 
ATOM     47  F   UNL A   1      36.726  29.968  27.066  1.00  0.00    -0.200 F 
ATOM     48  F   UNL A   1      35.520  29.642  29.490  1.00  0.00    -0.200 F 
ENDBRANCH  24  38
BRANCH  25  49
ATOM     49  C   UNL A   1      49.240  26.483  27.693  1.00  0.00     0.064 A 
ATOM     50  C   UNL A   1      49.775  26.382  26.402  1.00  0.00     0.173 A 
ATOM     51  C   UNL A   1      50.097  26.219  28.773  1.00  0.00     0.173 A 
ATOM     52  F   UNL A   1      48.993  26.600  25.335  1.00  0.00    -0.203 F 
ATOM     53  C   UNL A   1      51.107  26.024  26.200  1.00  0.00     0.198 A 
ATOM     54  C   UNL A   1      51.435  25.890  28.572  1.00  0.00     0.198 A 
ATOM     55  F   UNL A   1      49.637  26.296  30.031  1.00  0.00    -0.203 F 
ATOM     56  F   UNL A   1      51.583  25.895  24.954  1.00  0.00    -0.200 F 
ATOM     57  C   UNL A   1      51.939  25.786  27.285  1.00  0.00     0.200 A 
ATOM     58  F   UNL A   1      52.236  25.673  29.625  1.00  0.00    -0.200 F 
ATOM     59  F   UNL A   1      53.220  25.449  27.090  1.00  0.00    -0.200 F 
ENDBRANCH  25  49
BRANCH  37  60
ATOM     60  C   UNL A   1      46.003  32.414  29.447  1.00  0.00     0.064 A 
ATOM     61  C   UNL A   1      46.387  32.783  30.743  1.00  0.00     0.173 A 
ATOM     62  C   UNL A   1      46.165  33.349  28.415  1.00  0.00     0.173 A 
ATOM     63  F   UNL A   1      46.236  31.925  31.764  1.00  0.00    -0.203 F 
ATOM     64  C   UNL A   1      46.902  34.050  31.000  1.00  0.00     0.198 A 
ATOM     65  C   UNL A   1      46.704  34.606  28.670  1.00  0.00     0.198 A 
ATOM     66  F   UNL A   1      45.816  33.037  27.158  1.00  0.00    -0.203 F 
ATOM     67  F   UNL A   1      47.230  34.397  32.251  1.00  0.00    -0.200 F 
ATOM     68  C   UNL A   1      47.067  34.957  29.962  1.00  0.00     0.200 A 
ATOM     69  F   UNL A   1      46.875  35.476  27.666  1.00  0.00    -0.200 F 
ATOM     70  F   UNL A   1      47.574  36.173  30.209  1.00  0.00    -0.200 F 
ENDBRANCH  37  60
ENDBRANCH  11  12
ENDBRANCH   4   6
ENDBRANCH   3   4
ENDBRANCH   2   3
ENDBRANCH   1   2
BRANCH   1  71
ATOM     71  O   UNL A   1      36.935  19.966  25.050  1.00  0.00    -0.374 OA
BRANCH  71  72
ATOM     72  C   UNL A   1      37.002  21.345  24.684  1.00  0.00     0.202 C 
BRANCH  72  73
ATOM     73  C   UNL A   1      35.581  21.847  24.409  1.00  0.00     0.261 C 
BRANCH  73  74
ATOM     74  O   UNL A   1      35.649  23.253  24.125  1.00  0.00    -0.459 OA
BRANCH  74  75
ATOM     75  C   UNL A   1      34.654  23.733  23.323  1.00  0.00     0.357 C 
ATOM     76  O   UNL A   1      34.307  23.285  22.243  1.00  0.00    -0.244 OA
BRANCH  75  77
ATOM     77  C   UNL A   1      33.935  24.771  24.115  1.00  0.00     0.150 A 
ATOM     78  C   UNL A   1      32.746  25.291  23.635  1.00  0.00     0.062 A 
ATOM     79  N   UNL A   1      34.572  25.259  25.211  1.00  0.00    -0.249 NA
ATOM     80  C   UNL A   1      32.172  26.383  24.281  1.00  0.00     0.048 A 
ATOM     81  C   UNL A   1      34.005  26.321  25.817  1.00  0.00     0.114 A 
ATOM     82  C   UNL A   1      32.837  26.929  25.381  1.00  0.00     0.046 A 
BRANCH  80  83
ATOM     83  N   UNL A   1      30.929  26.908  23.812  1.00  0.00    -0.308 N 
ATOM     84  C   UNL A   1      30.920  27.722  22.591  1.00  0.00     0.161 C 
ATOM     85  C   UNL A   1      29.727  26.488  24.403  1.00  0.00     0.231 C 
ATOM     86  C   UNL A   1      29.767  28.687  22.543  1.00  0.00    -0.024 A 
ATOM     87  C   UNL A   1      28.447  26.942  23.736  1.00  0.00     0.136 C 
ATOM     88  O   UNL A   1      29.656  25.766  25.402  1.00  0.00    -0.274 OA
ATOM     89  C   UNL A   1      29.858  29.916  21.882  1.00  0.00     0.006 A 
ATOM     90  C   UNL A   1      28.551  28.307  23.126  1.00  0.00    -0.034 A 
ATOM     91  C   UNL A   1      28.756  30.772  21.842  1.00  0.00     0.000 A 
ATOM     92  C   UNL A   1      27.448  29.166  23.081  1.00  0.00     0.004 A 
ATOM     93  C   UNL A   1      27.557  30.401  22.449  1.00  0.00     0.000 A 
ENDBRANCH  80  83
ENDBRANCH  75  77
ENDBRANCH  74  75
ENDBRANCH  73  74
ENDBRANCH  72  73
ENDBRANCH  71  72
ENDBRANCH   1  71
TORSDOF 15
ENDMDL
MODEL 3
REMARK VINA RESULT:     -12.0      6.230     11.043
REMARK SMILES O=C(OCCOCCOC(=O)c1cc(N2Cc3ccccc3CC2=O)ccn1)c1ccc(-c2c3nc(c(-c4c(F)c(F)c(F)c(F)c4F)c4ccc([nH]4)c(-c4c(F)c(F)c(F)c(F)c4F)c4nc(c(-c5c(F)c(F)c(F)c(F)c5F)c5ccc2[nH]5)C=C4)C=C3)cc1
REMARK SMILES IDX 5 1 4 2 3 3 2 4 1 5 29 6 30 7 91 8 31 9 90 10 32 11 33 12
REMARK SMILES IDX 34 13 84 14 35 15 89 16 83 17 85 18 36 19 88 20 82 21 81 22
REMARK SMILES IDX 37 24 69 25 49 26 68 27 50 28 53 29 67 30 86 31 51 32 52 33
REMARK SMILES IDX 66 35 87 36 54 37 38 38 39 39 47 40 40 41 41 42 45 43 48 44
REMARK SMILES IDX 42 45 43 46 46 47 44 48 70 49 71 50 79 51 72 52 73 53 77 54
REMARK SMILES IDX 80 55 74 56 75 57 78 58 76 59 55 60 56 61 64 62 57 63 58 64
REMARK SMILES IDX 62 65 65 66 59 67 60 68 63 69 61 70 6 71 7 72 8 73 9 74
REMARK SMILES IDX 10 75 11 76 12 77 13 78 28 79 14 80 27 81 26 82 15 83 16 84
REMARK SMILES IDX 24 85 17 86 23 87 25 88 18 89 22 90 19 91 21 92 20 93
REMARK H PARENT 85 23 53 34
REMARK Flexibility Score: inf
ROOT
ATOM      1  C   UNL A   1      42.400  19.043  25.803  1.00  0.00     0.202 C 
ENDROOT
BRANCH   1   2
ATOM      2  C   UNL A   1      43.729  18.320  26.023  1.00  0.00     0.261 C 
BRANCH   2   3
ATOM      3  O   UNL A   1      44.608  18.544  24.910  1.00  0.00    -0.460 OA
BRANCH   3   4
ATOM      4  C   UNL A   1      44.675  19.616  24.089  1.00  0.00     0.338 C 
ATOM      5  O   UNL A   1      44.581  19.419  22.877  1.00  0.00    -0.246 OA
BRANCH   4   6
ATOM      6  C   UNL A   1      44.836  21.035  24.545  1.00  0.00     0.060 A 
ATOM      7  C   UNL A   1      44.445  22.174  23.837  1.00  0.00     0.016 A 
ATOM      8  C   UNL A   1      45.343  21.220  25.845  1.00  0.00     0.016 A 
ATOM      9  C   UNL A   1      44.568  23.448  24.377  1.00  0.00     0.010 A 
ATOM     10  C   UNL A   1      45.455  22.496  26.405  1.00  0.00     0.010 A 
ATOM     11  C   UNL A   1      45.072  23.615  25.662  1.00  0.00    -0.014 A 
BRANCH  11  12
ATOM     12  C   UNL A   1      45.269  24.987  26.155  1.00  0.00     0.031 A 
ATOM     13  C   UNL A   1      46.614  25.617  25.985  1.00  0.00     0.074 A 
ATOM     14  C   UNL A   1      44.218  25.677  26.630  1.00  0.00     0.049 A 
ATOM     15  N   UNL A   1      47.024  26.804  26.343  1.00  0.00    -0.248 NA
ATOM     16  C   UNL A   1      47.632  24.802  25.303  1.00  0.00     0.031 C 
ATOM     17  C   UNL A   1      42.851  25.164  26.725  1.00  0.00     0.029 A 
ATOM     18  N   UNL A   1      44.131  26.960  27.098  1.00  0.00    -0.354 N 
ATOM     19  C   UNL A   1      48.351  26.873  25.946  1.00  0.00     0.074 A 
ATOM     20  C   UNL A   1      48.682  25.609  25.326  1.00  0.00     0.031 C 
ATOM     21  C   UNL A   1      42.056  26.130  27.213  1.00  0.00     0.029 A 
ATOM     22  C   UNL A   1      42.868  27.305  27.513  1.00  0.00     0.049 A 
ATOM     23  H   UNL A   1      44.898  27.576  27.134  1.00  0.00     0.167 HD
ATOM     24  C   UNL A   1      49.213  27.903  26.102  1.00  0.00     0.037 A 
ATOM     25  C   UNL A   1      42.435  28.438  28.095  1.00  0.00     0.037 A 
ATOM     26  C   UNL A   1      48.856  29.143  26.734  1.00  0.00     0.049 A 
ATOM     27  C   UNL A   1      43.433  29.541  28.327  1.00  0.00     0.074 A 
ATOM     28  C   UNL A   1      49.652  30.240  27.006  1.00  0.00     0.029 A 
ATOM     29  N   UNL A   1      47.582  29.443  27.200  1.00  0.00    -0.354 N 
ATOM     30  N   UNL A   1      44.703  29.587  27.999  1.00  0.00    -0.248 NA
ATOM     31  C   UNL A   1      42.947  30.741  29.018  1.00  0.00     0.031 C 
ATOM     32  C   UNL A   1      48.867  31.188  27.674  1.00  0.00     0.029 A 
ATOM     33  C   UNL A   1      47.572  30.701  27.777  1.00  0.00     0.049 A 
ATOM     34  H   UNL A   1      46.801  28.849  27.129  1.00  0.00     0.167 HD
ATOM     35  C   UNL A   1      45.168  30.819  28.435  1.00  0.00     0.074 A 
ATOM     36  C   UNL A   1      44.035  31.500  29.031  1.00  0.00     0.031 C 
ATOM     37  C   UNL A   1      46.418  31.340  28.361  1.00  0.00     0.037 A 
BRANCH  24  38
ATOM     38  C   UNL A   1      50.624  27.680  25.647  1.00  0.00     0.064 A 
ATOM     39  C   UNL A   1      51.004  27.828  24.304  1.00  0.00     0.173 A 
ATOM     40  C   UNL A   1      51.598  27.256  26.563  1.00  0.00     0.173 A 
ATOM     41  F   UNL A   1      50.103  28.201  23.384  1.00  0.00    -0.203 F 
ATOM     42  C   UNL A   1      52.299  27.526  23.891  1.00  0.00     0.198 A 
ATOM     43  C   UNL A   1      52.898  26.979  26.150  1.00  0.00     0.198 A 
ATOM     44  F   UNL A   1      51.283  27.090  27.856  1.00  0.00    -0.203 F 
ATOM     45  F   UNL A   1      52.625  27.610  22.592  1.00  0.00    -0.200 F 
ATOM     46  C   UNL A   1      53.245  27.103  24.813  1.00  0.00     0.200 A 
ATOM     47  F   UNL A   1      53.810  26.571  27.043  1.00  0.00    -0.200 F 
ATOM     48  F   UNL A   1      54.486  26.797  24.411  1.00  0.00    -0.200 F 
ENDBRANCH  24  38
BRANCH  25  49
ATOM     49  C   UNL A   1      41.019  28.555  28.533  1.00  0.00     0.064 A 
ATOM     50  C   UNL A   1      40.023  29.029  27.669  1.00  0.00     0.173 A 
ATOM     51  C   UNL A   1      40.631  28.184  29.830  1.00  0.00     0.173 A 
ATOM     52  F   UNL A   1      40.344  29.420  26.428  1.00  0.00    -0.203 F 
ATOM     53  C   UNL A   1      38.696  29.134  28.088  1.00  0.00     0.198 A 
ATOM     54  C   UNL A   1      39.301  28.261  30.238  1.00  0.00     0.198 A 
ATOM     55  F   UNL A   1      41.545  27.728  30.701  1.00  0.00    -0.203 F 
ATOM     56  F   UNL A   1      37.770  29.627  27.255  1.00  0.00    -0.200 F 
ATOM     57  C   UNL A   1      38.335  28.743  29.369  1.00  0.00     0.200 A 
ATOM     58  F   UNL A   1      38.957  27.870  31.473  1.00  0.00    -0.200 F 
ATOM     59  F   UNL A   1      37.060  28.837  29.767  1.00  0.00    -0.200 F 
ENDBRANCH  25  49
BRANCH  37  60
ATOM     60  C   UNL A   1      46.613  32.712  28.929  1.00  0.00     0.064 A 
ATOM     61  C   UNL A   1      46.405  33.859  28.151  1.00  0.00     0.173 A 
ATOM     62  C   UNL A   1      46.954  32.878  30.279  1.00  0.00     0.173 A 
ATOM     63  F   UNL A   1      46.093  33.747  26.851  1.00  0.00    -0.203 F 
ATOM     64  C   UNL A   1      46.549  35.129  28.703  1.00  0.00     0.198 A 
ATOM     65  C   UNL A   1      47.071  34.148  30.834  1.00  0.00     0.198 A 
ATOM     66  F   UNL A   1      47.156  31.808  31.062  1.00  0.00    -0.203 F 
ATOM     67  F   UNL A   1      46.381  36.213  27.935  1.00  0.00    -0.200 F 
ATOM     68  C   UNL A   1      46.873  35.271  30.045  1.00  0.00     0.200 A 
ATOM     69  F   UNL A   1      47.372  34.285  32.132  1.00  0.00    -0.200 F 
ATOM     70  F   UNL A   1      47.000  36.495  30.577  1.00  0.00    -0.200 F 
ENDBRANCH  37  60
ENDBRANCH  11  12
ENDBRANCH   4   6
ENDBRANCH   3   4
ENDBRANCH   2   3
ENDBRANCH   1   2
BRANCH   1  71
ATOM     71  O   UNL A   1      41.854  19.579  27.006  1.00  0.00    -0.374 OA
BRANCH  71  72
ATOM     72  C   UNL A   1      42.052  20.977  27.228  1.00  0.00     0.202 C 
BRANCH  72  73
ATOM     73  C   UNL A   1      41.269  21.755  26.166  1.00  0.00     0.261 C 
BRANCH  73  74
ATOM     74  O   UNL A   1      39.868  21.601  26.437  1.00  0.00    -0.459 OA
BRANCH  74  75
ATOM     75  C   UNL A   1      39.151  22.762  26.473  1.00  0.00     0.357 C 
ATOM     76  O   UNL A   1      39.548  23.854  26.845  1.00  0.00    -0.244 OA
BRANCH  75  77
ATOM     77  C   UNL A   1      37.864  22.487  25.772  1.00  0.00     0.150 A 
ATOM     78  C   UNL A   1      36.798  23.353  25.944  1.00  0.00     0.062 A 
ATOM     79  N   UNL A   1      37.766  21.307  25.108  1.00  0.00    -0.249 NA
ATOM     80  C   UNL A   1      35.549  23.000  25.437  1.00  0.00     0.048 A 
ATOM     81  C   UNL A   1      36.547  20.980  24.634  1.00  0.00     0.114 A 
ATOM     82  C   UNL A   1      35.417  21.769  24.793  1.00  0.00     0.046 A 
BRANCH  80  83
ATOM     83  N   UNL A   1      34.449  23.900  25.582  1.00  0.00    -0.308 N 
ATOM     84  C   UNL A   1      34.280  24.976  24.598  1.00  0.00     0.161 C 
ATOM     85  C   UNL A   1      33.451  23.634  26.532  1.00  0.00     0.231 C 
ATOM     86  C   UNL A   1      33.540  26.162  25.154  1.00  0.00    -0.024 A 
ATOM     87  C   UNL A   1      32.229  24.525  26.501  1.00  0.00     0.136 C 
ATOM     88  O   UNL A   1      33.502  22.720  27.359  1.00  0.00    -0.274 OA
ATOM     89  C   UNL A   1      33.778  27.463  24.699  1.00  0.00     0.006 A 
ATOM     90  C   UNL A   1      32.538  25.938  26.108  1.00  0.00    -0.034 A 
ATOM     91  C   UNL A   1      33.051  28.531  25.224  1.00  0.00     0.000 A 
ATOM     92  C   UNL A   1      31.810  27.012  26.630  1.00  0.00     0.004 A 
ATOM     93  C   UNL A   1      32.076  28.307  26.195  1.00  0.00     0.000 A 
ENDBRANCH  80  83
ENDBRANCH  75  77
ENDBRANCH  74  75
ENDBRANCH  73  74
ENDBRANCH  72  73
ENDBRANCH  71  72
ENDBRANCH   1  71
TORSDOF 15
ENDMDL
