MODEL 1
REMARK VINA RESULT:     -14.1      0.000      0.000
REMARK SMILES O=C(NC1(C(=O)OCCOCCOC(=O)c2ccc(-c3c4nc(c(-c5c(F)c(F)c(F)c(F)c5F)c5ccc([nH]5)c(-c5c(F)c(F)c(F)c(F)c5F)c5nc(c(-c6c(F)c(F)c(F)c(F)c6F)c6ccc3[nH]6)C=C5)C=C4)cc2)Cc2ccccc2C1)OCC1c2ccccc2-c2ccccc21
REMARK SMILES IDX 9 1 8 2 7 3 5 4 6 5 4 6 79 7 86 8 80 9 85 10 81 11 84 12
REMARK SMILES IDX 82 13 83 14 3 15 1 16 2 17 87 19 88 20 89 21 90 22 101 23
REMARK SMILES IDX 91 24 95 25 96 26 100 27 92 28 94 29 97 30 99 31 93 32 98 33
REMARK SMILES IDX 10 34 11 35 12 36 13 37 14 38 15 39 16 40 17 41 78 42 18 43
REMARK SMILES IDX 77 44 19 45 20 46 21 47 71 48 22 49 76 50 70 51 72 52 23 53
REMARK SMILES IDX 75 54 69 55 68 56 24 58 56 59 36 60 55 61 37 62 40 63 54 64
REMARK SMILES IDX 73 65 38 66 39 67 53 69 74 70 41 71 25 72 26 73 34 74 27 75
REMARK SMILES IDX 28 76 32 77 35 78 29 79 30 80 33 81 31 82 57 83 58 84 66 85
REMARK SMILES IDX 59 86 60 87 64 88 67 89 61 90 62 91 65 92 63 93 42 94 43 95
REMARK SMILES IDX 51 96 44 97 45 98 49 99 52 100 46 101 47 102 50 103 48 104
REMARK H PARENT 3 18 72 57 40 68
REMARK Flexibility Score: inf
ROOT
ATOM      1  C   UNL A   1      32.928  29.624  26.021  1.00  0.00     0.202 C 
ENDROOT
BRANCH   1   2
ATOM      2  C   UNL A   1      33.318  28.168  26.281  1.00  0.00     0.261 C 
BRANCH   2   3
ATOM      3  O   UNL A   1      33.274  27.463  25.051  1.00  0.00    -0.461 OA
BRANCH   3   4
ATOM      4  C   UNL A   1      32.414  26.417  25.083  1.00  0.00     0.332 C 
ATOM      5  O   UNL A   1      32.189  25.721  26.067  1.00  0.00    -0.249 OA
BRANCH   4   6
ATOM      6  C   UNL A   1      31.792  26.195  23.701  1.00  0.00     0.149 C 
ATOM      7  C   UNL A   1      31.795  27.540  23.149  1.00  0.00     0.076 C 
ATOM      8  C   UNL A   1      30.258  25.774  23.605  1.00  0.00     0.076 C 
ATOM      9  C   UNL A   1      30.515  28.197  22.842  1.00  0.00    -0.042 A 
ATOM     10  C   UNL A   1      29.454  27.089  23.590  1.00  0.00    -0.042 A 
ATOM     11  C   UNL A   1      29.823  29.887  21.886  1.00  0.00     0.004 A 
ATOM     12  C   UNL A   1      27.820  27.501  23.634  1.00  0.00     0.004 A 
ATOM     13  C   UNL A   1      28.071  30.189  22.051  1.00  0.00     0.000 A 
ATOM     14  C   UNL A   1      27.147  28.994  22.942  1.00  0.00     0.000 A 
BRANCH   6  15
ATOM     15  N   UNL A   1      32.849  25.520  22.868  1.00  0.00    -0.305 N 
ATOM     16  O   UNL A   1      33.717  23.872  21.606  1.00  0.00    -0.225 OA
ATOM     17  C   UNL A   1      32.951  24.147  22.533  1.00  0.00     0.408 C 
ATOM     18  H   UNL A   1      33.557  26.105  22.511  1.00  0.00     0.168 HD
BRANCH  17  19
ATOM     19  O   UNL A   1      32.348  23.092  23.223  1.00  0.00    -0.449 OA
BRANCH  19  20
ATOM     20  C   UNL A   1      32.097  22.447  24.604  1.00  0.00     0.248 C 
BRANCH  20  21
ATOM     21  C   UNL A   1      33.152  21.317  25.354  1.00  0.00     0.088 C 
ATOM     22  C   UNL A   1      34.998  22.061  25.480  1.00  0.00    -0.029 A 
ATOM     23  C   UNL A   1      33.300  19.415  24.790  1.00  0.00    -0.029 A 
ATOM     24  C   UNL A   1      35.285  23.317  25.932  1.00  0.00     0.005 A 
ATOM     25  C   UNL A   1      36.221  20.745  25.002  1.00  0.00    -0.014 A 
ATOM     26  C   UNL A   1      35.074  18.965  24.640  1.00  0.00    -0.014 A 
ATOM     27  C   UNL A   1      32.364  18.695  24.076  1.00  0.00     0.005 A 
ATOM     28  C   UNL A   1      36.667  23.520  26.020  1.00  0.00     0.000 A 
ATOM     29  C   UNL A   1      37.531  21.268  25.068  1.00  0.00     0.009 A 
ATOM     30  C   UNL A   1      35.196  17.565  24.419  1.00  0.00     0.009 A 
ATOM     31  C   UNL A   1      32.841  17.466  23.558  1.00  0.00     0.000 A 
ATOM     32  C   UNL A   1      37.703  22.580  25.607  1.00  0.00     0.001 A 
ATOM     33  C   UNL A   1      34.113  16.877  23.854  1.00  0.00     0.001 A 
ENDBRANCH  20  21
ENDBRANCH  19  20
ENDBRANCH  17  19
ENDBRANCH   6  15
ENDBRANCH   4   6
ENDBRANCH   3   4
ENDBRANCH   2   3
ENDBRANCH   1   2
BRANCH   1  34
ATOM     34  O   UNL A   1      32.048  30.320  26.901  1.00  0.00    -0.374 OA
BRANCH  34  35
ATOM     35  C   UNL A   1      31.434  31.539  26.482  1.00  0.00     0.202 C 
BRANCH  35  36
ATOM     36  C   UNL A   1      31.759  32.889  27.139  1.00  0.00     0.261 C 
BRANCH  36  37
ATOM     37  O   UNL A   1      33.136  33.280  26.953  1.00  0.00    -0.460 OA
BRANCH  37  38
ATOM     38  C   UNL A   1      33.771  33.600  28.100  1.00  0.00     0.338 C 
ATOM     39  O   UNL A   1      33.310  34.252  29.023  1.00  0.00    -0.246 OA
BRANCH  38  40
ATOM     40  C   UNL A   1      35.034  32.849  28.248  1.00  0.00     0.060 A 
ATOM     41  C   UNL A   1      34.920  31.484  28.555  1.00  0.00     0.016 A 
ATOM     42  C   UNL A   1      36.276  33.477  28.271  1.00  0.00     0.016 A 
ATOM     43  C   UNL A   1      36.016  30.772  29.009  1.00  0.00     0.010 A 
ATOM     44  C   UNL A   1      37.381  32.761  28.745  1.00  0.00     0.010 A 
ATOM     45  C   UNL A   1      37.238  31.427  29.177  1.00  0.00    -0.014 A 
BRANCH  45  46
ATOM     46  C   UNL A   1      38.310  30.748  29.939  1.00  0.00     0.031 A 
ATOM     47  C   UNL A   1      38.509  31.074  31.393  1.00  0.00     0.074 A 
ATOM     48  C   UNL A   1      39.058  29.801  29.349  1.00  0.00     0.049 A 
ATOM     49  N   UNL A   1      39.417  30.631  32.224  1.00  0.00    -0.248 NA
ATOM     50  C   UNL A   1      37.564  32.032  31.992  1.00  0.00     0.031 C 
ATOM     51  C   UNL A   1      38.911  29.357  27.965  1.00  0.00     0.029 A 
ATOM     52  N   UNL A   1      40.092  29.047  29.841  1.00  0.00    -0.354 N 
ATOM     53  C   UNL A   1      39.169  31.267  33.433  1.00  0.00     0.074 A 
ATOM     54  C   UNL A   1      38.048  32.158  33.219  1.00  0.00     0.031 C 
ATOM     55  C   UNL A   1      39.827  28.411  27.714  1.00  0.00     0.029 A 
ATOM     56  C   UNL A   1      40.661  28.226  28.901  1.00  0.00     0.049 A 
ATOM     57  H   UNL A   1      40.398  29.092  30.776  1.00  0.00     0.167 HD
ATOM     58  C   UNL A   1      39.815  31.116  34.615  1.00  0.00     0.037 A 
ATOM     59  C   UNL A   1      41.753  27.444  28.976  1.00  0.00     0.037 A 
ATOM     60  C   UNL A   1      40.936  30.233  34.813  1.00  0.00     0.049 A 
ATOM     61  C   UNL A   1      42.516  27.373  30.272  1.00  0.00     0.074 A 
ATOM     62  C   UNL A   1      41.652  29.998  35.974  1.00  0.00     0.029 A 
ATOM     63  N   UNL A   1      41.516  29.452  33.823  1.00  0.00    -0.354 N 
ATOM     64  N   UNL A   1      42.268  27.964  31.415  1.00  0.00    -0.248 NA
ATOM     65  C   UNL A   1      43.711  26.518  30.289  1.00  0.00     0.031 C 
ATOM     66  C   UNL A   1      42.721  29.154  35.664  1.00  0.00     0.029 A 
ATOM     67  C   UNL A   1      42.609  28.773  34.337  1.00  0.00     0.049 A 
ATOM     68  H   UNL A   1      41.199  29.391  32.893  1.00  0.00     0.167 HD
ATOM     69  C   UNL A   1      43.250  27.525  32.294  1.00  0.00     0.074 A 
ATOM     70  C   UNL A   1      44.087  26.604  31.556  1.00  0.00     0.031 C 
ATOM     71  C   UNL A   1      43.437  27.852  33.597  1.00  0.00     0.037 A 
BRANCH  58  72
ATOM     72  C   UNL A   1      39.360  31.955  35.777  1.00  0.00     0.064 A 
ATOM     73  C   UNL A   1      38.399  31.501  36.694  1.00  0.00     0.173 A 
ATOM     74  C   UNL A   1      39.925  33.222  35.998  1.00  0.00     0.173 A 
ATOM     75  F   UNL A   1      37.826  30.299  36.533  1.00  0.00    -0.203 F 
ATOM     76  C   UNL A   1      37.988  32.301  37.758  1.00  0.00     0.198 A 
ATOM     77  C   UNL A   1      39.547  33.998  37.090  1.00  0.00     0.198 A 
ATOM     78  F   UNL A   1      40.858  33.703  35.164  1.00  0.00    -0.203 F 
ATOM     79  F   UNL A   1      37.019  31.874  38.578  1.00  0.00    -0.200 F 
ATOM     80  C   UNL A   1      38.568  33.544  37.960  1.00  0.00     0.200 A 
ATOM     81  F   UNL A   1      40.130  35.187  37.299  1.00  0.00    -0.200 F 
ATOM     82  F   UNL A   1      38.178  34.308  38.990  1.00  0.00    -0.200 F 
ENDBRANCH  58  72
BRANCH  59  83
ATOM     83  C   UNL A   1      42.210  26.693  27.777  1.00  0.00     0.064 A 
ATOM     84  C   UNL A   1      41.722  25.411  27.496  1.00  0.00     0.173 A 
ATOM     85  C   UNL A   1      43.167  27.232  26.903  1.00  0.00     0.173 A 
ATOM     86  F   UNL A   1      40.818  24.844  28.310  1.00  0.00    -0.203 F 
ATOM     87  C   UNL A   1      42.199  24.682  26.408  1.00  0.00     0.198 A 
ATOM     88  C   UNL A   1      43.607  26.522  25.790  1.00  0.00     0.198 A 
ATOM     89  F   UNL A   1      43.663  28.459  27.122  1.00  0.00    -0.203 F 
ATOM     90  F   UNL A   1      41.767  23.430  26.205  1.00  0.00    -0.200 F 
ATOM     91  C   UNL A   1      43.135  25.241  25.552  1.00  0.00     0.200 A 
ATOM     92  F   UNL A   1      44.492  27.078  24.952  1.00  0.00    -0.200 F 
ATOM     93  F   UNL A   1      43.590  24.542  24.504  1.00  0.00    -0.200 F 
ENDBRANCH  59  83
BRANCH  71  94
ATOM     94  C   UNL A   1      44.556  27.167  34.334  1.00  0.00     0.064 A 
ATOM     95  C   UNL A   1      45.840  27.722  34.430  1.00  0.00     0.173 A 
ATOM     96  C   UNL A   1      44.324  25.944  34.987  1.00  0.00     0.173 A 
ATOM     97  F   UNL A   1      46.120  28.886  33.824  1.00  0.00    -0.203 F 
ATOM     98  C   UNL A   1      46.860  27.059  35.109  1.00  0.00     0.198 A 
ATOM     99  C   UNL A   1      45.331  25.310  35.709  1.00  0.00     0.198 A 
ATOM    100  F   UNL A   1      43.112  25.371  34.942  1.00  0.00    -0.203 F 
ATOM    101  F   UNL A   1      48.097  27.574  35.121  1.00  0.00    -0.200 F 
ATOM    102  C   UNL A   1      46.602  25.859  35.755  1.00  0.00     0.200 A 
ATOM    103  F   UNL A   1      45.070  24.167  36.356  1.00  0.00    -0.200 F 
ATOM    104  F   UNL A   1      47.581  25.229  36.417  1.00  0.00    -0.200 F 
ENDBRANCH  71  94
ENDBRANCH  45  46
ENDBRANCH  38  40
ENDBRANCH  37  38
ENDBRANCH  36  37
ENDBRANCH  35  36
ENDBRANCH  34  35
ENDBRANCH   1  34
TORSDOF 18
ENDMDL
MODEL 2
REMARK VINA RESULT:     -13.8      1.568      6.870
REMARK SMILES O=C(NC1(C(=O)OCCOCCOC(=O)c2ccc(-c3c4nc(c(-c5c(F)c(F)c(F)c(F)c5F)c5ccc([nH]5)c(-c5c(F)c(F)c(F)c(F)c5F)c5nc(c(-c6c(F)c(F)c(F)c(F)c6F)c6ccc3[nH]6)C=C5)C=C4)cc2)Cc2ccccc2C1)OCC1c2ccccc2-c2ccccc21
REMARK SMILES IDX 9 1 8 2 7 3 5 4 6 5 4 6 79 7 86 8 80 9 85 10 81 11 84 12
REMARK SMILES IDX 82 13 83 14 3 15 1 16 2 17 87 19 88 20 89 21 90 22 101 23
REMARK SMILES IDX 91 24 95 25 96 26 100 27 92 28 94 29 97 30 99 31 93 32 98 33
REMARK SMILES IDX 10 34 11 35 12 36 13 37 14 38 15 39 16 40 17 41 78 42 18 43
REMARK SMILES IDX 77 44 19 45 20 46 21 47 71 48 22 49 76 50 70 51 72 52 23 53
REMARK SMILES IDX 75 54 69 55 68 56 24 58 56 59 36 60 55 61 37 62 40 63 54 64
REMARK SMILES IDX 73 65 38 66 39 67 53 69 74 70 41 71 25 72 26 73 34 74 27 75
REMARK SMILES IDX 28 76 32 77 35 78 29 79 30 80 33 81 31 82 57 83 58 84 66 85
REMARK SMILES IDX 59 86 60 87 64 88 67 89 61 90 62 91 65 92 63 93 42 94 43 95
REMARK SMILES IDX 51 96 44 97 45 98 49 99 52 100 46 101 47 102 50 103 48 104
REMARK H PARENT 3 18 72 57 40 68
REMARK Flexibility Score: inf
ROOT
ATOM      1  C   UNL A   1      33.206  29.452  26.133  1.00  0.00     0.202 C 
ENDROOT
BRANCH   1   2
ATOM      2  C   UNL A   1      33.287  27.955  26.439  1.00  0.00     0.261 C 
BRANCH   2   3
ATOM      3  O   UNL A   1      33.298  27.245  25.211  1.00  0.00    -0.461 OA
BRANCH   3   4
ATOM      4  C   UNL A   1      32.439  26.198  25.209  1.00  0.00     0.332 C 
ATOM      5  O   UNL A   1      32.202  25.480  26.175  1.00  0.00    -0.249 OA
BRANCH   4   6
ATOM      6  C   UNL A   1      31.834  26.006  23.815  1.00  0.00     0.149 C 
ATOM      7  C   UNL A   1      31.857  27.360  23.287  1.00  0.00     0.076 C 
ATOM      8  C   UNL A   1      30.299  25.599  23.690  1.00  0.00     0.076 C 
ATOM      9  C   UNL A   1      30.586  28.033  22.975  1.00  0.00    -0.042 A 
ATOM     10  C   UNL A   1      29.505  26.922  23.688  1.00  0.00    -0.042 A 
ATOM     11  C   UNL A   1      29.922  29.746  22.039  1.00  0.00     0.004 A 
ATOM     12  C   UNL A   1      27.875  27.346  23.716  1.00  0.00     0.004 A 
ATOM     13  C   UNL A   1      28.171  30.060  22.185  1.00  0.00     0.000 A 
ATOM     14  C   UNL A   1      27.225  28.857  23.042  1.00  0.00     0.000 A 
BRANCH   6  15
ATOM     15  N   UNL A   1      32.898  25.337  22.985  1.00  0.00    -0.305 N 
ATOM     16  O   UNL A   1      33.741  23.746  21.636  1.00  0.00    -0.225 OA
ATOM     17  C   UNL A   1      32.940  23.992  22.541  1.00  0.00     0.408 C 
ATOM     18  H   UNL A   1      33.657  25.903  22.717  1.00  0.00     0.168 HD
BRANCH  17  19
ATOM     19  O   UNL A   1      32.239  22.924  23.107  1.00  0.00    -0.449 OA
BRANCH  19  20
ATOM     20  C   UNL A   1      31.895  22.168  24.410  1.00  0.00     0.248 C 
BRANCH  20  21
ATOM     21  C   UNL A   1      32.962  21.089  25.215  1.00  0.00     0.088 C 
ATOM     22  C   UNL A   1      34.768  21.912  25.420  1.00  0.00    -0.029 A 
ATOM     23  C   UNL A   1      33.218  19.191  24.673  1.00  0.00    -0.029 A 
ATOM     24  C   UNL A   1      34.979  23.182  25.875  1.00  0.00     0.005 A 
ATOM     25  C   UNL A   1      36.067  20.648  25.008  1.00  0.00    -0.014 A 
ATOM     26  C   UNL A   1      35.015  18.818  24.608  1.00  0.00    -0.014 A 
ATOM     27  C   UNL A   1      32.348  18.428  23.923  1.00  0.00     0.005 A 
ATOM     28  C   UNL A   1      36.346  23.445  26.025  1.00  0.00     0.000 A 
ATOM     29  C   UNL A   1      37.348  21.228  25.130  1.00  0.00     0.009 A 
ATOM     30  C   UNL A   1      35.207  17.424  24.403  1.00  0.00     0.009 A 
ATOM     31  C   UNL A   1      32.901  17.218  23.436  1.00  0.00     0.000 A 
ATOM     32  C   UNL A   1      37.439  22.549  25.667  1.00  0.00     0.001 A 
ATOM     33  C   UNL A   1      34.182  16.686  23.794  1.00  0.00     0.001 A 
ENDBRANCH  20  21
ENDBRANCH  19  20
ENDBRANCH  17  19
ENDBRANCH   6  15
ENDBRANCH   4   6
ENDBRANCH   3   4
ENDBRANCH   2   3
ENDBRANCH   1   2
BRANCH   1  34
ATOM     34  O   UNL A   1      32.682  30.373  27.089  1.00  0.00    -0.374 OA
BRANCH  34  35
ATOM     35  C   UNL A   1      31.763  31.384  26.678  1.00  0.00     0.202 C 
BRANCH  35  36
ATOM     36  C   UNL A   1      31.884  32.843  27.144  1.00  0.00     0.261 C 
BRANCH  36  37
ATOM     37  O   UNL A   1      33.221  33.180  27.571  1.00  0.00    -0.460 OA
BRANCH  37  38
ATOM     38  C   UNL A   1      33.276  34.237  28.407  1.00  0.00     0.338 C 
ATOM     39  O   UNL A   1      32.404  35.075  28.571  1.00  0.00    -0.246 OA
BRANCH  38  40
ATOM     40  C   UNL A   1      34.431  34.144  29.324  1.00  0.00     0.060 A 
ATOM     41  C   UNL A   1      35.698  34.361  28.761  1.00  0.00     0.016 A 
ATOM     42  C   UNL A   1      34.309  33.682  30.631  1.00  0.00     0.016 A 
ATOM     43  C   UNL A   1      36.844  34.001  29.448  1.00  0.00     0.010 A 
ATOM     44  C   UNL A   1      35.467  33.304  31.321  1.00  0.00     0.010 A 
ATOM     45  C   UNL A   1      36.730  33.401  30.704  1.00  0.00    -0.014 A 
BRANCH  45  46
ATOM     46  C   UNL A   1      37.923  32.751  31.292  1.00  0.00     0.031 A 
ATOM     47  C   UNL A   1      38.495  31.521  30.642  1.00  0.00     0.074 A 
ATOM     48  C   UNL A   1      38.526  33.293  32.362  1.00  0.00     0.049 A 
ATOM     49  N   UNL A   1      39.499  30.774  31.023  1.00  0.00    -0.248 NA
ATOM     50  C   UNL A   1      37.845  31.066  29.401  1.00  0.00     0.031 C 
ATOM     51  C   UNL A   1      38.100  34.519  33.034  1.00  0.00     0.029 A 
ATOM     52  N   UNL A   1      39.624  32.879  33.072  1.00  0.00    -0.354 N 
ATOM     53  C   UNL A   1      39.591  29.754  30.086  1.00  0.00     0.074 A 
ATOM     54  C   UNL A   1      38.516  29.954  29.138  1.00  0.00     0.031 C 
ATOM     55  C   UNL A   1      38.923  34.756  34.066  1.00  0.00     0.029 A 
ATOM     56  C   UNL A   1      39.896  33.669  34.160  1.00  0.00     0.049 A 
ATOM     57  H   UNL A   1      40.163  32.093  32.826  1.00  0.00     0.167 HD
ATOM     58  C   UNL A   1      40.495  28.746  30.022  1.00  0.00     0.037 A 
ATOM     59  C   UNL A   1      40.801  33.512  35.143  1.00  0.00     0.037 A 
ATOM     60  C   UNL A   1      41.556  28.553  30.978  1.00  0.00     0.049 A 
ATOM     61  C   UNL A   1      41.728  32.326  35.104  1.00  0.00     0.074 A 
ATOM     62  C   UNL A   1      42.531  27.571  30.994  1.00  0.00     0.029 A 
ATOM     63  N   UNL A   1      41.770  29.346  32.097  1.00  0.00    -0.354 N 
ATOM     64  N   UNL A   1      41.820  31.374  34.209  1.00  0.00    -0.248 NA
ATOM     65  C   UNL A   1      42.682  32.197  36.214  1.00  0.00     0.031 C 
ATOM     66  C   UNL A   1      43.272  27.711  32.170  1.00  0.00     0.029 A 
ATOM     67  C   UNL A   1      42.832  28.846  32.833  1.00  0.00     0.049 A 
ATOM     68  H   UNL A   1      41.245  30.144  32.332  1.00  0.00     0.167 HD
ATOM     69  C   UNL A   1      42.863  30.557  34.626  1.00  0.00     0.074 A 
ATOM     70  C   UNL A   1      43.384  31.136  35.845  1.00  0.00     0.031 C 
ATOM     71  C   UNL A   1      43.349  29.430  34.046  1.00  0.00     0.037 A 
BRANCH  58  72
ATOM     72  C   UNL A   1      40.354  27.745  28.908  1.00  0.00     0.064 A 
ATOM     73  C   UNL A   1      39.562  26.594  29.036  1.00  0.00     0.173 A 
ATOM     74  C   UNL A   1      40.992  27.964  27.677  1.00  0.00     0.173 A 
ATOM     75  F   UNL A   1      38.927  26.334  30.189  1.00  0.00    -0.203 F 
ATOM     76  C   UNL A   1      39.452  25.678  27.992  1.00  0.00     0.198 A 
ATOM     77  C   UNL A   1      40.842  27.071  26.619  1.00  0.00     0.198 A 
ATOM     78  F   UNL A   1      41.752  29.053  27.490  1.00  0.00    -0.203 F 
ATOM     79  F   UNL A   1      38.747  24.552  28.163  1.00  0.00    -0.200 F 
ATOM     80  C   UNL A   1      40.086  25.921  26.782  1.00  0.00     0.200 A 
ATOM     81  F   UNL A   1      41.433  27.323  25.442  1.00  0.00    -0.200 F 
ATOM     82  F   UNL A   1      39.972  25.044  25.776  1.00  0.00    -0.200 F 
ENDBRANCH  58  72
BRANCH  59  83
ATOM     83  C   UNL A   1      40.852  34.486  36.265  1.00  0.00     0.064 A 
ATOM     84  C   UNL A   1      39.963  34.398  37.343  1.00  0.00     0.173 A 
ATOM     85  C   UNL A   1      41.776  35.544  36.267  1.00  0.00     0.173 A 
ATOM     86  F   UNL A   1      39.050  33.416  37.380  1.00  0.00    -0.203 F 
ATOM     87  C   UNL A   1      39.969  35.350  38.361  1.00  0.00     0.198 A 
ATOM     88  C   UNL A   1      41.813  36.466  37.309  1.00  0.00     0.198 A 
ATOM     89  F   UNL A   1      42.655  35.672  35.262  1.00  0.00    -0.203 F 
ATOM     90  F   UNL A   1      39.060  35.281  39.342  1.00  0.00    -0.200 F 
ATOM     91  C   UNL A   1      40.899  36.378  38.347  1.00  0.00     0.200 A 
ATOM     92  F   UNL A   1      42.731  37.442  37.302  1.00  0.00    -0.200 F 
ATOM     93  F   UNL A   1      40.908  37.290  39.328  1.00  0.00    -0.200 F 
ENDBRANCH  59  83
BRANCH  71  94
ATOM     94  C   UNL A   1      44.543  28.776  34.687  1.00  0.00     0.064 A 
ATOM     95  C   UNL A   1      45.859  29.105  34.329  1.00  0.00     0.173 A 
ATOM     96  C   UNL A   1      44.363  27.825  35.706  1.00  0.00     0.173 A 
ATOM     97  F   UNL A   1      46.092  30.003  33.361  1.00  0.00    -0.203 F 
ATOM     98  C   UNL A   1      46.945  28.474  34.932  1.00  0.00     0.198 A 
ATOM     99  C   UNL A   1      45.450  27.235  36.342  1.00  0.00     0.198 A 
ATOM    100  F   UNL A   1      43.128  27.480  36.099  1.00  0.00    -0.203 F 
ATOM    101  F   UNL A   1      48.190  28.750  34.519  1.00  0.00    -0.200 F 
ATOM    102  C   UNL A   1      46.740  27.547  35.943  1.00  0.00     0.200 A 
ATOM    103  F   UNL A   1      45.249  26.363  37.338  1.00  0.00    -0.200 F 
ATOM    104  F   UNL A   1      47.787  26.950  36.529  1.00  0.00    -0.200 F 
ENDBRANCH  71  94
ENDBRANCH  45  46
ENDBRANCH  38  40
ENDBRANCH  37  38
ENDBRANCH  36  37
ENDBRANCH  35  36
ENDBRANCH  34  35
ENDBRANCH   1  34
TORSDOF 18
ENDMDL
MODEL 3
REMARK VINA RESULT:     -13.5      1.203      2.152
REMARK SMILES O=C(NC1(C(=O)OCCOCCOC(=O)c2ccc(-c3c4nc(c(-c5c(F)c(F)c(F)c(F)c5F)c5ccc([nH]5)c(-c5c(F)c(F)c(F)c(F)c5F)c5nc(c(-c6c(F)c(F)c(F)c(F)c6F)c6ccc3[nH]6)C=C5)C=C4)cc2)Cc2ccccc2C1)OCC1c2ccccc2-c2ccccc21
REMARK SMILES IDX 9 1 8 2 7 3 5 4 6 5 4 6 79 7 86 8 80 9 85 10 81 11 84 12
REMARK SMILES IDX 82 13 83 14 3 15 1 16 2 17 87 19 88 20 89 21 90 22 101 23
REMARK SMILES IDX 91 24 95 25 96 26 100 27 92 28 94 29 97 30 99 31 93 32 98 33
REMARK SMILES IDX 10 34 11 35 12 36 13 37 14 38 15 39 16 40 17 41 78 42 18 43
REMARK SMILES IDX 77 44 19 45 20 46 21 47 71 48 22 49 76 50 70 51 72 52 23 53
REMARK SMILES IDX 75 54 69 55 68 56 24 58 56 59 36 60 55 61 37 62 40 63 54 64
REMARK SMILES IDX 73 65 38 66 39 67 53 69 74 70 41 71 25 72 26 73 34 74 27 75
REMARK SMILES IDX 28 76 32 77 35 78 29 79 30 80 33 81 31 82 57 83 58 84 66 85
REMARK SMILES IDX 59 86 60 87 64 88 67 89 61 90 62 91 65 92 63 93 42 94 43 95
REMARK SMILES IDX 51 96 44 97 45 98 49 99 52 100 46 101 47 102 50 103 48 104
REMARK H PARENT 3 18 72 57 40 68
REMARK Flexibility Score: inf
ROOT
ATOM      1  C   UNL A   1      33.266  29.225  25.822  1.00  0.00     0.202 C 
ENDROOT
BRANCH   1   2
ATOM      2  C   UNL A   1      33.834  27.853  26.188  1.00  0.00     0.261 C 
BRANCH   2   3
ATOM      3  O   UNL A   1      33.578  26.958  25.118  1.00  0.00    -0.461 OA
BRANCH   3   4
ATOM      4  C   UNL A   1      32.376  26.344  25.230  1.00  0.00     0.332 C 
ATOM      5  O   UNL A   1      31.867  25.981  26.285  1.00  0.00    -0.249 OA
BRANCH   4   6
ATOM      6  C   UNL A   1      31.757  26.126  23.847  1.00  0.00     0.149 C 
ATOM      7  C   UNL A   1      31.669  27.485  23.337  1.00  0.00     0.076 C 
ATOM      8  C   UNL A   1      30.253  25.610  23.747  1.00  0.00     0.076 C 
ATOM      9  C   UNL A   1      30.346  28.067  23.061  1.00  0.00    -0.042 A 
ATOM     10  C   UNL A   1      29.365  26.871  23.781  1.00  0.00    -0.042 A 
ATOM     11  C   UNL A   1      29.538  29.739  22.164  1.00  0.00     0.004 A 
ATOM     12  C   UNL A   1      27.709  27.174  23.849  1.00  0.00     0.004 A 
ATOM     13  C   UNL A   1      27.772  29.921  22.351  1.00  0.00     0.000 A 
ATOM     14  C   UNL A   1      26.935  28.642  23.210  1.00  0.00     0.000 A 
BRANCH   6  15
ATOM     15  N   UNL A   1      32.848  25.547  22.985  1.00  0.00    -0.305 N 
ATOM     16  O   UNL A   1      33.746  24.090  21.525  1.00  0.00    -0.225 OA
ATOM     17  C   UNL A   1      32.924  24.245  22.431  1.00  0.00     0.408 C 
ATOM     18  H   UNL A   1      33.601  26.147  22.780  1.00  0.00     0.168 HD
BRANCH  17  19
ATOM     19  O   UNL A   1      32.232  23.122  22.892  1.00  0.00    -0.449 OA
BRANCH  19  20
ATOM     20  C   UNL A   1      31.800  22.307  24.132  1.00  0.00     0.248 C 
BRANCH  20  21
ATOM     21  C   UNL A   1      32.843  21.280  25.030  1.00  0.00     0.088 C 
ATOM     22  C   UNL A   1      34.625  22.140  25.283  1.00  0.00    -0.029 A 
ATOM     23  C   UNL A   1      33.151  19.366  24.580  1.00  0.00    -0.029 A 
ATOM     24  C   UNL A   1      34.797  23.431  25.693  1.00  0.00     0.005 A 
ATOM     25  C   UNL A   1      35.960  20.881  24.984  1.00  0.00    -0.014 A 
ATOM     26  C   UNL A   1      34.954  19.019  24.613  1.00  0.00    -0.014 A 
ATOM     27  C   UNL A   1      32.327  18.558  23.823  1.00  0.00     0.005 A 
ATOM     28  C   UNL A   1      36.151  23.722  25.895  1.00  0.00     0.000 A 
ATOM     29  C   UNL A   1      37.226  21.486  25.140  1.00  0.00     0.009 A 
ATOM     30  C   UNL A   1      35.176  17.621  24.476  1.00  0.00     0.009 A 
ATOM     31  C   UNL A   1      32.920  17.339  23.414  1.00  0.00     0.000 A 
ATOM     32  C   UNL A   1      37.273  22.829  25.625  1.00  0.00     0.001 A 
ATOM     33  C   UNL A   1      34.190  16.842  23.852  1.00  0.00     0.001 A 
ENDBRANCH  20  21
ENDBRANCH  19  20
ENDBRANCH  17  19
ENDBRANCH   6  15
ENDBRANCH   4   6
ENDBRANCH   3   4
ENDBRANCH   2   3
ENDBRANCH   1   2
BRANCH   1  34
ATOM     34  O   UNL A   1      32.903  30.167  26.830  1.00  0.00    -0.374 OA
BRANCH  34  35
ATOM     35  C   UNL A   1      31.942  31.183  26.547  1.00  0.00     0.202 C 
BRANCH  35  36
ATOM     36  C   UNL A   1      31.882  32.499  27.337  1.00  0.00     0.261 C 
BRANCH  36  37
ATOM     37  O   UNL A   1      33.149  33.191  27.361  1.00  0.00    -0.460 OA
BRANCH  37  38
ATOM     38  C   UNL A   1      33.217  34.172  28.285  1.00  0.00     0.338 C 
ATOM     39  O   UNL A   1      32.397  35.059  28.458  1.00  0.00    -0.246 OA
BRANCH  38  40
ATOM     40  C   UNL A   1      34.291  33.917  29.267  1.00  0.00     0.060 A 
ATOM     41  C   UNL A   1      35.599  34.225  28.861  1.00  0.00     0.016 A 
ATOM     42  C   UNL A   1      34.063  33.237  30.460  1.00  0.00     0.016 A 
ATOM     43  C   UNL A   1      36.686  33.747  29.571  1.00  0.00     0.010 A 
ATOM     44  C   UNL A   1      35.163  32.741  31.170  1.00  0.00     0.010 A 
ATOM     45  C   UNL A   1      36.472  32.940  30.690  1.00  0.00    -0.014 A 
BRANCH  45  46
ATOM     46  C   UNL A   1      37.618  32.193  31.257  1.00  0.00     0.031 A 
ATOM     47  C   UNL A   1      38.114  32.529  32.636  1.00  0.00     0.074 A 
ATOM     48  C   UNL A   1      38.169  31.181  30.568  1.00  0.00     0.049 A 
ATOM     49  N   UNL A   1      39.131  32.032  33.294  1.00  0.00    -0.248 NA
ATOM     50  C   UNL A   1      37.374  33.568  33.371  1.00  0.00     0.031 C 
ATOM     51  C   UNL A   1      37.728  30.724  29.251  1.00  0.00     0.029 A 
ATOM     52  N   UNL A   1      39.221  30.358  30.879  1.00  0.00    -0.354 N 
ATOM     53  C   UNL A   1      39.165  32.707  34.507  1.00  0.00     0.074 A 
ATOM     54  C   UNL A   1      38.091  33.677  34.480  1.00  0.00     0.031 C 
ATOM     55  C   UNL A   1      38.509  29.706  28.862  1.00  0.00     0.029 A 
ATOM     56  C   UNL A   1      39.538  29.479  29.875  1.00  0.00     0.049 A 
ATOM     57  H   UNL A   1      39.702  30.396  31.737  1.00  0.00     0.167 HD
ATOM     58  C   UNL A   1      40.012  32.527  35.549  1.00  0.00     0.037 A 
ATOM     59  C   UNL A   1      40.565  28.616  29.767  1.00  0.00     0.037 A 
ATOM     60  C   UNL A   1      41.083  31.563  35.560  1.00  0.00     0.049 A 
ATOM     61  C   UNL A   1      41.554  28.509  30.897  1.00  0.00     0.074 A 
ATOM     62  C   UNL A   1      41.989  31.295  36.572  1.00  0.00     0.029 A 
ATOM     63  N   UNL A   1      41.405  30.723  34.504  1.00  0.00    -0.354 N 
ATOM     64  N   UNL A   1      41.573  29.138  32.046  1.00  0.00    -0.248 NA
ATOM     65  C   UNL A   1      42.665  27.565  30.715  1.00  0.00     0.031 C 
ATOM     66  C   UNL A   1      42.915  30.365  36.093  1.00  0.00     0.029 A 
ATOM     67  C   UNL A   1      42.524  29.970  34.823  1.00  0.00     0.049 A 
ATOM     68  H   UNL A   1      40.912  30.670  33.653  1.00  0.00     0.167 HD
ATOM     69  C   UNL A   1      42.670  28.640  32.737  1.00  0.00     0.074 A 
ATOM     70  C   UNL A   1      43.282  27.644  31.885  1.00  0.00     0.031 C 
ATOM     71  C   UNL A   1      43.126  28.975  33.970  1.00  0.00     0.037 A 
BRANCH  58  72
ATOM     72  C   UNL A   1      39.850  33.419  36.749  1.00  0.00     0.064 A 
ATOM     73  C   UNL A   1      38.972  33.106  37.799  1.00  0.00     0.173 A 
ATOM     74  C   UNL A   1      40.615  34.591  36.867  1.00  0.00     0.173 A 
ATOM     75  F   UNL A   1      38.217  31.998  37.741  1.00  0.00    -0.203 F 
ATOM     76  C   UNL A   1      38.834  33.953  38.896  1.00  0.00     0.198 A 
ATOM     77  C   UNL A   1      40.509  35.410  37.988  1.00  0.00     0.198 A 
ATOM     78  F   UNL A   1      41.480  34.936  35.902  1.00  0.00    -0.203 F 
ATOM     79  F   UNL A   1      37.940  33.667  39.851  1.00  0.00    -0.200 F 
ATOM     80  C   UNL A   1      39.608  35.100  38.993  1.00  0.00     0.200 A 
ATOM     81  F   UNL A   1      41.279  36.503  38.092  1.00  0.00    -0.200 F 
ATOM     82  F   UNL A   1      39.480  35.908  40.054  1.00  0.00    -0.200 F 
ENDBRANCH  58  72
BRANCH  59  83
ATOM     83  C   UNL A   1      40.728  27.810  28.529  1.00  0.00     0.064 A 
ATOM     84  C   UNL A   1      41.462  28.295  27.439  1.00  0.00     0.173 A 
ATOM     85  C   UNL A   1      40.128  26.547  28.400  1.00  0.00     0.173 A 
ATOM     86  F   UNL A   1      42.041  29.503  27.506  1.00  0.00    -0.203 F 
ATOM     87  C   UNL A   1      41.560  27.567  26.255  1.00  0.00     0.198 A 
ATOM     88  C   UNL A   1      40.266  25.800  27.234  1.00  0.00     0.198 A 
ATOM     89  F   UNL A   1      39.419  26.032  29.415  1.00  0.00    -0.203 F 
ATOM     90  F   UNL A   1      42.207  28.087  25.205  1.00  0.00    -0.200 F 
ATOM     91  C   UNL A   1      40.969  26.317  26.157  1.00  0.00     0.200 A 
ATOM     92  F   UNL A   1      39.715  24.581  27.154  1.00  0.00    -0.200 F 
ATOM     93  F   UNL A   1      41.067  25.614  25.020  1.00  0.00    -0.200 F 
ENDBRANCH  59  83
BRANCH  71  94
ATOM     94  C   UNL A   1      44.313  28.218  34.504  1.00  0.00     0.064 A 
ATOM     95  C   UNL A   1      44.177  27.005  35.196  1.00  0.00     0.173 A 
ATOM     96  C   UNL A   1      45.613  28.703  34.286  1.00  0.00     0.173 A 
ATOM     97  F   UNL A   1      42.960  26.496  35.437  1.00  0.00    -0.203 F 
ATOM     98  C   UNL A   1      45.293  26.333  35.688  1.00  0.00     0.198 A 
ATOM     99  C   UNL A   1      46.728  28.002  34.734  1.00  0.00     0.198 A 
ATOM    100  F   UNL A   1      45.805  29.851  33.619  1.00  0.00    -0.203 F 
ATOM    101  F   UNL A   1      45.133  25.216  36.412  1.00  0.00    -0.200 F 
ATOM    102  C   UNL A   1      46.567  26.827  35.450  1.00  0.00     0.200 A 
ATOM    103  F   UNL A   1      47.957  28.466  34.476  1.00  0.00    -0.200 F 
ATOM    104  F   UNL A   1      47.640  26.172  35.915  1.00  0.00    -0.200 F 
ENDBRANCH  71  94
ENDBRANCH  45  46
ENDBRANCH  38  40
ENDBRANCH  37  38
ENDBRANCH  36  37
ENDBRANCH  35  36
ENDBRANCH  34  35
ENDBRANCH   1  34
TORSDOF 18
ENDMDL
