MODEL 1
REMARK VINA RESULT:     -10.7      0.000      0.000
REMARK SMILES CCCC[C@H](C(=O)OCCOCCOC(=O)c1ccc(-c2c3nc(c(-c4c(F)c(F)c(F)c(F)c4F)c4ccc([nH]4)c(-c4c(F)c(F)c(F)c(F)c4F)c4nc(c(-c5c(F)c(F)c(F)c(F)c5F)c5ccc2[nH]5)C=C4)C=C3)cc1)[C@](C)(O)c1ccc(Cl)c(Cl)c1
REMARK SMILES IDX 10 1 9 2 8 3 6 4 7 5 5 6 4 7 3 8 2 9 1 10 80 11 81 12 82 13
REMARK SMILES IDX 83 15 84 16 90 17 85 18 88 19 86 20 89 21 87 22 11 23 12 24
REMARK SMILES IDX 13 25 14 26 15 27 16 28 17 29 18 30 79 31 19 32 78 33 20 34
REMARK SMILES IDX 21 35 22 36 72 37 23 38 77 39 71 40 73 41 24 42 76 43 70 44
REMARK SMILES IDX 69 45 25 47 57 48 37 49 56 50 38 51 41 52 55 53 74 54 39 55
REMARK SMILES IDX 40 56 54 58 75 59 42 60 26 61 27 62 35 63 28 64 29 65 33 66
REMARK SMILES IDX 36 67 30 68 31 69 34 70 32 71 58 72 59 73 67 74 60 75 61 76
REMARK SMILES IDX 65 77 68 78 62 79 63 80 66 81 64 82 43 83 44 84 52 85 45 86
REMARK SMILES IDX 46 87 50 88 53 89 47 90 48 91 51 92 49 93
REMARK H PARENT 82 14 73 46 41 57
REMARK Flexibility Score: inf
ROOT
ATOM      1  C   UNL A   1      35.510  22.630  25.566  1.00  0.00     0.202 C 
ENDROOT
BRANCH   1   2
ATOM      2  C   UNL A   1      34.097  22.533  24.982  1.00  0.00     0.261 C 
BRANCH   2   3
ATOM      3  O   UNL A   1      33.747  23.637  24.113  1.00  0.00    -0.463 OA
BRANCH   3   4
ATOM      4  C   UNL A   1      32.909  23.301  23.107  1.00  0.00     0.312 C 
ATOM      5  O   UNL A   1      32.999  22.263  22.456  1.00  0.00    -0.252 OA
BRANCH   4   6
ATOM      6  C   UNL A   1      31.905  24.367  22.729  1.00  0.00     0.135 C 
BRANCH   6   7
ATOM      7  C   UNL A   1      30.712  24.773  23.639  1.00  0.00     0.019 C 
BRANCH   7   8
ATOM      8  C   UNL A   1      30.576  24.301  25.083  1.00  0.00     0.001 C 
BRANCH   8   9
ATOM      9  C   UNL A   1      31.346  25.095  26.138  1.00  0.00    -0.003 C 
ATOM     10  C   UNL A   1      30.728  26.429  26.528  1.00  0.00     0.004 C 
ENDBRANCH   8   9
ENDBRANCH   7   8
ENDBRANCH   6   7
BRANCH   6  11
ATOM     11  C   UNL A   1      32.636  25.622  22.133  1.00  0.00     0.100 C 
ATOM     12  C   UNL A   1      32.143  26.044  20.734  1.00  0.00     0.048 C 
BRANCH  11  13
ATOM     13  O   UNL A   1      34.031  25.294  21.967  1.00  0.00    -0.385 OA
ATOM     14  H   UNL A   1      34.423  25.878  21.298  1.00  0.00     0.211 HD
ENDBRANCH  11  13
BRANCH  11  15
ATOM     15  C   UNL A   1      32.580  26.858  23.057  1.00  0.00    -0.014 A 
ATOM     16  C   UNL A   1      33.552  27.142  24.033  1.00  0.00     0.008 A 
ATOM     17  C   UNL A   1      31.487  27.741  22.967  1.00  0.00     0.028 A 
ATOM     18  C   UNL A   1      33.454  28.265  24.860  1.00  0.00     0.022 A 
ATOM     19  C   UNL A   1      31.369  28.855  23.809  1.00  0.00     0.060 A 
ATOM     20  C   UNL A   1      32.362  29.121  24.753  1.00  0.00     0.059 A 
ATOM     21  Cl  UNL A   1      29.967  29.850  23.639  1.00  0.00    -0.083 Cl
ATOM     22  Cl  UNL A   1      32.300  30.476  25.822  1.00  0.00    -0.083 Cl
ENDBRANCH  11  15
ENDBRANCH   6  11
ENDBRANCH   4   6
ENDBRANCH   3   4
ENDBRANCH   2   3
ENDBRANCH   1   2
BRANCH   1  23
ATOM     23  O   UNL A   1      36.085  21.433  26.084  1.00  0.00    -0.374 OA
BRANCH  23  24
ATOM     24  C   UNL A   1      36.351  20.393  25.145  1.00  0.00     0.202 C 
BRANCH  24  25
ATOM     25  C   UNL A   1      37.827  20.026  24.949  1.00  0.00     0.261 C 
BRANCH  25  26
ATOM     26  O   UNL A   1      38.682  21.144  25.259  1.00  0.00    -0.460 OA
BRANCH  26  27
ATOM     27  C   UNL A   1      39.696  20.874  26.109  1.00  0.00     0.338 C 
ATOM     28  O   UNL A   1      40.364  19.850  26.150  1.00  0.00    -0.246 OA
BRANCH  27  29
ATOM     29  C   UNL A   1      40.061  22.081  26.884  1.00  0.00     0.060 A 
ATOM     30  C   UNL A   1      39.379  23.258  26.556  1.00  0.00     0.016 A 
ATOM     31  C   UNL A   1      41.061  22.101  27.862  1.00  0.00     0.016 A 
ATOM     32  C   UNL A   1      39.766  24.473  27.113  1.00  0.00     0.010 A 
ATOM     33  C   UNL A   1      41.442  23.326  28.433  1.00  0.00     0.010 A 
ATOM     34  C   UNL A   1      40.843  24.526  28.008  1.00  0.00    -0.014 A 
BRANCH  34  35
ATOM     35  C   UNL A   1      41.435  25.859  28.308  1.00  0.00     0.031 A 
ATOM     36  C   UNL A   1      42.812  26.181  27.782  1.00  0.00     0.074 A 
ATOM     37  C   UNL A   1      40.714  26.817  28.920  1.00  0.00     0.049 A 
ATOM     38  N   UNL A   1      43.476  27.310  27.822  1.00  0.00    -0.248 NA
ATOM     39  C   UNL A   1      43.539  25.086  27.120  1.00  0.00     0.031 C 
ATOM     40  C   UNL A   1      39.361  26.650  29.444  1.00  0.00     0.029 A 
ATOM     41  N   UNL A   1      41.017  28.131  29.184  1.00  0.00    -0.354 N 
ATOM     42  C   UNL A   1      44.691  27.059  27.196  1.00  0.00     0.074 A 
ATOM     43  C   UNL A   1      44.694  25.663  26.823  1.00  0.00     0.031 C 
ATOM     44  C   UNL A   1      38.944  27.820  29.956  1.00  0.00     0.029 A 
ATOM     45  C   UNL A   1      40.009  28.812  29.821  1.00  0.00     0.049 A 
ATOM     46  H   UNL A   1      41.877  28.545  28.939  1.00  0.00     0.167 HD
ATOM     47  C   UNL A   1      45.706  27.917  26.937  1.00  0.00     0.037 A 
ATOM     48  C   UNL A   1      39.954  30.088  30.253  1.00  0.00     0.037 A 
ATOM     49  C   UNL A   1      45.703  29.312  27.291  1.00  0.00     0.049 A 
ATOM     50  C   UNL A   1      41.120  31.010  29.996  1.00  0.00     0.074 A 
ATOM     51  C   UNL A   1      46.674  30.267  27.042  1.00  0.00     0.029 A 
ATOM     52  N   UNL A   1      44.681  29.952  27.975  1.00  0.00    -0.354 N 
ATOM     53  N   UNL A   1      42.245  30.771  29.365  1.00  0.00    -0.248 NA
ATOM     54  C   UNL A   1      41.000  32.386  30.498  1.00  0.00     0.031 C 
ATOM     55  C   UNL A   1      46.270  31.467  27.634  1.00  0.00     0.029 A 
ATOM     56  C   UNL A   1      45.014  31.281  28.186  1.00  0.00     0.049 A 
ATOM     57  H   UNL A   1      43.842  29.526  28.268  1.00  0.00     0.167 HD
ATOM     58  C   UNL A   1      42.949  31.969  29.368  1.00  0.00     0.074 A 
ATOM     59  C   UNL A   1      42.115  32.940  30.044  1.00  0.00     0.031 C 
ATOM     60  C   UNL A   1      44.175  32.242  28.855  1.00  0.00     0.037 A 
BRANCH  47  61
ATOM     61  C   UNL A   1      46.930  27.367  26.259  1.00  0.00     0.064 A 
ATOM     62  C   UNL A   1      47.116  27.455  24.872  1.00  0.00     0.173 A 
ATOM     63  C   UNL A   1      47.958  26.788  27.021  1.00  0.00     0.173 A 
ATOM     64  F   UNL A   1      46.159  27.986  24.095  1.00  0.00    -0.203 F 
ATOM     65  C   UNL A   1      48.271  26.964  24.270  1.00  0.00     0.198 A 
ATOM     66  C   UNL A   1      49.126  26.328  26.420  1.00  0.00     0.198 A 
ATOM     67  F   UNL A   1      47.835  26.683  28.353  1.00  0.00    -0.203 F 
ATOM     68  F   UNL A   1      48.407  27.017  22.937  1.00  0.00    -0.200 F 
ATOM     69  C   UNL A   1      49.280  26.410  25.045  1.00  0.00     0.200 A 
ATOM     70  F   UNL A   1      50.105  25.809  27.174  1.00  0.00    -0.200 F 
ATOM     71  F   UNL A   1      50.397  25.951  24.466  1.00  0.00    -0.200 F 
ENDBRANCH  47  61
BRANCH  48  72
ATOM     72  C   UNL A   1      38.756  30.575  30.991  1.00  0.00     0.064 A 
ATOM     73  C   UNL A   1      37.660  31.136  30.321  1.00  0.00     0.173 A 
ATOM     74  C   UNL A   1      38.704  30.522  32.392  1.00  0.00     0.173 A 
ATOM     75  F   UNL A   1      37.670  31.234  28.983  1.00  0.00    -0.203 F 
ATOM     76  C   UNL A   1      36.572  31.651  31.024  1.00  0.00     0.198 A 
ATOM     77  C   UNL A   1      37.600  31.004  33.092  1.00  0.00     0.198 A 
ATOM     78  F   UNL A   1      39.726  29.996  33.083  1.00  0.00    -0.203 F 
ATOM     79  F   UNL A   1      35.566  32.237  30.363  1.00  0.00    -0.200 F 
ATOM     80  C   UNL A   1      36.541  31.578  32.409  1.00  0.00     0.200 A 
ATOM     81  F   UNL A   1      37.569  30.918  34.429  1.00  0.00    -0.200 F 
ATOM     82  F   UNL A   1      35.494  32.073  33.085  1.00  0.00    -0.200 F 
ENDBRANCH  48  72
BRANCH  60  83
ATOM     83  C   UNL A   1      44.673  33.657  28.965  1.00  0.00     0.064 A 
ATOM     84  C   UNL A   1      45.458  34.088  30.045  1.00  0.00     0.173 A 
ATOM     85  C   UNL A   1      44.379  34.591  27.958  1.00  0.00     0.173 A 
ATOM     86  F   UNL A   1      45.761  33.241  31.040  1.00  0.00    -0.203 F 
ATOM     87  C   UNL A   1      45.893  35.408  30.134  1.00  0.00     0.198 A 
ATOM     88  C   UNL A   1      44.848  35.900  28.031  1.00  0.00     0.198 A 
ATOM     89  F   UNL A   1      43.643  34.232  26.895  1.00  0.00    -0.203 F 
ATOM     90  F   UNL A   1      46.586  35.812  31.208  1.00  0.00    -0.200 F 
ATOM     91  C   UNL A   1      45.593  36.311  29.125  1.00  0.00     0.200 A 
ATOM     92  F   UNL A   1      44.573  36.765  27.045  1.00  0.00    -0.200 F 
ATOM     93  F   UNL A   1      46.015  37.581  29.212  1.00  0.00    -0.200 F 
ENDBRANCH  60  83
ENDBRANCH  34  35
ENDBRANCH  27  29
ENDBRANCH  26  27
ENDBRANCH  25  26
ENDBRANCH  24  25
ENDBRANCH  23  24
ENDBRANCH   1  23
TORSDOF 20
ENDMDL
MODEL 2
REMARK VINA RESULT:     -10.3      4.672     10.001
REMARK SMILES CCCC[C@H](C(=O)OCCOCCOC(=O)c1ccc(-c2c3nc(c(-c4c(F)c(F)c(F)c(F)c4F)c4ccc([nH]4)c(-c4c(F)c(F)c(F)c(F)c4F)c4nc(c(-c5c(F)c(F)c(F)c(F)c5F)c5ccc2[nH]5)C=C4)C=C3)cc1)[C@](C)(O)c1ccc(Cl)c(Cl)c1
REMARK SMILES IDX 10 1 9 2 8 3 6 4 7 5 5 6 4 7 3 8 2 9 1 10 80 11 81 12 82 13
REMARK SMILES IDX 83 15 84 16 90 17 85 18 88 19 86 20 89 21 87 22 11 23 12 24
REMARK SMILES IDX 13 25 14 26 15 27 16 28 17 29 18 30 79 31 19 32 78 33 20 34
REMARK SMILES IDX 21 35 22 36 72 37 23 38 77 39 71 40 73 41 24 42 76 43 70 44
REMARK SMILES IDX 69 45 25 47 57 48 37 49 56 50 38 51 41 52 55 53 74 54 39 55
REMARK SMILES IDX 40 56 54 58 75 59 42 60 26 61 27 62 35 63 28 64 29 65 33 66
REMARK SMILES IDX 36 67 30 68 31 69 34 70 32 71 58 72 59 73 67 74 60 75 61 76
REMARK SMILES IDX 65 77 68 78 62 79 63 80 66 81 64 82 43 83 44 84 52 85 45 86
REMARK SMILES IDX 46 87 50 88 53 89 47 90 48 91 51 92 49 93
REMARK H PARENT 82 14 73 46 41 57
REMARK Flexibility Score: inf
ROOT
ATOM      1  C   UNL A   1      33.599  29.382  27.245  1.00  0.00     0.202 C 
ENDROOT
BRANCH   1   2
ATOM      2  C   UNL A   1      32.570  28.621  26.401  1.00  0.00     0.261 C 
BRANCH   2   3
ATOM      3  O   UNL A   1      33.033  27.329  25.942  1.00  0.00    -0.463 OA
BRANCH   3   4
ATOM      4  C   UNL A   1      33.736  27.375  24.787  1.00  0.00     0.312 C 
ATOM      5  O   UNL A   1      34.113  28.415  24.254  1.00  0.00    -0.252 OA
BRANCH   4   6
ATOM      6  C   UNL A   1      33.922  26.041  24.099  1.00  0.00     0.135 C 
BRANCH   6   7
ATOM      7  C   UNL A   1      33.937  24.686  24.861  1.00  0.00     0.019 C 
BRANCH   7   8
ATOM      8  C   UNL A   1      35.171  24.160  25.588  1.00  0.00     0.001 C 
BRANCH   8   9
ATOM      9  C   UNL A   1      36.337  23.699  24.712  1.00  0.00    -0.003 C 
ATOM     10  C   UNL A   1      35.969  22.734  23.596  1.00  0.00     0.004 C 
ENDBRANCH   8   9
ENDBRANCH   7   8
ENDBRANCH   6   7
BRANCH   6  11
ATOM     11  C   UNL A   1      33.048  25.968  22.798  1.00  0.00     0.100 C 
ATOM     12  C   UNL A   1      32.905  24.553  22.202  1.00  0.00     0.048 C 
BRANCH  11  13
ATOM     13  O   UNL A   1      33.696  26.753  21.775  1.00  0.00    -0.385 OA
ATOM     14  H   UNL A   1      33.280  26.572  20.917  1.00  0.00     0.211 HD
ENDBRANCH  11  13
BRANCH  11  15
ATOM     15  C   UNL A   1      31.633  26.559  22.978  1.00  0.00    -0.014 A 
ATOM     16  C   UNL A   1      30.591  25.889  23.645  1.00  0.00     0.008 A 
ATOM     17  C   UNL A   1      31.331  27.816  22.420  1.00  0.00     0.028 A 
ATOM     18  C   UNL A   1      29.319  26.456  23.772  1.00  0.00     0.022 A 
ATOM     19  C   UNL A   1      30.052  28.379  22.522  1.00  0.00     0.060 A 
ATOM     20  C   UNL A   1      29.045  27.699  23.208  1.00  0.00     0.059 A 
ATOM     21  Cl  UNL A   1      29.781  29.908  21.765  1.00  0.00    -0.083 Cl
ATOM     22  Cl  UNL A   1      27.446  28.324  23.389  1.00  0.00    -0.083 Cl
ENDBRANCH  11  15
ENDBRANCH   6  11
ENDBRANCH   4   6
ENDBRANCH   3   4
ENDBRANCH   2   3
ENDBRANCH   1   2
BRANCH   1  23
ATOM     23  O   UNL A   1      33.410  30.787  27.391  1.00  0.00    -0.374 OA
BRANCH  23  24
ATOM     24  C   UNL A   1      32.183  31.322  26.899  1.00  0.00     0.202 C 
BRANCH  24  25
ATOM     25  C   UNL A   1      31.936  32.809  27.185  1.00  0.00     0.261 C 
BRANCH  25  26
ATOM     26  O   UNL A   1      33.181  33.518  27.342  1.00  0.00    -0.460 OA
BRANCH  26  27
ATOM     27  C   UNL A   1      33.236  34.355  28.400  1.00  0.00     0.338 C 
ATOM     28  O   UNL A   1      32.416  35.212  28.699  1.00  0.00    -0.246 OA
BRANCH  27  29
ATOM     29  C   UNL A   1      34.339  33.972  29.310  1.00  0.00     0.060 A 
ATOM     30  C   UNL A   1      35.609  34.464  28.986  1.00  0.00     0.016 A 
ATOM     31  C   UNL A   1      34.176  33.128  30.413  1.00  0.00     0.016 A 
ATOM     32  C   UNL A   1      36.730  34.027  29.684  1.00  0.00     0.010 A 
ATOM     33  C   UNL A   1      35.307  32.698  31.125  1.00  0.00     0.010 A 
ATOM     34  C   UNL A   1      36.595  33.092  30.719  1.00  0.00    -0.014 A 
BRANCH  34  35
ATOM     35  C   UNL A   1      37.824  32.403  31.200  1.00  0.00     0.031 A 
ATOM     36  C   UNL A   1      38.344  32.716  32.583  1.00  0.00     0.074 A 
ATOM     37  C   UNL A   1      38.396  31.419  30.482  1.00  0.00     0.049 A 
ATOM     38  N   UNL A   1      39.323  32.159  33.251  1.00  0.00    -0.248 NA
ATOM     39  C   UNL A   1      37.667  33.801  33.311  1.00  0.00     0.031 C 
ATOM     40  C   UNL A   1      37.973  30.992  29.150  1.00  0.00     0.029 A 
ATOM     41  N   UNL A   1      39.445  30.585  30.785  1.00  0.00    -0.354 N 
ATOM     42  C   UNL A   1      39.378  32.824  34.470  1.00  0.00     0.074 A 
ATOM     43  C   UNL A   1      38.365  33.855  34.436  1.00  0.00     0.031 C 
ATOM     44  C   UNL A   1      38.747  29.968  28.754  1.00  0.00     0.029 A 
ATOM     45  C   UNL A   1      39.736  29.683  29.791  1.00  0.00     0.049 A 
ATOM     46  H   UNL A   1      39.942  30.631  31.634  1.00  0.00     0.167 HD
ATOM     47  C   UNL A   1      40.187  32.589  35.530  1.00  0.00     0.037 A 
ATOM     48  C   UNL A   1      40.697  28.739  29.723  1.00  0.00     0.037 A 
ATOM     49  C   UNL A   1      41.186  31.554  35.576  1.00  0.00     0.049 A 
ATOM     50  C   UNL A   1      41.617  28.530  30.900  1.00  0.00     0.074 A 
ATOM     51  C   UNL A   1      42.032  31.219  36.620  1.00  0.00     0.029 A 
ATOM     52  N   UNL A   1      41.480  30.691  34.532  1.00  0.00    -0.354 N 
ATOM     53  N   UNL A   1      41.632  29.137  32.063  1.00  0.00    -0.248 NA
ATOM     54  C   UNL A   1      42.647  27.490  30.759  1.00  0.00     0.031 C 
ATOM     55  C   UNL A   1      42.883  30.199  36.184  1.00  0.00     0.029 A 
ATOM     56  C   UNL A   1      42.518  29.845  34.896  1.00  0.00     0.049 A 
ATOM     57  H   UNL A   1      41.020  30.678  33.662  1.00  0.00     0.167 HD
ATOM     58  C   UNL A   1      42.644  28.535  32.799  1.00  0.00     0.074 A 
ATOM     59  C   UNL A   1      43.209  27.499  31.960  1.00  0.00     0.031 C 
ATOM     60  C   UNL A   1      43.069  28.813  34.056  1.00  0.00     0.037 A 
BRANCH  47  61
ATOM     61  C   UNL A   1      40.049  33.486  36.727  1.00  0.00     0.064 A 
ATOM     62  C   UNL A   1      40.807  34.658  36.872  1.00  0.00     0.173 A 
ATOM     63  C   UNL A   1      39.104  33.193  37.723  1.00  0.00     0.173 A 
ATOM     64  F   UNL A   1      41.735  34.979  35.956  1.00  0.00    -0.203 F 
ATOM     65  C   UNL A   1      40.641  35.489  37.977  1.00  0.00     0.198 A 
ATOM     66  C   UNL A   1      38.917  34.042  38.810  1.00  0.00     0.198 A 
ATOM     67  F   UNL A   1      38.349  32.087  37.634  1.00  0.00    -0.203 F 
ATOM     68  F   UNL A   1      41.408  36.580  38.116  1.00  0.00    -0.200 F 
ATOM     69  C   UNL A   1      39.689  35.186  38.939  1.00  0.00     0.200 A 
ATOM     70  F   UNL A   1      37.986  33.755  39.730  1.00  0.00    -0.200 F 
ATOM     71  F   UNL A   1      39.521  35.994  39.995  1.00  0.00    -0.200 F 
ENDBRANCH  47  61
BRANCH  48  72
ATOM     72  C   UNL A   1      40.854  27.922  28.489  1.00  0.00     0.064 A 
ATOM     73  C   UNL A   1      41.638  28.361  27.413  1.00  0.00     0.173 A 
ATOM     74  C   UNL A   1      40.185  26.696  28.348  1.00  0.00     0.173 A 
ATOM     75  F   UNL A   1      42.278  29.537  27.486  1.00  0.00    -0.203 F 
ATOM     76  C   UNL A   1      41.724  27.621  26.235  1.00  0.00     0.198 A 
ATOM     77  C   UNL A   1      40.300  25.940  27.183  1.00  0.00     0.198 A 
ATOM     78  F   UNL A   1      39.420  26.230  29.346  1.00  0.00    -0.203 F 
ATOM     79  F   UNL A   1      42.431  28.093  25.200  1.00  0.00    -0.200 F 
ATOM     80  C   UNL A   1      41.060  26.408  26.124  1.00  0.00     0.200 A 
ATOM     81  F   UNL A   1      39.668  24.763  27.088  1.00  0.00    -0.200 F 
ATOM     82  F   UNL A   1      41.143  25.696  24.991  1.00  0.00    -0.200 F 
ENDBRANCH  48  72
BRANCH  60  83
ATOM     83  C   UNL A   1      44.169  27.957  34.622  1.00  0.00     0.064 A 
ATOM     84  C   UNL A   1      43.907  26.744  35.276  1.00  0.00     0.173 A 
ATOM     85  C   UNL A   1      45.512  28.348  34.484  1.00  0.00     0.173 A 
ATOM     86  F   UNL A   1      42.643  26.327  35.446  1.00  0.00    -0.203 F 
ATOM     87  C   UNL A   1      44.942  25.978  35.808  1.00  0.00     0.198 A 
ATOM     88  C   UNL A   1      46.545  27.560  34.983  1.00  0.00     0.198 A 
ATOM     89  F   UNL A   1      45.822  29.492  33.856  1.00  0.00    -0.203 F 
ATOM     90  F   UNL A   1      44.661  24.856  36.487  1.00  0.00    -0.200 F 
ATOM     91  C   UNL A   1      46.259  26.383  35.656  1.00  0.00     0.200 A 
ATOM     92  F   UNL A   1      47.818  27.944  34.817  1.00  0.00    -0.200 F 
ATOM     93  F   UNL A   1      47.253  25.642  36.166  1.00  0.00    -0.200 F 
ENDBRANCH  60  83
ENDBRANCH  34  35
ENDBRANCH  27  29
ENDBRANCH  26  27
ENDBRANCH  25  26
ENDBRANCH  24  25
ENDBRANCH  23  24
ENDBRANCH   1  23
TORSDOF 20
ENDMDL
MODEL 3
REMARK VINA RESULT:     -10.3      4.821     10.222
REMARK SMILES CCCC[C@H](C(=O)OCCOCCOC(=O)c1ccc(-c2c3nc(c(-c4c(F)c(F)c(F)c(F)c4F)c4ccc([nH]4)c(-c4c(F)c(F)c(F)c(F)c4F)c4nc(c(-c5c(F)c(F)c(F)c(F)c5F)c5ccc2[nH]5)C=C4)C=C3)cc1)[C@](C)(O)c1ccc(Cl)c(Cl)c1
REMARK SMILES IDX 10 1 9 2 8 3 6 4 7 5 5 6 4 7 3 8 2 9 1 10 80 11 81 12 82 13
REMARK SMILES IDX 83 15 84 16 90 17 85 18 88 19 86 20 89 21 87 22 11 23 12 24
REMARK SMILES IDX 13 25 14 26 15 27 16 28 17 29 18 30 79 31 19 32 78 33 20 34
REMARK SMILES IDX 21 35 22 36 72 37 23 38 77 39 71 40 73 41 24 42 76 43 70 44
REMARK SMILES IDX 69 45 25 47 57 48 37 49 56 50 38 51 41 52 55 53 74 54 39 55
REMARK SMILES IDX 40 56 54 58 75 59 42 60 26 61 27 62 35 63 28 64 29 65 33 66
REMARK SMILES IDX 36 67 30 68 31 69 34 70 32 71 58 72 59 73 67 74 60 75 61 76
REMARK SMILES IDX 65 77 68 78 62 79 63 80 66 81 64 82 43 83 44 84 52 85 45 86
REMARK SMILES IDX 46 87 50 88 53 89 47 90 48 91 51 92 49 93
REMARK H PARENT 82 14 73 46 41 57
REMARK Flexibility Score: inf
ROOT
ATOM      1  C   UNL A   1      31.785  29.429  26.931  1.00  0.00     0.202 C 
ENDROOT
BRANCH   1   2
ATOM      2  C   UNL A   1      31.992  28.198  26.042  1.00  0.00     0.261 C 
BRANCH   2   3
ATOM      3  O   UNL A   1      33.384  27.882  25.798  1.00  0.00    -0.463 OA
BRANCH   3   4
ATOM      4  C   UNL A   1      33.720  27.856  24.488  1.00  0.00     0.312 C 
ATOM      5  O   UNL A   1      33.889  28.861  23.803  1.00  0.00    -0.252 OA
BRANCH   4   6
ATOM      6  C   UNL A   1      33.746  26.479  23.863  1.00  0.00     0.135 C 
BRANCH   6   7
ATOM      7  C   UNL A   1      33.633  25.167  24.690  1.00  0.00     0.019 C 
BRANCH   7   8
ATOM      8  C   UNL A   1      34.838  24.288  25.015  1.00  0.00     0.001 C 
BRANCH   8   9
ATOM      9  C   UNL A   1      35.032  23.046  24.147  1.00  0.00    -0.003 C 
ATOM     10  C   UNL A   1      36.311  23.022  23.323  1.00  0.00     0.004 C 
ENDBRANCH   8   9
ENDBRANCH   7   8
ENDBRANCH   6   7
BRANCH   6  11
ATOM     11  C   UNL A   1      32.840  26.439  22.583  1.00  0.00     0.100 C 
ATOM     12  C   UNL A   1      32.776  25.066  21.886  1.00  0.00     0.048 C 
BRANCH  11  13
ATOM     13  O   UNL A   1      33.401  27.341  21.606  1.00  0.00    -0.385 OA
ATOM     14  H   UNL A   1      34.215  27.733  21.960  1.00  0.00     0.211 HD
ENDBRANCH  11  13
BRANCH  11  15
ATOM     15  C   UNL A   1      31.394  26.915  22.843  1.00  0.00    -0.014 A 
ATOM     16  C   UNL A   1      30.430  26.140  23.513  1.00  0.00     0.008 A 
ATOM     17  C   UNL A   1      30.980  28.171  22.357  1.00  0.00     0.028 A 
ATOM     18  C   UNL A   1      29.127  26.604  23.714  1.00  0.00     0.022 A 
ATOM     19  C   UNL A   1      29.668  28.631  22.533  1.00  0.00     0.060 A 
ATOM     20  C   UNL A   1      28.741  27.847  23.221  1.00  0.00     0.059 A 
ATOM     21  Cl  UNL A   1      29.257  30.168  21.862  1.00  0.00    -0.083 Cl
ATOM     22  Cl  UNL A   1      27.109  28.342  23.490  1.00  0.00    -0.083 Cl
ENDBRANCH  11  15
ENDBRANCH   6  11
ENDBRANCH   4   6
ENDBRANCH   3   4
ENDBRANCH   2   3
ENDBRANCH   1   2
BRANCH   1  23
ATOM     23  O   UNL A   1      32.636  30.549  26.702  1.00  0.00    -0.374 OA
BRANCH  23  24
ATOM     24  C   UNL A   1      32.060  31.840  26.895  1.00  0.00     0.202 C 
BRANCH  24  25
ATOM     25  C   UNL A   1      32.985  32.902  27.504  1.00  0.00     0.261 C 
BRANCH  25  26
ATOM     26  O   UNL A   1      32.263  33.753  28.416  1.00  0.00    -0.460 OA
BRANCH  26  27
ATOM     27  C   UNL A   1      32.902  34.889  28.768  1.00  0.00     0.338 C 
ATOM     28  O   UNL A   1      32.499  36.034  28.615  1.00  0.00    -0.246 OA
BRANCH  27  29
ATOM     29  C   UNL A   1      34.103  34.581  29.578  1.00  0.00     0.060 A 
ATOM     30  C   UNL A   1      35.335  34.682  28.922  1.00  0.00     0.016 A 
ATOM     31  C   UNL A   1      34.052  34.160  30.910  1.00  0.00     0.016 A 
ATOM     32  C   UNL A   1      36.501  34.255  29.549  1.00  0.00     0.010 A 
ATOM     33  C   UNL A   1      35.231  33.744  31.548  1.00  0.00     0.010 A 
ATOM     34  C   UNL A   1      36.451  33.724  30.845  1.00  0.00    -0.014 A 
BRANCH  34  35
ATOM     35  C   UNL A   1      37.639  32.977  31.339  1.00  0.00     0.031 A 
ATOM     36  C   UNL A   1      38.188  33.299  32.707  1.00  0.00     0.074 A 
ATOM     37  C   UNL A   1      38.144  31.939  30.647  1.00  0.00     0.049 A 
ATOM     38  N   UNL A   1      39.138  32.703  33.386  1.00  0.00    -0.248 NA
ATOM     39  C   UNL A   1      37.585  34.444  33.407  1.00  0.00     0.031 C 
ATOM     40  C   UNL A   1      37.685  31.499  29.331  1.00  0.00     0.029 A 
ATOM     41  N   UNL A   1      39.143  31.051  30.968  1.00  0.00    -0.354 N 
ATOM     42  C   UNL A   1      39.244  33.399  34.583  1.00  0.00     0.074 A 
ATOM     43  C   UNL A   1      38.295  34.488  34.525  1.00  0.00     0.031 C 
ATOM     44  C   UNL A   1      38.391  30.418  28.962  1.00  0.00     0.029 A 
ATOM     45  C   UNL A   1      39.371  30.104  30.000  1.00  0.00     0.049 A 
ATOM     46  H   UNL A   1      39.649  31.092  31.812  1.00  0.00     0.167 HD
ATOM     47  C   UNL A   1      40.046  33.147  35.645  1.00  0.00     0.037 A 
ATOM     48  C   UNL A   1      40.272  29.101  29.954  1.00  0.00     0.037 A 
ATOM     49  C   UNL A   1      40.981  32.055  35.716  1.00  0.00     0.049 A 
ATOM     50  C   UNL A   1      41.187  28.872  31.131  1.00  0.00     0.074 A 
ATOM     51  C   UNL A   1      41.814  31.700  36.763  1.00  0.00     0.029 A 
ATOM     52  N   UNL A   1      41.213  31.145  34.697  1.00  0.00    -0.354 N 
ATOM     53  N   UNL A   1      41.248  29.512  32.274  1.00  0.00    -0.248 NA
ATOM     54  C   UNL A   1      42.151  27.767  31.014  1.00  0.00     0.031 C 
ATOM     55  C   UNL A   1      42.597  30.617  36.353  1.00  0.00     0.029 A 
ATOM     56  C   UNL A   1      42.200  30.249  35.079  1.00  0.00     0.049 A 
ATOM     57  H   UNL A   1      40.745  31.134  33.830  1.00  0.00     0.167 HD
ATOM     58  C   UNL A   1      42.229  28.871  33.021  1.00  0.00     0.074 A 
ATOM     59  C   UNL A   1      42.722  27.778  32.210  1.00  0.00     0.031 C 
ATOM     60  C   UNL A   1      42.680  29.160  34.267  1.00  0.00     0.037 A 
BRANCH  47  61
ATOM     61  C   UNL A   1      39.973  34.087  36.815  1.00  0.00     0.064 A 
ATOM     62  C   UNL A   1      39.148  33.836  37.922  1.00  0.00     0.173 A 
ATOM     63  C   UNL A   1      40.784  35.233  36.851  1.00  0.00     0.173 A 
ATOM     64  F   UNL A   1      38.343  32.762  37.934  1.00  0.00    -0.203 F 
ATOM     65  C   UNL A   1      39.119  34.707  39.008  1.00  0.00     0.198 A 
ATOM     66  C   UNL A   1      40.777  36.084  37.952  1.00  0.00     0.198 A 
ATOM     67  F   UNL A   1      41.595  35.519  35.822  1.00  0.00    -0.203 F 
ATOM     68  F   UNL A   1      38.289  34.471  40.034  1.00  0.00    -0.200 F 
ATOM     69  C   UNL A   1      39.940  35.825  39.027  1.00  0.00     0.200 A 
ATOM     70  F   UNL A   1      41.583  37.154  37.975  1.00  0.00    -0.200 F 
ATOM     71  F   UNL A   1      39.921  36.654  40.079  1.00  0.00    -0.200 F 
ENDBRANCH  47  61
BRANCH  48  72
ATOM     72  C   UNL A   1      40.368  28.240  28.744  1.00  0.00     0.064 A 
ATOM     73  C   UNL A   1      39.712  27.003  28.670  1.00  0.00     0.173 A 
ATOM     74  C   UNL A   1      41.154  28.625  27.648  1.00  0.00     0.173 A 
ATOM     75  F   UNL A   1      38.968  26.576  29.701  1.00  0.00    -0.203 F 
ATOM     76  C   UNL A   1      39.863  26.173  27.560  1.00  0.00     0.198 A 
ATOM     77  C   UNL A   1      41.276  27.810  26.524  1.00  0.00     0.198 A 
ATOM     78  F   UNL A   1      41.804  29.798  27.667  1.00  0.00    -0.203 F 
ATOM     79  F   UNL A   1      39.274  24.970  27.542  1.00  0.00    -0.200 F 
ATOM     80  C   UNL A   1      40.639  26.581  26.486  1.00  0.00     0.200 A 
ATOM     81  F   UNL A   1      42.015  28.216  25.483  1.00  0.00    -0.200 F 
ATOM     82  F   UNL A   1      40.783  25.782  25.419  1.00  0.00    -0.200 F 
ENDBRANCH  48  72
BRANCH  60  83
ATOM     83  C   UNL A   1      43.731  28.256  34.851  1.00  0.00     0.064 A 
ATOM     84  C   UNL A   1      45.101  28.535  34.737  1.00  0.00     0.173 A 
ATOM     85  C   UNL A   1      43.357  27.102  35.560  1.00  0.00     0.173 A 
ATOM     86  F   UNL A   1      45.515  29.619  34.061  1.00  0.00    -0.203 F 
ATOM     87  C   UNL A   1      46.056  27.674  35.270  1.00  0.00     0.198 A 
ATOM     88  C   UNL A   1      44.314  26.263  36.125  1.00  0.00     0.198 A 
ATOM     89  F   UNL A   1      42.061  26.791  35.713  1.00  0.00    -0.203 F 
ATOM     90  F   UNL A   1      47.360  27.928  35.090  1.00  0.00    -0.200 F 
ATOM     91  C   UNL A   1      45.663  26.543  35.969  1.00  0.00     0.200 A 
ATOM     92  F   UNL A   1      43.930  25.182  36.817  1.00  0.00    -0.200 F 
ATOM     93  F   UNL A   1      46.584  25.716  36.484  1.00  0.00    -0.200 F 
ENDBRANCH  60  83
ENDBRANCH  34  35
ENDBRANCH  27  29
ENDBRANCH  26  27
ENDBRANCH  25  26
ENDBRANCH  24  25
ENDBRANCH  23  24
ENDBRANCH   1  23
TORSDOF 20
ENDMDL
