MODEL 1
REMARK VINA RESULT:     -12.1      0.000      0.000
REMARK SMILES CC1=C(CC(=O)OCCOCCOC(=O)c2ccc(-c3c4nc(c(-c5c(F)c(F)c(F)c(F)c5F)c5ccc([nH]5)c(-c5c(F)c(F)c(F)c(F)c5F)c5nc(c(-c6c(F)c(F)c(F)c(F)c6F)c6ccc3[nH]6)C=C5)C=C4)cc2)c2cc(F)ccc2/C1=C\c1ccc([S@@+](C)[O-])cc1
REMARK SMILES IDX 9 1 8 2 7 3 5 4 6 5 4 6 3 7 1 8 2 9 86 10 79 11 85 12 87 13
REMARK SMILES IDX 80 14 84 15 81 16 83 17 82 18 88 19 89 20 96 21 90 22 95 23
REMARK SMILES IDX 91 24 92 25 93 26 94 27 10 28 11 29 12 30 13 31 14 32 15 33
REMARK SMILES IDX 16 34 17 35 78 36 18 37 77 38 19 39 20 40 21 41 71 42 22 43
REMARK SMILES IDX 76 44 70 45 72 46 23 47 75 48 69 49 68 50 24 52 56 53 36 54
REMARK SMILES IDX 55 55 37 56 40 57 54 58 73 59 38 60 39 61 53 63 74 64 41 65
REMARK SMILES IDX 25 66 26 67 34 68 27 69 28 70 32 71 35 72 29 73 30 74 33 75
REMARK SMILES IDX 31 76 57 77 58 78 66 79 59 80 60 81 64 82 67 83 61 84 62 85
REMARK SMILES IDX 65 86 63 87 42 88 43 89 51 90 44 91 45 92 49 93 52 94 46 95
REMARK SMILES IDX 47 96 50 97 48 98
REMARK H PARENT 72 51 40 62
REMARK Flexibility Score: inf
ROOT
ATOM      1  C   UNL A   1      33.388  29.756  26.657  1.00  0.00     0.202 C 
ENDROOT
BRANCH   1   2
ATOM      2  C   UNL A   1      32.880  28.876  25.505  1.00  0.00     0.261 C 
BRANCH   2   3
ATOM      3  O   UNL A   1      33.914  28.349  24.648  1.00  0.00    -0.463 OA
BRANCH   3   4
ATOM      4  C   UNL A   1      33.846  27.008  24.421  1.00  0.00     0.310 C 
ATOM      5  O   UNL A   1      33.756  26.502  23.305  1.00  0.00    -0.252 OA
BRANCH   4   6
ATOM      6  C   UNL A   1      33.910  26.125  25.664  1.00  0.00     0.159 C 
BRANCH   6   7
ATOM      7  C   UNL A   1      33.743  24.642  25.554  1.00  0.00    -0.025 C 
ATOM      8  C   UNL A   1      31.235  24.491  25.187  1.00  0.00     0.045 C 
ATOM      9  C   UNL A   1      32.611  23.929  25.342  1.00  0.00    -0.039 C 
ATOM     10  C   UNL A   1      32.933  22.493  25.220  1.00  0.00    -0.014 C 
ATOM     11  C   UNL A   1      34.874  23.698  25.509  1.00  0.00    -0.011 A 
ATOM     12  C   UNL A   1      34.402  22.382  25.349  1.00  0.00    -0.010 A 
ATOM     13  C   UNL A   1      32.030  21.517  24.992  1.00  0.00     0.017 C 
ATOM     14  C   UNL A   1      36.239  23.951  25.579  1.00  0.00     0.048 A 
ATOM     15  C   UNL A   1      35.291  21.312  25.320  1.00  0.00     0.012 A 
ATOM     16  C   UNL A   1      37.117  22.869  25.574  1.00  0.00     0.123 A 
ATOM     17  C   UNL A   1      36.657  21.558  25.465  1.00  0.00     0.040 A 
ATOM     18  F   UNL A   1      38.430  23.088  25.731  1.00  0.00    -0.207 F 
BRANCH  13  19
ATOM     19  C   UNL A   1      32.319  20.087  24.836  1.00  0.00    -0.025 A 
ATOM     20  C   UNL A   1      32.501  19.275  25.961  1.00  0.00     0.013 A 
ATOM     21  C   UNL A   1      32.496  19.539  23.562  1.00  0.00     0.013 A 
ATOM     22  C   UNL A   1      32.968  17.963  25.818  1.00  0.00     0.061 A 
ATOM     23  C   UNL A   1      32.936  18.218  23.419  1.00  0.00     0.061 A 
ATOM     24  C   UNL A   1      33.209  17.432  24.545  1.00  0.00     0.152 A 
BRANCH  24  25
ATOM     25  S   UNL A   1      34.025  15.827  24.344  1.00  0.00    -0.018 S 
ATOM     26  C   UNL A   1      35.476  16.082  25.385  1.00  0.00     0.346 C 
ATOM     27  O   UNL A   1      33.114  14.755  25.042  1.00  0.00    -0.612 OA
ENDBRANCH  24  25
ENDBRANCH  13  19
ENDBRANCH   6   7
ENDBRANCH   4   6
ENDBRANCH   3   4
ENDBRANCH   2   3
ENDBRANCH   1   2
BRANCH   1  28
ATOM     28  O   UNL A   1      32.606  30.876  27.053  1.00  0.00    -0.374 OA
BRANCH  28  29
ATOM     29  C   UNL A   1      33.259  31.941  27.736  1.00  0.00     0.202 C 
BRANCH  29  30
ATOM     30  C   UNL A   1      32.775  33.371  27.470  1.00  0.00     0.261 C 
BRANCH  30  31
ATOM     31  O   UNL A   1      32.411  34.090  28.651  1.00  0.00    -0.460 OA
BRANCH  31  32
ATOM     32  C   UNL A   1      33.243  35.110  28.960  1.00  0.00     0.338 C 
ATOM     33  O   UNL A   1      33.074  36.306  28.776  1.00  0.00    -0.246 OA
BRANCH  32  34
ATOM     34  C   UNL A   1      34.372  34.576  29.727  1.00  0.00     0.060 A 
ATOM     35  C   UNL A   1      34.172  33.980  30.973  1.00  0.00     0.016 A 
ATOM     36  C   UNL A   1      35.645  34.642  29.149  1.00  0.00     0.016 A 
ATOM     37  C   UNL A   1      35.261  33.418  31.636  1.00  0.00     0.010 A 
ATOM     38  C   UNL A   1      36.729  34.077  29.811  1.00  0.00     0.010 A 
ATOM     39  C   UNL A   1      36.539  33.444  31.048  1.00  0.00    -0.014 A 
BRANCH  39  40
ATOM     40  C   UNL A   1      37.659  32.702  31.664  1.00  0.00     0.031 A 
ATOM     41  C   UNL A   1      38.224  33.115  32.986  1.00  0.00     0.074 A 
ATOM     42  C   UNL A   1      38.190  31.674  30.978  1.00  0.00     0.049 A 
ATOM     43  N   UNL A   1      39.201  32.572  33.667  1.00  0.00    -0.248 NA
ATOM     44  C   UNL A   1      37.626  34.297  33.621  1.00  0.00     0.031 C 
ATOM     45  C   UNL A   1      37.735  31.224  29.662  1.00  0.00     0.029 A 
ATOM     46  N   UNL A   1      39.221  30.826  31.285  1.00  0.00    -0.354 N 
ATOM     47  C   UNL A   1      39.326  33.336  34.818  1.00  0.00     0.074 A 
ATOM     48  C   UNL A   1      38.364  34.413  34.718  1.00  0.00     0.031 C 
ATOM     49  C   UNL A   1      38.463  30.162  29.287  1.00  0.00     0.029 A 
ATOM     50  C   UNL A   1      39.459  29.883  30.316  1.00  0.00     0.049 A 
ATOM     51  H   UNL A   1      39.741  30.887  32.119  1.00  0.00     0.167 HD
ATOM     52  C   UNL A   1      40.160  33.137  35.866  1.00  0.00     0.037 A 
ATOM     53  C   UNL A   1      40.381  28.903  30.265  1.00  0.00     0.037 A 
ATOM     54  C   UNL A   1      41.125  32.069  35.937  1.00  0.00     0.049 A 
ATOM     55  C   UNL A   1      41.326  28.734  31.420  1.00  0.00     0.074 A 
ATOM     56  C   UNL A   1      41.993  31.758  36.970  1.00  0.00     0.029 A 
ATOM     57  N   UNL A   1      41.361  31.145  34.927  1.00  0.00    -0.354 N 
ATOM     58  N   UNL A   1      41.390  29.414  32.539  1.00  0.00    -0.248 NA
ATOM     59  C   UNL A   1      42.323  27.662  31.309  1.00  0.00     0.031 C 
ATOM     60  C   UNL A   1      42.794  30.687  36.560  1.00  0.00     0.029 A 
ATOM     61  C   UNL A   1      42.384  30.287  35.298  1.00  0.00     0.049 A 
ATOM     62  H   UNL A   1      40.874  31.107  34.072  1.00  0.00     0.167 HD
ATOM     63  C   UNL A   1      42.421  28.846  33.273  1.00  0.00     0.074 A 
ATOM     64  C   UNL A   1      42.939  27.749  32.480  1.00  0.00     0.031 C 
ATOM     65  C   UNL A   1      42.895  29.203  34.492  1.00  0.00     0.037 A 
BRANCH  52  66
ATOM     66  C   UNL A   1      40.068  34.093  37.023  1.00  0.00     0.064 A 
ATOM     67  C   UNL A   1      40.814  35.283  37.051  1.00  0.00     0.173 A 
ATOM     68  C   UNL A   1      39.189  33.847  38.088  1.00  0.00     0.173 A 
ATOM     69  F   UNL A   1      41.677  35.563  36.062  1.00  0.00    -0.203 F 
ATOM     70  C   UNL A   1      40.700  36.176  38.113  1.00  0.00     0.198 A 
ATOM     71  C   UNL A   1      39.054  34.759  39.132  1.00  0.00     0.198 A 
ATOM     72  F   UNL A   1      38.447  32.730  38.109  1.00  0.00    -0.203 F 
ATOM     73  F   UNL A   1      41.456  37.282  38.139  1.00  0.00    -0.200 F 
ATOM     74  C   UNL A   1      39.814  35.918  39.148  1.00  0.00     0.200 A 
ATOM     75  F   UNL A   1      38.187  34.515  40.124  1.00  0.00    -0.200 F 
ATOM     76  F   UNL A   1      39.698  36.785  40.163  1.00  0.00    -0.200 F 
ENDBRANCH  52  66
BRANCH  53  77
ATOM     77  C   UNL A   1      40.406  27.992  29.093  1.00  0.00     0.064 A 
ATOM     78  C   UNL A   1      39.635  26.822  29.081  1.00  0.00     0.173 A 
ATOM     79  C   UNL A   1      41.142  28.302  27.939  1.00  0.00     0.173 A 
ATOM     80  F   UNL A   1      38.924  26.477  30.164  1.00  0.00    -0.203 F 
ATOM     81  C   UNL A   1      39.599  25.997  27.959  1.00  0.00     0.198 A 
ATOM     82  C   UNL A   1      41.083  27.492  26.808  1.00  0.00     0.198 A 
ATOM     83  F   UNL A   1      41.887  29.417  27.898  1.00  0.00    -0.203 F 
ATOM     84  F   UNL A   1      38.868  24.874  27.979  1.00  0.00    -0.200 F 
ATOM     85  C   UNL A   1      40.313  26.338  26.820  1.00  0.00     0.200 A 
ATOM     86  F   UNL A   1      41.757  27.838  25.702  1.00  0.00    -0.200 F 
ATOM     87  F   UNL A   1      40.256  25.558  25.732  1.00  0.00    -0.200 F 
ENDBRANCH  53  77
BRANCH  65  88
ATOM     88  C   UNL A   1      44.034  28.402  35.053  1.00  0.00     0.064 A 
ATOM     89  C   UNL A   1      43.812  27.249  35.820  1.00  0.00     0.173 A 
ATOM     90  C   UNL A   1      45.363  28.748  34.759  1.00  0.00     0.173 A 
ATOM     91  F   UNL A   1      42.561  26.883  36.142  1.00  0.00    -0.203 F 
ATOM     92  C   UNL A   1      44.876  26.481  36.284  1.00  0.00     0.198 A 
ATOM     93  C   UNL A   1      46.423  27.958  35.196  1.00  0.00     0.198 A 
ATOM     94  F   UNL A   1      45.632  29.837  34.024  1.00  0.00    -0.203 F 
ATOM     95  F   UNL A   1      44.640  25.404  37.047  1.00  0.00    -0.200 F 
ATOM     96  C   UNL A   1      46.179  26.829  35.961  1.00  0.00     0.200 A 
ATOM     97  F   UNL A   1      47.680  28.287  34.867  1.00  0.00    -0.200 F 
ATOM     98  F   UNL A   1      47.202  26.076  36.391  1.00  0.00    -0.200 F 
ENDBRANCH  65  88
ENDBRANCH  39  40
ENDBRANCH  32  34
ENDBRANCH  31  32
ENDBRANCH  30  31
ENDBRANCH  29  30
ENDBRANCH  28  29
ENDBRANCH   1  28
TORSDOF 17
ENDMDL
MODEL 2
REMARK VINA RESULT:     -11.8      5.430     10.311
REMARK SMILES CC1=C(CC(=O)OCCOCCOC(=O)c2ccc(-c3c4nc(c(-c5c(F)c(F)c(F)c(F)c5F)c5ccc([nH]5)c(-c5c(F)c(F)c(F)c(F)c5F)c5nc(c(-c6c(F)c(F)c(F)c(F)c6F)c6ccc3[nH]6)C=C5)C=C4)cc2)c2cc(F)ccc2/C1=C\c1ccc([S@@+](C)[O-])cc1
REMARK SMILES IDX 9 1 8 2 7 3 5 4 6 5 4 6 3 7 1 8 2 9 86 10 79 11 85 12 87 13
REMARK SMILES IDX 80 14 84 15 81 16 83 17 82 18 88 19 89 20 96 21 90 22 95 23
REMARK SMILES IDX 91 24 92 25 93 26 94 27 10 28 11 29 12 30 13 31 14 32 15 33
REMARK SMILES IDX 16 34 17 35 78 36 18 37 77 38 19 39 20 40 21 41 71 42 22 43
REMARK SMILES IDX 76 44 70 45 72 46 23 47 75 48 69 49 68 50 24 52 56 53 36 54
REMARK SMILES IDX 55 55 37 56 40 57 54 58 73 59 38 60 39 61 53 63 74 64 41 65
REMARK SMILES IDX 25 66 26 67 34 68 27 69 28 70 32 71 35 72 29 73 30 74 33 75
REMARK SMILES IDX 31 76 57 77 58 78 66 79 59 80 60 81 64 82 67 83 61 84 62 85
REMARK SMILES IDX 65 86 63 87 42 88 43 89 51 90 44 91 45 92 49 93 52 94 46 95
REMARK SMILES IDX 47 96 50 97 48 98
REMARK H PARENT 72 51 40 62
REMARK Flexibility Score: inf
ROOT
ATOM      1  C   UNL A   1      45.533  21.027  24.985  1.00  0.00     0.202 C 
ENDROOT
BRANCH   1   2
ATOM      2  C   UNL A   1      44.293  20.120  25.018  1.00  0.00     0.261 C 
BRANCH   2   3
ATOM      3  O   UNL A   1      43.119  20.726  25.597  1.00  0.00    -0.463 OA
BRANCH   3   4
ATOM      4  C   UNL A   1      42.129  19.854  25.936  1.00  0.00     0.310 C 
ATOM      5  O   UNL A   1      42.027  18.717  25.482  1.00  0.00    -0.252 OA
BRANCH   4   6
ATOM      6  C   UNL A   1      41.122  20.368  26.962  1.00  0.00     0.159 C 
BRANCH   6   7
ATOM      7  C   UNL A   1      40.999  21.834  27.239  1.00  0.00    -0.025 C 
ATOM      8  C   UNL A   1      38.730  22.306  26.202  1.00  0.00     0.045 C 
ATOM      9  C   UNL A   1      39.983  22.674  26.928  1.00  0.00    -0.039 C 
ATOM     10  C   UNL A   1      40.255  24.019  27.472  1.00  0.00    -0.014 C 
ATOM     11  C   UNL A   1      41.958  22.588  28.067  1.00  0.00    -0.011 A 
ATOM     12  C   UNL A   1      41.547  23.929  28.186  1.00  0.00    -0.010 A 
ATOM     13  C   UNL A   1      39.433  25.082  27.349  1.00  0.00     0.017 C 
ATOM     14  C   UNL A   1      43.112  22.147  28.705  1.00  0.00     0.048 A 
ATOM     15  C   UNL A   1      42.320  24.843  28.893  1.00  0.00     0.012 A 
ATOM     16  C   UNL A   1      43.890  23.079  29.388  1.00  0.00     0.123 A 
ATOM     17  C   UNL A   1      43.517  24.418  29.472  1.00  0.00     0.040 A 
ATOM     18  F   UNL A   1      45.051  22.690  29.933  1.00  0.00    -0.207 F 
BRANCH  13  19
ATOM     19  C   UNL A   1      39.658  26.422  27.901  1.00  0.00    -0.025 A 
ATOM     20  C   UNL A   1      39.372  26.692  29.244  1.00  0.00     0.013 A 
ATOM     21  C   UNL A   1      40.083  27.464  27.071  1.00  0.00     0.013 A 
ATOM     22  C   UNL A   1      39.398  28.007  29.722  1.00  0.00     0.061 A 
ATOM     23  C   UNL A   1      40.135  28.775  27.557  1.00  0.00     0.061 A 
ATOM     24  C   UNL A   1      39.759  29.062  28.876  1.00  0.00     0.152 A 
BRANCH  24  25
ATOM     25  S   UNL A   1      39.580  30.785  29.405  1.00  0.00    -0.018 S 
ATOM     26  C   UNL A   1      38.413  30.575  30.763  1.00  0.00     0.346 C 
ATOM     27  O   UNL A   1      40.958  31.225  30.017  1.00  0.00    -0.612 OA
ENDBRANCH  24  25
ENDBRANCH  13  19
ENDBRANCH   6   7
ENDBRANCH   4   6
ENDBRANCH   3   4
ENDBRANCH   2   3
ENDBRANCH   1   2
BRANCH   1  28
ATOM     28  O   UNL A   1      45.808  21.841  26.119  1.00  0.00    -0.374 OA
BRANCH  28  29
ATOM     29  C   UNL A   1      45.504  23.230  26.036  1.00  0.00     0.202 C 
BRANCH  29  30
ATOM     30  C   UNL A   1      44.943  23.765  24.713  1.00  0.00     0.261 C 
BRANCH  30  31
ATOM     31  O   UNL A   1      44.637  25.162  24.735  1.00  0.00    -0.460 OA
BRANCH  31  32
ATOM     32  C   UNL A   1      45.703  25.961  24.966  1.00  0.00     0.338 C 
ATOM     33  O   UNL A   1      46.792  25.948  24.412  1.00  0.00    -0.246 OA
BRANCH  32  34
ATOM     34  C   UNL A   1      45.309  27.004  25.918  1.00  0.00     0.060 A 
ATOM     35  C   UNL A   1      43.964  27.215  26.229  1.00  0.00     0.016 A 
ATOM     36  C   UNL A   1      46.322  27.745  26.535  1.00  0.00     0.016 A 
ATOM     37  C   UNL A   1      43.636  28.166  27.193  1.00  0.00     0.010 A 
ATOM     38  C   UNL A   1      45.992  28.689  27.500  1.00  0.00     0.010 A 
ATOM     39  C   UNL A   1      44.648  28.889  27.849  1.00  0.00    -0.014 A 
BRANCH  39  40
ATOM     40  C   UNL A   1      44.317  29.770  28.989  1.00  0.00     0.031 A 
ATOM     41  C   UNL A   1      44.034  29.205  30.344  1.00  0.00     0.074 A 
ATOM     42  C   UNL A   1      44.228  31.093  28.761  1.00  0.00     0.049 A 
ATOM     43  N   UNL A   1      43.733  29.837  31.451  1.00  0.00    -0.248 NA
ATOM     44  C   UNL A   1      44.082  27.743  30.475  1.00  0.00     0.031 C 
ATOM     45  C   UNL A   1      44.444  31.733  27.463  1.00  0.00     0.029 A 
ATOM     46  N   UNL A   1      43.934  32.132  29.603  1.00  0.00    -0.354 N 
ATOM     47  C   UNL A   1      43.570  28.851  32.414  1.00  0.00     0.074 A 
ATOM     48  C   UNL A   1      43.750  27.577  31.749  1.00  0.00     0.031 C 
ATOM     49  C   UNL A   1      44.306  33.060  27.601  1.00  0.00     0.029 A 
ATOM     50  C   UNL A   1      43.953  33.358  28.985  1.00  0.00     0.049 A 
ATOM     51  H   UNL A   1      43.728  32.012  30.558  1.00  0.00     0.167 HD
ATOM     52  C   UNL A   1      43.310  29.007  33.733  1.00  0.00     0.037 A 
ATOM     53  C   UNL A   1      43.710  34.585  29.482  1.00  0.00     0.037 A 
ATOM     54  C   UNL A   1      43.115  30.285  34.371  1.00  0.00     0.049 A 
ATOM     55  C   UNL A   1      43.377  34.726  30.939  1.00  0.00     0.074 A 
ATOM     56  C   UNL A   1      42.883  30.554  35.708  1.00  0.00     0.029 A 
ATOM     57  N   UNL A   1      43.113  31.508  33.712  1.00  0.00    -0.354 N 
ATOM     58  N   UNL A   1      43.297  33.797  31.860  1.00  0.00    -0.248 NA
ATOM     59  C   UNL A   1      43.105  36.083  31.429  1.00  0.00     0.031 C 
ATOM     60  C   UNL A   1      42.680  31.931  35.847  1.00  0.00     0.029 A 
ATOM     61  C   UNL A   1      42.849  32.530  34.609  1.00  0.00     0.049 A 
ATOM     62  H   UNL A   1      43.275  31.630  32.749  1.00  0.00     0.167 HD
ATOM     63  C   UNL A   1      42.981  34.454  33.041  1.00  0.00     0.074 A 
ATOM     64  C   UNL A   1      42.907  35.865  32.722  1.00  0.00     0.031 C 
ATOM     65  C   UNL A   1      42.770  33.933  34.274  1.00  0.00     0.037 A 
BRANCH  52  66
ATOM     66  C   UNL A   1      43.223  27.767  34.578  1.00  0.00     0.064 A 
ATOM     67  C   UNL A   1      44.319  27.315  35.331  1.00  0.00     0.173 A 
ATOM     68  C   UNL A   1      42.019  27.054  34.682  1.00  0.00     0.173 A 
ATOM     69  F   UNL A   1      45.496  27.954  35.261  1.00  0.00    -0.203 F 
ATOM     70  C   UNL A   1      44.219  26.181  36.134  1.00  0.00     0.198 A 
ATOM     71  C   UNL A   1      41.914  25.940  35.512  1.00  0.00     0.198 A 
ATOM     72  F   UNL A   1      40.938  27.446  33.992  1.00  0.00    -0.203 F 
ATOM     73  F   UNL A   1      45.292  25.743  36.806  1.00  0.00    -0.200 F 
ATOM     74  C   UNL A   1      43.015  25.501  36.231  1.00  0.00     0.200 A 
ATOM     75  F   UNL A   1      40.746  25.293  35.616  1.00  0.00    -0.200 F 
ATOM     76  F   UNL A   1      42.918  24.417  37.013  1.00  0.00    -0.200 F 
ENDBRANCH  52  66
BRANCH  53  77
ATOM     77  C   UNL A   1      43.824  35.764  28.587  1.00  0.00     0.064 A 
ATOM     78  C   UNL A   1      42.687  36.306  27.971  1.00  0.00     0.173 A 
ATOM     79  C   UNL A   1      45.050  36.414  28.382  1.00  0.00     0.173 A 
ATOM     80  F   UNL A   1      41.495  35.713  28.126  1.00  0.00    -0.203 F 
ATOM     81  C   UNL A   1      42.774  37.453  27.185  1.00  0.00     0.198 A 
ATOM     82  C   UNL A   1      45.131  37.577  27.620  1.00  0.00     0.198 A 
ATOM     83  F   UNL A   1      46.165  35.940  28.960  1.00  0.00    -0.203 F 
ATOM     84  F   UNL A   1      41.675  37.939  26.592  1.00  0.00    -0.200 F 
ATOM     85  C   UNL A   1      43.992  38.094  27.019  1.00  0.00     0.200 A 
ATOM     86  F   UNL A   1      46.306  38.205  27.482  1.00  0.00    -0.200 F 
ATOM     87  F   UNL A   1      44.069  39.212  26.285  1.00  0.00    -0.200 F 
ENDBRANCH  53  77
BRANCH  65  88
ATOM     88  C   UNL A   1      42.439  34.890  35.382  1.00  0.00     0.064 A 
ATOM     89  C   UNL A   1      41.111  35.206  35.707  1.00  0.00     0.173 A 
ATOM     90  C   UNL A   1      43.457  35.442  36.177  1.00  0.00     0.173 A 
ATOM     91  F   UNL A   1      40.102  34.718  34.970  1.00  0.00    -0.203 F 
ATOM     92  C   UNL A   1      40.816  36.048  36.776  1.00  0.00     0.198 A 
ATOM     93  C   UNL A   1      43.157  36.255  37.266  1.00  0.00     0.198 A 
ATOM     94  F   UNL A   1      44.744  35.167  35.914  1.00  0.00    -0.203 F 
ATOM     95  F   UNL A   1      39.542  36.365  37.043  1.00  0.00    -0.200 F 
ATOM     96  C   UNL A   1      41.837  36.562  37.561  1.00  0.00     0.200 A 
ATOM     97  F   UNL A   1      44.144  36.736  38.033  1.00  0.00    -0.200 F 
ATOM     98  F   UNL A   1      41.550  37.355  38.602  1.00  0.00    -0.200 F 
ENDBRANCH  65  88
ENDBRANCH  39  40
ENDBRANCH  32  34
ENDBRANCH  31  32
ENDBRANCH  30  31
ENDBRANCH  29  30
ENDBRANCH  28  29
ENDBRANCH   1  28
TORSDOF 17
ENDMDL
MODEL 3
REMARK VINA RESULT:     -11.7      0.489      7.226
REMARK SMILES CC1=C(CC(=O)OCCOCCOC(=O)c2ccc(-c3c4nc(c(-c5c(F)c(F)c(F)c(F)c5F)c5ccc([nH]5)c(-c5c(F)c(F)c(F)c(F)c5F)c5nc(c(-c6c(F)c(F)c(F)c(F)c6F)c6ccc3[nH]6)C=C5)C=C4)cc2)c2cc(F)ccc2/C1=C\c1ccc([S@@+](C)[O-])cc1
REMARK SMILES IDX 9 1 8 2 7 3 5 4 6 5 4 6 3 7 1 8 2 9 86 10 79 11 85 12 87 13
REMARK SMILES IDX 80 14 84 15 81 16 83 17 82 18 88 19 89 20 96 21 90 22 95 23
REMARK SMILES IDX 91 24 92 25 93 26 94 27 10 28 11 29 12 30 13 31 14 32 15 33
REMARK SMILES IDX 16 34 17 35 78 36 18 37 77 38 19 39 20 40 21 41 71 42 22 43
REMARK SMILES IDX 76 44 70 45 72 46 23 47 75 48 69 49 68 50 24 52 56 53 36 54
REMARK SMILES IDX 55 55 37 56 40 57 54 58 73 59 38 60 39 61 53 63 74 64 41 65
REMARK SMILES IDX 25 66 26 67 34 68 27 69 28 70 32 71 35 72 29 73 30 74 33 75
REMARK SMILES IDX 31 76 57 77 58 78 66 79 59 80 60 81 64 82 67 83 61 84 62 85
REMARK SMILES IDX 65 86 63 87 42 88 43 89 51 90 44 91 45 92 49 93 52 94 46 95
REMARK SMILES IDX 47 96 50 97 48 98
REMARK H PARENT 72 51 40 62
REMARK Flexibility Score: inf
ROOT
ATOM      1  C   UNL A   1      33.578  29.803  26.237  1.00  0.00     0.202 C 
ENDROOT
BRANCH   1   2
ATOM      2  C   UNL A   1      33.015  28.573  25.508  1.00  0.00     0.261 C 
BRANCH   2   3
ATOM      3  O   UNL A   1      33.813  28.116  24.396  1.00  0.00    -0.463 OA
BRANCH   3   4
ATOM      4  C   UNL A   1      33.806  26.769  24.198  1.00  0.00     0.310 C 
ATOM      5  O   UNL A   1      33.683  26.235  23.098  1.00  0.00    -0.252 OA
BRANCH   4   6
ATOM      6  C   UNL A   1      33.986  25.918  25.453  1.00  0.00     0.159 C 
BRANCH   6   7
ATOM      7  C   UNL A   1      33.822  24.431  25.393  1.00  0.00    -0.025 C 
ATOM      8  C   UNL A   1      31.323  24.262  24.977  1.00  0.00     0.045 C 
ATOM      9  C   UNL A   1      32.696  23.709  25.183  1.00  0.00    -0.039 C 
ATOM     10  C   UNL A   1      33.022  22.270  25.121  1.00  0.00    -0.014 C 
ATOM     11  C   UNL A   1      34.955  23.488  25.408  1.00  0.00    -0.011 A 
ATOM     12  C   UNL A   1      34.488  22.166  25.287  1.00  0.00    -0.010 A 
ATOM     13  C   UNL A   1      32.126  21.285  24.909  1.00  0.00     0.017 C 
ATOM     14  C   UNL A   1      36.318  23.746  25.499  1.00  0.00     0.048 A 
ATOM     15  C   UNL A   1      35.378  21.098  25.317  1.00  0.00     0.012 A 
ATOM     16  C   UNL A   1      37.197  22.666  25.554  1.00  0.00     0.123 A 
ATOM     17  C   UNL A   1      36.741  21.352  25.482  1.00  0.00     0.040 A 
ATOM     18  F   UNL A   1      38.505  22.893  25.732  1.00  0.00    -0.207 F 
BRANCH  13  19
ATOM     19  C   UNL A   1      32.419  19.850  24.812  1.00  0.00    -0.025 A 
ATOM     20  C   UNL A   1      32.514  19.067  25.968  1.00  0.00     0.013 A 
ATOM     21  C   UNL A   1      32.688  19.269  23.570  1.00  0.00     0.013 A 
ATOM     22  C   UNL A   1      32.985  17.752  25.895  1.00  0.00     0.061 A 
ATOM     23  C   UNL A   1      33.132  17.944  23.494  1.00  0.00     0.061 A 
ATOM     24  C   UNL A   1      33.317  17.186  24.658  1.00  0.00     0.152 A 
BRANCH  24  25
ATOM     25  S   UNL A   1      34.139  15.575  24.560  1.00  0.00    -0.018 S 
ATOM     26  C   UNL A   1      35.656  15.943  25.463  1.00  0.00     0.346 C 
ATOM     27  O   UNL A   1      33.295  14.573  25.425  1.00  0.00    -0.612 OA
ENDBRANCH  24  25
ENDBRANCH  13  19
ENDBRANCH   6   7
ENDBRANCH   4   6
ENDBRANCH   3   4
ENDBRANCH   2   3
ENDBRANCH   1   2
BRANCH   1  28
ATOM     28  O   UNL A   1      32.671  30.812  26.667  1.00  0.00    -0.374 OA
BRANCH  28  29
ATOM     29  C   UNL A   1      33.199  31.927  27.378  1.00  0.00     0.202 C 
BRANCH  29  30
ATOM     30  C   UNL A   1      32.339  33.193  27.471  1.00  0.00     0.261 C 
BRANCH  30  31
ATOM     31  O   UNL A   1      32.477  33.900  28.707  1.00  0.00    -0.460 OA
BRANCH  31  32
ATOM     32  C   UNL A   1      33.497  34.788  28.729  1.00  0.00     0.338 C 
ATOM     33  O   UNL A   1      33.528  35.915  28.257  1.00  0.00    -0.246 OA
BRANCH  32  34
ATOM     34  C   UNL A   1      34.568  34.250  29.572  1.00  0.00     0.060 A 
ATOM     35  C   UNL A   1      34.274  33.445  30.673  1.00  0.00     0.016 A 
ATOM     36  C   UNL A   1      35.890  34.531  29.210  1.00  0.00     0.016 A 
ATOM     37  C   UNL A   1      35.324  32.892  31.405  1.00  0.00     0.010 A 
ATOM     38  C   UNL A   1      36.935  33.976  29.939  1.00  0.00     0.010 A 
ATOM     39  C   UNL A   1      36.657  33.137  31.027  1.00  0.00    -0.014 A 
BRANCH  39  40
ATOM     40  C   UNL A   1      37.764  32.418  31.692  1.00  0.00     0.031 A 
ATOM     41  C   UNL A   1      38.385  31.209  31.068  1.00  0.00     0.074 A 
ATOM     42  C   UNL A   1      38.165  32.853  32.901  1.00  0.00     0.049 A 
ATOM     43  N   UNL A   1      39.366  30.466  31.515  1.00  0.00    -0.248 NA
ATOM     44  C   UNL A   1      37.827  30.768  29.782  1.00  0.00     0.031 C 
ATOM     45  C   UNL A   1      37.590  33.996  33.610  1.00  0.00     0.029 A 
ATOM     46  N   UNL A   1      39.140  32.390  33.744  1.00  0.00    -0.354 N 
ATOM     47  C   UNL A   1      39.553  29.477  30.559  1.00  0.00     0.074 A 
ATOM     48  C   UNL A   1      38.549  29.682  29.536  1.00  0.00     0.031 C 
ATOM     49  C   UNL A   1      38.244  34.167  34.768  1.00  0.00     0.029 A 
ATOM     50  C   UNL A   1      39.254  33.122  34.900  1.00  0.00     0.049 A 
ATOM     51  H   UNL A   1      39.703  31.609  33.542  1.00  0.00     0.167 HD
ATOM     52  C   UNL A   1      40.493  28.503  30.539  1.00  0.00     0.037 A 
ATOM     53  C   UNL A   1      40.081  32.964  35.950  1.00  0.00     0.037 A 
ATOM     54  C   UNL A   1      41.471  28.305  31.578  1.00  0.00     0.049 A 
ATOM     55  C   UNL A   1      41.082  31.845  35.924  1.00  0.00     0.074 A 
ATOM     56  C   UNL A   1      42.490  27.370  31.637  1.00  0.00     0.029 A 
ATOM     57  N   UNL A   1      41.544  29.047  32.751  1.00  0.00    -0.354 N 
ATOM     58  N   UNL A   1      41.304  30.959  34.984  1.00  0.00    -0.248 NA
ATOM     59  C   UNL A   1      41.951  31.706  37.099  1.00  0.00     0.031 C 
ATOM     60  C   UNL A   1      43.137  27.506  32.869  1.00  0.00     0.029 A 
ATOM     61  C   UNL A   1      42.567  28.567  33.554  1.00  0.00     0.049 A 
ATOM     62  H   UNL A   1      40.954  29.801  32.979  1.00  0.00     0.167 HD
ATOM     63  C   UNL A   1      42.345  30.165  35.444  1.00  0.00     0.074 A 
ATOM     64  C   UNL A   1      42.726  30.692  36.739  1.00  0.00     0.031 C 
ATOM     65  C   UNL A   1      42.929  29.097  34.847  1.00  0.00     0.037 A 
BRANCH  52  66
ATOM     66  C   UNL A   1      40.510  27.574  29.357  1.00  0.00     0.064 A 
ATOM     67  C   UNL A   1      39.619  26.493  29.262  1.00  0.00     0.173 A 
ATOM     68  C   UNL A   1      41.387  27.796  28.285  1.00  0.00     0.173 A 
ATOM     69  F   UNL A   1      38.766  26.230  30.263  1.00  0.00    -0.203 F 
ATOM     70  C   UNL A   1      39.623  25.655  28.149  1.00  0.00     0.198 A 
ATOM     71  C   UNL A   1      41.366  26.975  27.159  1.00  0.00     0.198 A 
ATOM     72  F   UNL A   1      42.254  28.818  28.319  1.00  0.00    -0.203 F 
ATOM     73  F   UNL A   1      38.795  24.604  28.103  1.00  0.00    -0.200 F 
ATOM     74  C   UNL A   1      40.490  25.902  27.096  1.00  0.00     0.200 A 
ATOM     75  F   UNL A   1      42.193  27.224  26.135  1.00  0.00    -0.200 F 
ATOM     76  F   UNL A   1      40.484  25.102  26.021  1.00  0.00    -0.200 F 
ENDBRANCH  52  66
BRANCH  53  77
ATOM     77  C   UNL A   1      40.011  33.926  37.079  1.00  0.00     0.064 A 
ATOM     78  C   UNL A   1      40.751  35.116  37.051  1.00  0.00     0.173 A 
ATOM     79  C   UNL A   1      39.157  33.713  38.172  1.00  0.00     0.173 A 
ATOM     80  F   UNL A   1      41.590  35.359  36.034  1.00  0.00    -0.203 F 
ATOM     81  C   UNL A   1      40.638  36.055  38.073  1.00  0.00     0.198 A 
ATOM     82  C   UNL A   1      39.024  34.665  39.179  1.00  0.00     0.198 A 
ATOM     83  F   UNL A   1      38.420  32.593  38.239  1.00  0.00    -0.203 F 
ATOM     84  F   UNL A   1      41.371  37.177  38.032  1.00  0.00    -0.200 F 
ATOM     85  C   UNL A   1      39.767  35.835  39.129  1.00  0.00     0.200 A 
ATOM     86  F   UNL A   1      38.164  34.459  40.185  1.00  0.00    -0.200 F 
ATOM     87  F   UNL A   1      39.640  36.753  40.098  1.00  0.00    -0.200 F 
ENDBRANCH  53  77
BRANCH  65  88
ATOM     88  C   UNL A   1      44.048  28.419  35.584  1.00  0.00     0.064 A 
ATOM     89  C   UNL A   1      45.382  28.821  35.422  1.00  0.00     0.173 A 
ATOM     90  C   UNL A   1      43.777  27.406  36.517  1.00  0.00     0.173 A 
ATOM     91  F   UNL A   1      45.697  29.774  34.531  1.00  0.00    -0.203 F 
ATOM     92  C   UNL A   1      46.404  28.224  36.156  1.00  0.00     0.198 A 
ATOM     93  C   UNL A   1      44.797  26.837  37.275  1.00  0.00     0.198 A 
ATOM     94  F   UNL A   1      42.517  26.989  36.716  1.00  0.00    -0.203 F 
ATOM     95  F   UNL A   1      47.675  28.599  35.956  1.00  0.00    -0.200 F 
ATOM     96  C   UNL A   1      46.109  27.243  37.089  1.00  0.00     0.200 A 
ATOM     97  F   UNL A   1      44.507  25.901  38.189  1.00  0.00    -0.200 F 
ATOM     98  F   UNL A   1      47.091  26.684  37.811  1.00  0.00    -0.200 F 
ENDBRANCH  65  88
ENDBRANCH  39  40
ENDBRANCH  32  34
ENDBRANCH  31  32
ENDBRANCH  30  31
ENDBRANCH  29  30
ENDBRANCH  28  29
ENDBRANCH   1  28
TORSDOF 17
ENDMDL
