MODEL 1
REMARK VINA RESULT:     -12.3      0.000      0.000
REMARK SMILES O=C(CCC(=O)OCCOCCOC(=O)c1ccc(-c2c3nc(c(-c4c(F)c(F)c(F)c(F)c4F)c4ccc([nH]4)c(-c4c(F)c(F)c(F)c(F)c4F)c4nc(c(-c5c(F)c(F)c(F)c(F)c5F)c5ccc2[nH]5)C=C4)C=C3)cc1)Nc1cccc2c1C(=O)c1ccccc1C2=O
REMARK SMILES IDX 9 1 8 2 7 3 5 4 6 5 4 6 3 7 2 8 1 9 79 10 80 12 81 13 85 14
REMARK SMILES IDX 82 15 84 16 86 17 83 18 94 19 87 20 88 21 93 22 95 23 89 24
REMARK SMILES IDX 92 25 90 26 91 27 10 28 11 29 12 30 13 31 14 32 15 33 16 34
REMARK SMILES IDX 17 35 78 36 18 37 77 38 19 39 20 40 21 41 71 42 22 43 76 44
REMARK SMILES IDX 70 45 72 46 23 47 75 48 69 49 68 50 24 52 56 53 36 54 55 55
REMARK SMILES IDX 37 56 40 57 54 58 73 59 38 60 39 61 53 63 74 64 41 65 25 66
REMARK SMILES IDX 26 67 34 68 27 69 28 70 32 71 35 72 29 73 30 74 33 75 31 76
REMARK SMILES IDX 57 77 58 78 66 79 59 80 60 81 64 82 67 83 61 84 62 85 65 86
REMARK SMILES IDX 63 87 42 88 43 89 51 90 44 91 45 92 49 93 52 94 46 95 47 96
REMARK SMILES IDX 50 97 48 98
REMARK H PARENT 79 11 72 51 40 62
REMARK Flexibility Score: inf
ROOT
ATOM      1  C   UNL A   1      39.924  21.380  26.630  1.00  0.00     0.202 C 
ENDROOT
BRANCH   1   2
ATOM      2  C   UNL A   1      38.835  22.339  26.138  1.00  0.00     0.261 C 
BRANCH   2   3
ATOM      3  O   UNL A   1      38.042  21.740  25.083  1.00  0.00    -0.463 OA
BRANCH   3   4
ATOM      4  C   UNL A   1      36.736  21.503  25.376  1.00  0.00     0.306 C 
ATOM      5  O   UNL A   1      36.127  20.486  25.073  1.00  0.00    -0.252 OA
BRANCH   4   6
ATOM      6  C   UNL A   1      36.048  22.689  26.026  1.00  0.00     0.132 C 
BRANCH   6   7
ATOM      7  C   UNL A   1      35.879  23.933  25.158  1.00  0.00     0.112 C 
BRANCH   7   8
ATOM      8  C   UNL A   1      34.503  24.594  25.148  1.00  0.00     0.224 C 
ATOM      9  O   UNL A   1      33.657  24.278  25.980  1.00  0.00    -0.275 OA
ATOM     10  N   UNL A   1      34.383  25.652  24.273  1.00  0.00    -0.325 N 
ATOM     11  H   UNL A   1      34.967  25.649  23.481  1.00  0.00     0.169 HD
BRANCH  10  12
ATOM     12  C   UNL A   1      33.485  26.746  24.416  1.00  0.00     0.053 A 
ATOM     13  C   UNL A   1      33.557  27.273  25.708  1.00  0.00     0.027 A 
ATOM     14  C   UNL A   1      32.251  26.784  23.754  1.00  0.00     0.057 A 
ATOM     15  C   UNL A   1      32.389  27.316  26.451  1.00  0.00     0.003 A 
ATOM     16  C   UNL A   1      31.152  26.485  24.537  1.00  0.00     0.036 A 
ATOM     17  C   UNL A   1      31.967  28.026  22.927  1.00  0.00     0.196 C 
ATOM     18  C   UNL A   1      31.201  26.848  25.885  1.00  0.00     0.013 A 
ATOM     19  C   UNL A   1      29.841  26.457  23.881  1.00  0.00     0.194 C 
ATOM     20  O   UNL A   1      32.877  28.657  22.403  1.00  0.00    -0.288 OA
ATOM     21  C   UNL A   1      30.555  28.548  22.853  1.00  0.00     0.034 A 
ATOM     22  C   UNL A   1      29.494  27.725  23.238  1.00  0.00     0.034 A 
ATOM     23  O   UNL A   1      29.083  25.506  23.961  1.00  0.00    -0.289 OA
ATOM     24  C   UNL A   1      30.277  29.870  22.504  1.00  0.00     0.013 A 
ATOM     25  C   UNL A   1      28.167  28.159  23.223  1.00  0.00     0.013 A 
ATOM     26  C   UNL A   1      28.953  30.336  22.537  1.00  0.00     0.001 A 
ATOM     27  C   UNL A   1      27.900  29.479  22.878  1.00  0.00     0.001 A 
ENDBRANCH  10  12
ENDBRANCH   7   8
ENDBRANCH   6   7
ENDBRANCH   4   6
ENDBRANCH   3   4
ENDBRANCH   2   3
ENDBRANCH   1   2
BRANCH   1  28
ATOM     28  O   UNL A   1      40.897  21.070  25.630  1.00  0.00    -0.374 OA
BRANCH  28  29
ATOM     29  C   UNL A   1      42.183  20.701  26.122  1.00  0.00     0.202 C 
BRANCH  29  30
ATOM     30  C   UNL A   1      43.326  21.568  25.583  1.00  0.00     0.261 C 
BRANCH  30  31
ATOM     31  O   UNL A   1      42.835  22.783  24.981  1.00  0.00    -0.460 OA
BRANCH  31  32
ATOM     32  C   UNL A   1      43.693  23.832  24.993  1.00  0.00     0.338 C 
ATOM     33  O   UNL A   1      44.601  24.055  24.206  1.00  0.00    -0.246 OA
BRANCH  32  34
ATOM     34  C   UNL A   1      43.308  24.791  26.049  1.00  0.00     0.060 A 
ATOM     35  C   UNL A   1      42.175  24.516  26.829  1.00  0.00     0.016 A 
ATOM     36  C   UNL A   1      44.014  25.971  26.251  1.00  0.00     0.016 A 
ATOM     37  C   UNL A   1      41.758  25.408  27.829  1.00  0.00     0.010 A 
ATOM     38  C   UNL A   1      43.580  26.864  27.237  1.00  0.00     0.010 A 
ATOM     39  C   UNL A   1      42.464  26.593  28.057  1.00  0.00    -0.014 A 
BRANCH  39  40
ATOM     40  C   UNL A   1      42.103  27.575  29.129  1.00  0.00     0.031 A 
ATOM     41  C   UNL A   1      42.681  27.409  30.508  1.00  0.00     0.074 A 
ATOM     42  C   UNL A   1      41.147  28.512  28.946  1.00  0.00     0.049 A 
ATOM     43  N   UNL A   1      42.345  28.001  31.627  1.00  0.00    -0.248 NA
ATOM     44  C   UNL A   1      43.774  26.436  30.644  1.00  0.00     0.031 C 
ATOM     45  C   UNL A   1      40.471  28.813  27.688  1.00  0.00     0.029 A 
ATOM     46  N   UNL A   1      40.509  29.326  29.859  1.00  0.00    -0.354 N 
ATOM     47  C   UNL A   1      43.198  27.487  32.592  1.00  0.00     0.074 A 
ATOM     48  C   UNL A   1      43.997  26.465  31.949  1.00  0.00     0.031 C 
ATOM     49  C   UNL A   1      39.431  29.630  27.927  1.00  0.00     0.029 A 
ATOM     50  C   UNL A   1      39.386  29.940  29.352  1.00  0.00     0.049 A 
ATOM     51  H   UNL A   1      40.826  29.456  30.782  1.00  0.00     0.167 HD
ATOM     52  C   UNL A   1      43.352  27.870  33.880  1.00  0.00     0.037 A 
ATOM     53  C   UNL A   1      38.410  30.642  29.960  1.00  0.00     0.037 A 
ATOM     54  C   UNL A   1      42.606  28.915  34.525  1.00  0.00     0.049 A 
ATOM     55  C   UNL A   1      38.523  30.983  31.419  1.00  0.00     0.074 A 
ATOM     56  C   UNL A   1      42.812  29.486  35.768  1.00  0.00     0.029 A 
ATOM     57  N   UNL A   1      41.498  29.540  33.977  1.00  0.00    -0.354 N 
ATOM     58  N   UNL A   1      39.421  30.597  32.286  1.00  0.00    -0.248 NA
ATOM     59  C   UNL A   1      37.511  31.901  31.969  1.00  0.00     0.031 C 
ATOM     60  C   UNL A   1      41.806  30.436  35.987  1.00  0.00     0.029 A 
ATOM     61  C   UNL A   1      40.990  30.469  34.870  1.00  0.00     0.049 A 
ATOM     62  H   UNL A   1      41.127  29.351  33.084  1.00  0.00     0.167 HD
ATOM     63  C   UNL A   1      39.131  31.277  33.461  1.00  0.00     0.074 A 
ATOM     64  C   UNL A   1      37.943  32.065  33.212  1.00  0.00     0.031 C 
ATOM     65  C   UNL A   1      39.820  31.271  34.626  1.00  0.00     0.037 A 
BRANCH  52  66
ATOM     66  C   UNL A   1      44.429  27.183  34.661  1.00  0.00     0.064 A 
ATOM     67  C   UNL A   1      44.153  26.023  35.400  1.00  0.00     0.173 A 
ATOM     68  C   UNL A   1      45.737  27.681  34.673  1.00  0.00     0.173 A 
ATOM     69  F   UNL A   1      42.909  25.518  35.424  1.00  0.00    -0.203 F 
ATOM     70  C   UNL A   1      45.143  25.406  36.157  1.00  0.00     0.198 A 
ATOM     71  C   UNL A   1      46.731  27.048  35.414  1.00  0.00     0.198 A 
ATOM     72  F   UNL A   1      46.047  28.786  33.978  1.00  0.00    -0.203 F 
ATOM     73  F   UNL A   1      44.844  24.330  36.898  1.00  0.00    -0.200 F 
ATOM     74  C   UNL A   1      46.431  25.918  36.161  1.00  0.00     0.200 A 
ATOM     75  F   UNL A   1      47.979  27.538  35.415  1.00  0.00    -0.200 F 
ATOM     76  F   UNL A   1      47.383  25.326  36.896  1.00  0.00    -0.200 F 
ENDBRANCH  52  66
BRANCH  53  77
ATOM     77  C   UNL A   1      37.217  31.073  29.192  1.00  0.00     0.064 A 
ATOM     78  C   UNL A   1      37.069  32.394  28.752  1.00  0.00     0.173 A 
ATOM     79  C   UNL A   1      36.180  30.168  28.922  1.00  0.00     0.173 A 
ATOM     80  F   UNL A   1      38.026  33.296  29.013  1.00  0.00    -0.203 F 
ATOM     81  C   UNL A   1      35.919  32.800  28.080  1.00  0.00     0.198 A 
ATOM     82  C   UNL A   1      35.034  30.574  28.241  1.00  0.00     0.198 A 
ATOM     83  F   UNL A   1      36.278  28.894  29.331  1.00  0.00    -0.203 F 
ATOM     84  F   UNL A   1      35.785  34.077  27.696  1.00  0.00    -0.200 F 
ATOM     85  C   UNL A   1      34.902  31.890  27.825  1.00  0.00     0.200 A 
ATOM     86  F   UNL A   1      34.055  29.693  27.997  1.00  0.00    -0.200 F 
ATOM     87  F   UNL A   1      33.792  32.285  27.187  1.00  0.00    -0.200 F 
ENDBRANCH  53  77
BRANCH  65  88
ATOM     88  C   UNL A   1      39.367  32.204  35.705  1.00  0.00     0.064 A 
ATOM     89  C   UNL A   1      38.444  31.810  36.682  1.00  0.00     0.173 A 
ATOM     90  C   UNL A   1      39.897  33.501  35.780  1.00  0.00     0.173 A 
ATOM     91  F   UNL A   1      37.894  30.588  36.637  1.00  0.00    -0.203 F 
ATOM     92  C   UNL A   1      38.062  32.687  37.695  1.00  0.00     0.198 A 
ATOM     93  C   UNL A   1      39.526  34.368  36.803  1.00  0.00     0.198 A 
ATOM     94  F   UNL A   1      40.780  33.923  34.862  1.00  0.00    -0.203 F 
ATOM     95  F   UNL A   1      37.157  32.303  38.605  1.00  0.00    -0.200 F 
ATOM     96  C   UNL A   1      38.608  33.962  37.758  1.00  0.00     0.200 A 
ATOM     97  F   UNL A   1      40.056  35.598  36.864  1.00  0.00    -0.200 F 
ATOM     98  F   UNL A   1      38.242  34.800  38.738  1.00  0.00    -0.200 F 
ENDBRANCH  65  88
ENDBRANCH  39  40
ENDBRANCH  32  34
ENDBRANCH  31  32
ENDBRANCH  30  31
ENDBRANCH  29  30
ENDBRANCH  28  29
ENDBRANCH   1  28
TORSDOF 17
ENDMDL
MODEL 2
REMARK VINA RESULT:     -12.2      1.282      2.497
REMARK SMILES O=C(CCC(=O)OCCOCCOC(=O)c1ccc(-c2c3nc(c(-c4c(F)c(F)c(F)c(F)c4F)c4ccc([nH]4)c(-c4c(F)c(F)c(F)c(F)c4F)c4nc(c(-c5c(F)c(F)c(F)c(F)c5F)c5ccc2[nH]5)C=C4)C=C3)cc1)Nc1cccc2c1C(=O)c1ccccc1C2=O
REMARK SMILES IDX 9 1 8 2 7 3 5 4 6 5 4 6 3 7 2 8 1 9 79 10 80 12 81 13 85 14
REMARK SMILES IDX 82 15 84 16 86 17 83 18 94 19 87 20 88 21 93 22 95 23 89 24
REMARK SMILES IDX 92 25 90 26 91 27 10 28 11 29 12 30 13 31 14 32 15 33 16 34
REMARK SMILES IDX 17 35 78 36 18 37 77 38 19 39 20 40 21 41 71 42 22 43 76 44
REMARK SMILES IDX 70 45 72 46 23 47 75 48 69 49 68 50 24 52 56 53 36 54 55 55
REMARK SMILES IDX 37 56 40 57 54 58 73 59 38 60 39 61 53 63 74 64 41 65 25 66
REMARK SMILES IDX 26 67 34 68 27 69 28 70 32 71 35 72 29 73 30 74 33 75 31 76
REMARK SMILES IDX 57 77 58 78 66 79 59 80 60 81 64 82 67 83 61 84 62 85 65 86
REMARK SMILES IDX 63 87 42 88 43 89 51 90 44 91 45 92 49 93 52 94 46 95 47 96
REMARK SMILES IDX 50 97 48 98
REMARK H PARENT 79 11 72 51 40 62
REMARK Flexibility Score: inf
ROOT
ATOM      1  C   UNL A   1      42.205  19.187  26.102  1.00  0.00     0.202 C 
ENDROOT
BRANCH   1   2
ATOM      2  C   UNL A   1      40.807  19.701  26.460  1.00  0.00     0.261 C 
BRANCH   2   3
ATOM      3  O   UNL A   1      40.828  21.117  26.765  1.00  0.00    -0.463 OA
BRANCH   3   4
ATOM      4  C   UNL A   1      39.686  21.804  26.496  1.00  0.00     0.306 C 
ATOM      5  O   UNL A   1      39.450  22.941  26.882  1.00  0.00    -0.252 OA
BRANCH   4   6
ATOM      6  C   UNL A   1      38.654  20.977  25.753  1.00  0.00     0.132 C 
BRANCH   6   7
ATOM      7  C   UNL A   1      37.767  21.729  24.764  1.00  0.00     0.112 C 
BRANCH   7   8
ATOM      8  C   UNL A   1      36.262  21.705  25.020  1.00  0.00     0.224 C 
ATOM      9  O   UNL A   1      35.827  21.458  26.142  1.00  0.00    -0.275 OA
ATOM     10  N   UNL A   1      35.495  22.146  23.963  1.00  0.00    -0.325 N 
ATOM     11  H   UNL A   1      35.874  22.046  23.060  1.00  0.00     0.169 HD
BRANCH  10  12
ATOM     12  C   UNL A   1      34.203  22.732  24.066  1.00  0.00     0.053 A 
ATOM     13  C   UNL A   1      33.213  21.751  23.980  1.00  0.00     0.027 A 
ATOM     14  C   UNL A   1      33.922  24.003  23.547  1.00  0.00     0.057 A 
ATOM     15  C   UNL A   1      32.263  21.880  22.980  1.00  0.00     0.003 A 
ATOM     16  C   UNL A   1      33.234  24.011  22.348  1.00  0.00     0.036 A 
ATOM     17  C   UNL A   1      33.291  24.998  24.505  1.00  0.00     0.196 C 
ATOM     18  C   UNL A   1      32.325  22.976  22.117  1.00  0.00     0.013 A 
ATOM     19  C   UNL A   1      32.962  25.314  21.733  1.00  0.00     0.194 C 
ATOM     20  O   UNL A   1      33.519  24.948  25.707  1.00  0.00    -0.288 OA
ATOM     21  C   UNL A   1      32.281  25.984  23.975  1.00  0.00     0.034 A 
ATOM     22  C   UNL A   1      32.191  26.207  22.599  1.00  0.00     0.034 A 
ATOM     23  O   UNL A   1      33.260  25.575  20.580  1.00  0.00    -0.289 OA
ATOM     24  C   UNL A   1      31.359  26.612  24.812  1.00  0.00     0.013 A 
ATOM     25  C   UNL A   1      31.256  27.083  22.043  1.00  0.00     0.013 A 
ATOM     26  C   UNL A   1      30.379  27.453  24.261  1.00  0.00     0.001 A 
ATOM     27  C   UNL A   1      30.339  27.701  22.884  1.00  0.00     0.001 A 
ENDBRANCH  10  12
ENDBRANCH   7   8
ENDBRANCH   6   7
ENDBRANCH   4   6
ENDBRANCH   3   4
ENDBRANCH   2   3
ENDBRANCH   1   2
BRANCH   1  28
ATOM     28  O   UNL A   1      42.913  20.052  25.212  1.00  0.00    -0.374 OA
BRANCH  28  29
ATOM     29  C   UNL A   1      44.335  19.988  25.299  1.00  0.00     0.202 C 
BRANCH  29  30
ATOM     30  C   UNL A   1      45.035  21.326  25.036  1.00  0.00     0.261 C 
BRANCH  30  31
ATOM     31  O   UNL A   1      44.582  22.351  25.943  1.00  0.00    -0.460 OA
BRANCH  31  32
ATOM     32  C   UNL A   1      43.795  23.311  25.399  1.00  0.00     0.338 C 
ATOM     33  O   UNL A   1      43.332  23.335  24.268  1.00  0.00    -0.246 OA
BRANCH  32  34
ATOM     34  C   UNL A   1      43.441  24.316  26.421  1.00  0.00     0.060 A 
ATOM     35  C   UNL A   1      44.118  25.545  26.422  1.00  0.00     0.016 A 
ATOM     36  C   UNL A   1      42.490  24.053  27.401  1.00  0.00     0.016 A 
ATOM     37  C   UNL A   1      43.830  26.522  27.388  1.00  0.00     0.010 A 
ATOM     38  C   UNL A   1      42.224  25.025  28.372  1.00  0.00     0.010 A 
ATOM     39  C   UNL A   1      42.867  26.281  28.372  1.00  0.00    -0.014 A 
BRANCH  39  40
ATOM     40  C   UNL A   1      42.480  27.287  29.411  1.00  0.00     0.031 A 
ATOM     41  C   UNL A   1      43.030  27.156  30.806  1.00  0.00     0.074 A 
ATOM     42  C   UNL A   1      41.526  28.217  29.186  1.00  0.00     0.049 A 
ATOM     43  N   UNL A   1      42.667  27.774  31.903  1.00  0.00    -0.248 NA
ATOM     44  C   UNL A   1      44.122  26.191  30.989  1.00  0.00     0.031 C 
ATOM     45  C   UNL A   1      40.876  28.485  27.907  1.00  0.00     0.029 A 
ATOM     46  N   UNL A   1      40.866  29.050  30.065  1.00  0.00    -0.354 N 
ATOM     47  C   UNL A   1      43.501  27.287  32.898  1.00  0.00     0.074 A 
ATOM     48  C   UNL A   1      44.317  26.252  32.297  1.00  0.00     0.031 C 
ATOM     49  C   UNL A   1      39.828  29.304  28.104  1.00  0.00     0.029 A 
ATOM     50  C   UNL A   1      39.753  29.648  29.520  1.00  0.00     0.049 A 
ATOM     51  H   UNL A   1      41.163  29.203  30.991  1.00  0.00     0.167 HD
ATOM     52  C   UNL A   1      43.627  27.701  34.180  1.00  0.00     0.037 A 
ATOM     53  C   UNL A   1      38.762  30.360  30.090  1.00  0.00     0.037 A 
ATOM     54  C   UNL A   1      42.864  28.759  34.783  1.00  0.00     0.049 A 
ATOM     55  C   UNL A   1      38.842  30.737  31.542  1.00  0.00     0.074 A 
ATOM     56  C   UNL A   1      43.042  29.360  36.017  1.00  0.00     0.029 A 
ATOM     57  N   UNL A   1      41.766  29.366  34.197  1.00  0.00    -0.354 N 
ATOM     58  N   UNL A   1      39.723  30.375  32.438  1.00  0.00    -0.248 NA
ATOM     59  C   UNL A   1      37.816  31.665  32.048  1.00  0.00     0.031 C 
ATOM     60  C   UNL A   1      42.029  30.311  36.191  1.00  0.00     0.029 A 
ATOM     61  C   UNL A   1      41.237  30.314  35.056  1.00  0.00     0.049 A 
ATOM     62  H   UNL A   1      41.415  29.155  33.301  1.00  0.00     0.167 HD
ATOM     63  C   UNL A   1      39.405  31.082  33.589  1.00  0.00     0.074 A 
ATOM     64  C   UNL A   1      38.221  31.860  33.296  1.00  0.00     0.031 C 
ATOM     65  C   UNL A   1      40.070  31.106  34.768  1.00  0.00     0.037 A 
BRANCH  52  66
ATOM     66  C   UNL A   1      44.688  27.036  35.000  1.00  0.00     0.064 A 
ATOM     67  C   UNL A   1      44.393  25.911  35.785  1.00  0.00     0.173 A 
ATOM     68  C   UNL A   1      46.002  27.521  35.004  1.00  0.00     0.173 A 
ATOM     69  F   UNL A   1      43.144  25.422  35.818  1.00  0.00    -0.203 F 
ATOM     70  C   UNL A   1      45.369  25.317  36.577  1.00  0.00     0.198 A 
ATOM     71  C   UNL A   1      46.982  26.909  35.780  1.00  0.00     0.198 A 
ATOM     72  F   UNL A   1      46.331  28.591  34.266  1.00  0.00    -0.203 F 
ATOM     73  F   UNL A   1      45.052  24.277  37.360  1.00  0.00    -0.200 F 
ATOM     74  C   UNL A   1      46.662  25.815  36.572  1.00  0.00     0.200 A 
ATOM     75  F   UNL A   1      48.235  27.385  35.773  1.00  0.00    -0.200 F 
ATOM     76  F   UNL A   1      47.601  25.245  37.340  1.00  0.00    -0.200 F 
ENDBRANCH  52  66
BRANCH  53  77
ATOM     77  C   UNL A   1      37.584  30.769  29.287  1.00  0.00     0.064 A 
ATOM     78  C   UNL A   1      37.425  32.087  28.840  1.00  0.00     0.173 A 
ATOM     79  C   UNL A   1      36.572  29.845  28.987  1.00  0.00     0.173 A 
ATOM     80  F   UNL A   1      38.358  33.006  29.127  1.00  0.00    -0.203 F 
ATOM     81  C   UNL A   1      36.288  32.471  28.134  1.00  0.00     0.198 A 
ATOM     82  C   UNL A   1      35.439  30.229  28.273  1.00  0.00     0.198 A 
ATOM     83  F   UNL A   1      36.681  28.574  29.401  1.00  0.00    -0.203 F 
ATOM     84  F   UNL A   1      36.142  33.745  27.744  1.00  0.00    -0.200 F 
ATOM     85  C   UNL A   1      35.296  31.543  27.851  1.00  0.00     0.200 A 
ATOM     86  F   UNL A   1      34.484  29.331  28.001  1.00  0.00    -0.200 F 
ATOM     87  F   UNL A   1      34.198  31.917  27.179  1.00  0.00    -0.200 F 
ENDBRANCH  53  77
BRANCH  65  88
ATOM     88  C   UNL A   1      39.590  32.063  35.814  1.00  0.00     0.064 A 
ATOM     89  C   UNL A   1      40.115  33.357  35.928  1.00  0.00     0.173 A 
ATOM     90  C   UNL A   1      38.561  31.688  36.691  1.00  0.00     0.173 A 
ATOM     91  F   UNL A   1      41.116  33.752  35.126  1.00  0.00    -0.203 F 
ATOM     92  C   UNL A   1      39.630  34.240  36.889  1.00  0.00     0.198 A 
ATOM     93  C   UNL A   1      38.066  32.579  37.639  1.00  0.00     0.198 A 
ATOM     94  F   UNL A   1      38.031  30.457  36.622  1.00  0.00    -0.203 F 
ATOM     95  F   UNL A   1      40.163  35.464  37.002  1.00  0.00    -0.200 F 
ATOM     96  C   UNL A   1      38.602  33.853  37.739  1.00  0.00     0.200 A 
ATOM     97  F   UNL A   1      37.073  32.203  38.456  1.00  0.00    -0.200 F 
ATOM     98  F   UNL A   1      38.134  34.708  38.658  1.00  0.00    -0.200 F 
ENDBRANCH  65  88
ENDBRANCH  39  40
ENDBRANCH  32  34
ENDBRANCH  31  32
ENDBRANCH  30  31
ENDBRANCH  29  30
ENDBRANCH  28  29
ENDBRANCH   1  28
TORSDOF 17
ENDMDL
MODEL 3
REMARK VINA RESULT:     -11.9      1.602      2.439
REMARK SMILES O=C(CCC(=O)OCCOCCOC(=O)c1ccc(-c2c3nc(c(-c4c(F)c(F)c(F)c(F)c4F)c4ccc([nH]4)c(-c4c(F)c(F)c(F)c(F)c4F)c4nc(c(-c5c(F)c(F)c(F)c(F)c5F)c5ccc2[nH]5)C=C4)C=C3)cc1)Nc1cccc2c1C(=O)c1ccccc1C2=O
REMARK SMILES IDX 9 1 8 2 7 3 5 4 6 5 4 6 3 7 2 8 1 9 79 10 80 12 81 13 85 14
REMARK SMILES IDX 82 15 84 16 86 17 83 18 94 19 87 20 88 21 93 22 95 23 89 24
REMARK SMILES IDX 92 25 90 26 91 27 10 28 11 29 12 30 13 31 14 32 15 33 16 34
REMARK SMILES IDX 17 35 78 36 18 37 77 38 19 39 20 40 21 41 71 42 22 43 76 44
REMARK SMILES IDX 70 45 72 46 23 47 75 48 69 49 68 50 24 52 56 53 36 54 55 55
REMARK SMILES IDX 37 56 40 57 54 58 73 59 38 60 39 61 53 63 74 64 41 65 25 66
REMARK SMILES IDX 26 67 34 68 27 69 28 70 32 71 35 72 29 73 30 74 33 75 31 76
REMARK SMILES IDX 57 77 58 78 66 79 59 80 60 81 64 82 67 83 61 84 62 85 65 86
REMARK SMILES IDX 63 87 42 88 43 89 51 90 44 91 45 92 49 93 52 94 46 95 47 96
REMARK SMILES IDX 50 97 48 98
REMARK H PARENT 79 11 72 51 40 62
REMARK Flexibility Score: inf
ROOT
ATOM      1  C   UNL A   1      39.770  22.176  26.536  1.00  0.00     0.202 C 
ENDROOT
BRANCH   1   2
ATOM      2  C   UNL A   1      38.490  22.291  25.702  1.00  0.00     0.261 C 
BRANCH   2   3
ATOM      3  O   UNL A   1      37.678  21.097  25.816  1.00  0.00    -0.463 OA
BRANCH   3   4
ATOM      4  C   UNL A   1      36.667  20.972  24.915  1.00  0.00     0.306 C 
ATOM      5  O   UNL A   1      36.263  21.873  24.193  1.00  0.00    -0.252 OA
BRANCH   4   6
ATOM      6  C   UNL A   1      35.988  19.616  24.967  1.00  0.00     0.132 C 
BRANCH   6   7
ATOM      7  C   UNL A   1      34.513  19.582  24.576  1.00  0.00     0.112 C 
BRANCH   7   8
ATOM      8  C   UNL A   1      33.604  20.643  25.192  1.00  0.00     0.224 C 
ATOM      9  O   UNL A   1      33.509  20.745  26.412  1.00  0.00    -0.275 OA
ATOM     10  N   UNL A   1      33.077  21.539  24.288  1.00  0.00    -0.325 N 
ATOM     11  H   UNL A   1      32.966  21.230  23.361  1.00  0.00     0.169 HD
BRANCH  10  12
ATOM     12  C   UNL A   1      32.679  22.873  24.581  1.00  0.00     0.053 A 
ATOM     13  C   UNL A   1      31.298  22.940  24.780  1.00  0.00     0.027 A 
ATOM     14  C   UNL A   1      33.319  23.981  24.008  1.00  0.00     0.057 A 
ATOM     15  C   UNL A   1      30.572  23.801  23.973  1.00  0.00     0.003 A 
ATOM     16  C   UNL A   1      32.637  24.583  22.969  1.00  0.00     0.036 A 
ATOM     17  C   UNL A   1      33.823  25.041  24.972  1.00  0.00     0.196 C 
ATOM     18  C   UNL A   1      31.241  24.566  23.015  1.00  0.00     0.013 A 
ATOM     19  C   UNL A   1      33.287  25.714  22.297  1.00  0.00     0.194 C 
ATOM     20  O   UNL A   1      34.175  24.746  26.108  1.00  0.00    -0.288 OA
ATOM     21  C   UNL A   1      33.777  26.489  24.556  1.00  0.00     0.034 A 
ATOM     22  C   UNL A   1      33.607  26.814  23.208  1.00  0.00     0.034 A 
ATOM     23  O   UNL A   1      33.443  25.763  21.090  1.00  0.00    -0.289 OA
ATOM     24  C   UNL A   1      33.798  27.524  25.491  1.00  0.00     0.013 A 
ATOM     25  C   UNL A   1      33.523  28.135  22.761  1.00  0.00     0.013 A 
ATOM     26  C   UNL A   1      33.660  28.853  25.062  1.00  0.00     0.001 A 
ATOM     27  C   UNL A   1      33.542  29.159  23.701  1.00  0.00     0.001 A 
ENDBRANCH  10  12
ENDBRANCH   7   8
ENDBRANCH   6   7
ENDBRANCH   4   6
ENDBRANCH   3   4
ENDBRANCH   2   3
ENDBRANCH   1   2
BRANCH   1  28
ATOM     28  O   UNL A   1      40.949  22.026  25.743  1.00  0.00    -0.374 OA
BRANCH  28  29
ATOM     29  C   UNL A   1      41.907  21.095  26.242  1.00  0.00     0.202 C 
BRANCH  29  30
ATOM     30  C   UNL A   1      43.328  21.321  25.712  1.00  0.00     0.261 C 
BRANCH  30  31
ATOM     31  O   UNL A   1      43.979  22.417  26.386  1.00  0.00    -0.460 OA
BRANCH  31  32
ATOM     32  C   UNL A   1      43.858  23.628  25.791  1.00  0.00     0.338 C 
ATOM     33  O   UNL A   1      43.933  23.877  24.597  1.00  0.00    -0.246 OA
BRANCH  32  34
ATOM     34  C   UNL A   1      43.483  24.649  26.791  1.00  0.00     0.060 A 
ATOM     35  C   UNL A   1      42.400  24.391  27.645  1.00  0.00     0.016 A 
ATOM     36  C   UNL A   1      44.147  25.868  26.869  1.00  0.00     0.016 A 
ATOM     37  C   UNL A   1      41.994  25.340  28.595  1.00  0.00     0.010 A 
ATOM     38  C   UNL A   1      43.722  26.816  27.806  1.00  0.00     0.010 A 
ATOM     39  C   UNL A   1      42.659  26.565  28.699  1.00  0.00    -0.014 A 
BRANCH  39  40
ATOM     40  C   UNL A   1      42.307  27.612  29.712  1.00  0.00     0.031 A 
ATOM     41  C   UNL A   1      42.890  27.525  31.096  1.00  0.00     0.074 A 
ATOM     42  C   UNL A   1      41.356  28.542  29.477  1.00  0.00     0.049 A 
ATOM     43  N   UNL A   1      42.561  28.185  32.179  1.00  0.00    -0.248 NA
ATOM     44  C   UNL A   1      43.978  26.556  31.286  1.00  0.00     0.031 C 
ATOM     45  C   UNL A   1      40.676  28.771  28.205  1.00  0.00     0.029 A 
ATOM     46  N   UNL A   1      40.726  29.413  30.342  1.00  0.00    -0.354 N 
ATOM     47  C   UNL A   1      43.415  27.725  33.170  1.00  0.00     0.074 A 
ATOM     48  C   UNL A   1      44.206  26.662  32.586  1.00  0.00     0.031 C 
ATOM     49  C   UNL A   1      39.641  29.607  28.399  1.00  0.00     0.029 A 
ATOM     50  C   UNL A   1      39.604  30.001  29.803  1.00  0.00     0.049 A 
ATOM     51  H   UNL A   1      41.047  29.596  31.254  1.00  0.00     0.167 HD
ATOM     52  C   UNL A   1      43.577  28.184  34.432  1.00  0.00     0.037 A 
ATOM     53  C   UNL A   1      38.634  30.744  30.372  1.00  0.00     0.037 A 
ATOM     54  C   UNL A   1      42.839  29.270  35.015  1.00  0.00     0.049 A 
ATOM     55  C   UNL A   1      38.754  31.171  31.806  1.00  0.00     0.074 A 
ATOM     56  C   UNL A   1      43.053  29.913  36.222  1.00  0.00     0.029 A 
ATOM     57  N   UNL A   1      41.732  29.867  34.435  1.00  0.00    -0.354 N 
ATOM     58  N   UNL A   1      39.654  30.833  32.692  1.00  0.00    -0.248 NA
ATOM     59  C   UNL A   1      37.750  32.126  32.305  1.00  0.00     0.031 C 
ATOM     60  C   UNL A   1      42.053  30.880  36.387  1.00  0.00     0.029 A 
ATOM     61  C   UNL A   1      41.233  30.850  35.273  1.00  0.00     0.049 A 
ATOM     62  H   UNL A   1      41.356  29.627  33.557  1.00  0.00     0.167 HD
ATOM     63  C   UNL A   1      39.372  31.583  33.826  1.00  0.00     0.074 A 
ATOM     64  C   UNL A   1      38.188  32.362  33.534  1.00  0.00     0.031 C 
ATOM     65  C   UNL A   1      40.066  31.643  34.986  1.00  0.00     0.037 A 
BRANCH  52  66
ATOM     66  C   UNL A   1      44.653  27.539  35.249  1.00  0.00     0.064 A 
ATOM     67  C   UNL A   1      44.364  26.455  36.093  1.00  0.00     0.173 A 
ATOM     68  C   UNL A   1      45.973  28.000  35.190  1.00  0.00     0.173 A 
ATOM     69  F   UNL A   1      43.108  25.990  36.186  1.00  0.00    -0.203 F 
ATOM     70  C   UNL A   1      45.355  25.881  36.881  1.00  0.00     0.198 A 
ATOM     71  C   UNL A   1      46.967  27.407  35.964  1.00  0.00     0.198 A 
ATOM     72  F   UNL A   1      46.296  29.030  34.395  1.00  0.00    -0.203 F 
ATOM     73  F   UNL A   1      45.045  24.882  37.720  1.00  0.00    -0.200 F 
ATOM     74  C   UNL A   1      46.655  26.355  36.814  1.00  0.00     0.200 A 
ATOM     75  F   UNL A   1      48.226  27.860  35.897  1.00  0.00    -0.200 F 
ATOM     76  F   UNL A   1      47.608  25.804  37.579  1.00  0.00    -0.200 F 
ENDBRANCH  52  66
BRANCH  53  77
ATOM     77  C   UNL A   1      37.440  31.135  29.583  1.00  0.00     0.064 A 
ATOM     78  C   UNL A   1      36.415  30.222  29.308  1.00  0.00     0.173 A 
ATOM     79  C   UNL A   1      37.329  32.430  29.057  1.00  0.00     0.173 A 
ATOM     80  F   UNL A   1      36.496  28.966  29.772  1.00  0.00    -0.203 F 
ATOM     81  C   UNL A   1      35.325  30.585  28.520  1.00  0.00     0.198 A 
ATOM     82  C   UNL A   1      36.233  32.795  28.277  1.00  0.00     0.198 A 
ATOM     83  F   UNL A   1      38.291  33.334  29.292  1.00  0.00    -0.203 F 
ATOM     84  F   UNL A   1      34.372  29.685  28.243  1.00  0.00    -0.200 F 
ATOM     85  C   UNL A   1      35.235  31.871  28.006  1.00  0.00     0.200 A 
ATOM     86  F   UNL A   1      36.149  34.036  27.781  1.00  0.00    -0.200 F 
ATOM     87  F   UNL A   1      34.190  32.215  27.240  1.00  0.00    -0.200 F 
ENDBRANCH  53  77
BRANCH  65  88
ATOM     88  C   UNL A   1      39.622  32.641  36.009  1.00  0.00     0.064 A 
ATOM     89  C   UNL A   1      38.644  32.336  36.963  1.00  0.00     0.173 A 
ATOM     90  C   UNL A   1      40.216  33.911  36.054  1.00  0.00     0.173 A 
ATOM     91  F   UNL A   1      38.032  31.142  36.944  1.00  0.00    -0.203 F 
ATOM     92  C   UNL A   1      38.270  33.272  37.925  1.00  0.00     0.198 A 
ATOM     93  C   UNL A   1      39.854  34.838  37.027  1.00  0.00     0.198 A 
ATOM     94  F   UNL A   1      41.155  34.250  35.157  1.00  0.00    -0.203 F 
ATOM     95  F   UNL A   1      37.312  32.972  38.813  1.00  0.00    -0.200 F 
ATOM     96  C   UNL A   1      38.880  34.518  37.960  1.00  0.00     0.200 A 
ATOM     97  F   UNL A   1      40.445  36.040  37.061  1.00  0.00    -0.200 F 
ATOM     98  F   UNL A   1      38.522  35.414  38.891  1.00  0.00    -0.200 F 
ENDBRANCH  65  88
ENDBRANCH  39  40
ENDBRANCH  32  34
ENDBRANCH  31  32
ENDBRANCH  30  31
ENDBRANCH  29  30
ENDBRANCH  28  29
ENDBRANCH   1  28
TORSDOF 17
ENDMDL
