MODEL 1
REMARK VINA RESULT:     -10.5      0.000      0.000
REMARK SMILES CC[NH2+][C@]1(C(=O)OCCOCCOC(=O)c2ccc(-c3c4nc(c(-c5c(F)c(F)c(F)c(F)c5F)c5ccc([nH]5)c(-c5c(F)c(F)c(F)c(F)c5F)c5nc(c(-c6c(F)c(F)c(F)c(F)c6F)c6ccc3[nH]6)C=C5)C=C4)cc2)CC[C@@H](Sc2ccccc2C)C1
REMARK SMILES IDX 10 1 9 2 8 3 7 4 5 5 6 6 4 7 79 8 90 9 80 10 81 11 3 12 2 15
REMARK SMILES IDX 1 16 82 17 83 18 84 19 88 20 85 21 87 22 89 23 86 24 11 25
REMARK SMILES IDX 12 26 13 27 14 28 15 29 16 30 17 31 78 32 18 33 77 34 19 35
REMARK SMILES IDX 20 36 21 37 71 38 22 39 76 40 70 41 72 42 23 43 75 44 69 45
REMARK SMILES IDX 68 46 24 48 56 49 36 50 55 51 37 52 40 53 54 54 73 55 38 56
REMARK SMILES IDX 39 57 53 59 74 60 41 61 25 62 26 63 34 64 27 65 28 66 32 67
REMARK SMILES IDX 35 68 29 69 30 70 33 71 31 72 57 73 58 74 66 75 59 76 60 77
REMARK SMILES IDX 64 78 67 79 61 80 62 81 65 82 63 83 42 84 43 85 51 86 44 87
REMARK SMILES IDX 45 88 49 89 52 90 46 91 47 92 50 93 48 94
REMARK H PARENT 3 13 3 14 72 47 40 58
REMARK Flexibility Score: inf
ROOT
ATOM      1  O   UNL A   1      38.728  22.342  26.286  1.00  0.00    -0.374 OA
ENDROOT
BRANCH   1   2
ATOM      2  C   UNL A   1      38.085  23.607  26.125  1.00  0.00     0.202 C 
BRANCH   2   3
ATOM      3  C   UNL A   1      36.887  23.674  25.175  1.00  0.00     0.261 C 
BRANCH   3   4
ATOM      4  O   UNL A   1      35.660  23.911  25.890  1.00  0.00    -0.459 OA
BRANCH   4   5
ATOM      5  C   UNL A   1      34.803  22.850  25.977  1.00  0.00     0.368 C 
ATOM      6  O   UNL A   1      34.998  21.887  26.711  1.00  0.00    -0.245 OA
BRANCH   5   7
ATOM      7  C   UNL A   1      33.528  23.028  25.097  1.00  0.00     0.195 C 
ATOM      8  C   UNL A   1      32.307  23.045  26.054  1.00  0.00     0.082 C 
ATOM      9  C   UNL A   1      33.387  24.443  24.487  1.00  0.00     0.096 C 
ATOM     10  C   UNL A   1      31.189  23.801  25.338  1.00  0.00     0.022 C 
ATOM     11  C   UNL A   1      31.884  24.608  24.240  1.00  0.00     0.059 C 
BRANCH   7  12
ATOM     12  N   UNL A   1      33.381  21.894  24.146  1.00  0.00    -0.332 N 
ATOM     13  H   UNL A   1      32.951  22.256  23.296  1.00  0.00     0.347 HD
ATOM     14  H   UNL A   1      34.324  21.525  24.018  1.00  0.00     0.347 HD
BRANCH  12  15
ATOM     15  C   UNL A   1      32.579  20.761  24.606  1.00  0.00     0.257 C 
ATOM     16  C   UNL A   1      33.438  19.503  24.620  1.00  0.00     0.071 C 
ENDBRANCH  12  15
ENDBRANCH   7  12
BRANCH  11  17
ATOM     17  S   UNL A   1      31.212  26.305  23.988  1.00  0.00    -0.122 SA
BRANCH  17  18
ATOM     18  C   UNL A   1      32.018  27.307  25.235  1.00  0.00     0.010 A 
ATOM     19  C   UNL A   1      31.412  27.420  26.496  1.00  0.00     0.015 A 
ATOM     20  C   UNL A   1      33.160  28.084  24.973  1.00  0.00    -0.038 A 
ATOM     21  C   UNL A   1      31.980  28.210  27.502  1.00  0.00     0.001 A 
ATOM     22  C   UNL A   1      33.760  28.821  26.013  1.00  0.00     0.004 A 
ATOM     23  C   UNL A   1      33.807  28.194  23.628  1.00  0.00     0.045 C 
ATOM     24  C   UNL A   1      33.174  28.883  27.272  1.00  0.00     0.000 A 
ENDBRANCH  17  18
ENDBRANCH  11  17
ENDBRANCH   5   7
ENDBRANCH   4   5
ENDBRANCH   3   4
ENDBRANCH   2   3
ENDBRANCH   1   2
BRANCH   1  25
ATOM     25  C   UNL A   1      38.367  21.303  25.387  1.00  0.00     0.202 C 
BRANCH  25  26
ATOM     26  C   UNL A   1      39.095  19.959  25.512  1.00  0.00     0.261 C 
BRANCH  26  27
ATOM     27  O   UNL A   1      39.997  19.878  26.602  1.00  0.00    -0.460 OA
BRANCH  27  28
ATOM     28  C   UNL A   1      41.264  19.606  26.231  1.00  0.00     0.338 C 
ATOM     29  O   UNL A   1      41.718  18.579  25.753  1.00  0.00    -0.246 OA
BRANCH  28  30
ATOM     30  C   UNL A   1      42.019  20.847  26.373  1.00  0.00     0.060 A 
ATOM     31  C   UNL A   1      42.339  21.260  27.668  1.00  0.00     0.016 A 
ATOM     32  C   UNL A   1      42.398  21.583  25.247  1.00  0.00     0.016 A 
ATOM     33  C   UNL A   1      42.993  22.466  27.846  1.00  0.00     0.010 A 
ATOM     34  C   UNL A   1      43.057  22.791  25.427  1.00  0.00     0.010 A 
ATOM     35  C   UNL A   1      43.310  23.252  26.729  1.00  0.00    -0.014 A 
BRANCH  35  36
ATOM     36  C   UNL A   1      43.750  24.640  26.947  1.00  0.00     0.031 A 
ATOM     37  C   UNL A   1      42.746  25.635  27.446  1.00  0.00     0.074 A 
ATOM     38  C   UNL A   1      45.036  24.971  26.752  1.00  0.00     0.049 A 
ATOM     39  N   UNL A   1      42.903  26.900  27.731  1.00  0.00    -0.248 NA
ATOM     40  C   UNL A   1      41.373  25.137  27.649  1.00  0.00     0.031 C 
ATOM     41  C   UNL A   1      46.080  24.055  26.293  1.00  0.00     0.029 A 
ATOM     42  N   UNL A   1      45.679  26.165  26.920  1.00  0.00    -0.354 N 
ATOM     43  C   UNL A   1      41.655  27.347  28.141  1.00  0.00     0.074 A 
ATOM     44  C   UNL A   1      40.740  26.235  28.031  1.00  0.00     0.031 C 
ATOM     45  C   UNL A   1      47.242  24.725  26.219  1.00  0.00     0.029 A 
ATOM     46  C   UNL A   1      47.011  26.118  26.594  1.00  0.00     0.049 A 
ATOM     47  H   UNL A   1      45.231  26.980  27.244  1.00  0.00     0.167 HD
ATOM     48  C   UNL A   1      41.314  28.579  28.585  1.00  0.00     0.037 A 
ATOM     49  C   UNL A   1      47.928  27.101  26.590  1.00  0.00     0.037 A 
ATOM     50  C   UNL A   1      42.246  29.671  28.689  1.00  0.00     0.049 A 
ATOM     51  C   UNL A   1      47.509  28.476  27.040  1.00  0.00     0.074 A 
ATOM     52  C   UNL A   1      42.022  30.957  29.142  1.00  0.00     0.029 A 
ATOM     53  N   UNL A   1      43.583  29.599  28.324  1.00  0.00    -0.354 N 
ATOM     54  N   UNL A   1      46.336  28.890  27.460  1.00  0.00    -0.248 NA
ATOM     55  C   UNL A   1      48.542  29.518  27.024  1.00  0.00     0.031 C 
ATOM     56  C   UNL A   1      43.210  31.680  28.996  1.00  0.00     0.029 A 
ATOM     57  C   UNL A   1      44.192  30.827  28.515  1.00  0.00     0.049 A 
ATOM     58  H   UNL A   1      44.033  28.793  27.981  1.00  0.00     0.167 HD
ATOM     59  C   UNL A   1      46.496  30.230  27.785  1.00  0.00     0.074 A 
ATOM     60  C   UNL A   1      47.885  30.554  27.529  1.00  0.00     0.031 C 
ATOM     61  C   UNL A   1      45.580  31.116  28.252  1.00  0.00     0.037 A 
BRANCH  48  62
ATOM     62  C   UNL A   1      39.879  28.813  28.958  1.00  0.00     0.064 A 
ATOM     63  C   UNL A   1      39.412  28.627  30.268  1.00  0.00     0.173 A 
ATOM     64  C   UNL A   1      38.960  29.247  27.991  1.00  0.00     0.173 A 
ATOM     65  F   UNL A   1      40.244  28.193  31.227  1.00  0.00    -0.203 F 
ATOM     66  C   UNL A   1      38.075  28.844  30.590  1.00  0.00     0.198 A 
ATOM     67  C   UNL A   1      37.630  29.495  28.324  1.00  0.00     0.198 A 
ATOM     68  F   UNL A   1      39.352  29.438  26.723  1.00  0.00    -0.203 F 
ATOM     69  F   UNL A   1      37.641  28.611  31.838  1.00  0.00    -0.200 F 
ATOM     70  C   UNL A   1      37.187  29.285  29.621  1.00  0.00     0.200 A 
ATOM     71  F   UNL A   1      36.777  29.930  27.387  1.00  0.00    -0.200 F 
ATOM     72  F   UNL A   1      35.902  29.501  29.934  1.00  0.00    -0.200 F 
ENDBRANCH  48  62
BRANCH  49  73
ATOM     73  C   UNL A   1      49.316  26.819  26.148  1.00  0.00     0.064 A 
ATOM     74  C   UNL A   1      50.294  26.385  27.054  1.00  0.00     0.173 A 
ATOM     75  C   UNL A   1      49.695  26.974  24.806  1.00  0.00     0.173 A 
ATOM     76  F   UNL A   1      49.986  26.237  28.351  1.00  0.00    -0.203 F 
ATOM     77  C   UNL A   1      51.601  26.140  26.639  1.00  0.00     0.198 A 
ATOM     78  C   UNL A   1      50.994  26.699  24.386  1.00  0.00     0.198 A 
ATOM     79  F   UNL A   1      48.796  27.380  23.897  1.00  0.00    -0.203 F 
ATOM     80  F   UNL A   1      52.527  25.772  27.534  1.00  0.00    -0.200 F 
ATOM     81  C   UNL A   1      51.949  26.291  25.305  1.00  0.00     0.200 A 
ATOM     82  F   UNL A   1      51.320  26.830  23.093  1.00  0.00    -0.200 F 
ATOM     83  F   UNL A   1      53.205  26.051  24.906  1.00  0.00    -0.200 F 
ENDBRANCH  49  73
BRANCH  61  84
ATOM     84  C   UNL A   1      46.066  32.506  28.549  1.00  0.00     0.064 A 
ATOM     85  C   UNL A   1      46.605  32.847  29.798  1.00  0.00     0.173 A 
ATOM     86  C   UNL A   1      46.024  33.496  27.557  1.00  0.00     0.173 A 
ATOM     87  F   UNL A   1      46.655  31.940  30.784  1.00  0.00    -0.203 F 
ATOM     88  C   UNL A   1      47.053  34.141  30.052  1.00  0.00     0.198 A 
ATOM     89  C   UNL A   1      46.507  34.777  27.803  1.00  0.00     0.198 A 
ATOM     90  F   UNL A   1      45.528  33.217  26.342  1.00  0.00    -0.203 F 
ATOM     91  F   UNL A   1      47.510  34.461  31.270  1.00  0.00    -0.200 F 
ATOM     92  C   UNL A   1      47.011  35.102  29.053  1.00  0.00     0.200 A 
ATOM     93  F   UNL A   1      46.481  35.699  26.830  1.00  0.00    -0.200 F 
ATOM     94  F   UNL A   1      47.449  36.344  29.297  1.00  0.00    -0.200 F 
ENDBRANCH  61  84
ENDBRANCH  35  36
ENDBRANCH  28  30
ENDBRANCH  27  28
ENDBRANCH  26  27
ENDBRANCH  25  26
ENDBRANCH   1  25
TORSDOF 18
ENDMDL
MODEL 2
REMARK VINA RESULT:     -10.4      1.900      7.784
REMARK SMILES CC[NH2+][C@]1(C(=O)OCCOCCOC(=O)c2ccc(-c3c4nc(c(-c5c(F)c(F)c(F)c(F)c5F)c5ccc([nH]5)c(-c5c(F)c(F)c(F)c(F)c5F)c5nc(c(-c6c(F)c(F)c(F)c(F)c6F)c6ccc3[nH]6)C=C5)C=C4)cc2)CC[C@@H](Sc2ccccc2C)C1
REMARK SMILES IDX 10 1 9 2 8 3 7 4 5 5 6 6 4 7 79 8 90 9 80 10 81 11 3 12 2 15
REMARK SMILES IDX 1 16 82 17 83 18 84 19 88 20 85 21 87 22 89 23 86 24 11 25
REMARK SMILES IDX 12 26 13 27 14 28 15 29 16 30 17 31 78 32 18 33 77 34 19 35
REMARK SMILES IDX 20 36 21 37 71 38 22 39 76 40 70 41 72 42 23 43 75 44 69 45
REMARK SMILES IDX 68 46 24 48 56 49 36 50 55 51 37 52 40 53 54 54 73 55 38 56
REMARK SMILES IDX 39 57 53 59 74 60 41 61 25 62 26 63 34 64 27 65 28 66 32 67
REMARK SMILES IDX 35 68 29 69 30 70 33 71 31 72 57 73 58 74 66 75 59 76 60 77
REMARK SMILES IDX 64 78 67 79 61 80 62 81 65 82 63 83 42 84 43 85 51 86 44 87
REMARK SMILES IDX 45 88 49 89 52 90 46 91 47 92 50 93 48 94
REMARK H PARENT 3 13 3 14 72 47 40 58
REMARK Flexibility Score: inf
ROOT
ATOM      1  O   UNL A   1      35.476  19.056  24.512  1.00  0.00    -0.374 OA
ENDROOT
BRANCH   1   2
ATOM      2  C   UNL A   1      34.165  18.797  25.017  1.00  0.00     0.202 C 
BRANCH   2   3
ATOM      3  C   UNL A   1      33.015  18.758  24.008  1.00  0.00     0.261 C 
BRANCH   3   4
ATOM      4  O   UNL A   1      32.028  19.767  24.293  1.00  0.00    -0.459 OA
BRANCH   4   5
ATOM      5  C   UNL A   1      32.186  20.960  23.647  1.00  0.00     0.368 C 
ATOM      6  O   UNL A   1      32.246  21.062  22.426  1.00  0.00    -0.245 OA
BRANCH   5   7
ATOM      7  C   UNL A   1      32.216  22.177  24.621  1.00  0.00     0.195 C 
ATOM      8  C   UNL A   1      33.589  22.878  24.442  1.00  0.00     0.082 C 
ATOM      9  C   UNL A   1      31.286  23.338  24.194  1.00  0.00     0.096 C 
ATOM     10  C   UNL A   1      33.411  24.330  24.881  1.00  0.00     0.022 C 
ATOM     11  C   UNL A   1      31.903  24.583  24.839  1.00  0.00     0.059 C 
BRANCH   7  12
ATOM     12  N   UNL A   1      32.084  21.726  26.032  1.00  0.00    -0.332 N 
ATOM     13  H   UNL A   1      31.442  22.363  26.502  1.00  0.00     0.347 HD
ATOM     14  H   UNL A   1      31.758  20.761  25.978  1.00  0.00     0.347 HD
BRANCH  12  15
ATOM     15  C   UNL A   1      33.318  21.677  26.816  1.00  0.00     0.257 C 
ATOM     16  C   UNL A   1      33.101  22.382  28.148  1.00  0.00     0.071 C 
ENDBRANCH  12  15
ENDBRANCH   7  12
BRANCH  11  17
ATOM     17  S   UNL A   1      31.417  26.241  24.200  1.00  0.00    -0.122 SA
BRANCH  17  18
ATOM     18  C   UNL A   1      32.126  27.406  25.364  1.00  0.00     0.010 A 
ATOM     19  C   UNL A   1      31.474  27.605  26.590  1.00  0.00     0.015 A 
ATOM     20  C   UNL A   1      33.230  28.219  25.056  1.00  0.00    -0.038 A 
ATOM     21  C   UNL A   1      31.964  28.521  27.528  1.00  0.00     0.001 A 
ATOM     22  C   UNL A   1      33.754  29.088  26.034  1.00  0.00     0.004 A 
ATOM     23  C   UNL A   1      33.913  28.235  23.724  1.00  0.00     0.045 C 
ATOM     24  C   UNL A   1      33.126  29.238  27.264  1.00  0.00     0.000 A 
ENDBRANCH  17  18
ENDBRANCH  11  17
ENDBRANCH   5   7
ENDBRANCH   4   5
ENDBRANCH   3   4
ENDBRANCH   2   3
ENDBRANCH   1   2
BRANCH   1  25
ATOM     25  C   UNL A   1      36.148  20.212  24.992  1.00  0.00     0.202 C 
BRANCH  25  26
ATOM     26  C   UNL A   1      37.682  20.195  25.010  1.00  0.00     0.261 C 
BRANCH  26  27
ATOM     27  O   UNL A   1      38.277  21.365  25.546  1.00  0.00    -0.460 OA
BRANCH  27  28
ATOM     28  C   UNL A   1      39.442  21.132  26.181  1.00  0.00     0.338 C 
ATOM     29  O   UNL A   1      40.115  20.114  26.196  1.00  0.00    -0.246 OA
BRANCH  28  30
ATOM     30  C   UNL A   1      39.862  22.400  26.768  1.00  0.00     0.060 A 
ATOM     31  C   UNL A   1      39.205  23.556  26.339  1.00  0.00     0.016 A 
ATOM     32  C   UNL A   1      40.884  22.441  27.721  1.00  0.00     0.016 A 
ATOM     33  C   UNL A   1      39.621  24.784  26.821  1.00  0.00     0.010 A 
ATOM     34  C   UNL A   1      41.298  23.673  28.206  1.00  0.00     0.010 A 
ATOM     35  C   UNL A   1      40.697  24.845  27.719  1.00  0.00    -0.014 A 
BRANCH  35  36
ATOM     36  C   UNL A   1      41.301  26.157  28.005  1.00  0.00     0.031 A 
ATOM     37  C   UNL A   1      42.687  26.427  27.502  1.00  0.00     0.074 A 
ATOM     38  C   UNL A   1      40.588  27.092  28.653  1.00  0.00     0.049 A 
ATOM     39  N   UNL A   1      43.411  27.509  27.611  1.00  0.00    -0.248 NA
ATOM     40  C   UNL A   1      43.349  25.327  26.779  1.00  0.00     0.031 C 
ATOM     41  C   UNL A   1      39.225  26.915  29.151  1.00  0.00     0.029 A 
ATOM     42  N   UNL A   1      40.914  28.374  28.995  1.00  0.00    -0.354 N 
ATOM     43  C   UNL A   1      44.611  27.218  26.976  1.00  0.00     0.074 A 
ATOM     44  C   UNL A   1      44.538  25.850  26.520  1.00  0.00     0.031 C 
ATOM     45  C   UNL A   1      38.827  28.057  29.737  1.00  0.00     0.029 A 
ATOM     46  C   UNL A   1      39.919  29.025  29.679  1.00  0.00     0.049 A 
ATOM     47  H   UNL A   1      41.779  28.791  28.773  1.00  0.00     0.167 HD
ATOM     48  C   UNL A   1      45.672  28.035  26.783  1.00  0.00     0.037 A 
ATOM     49  C   UNL A   1      39.910  30.262  30.208  1.00  0.00     0.037 A 
ATOM     50  C   UNL A   1      45.720  29.397  27.244  1.00  0.00     0.049 A 
ATOM     51  C   UNL A   1      41.125  31.132  30.022  1.00  0.00     0.074 A 
ATOM     52  C   UNL A   1      46.731  30.327  27.090  1.00  0.00     0.029 A 
ATOM     53  N   UNL A   1      44.706  30.019  27.960  1.00  0.00    -0.354 N 
ATOM     54  N   UNL A   1      42.246  30.868  29.393  1.00  0.00    -0.248 NA
ATOM     55  C   UNL A   1      41.070  32.475  30.611  1.00  0.00     0.031 C 
ATOM     56  C   UNL A   1      46.353  31.493  27.764  1.00  0.00     0.029 A 
ATOM     57  C   UNL A   1      45.079  31.313  28.280  1.00  0.00     0.049 A 
ATOM     58  H   UNL A   1      43.847  29.602  28.203  1.00  0.00     0.167 HD
ATOM     59  C   UNL A   1      43.018  32.018  29.485  1.00  0.00     0.074 A 
ATOM     60  C   UNL A   1      42.227  32.988  30.217  1.00  0.00     0.031 C 
ATOM     61  C   UNL A   1      44.266  32.255  29.009  1.00  0.00     0.037 A 
BRANCH  48  62
ATOM     62  C   UNL A   1      46.867  27.469  26.072  1.00  0.00     0.064 A 
ATOM     63  C   UNL A   1      47.034  27.594  24.684  1.00  0.00     0.173 A 
ATOM     64  C   UNL A   1      47.869  26.805  26.795  1.00  0.00     0.173 A 
ATOM     65  F   UNL A   1      46.096  28.202  23.942  1.00  0.00    -0.203 F 
ATOM     66  C   UNL A   1      48.149  27.056  24.045  1.00  0.00     0.198 A 
ATOM     67  C   UNL A   1      48.998  26.295  26.156  1.00  0.00     0.198 A 
ATOM     68  F   UNL A   1      47.758  26.653  28.123  1.00  0.00    -0.203 F 
ATOM     69  F   UNL A   1      48.262  27.144  22.712  1.00  0.00    -0.200 F 
ATOM     70  C   UNL A   1      49.132  26.414  24.782  1.00  0.00     0.200 A 
ATOM     71  F   UNL A   1      49.951  25.685  26.872  1.00  0.00    -0.200 F 
ATOM     72  F   UNL A   1      50.207  25.903  24.166  1.00  0.00    -0.200 F 
ENDBRANCH  48  62
BRANCH  49  73
ATOM     73  C   UNL A   1      38.720  30.739  30.956  1.00  0.00     0.064 A 
ATOM     74  C   UNL A   1      37.618  31.295  30.292  1.00  0.00     0.173 A 
ATOM     75  C   UNL A   1      38.658  30.646  32.355  1.00  0.00     0.173 A 
ATOM     76  F   UNL A   1      37.635  31.420  28.957  1.00  0.00    -0.203 F 
ATOM     77  C   UNL A   1      36.511  31.760  30.998  1.00  0.00     0.198 A 
ATOM     78  C   UNL A   1      37.538  31.083  33.058  1.00  0.00     0.198 A 
ATOM     79  F   UNL A   1      39.683  30.117  33.039  1.00  0.00    -0.203 F 
ATOM     80  F   UNL A   1      35.492  32.330  30.342  1.00  0.00    -0.200 F 
ATOM     81  C   UNL A   1      36.469  31.649  32.380  1.00  0.00     0.200 A 
ATOM     82  F   UNL A   1      37.496  30.958  34.392  1.00  0.00    -0.200 F 
ATOM     83  F   UNL A   1      35.403  32.093  33.059  1.00  0.00    -0.200 F 
ENDBRANCH  49  73
BRANCH  61  84
ATOM     84  C   UNL A   1      44.833  33.627  29.237  1.00  0.00     0.064 A 
ATOM     85  C   UNL A   1      45.617  33.924  30.361  1.00  0.00     0.173 A 
ATOM     86  C   UNL A   1      44.617  34.645  28.297  1.00  0.00     0.173 A 
ATOM     87  F   UNL A   1      45.842  32.988  31.295  1.00  0.00    -0.203 F 
ATOM     88  C   UNL A   1      46.135  35.202  30.552  1.00  0.00     0.198 A 
ATOM     89  C   UNL A   1      45.168  35.911  28.473  1.00  0.00     0.198 A 
ATOM     90  F   UNL A   1      43.883  34.409  27.199  1.00  0.00    -0.203 F 
ATOM     91  F   UNL A   1      46.833  35.480  31.662  1.00  0.00    -0.200 F 
ATOM     92  C   UNL A   1      45.917  36.191  29.605  1.00  0.00     0.200 A 
ATOM     93  F   UNL A   1      44.971  36.860  27.547  1.00  0.00    -0.200 F 
ATOM     94  F   UNL A   1      46.423  37.418  29.787  1.00  0.00    -0.200 F 
ENDBRANCH  61  84
ENDBRANCH  35  36
ENDBRANCH  28  30
ENDBRANCH  27  28
ENDBRANCH  26  27
ENDBRANCH  25  26
ENDBRANCH   1  25
TORSDOF 18
ENDMDL
MODEL 3
REMARK VINA RESULT:     -10.3      1.076      7.392
REMARK SMILES CC[NH2+][C@]1(C(=O)OCCOCCOC(=O)c2ccc(-c3c4nc(c(-c5c(F)c(F)c(F)c(F)c5F)c5ccc([nH]5)c(-c5c(F)c(F)c(F)c(F)c5F)c5nc(c(-c6c(F)c(F)c(F)c(F)c6F)c6ccc3[nH]6)C=C5)C=C4)cc2)CC[C@@H](Sc2ccccc2C)C1
REMARK SMILES IDX 10 1 9 2 8 3 7 4 5 5 6 6 4 7 79 8 90 9 80 10 81 11 3 12 2 15
REMARK SMILES IDX 1 16 82 17 83 18 84 19 88 20 85 21 87 22 89 23 86 24 11 25
REMARK SMILES IDX 12 26 13 27 14 28 15 29 16 30 17 31 78 32 18 33 77 34 19 35
REMARK SMILES IDX 20 36 21 37 71 38 22 39 76 40 70 41 72 42 23 43 75 44 69 45
REMARK SMILES IDX 68 46 24 48 56 49 36 50 55 51 37 52 40 53 54 54 73 55 38 56
REMARK SMILES IDX 39 57 53 59 74 60 41 61 25 62 26 63 34 64 27 65 28 66 32 67
REMARK SMILES IDX 35 68 29 69 30 70 33 71 31 72 57 73 58 74 66 75 59 76 60 77
REMARK SMILES IDX 64 78 67 79 61 80 62 81 65 82 63 83 42 84 43 85 51 86 44 87
REMARK SMILES IDX 45 88 49 89 52 90 46 91 47 92 50 93 48 94
REMARK H PARENT 3 13 3 14 72 47 40 58
REMARK Flexibility Score: inf
ROOT
ATOM      1  O   UNL A   1      37.433  20.507  25.445  1.00  0.00    -0.374 OA
ENDROOT
BRANCH   1   2
ATOM      2  C   UNL A   1      37.372  21.876  25.042  1.00  0.00     0.202 C 
BRANCH   2   3
ATOM      3  C   UNL A   1      36.390  22.787  25.782  1.00  0.00     0.261 C 
BRANCH   3   4
ATOM      4  O   UNL A   1      35.045  22.618  25.295  1.00  0.00    -0.459 OA
BRANCH   4   5
ATOM      5  C   UNL A   1      34.157  22.059  26.171  1.00  0.00     0.368 C 
ATOM      6  O   UNL A   1      34.499  21.409  27.153  1.00  0.00    -0.245 OA
BRANCH   5   7
ATOM      7  C   UNL A   1      32.674  22.393  25.823  1.00  0.00     0.195 C 
ATOM      8  C   UNL A   1      32.032  23.011  27.093  1.00  0.00     0.082 C 
ATOM      9  C   UNL A   1      32.517  23.591  24.856  1.00  0.00     0.096 C 
ATOM     10  C   UNL A   1      30.857  23.870  26.627  1.00  0.00     0.022 C 
ATOM     11  C   UNL A   1      31.115  24.136  25.143  1.00  0.00     0.059 C 
BRANCH   7  12
ATOM     12  N   UNL A   1      31.929  21.161  25.455  1.00  0.00    -0.332 N 
ATOM     13  H   UNL A   1      32.081  20.473  26.193  1.00  0.00     0.347 HD
ATOM     14  H   UNL A   1      30.957  21.454  25.347  1.00  0.00     0.347 HD
BRANCH  12  15
ATOM     15  C   UNL A   1      32.291  20.538  24.182  1.00  0.00     0.257 C 
ATOM     16  C   UNL A   1      32.699  19.091  24.423  1.00  0.00     0.071 C 
ENDBRANCH  12  15
ENDBRANCH   7  12
BRANCH  11  17
ATOM     17  S   UNL A   1      30.699  25.841  24.582  1.00  0.00    -0.122 SA
BRANCH  17  18
ATOM     18  C   UNL A   1      31.740  26.915  25.570  1.00  0.00     0.010 A 
ATOM     19  C   UNL A   1      31.211  27.456  26.751  1.00  0.00     0.015 A 
ATOM     20  C   UNL A   1      33.014  27.340  25.154  1.00  0.00    -0.038 A 
ATOM     21  C   UNL A   1      31.966  28.322  27.550  1.00  0.00     0.001 A 
ATOM     22  C   UNL A   1      33.789  28.157  25.999  1.00  0.00     0.004 A 
ATOM     23  C   UNL A   1      33.628  26.979  23.837  1.00  0.00     0.045 C 
ATOM     24  C   UNL A   1      33.269  28.645  27.192  1.00  0.00     0.000 A 
ENDBRANCH  17  18
ENDBRANCH  11  17
ENDBRANCH   5   7
ENDBRANCH   4   5
ENDBRANCH   3   4
ENDBRANCH   2   3
ENDBRANCH   1   2
BRANCH   1  25
ATOM     25  C   UNL A   1      38.531  19.733  24.982  1.00  0.00     0.202 C 
BRANCH  25  26
ATOM     26  C   UNL A   1      39.693  19.482  25.950  1.00  0.00     0.261 C 
BRANCH  26  27
ATOM     27  O   UNL A   1      40.973  19.465  25.342  1.00  0.00    -0.460 OA
BRANCH  27  28
ATOM     28  C   UNL A   1      41.988  19.555  26.225  1.00  0.00     0.338 C 
ATOM     29  O   UNL A   1      42.789  18.698  26.559  1.00  0.00    -0.246 OA
BRANCH  28  30
ATOM     30  C   UNL A   1      42.063  20.953  26.637  1.00  0.00     0.060 A 
ATOM     31  C   UNL A   1      42.019  21.923  25.632  1.00  0.00     0.016 A 
ATOM     32  C   UNL A   1      42.176  21.292  27.989  1.00  0.00     0.016 A 
ATOM     33  C   UNL A   1      42.158  23.255  25.978  1.00  0.00     0.010 A 
ATOM     34  C   UNL A   1      42.312  22.629  28.334  1.00  0.00     0.010 A 
ATOM     35  C   UNL A   1      42.350  23.604  27.323  1.00  0.00    -0.014 A 
BRANCH  35  36
ATOM     36  C   UNL A   1      42.767  24.980  27.641  1.00  0.00     0.031 A 
ATOM     37  C   UNL A   1      44.177  25.384  27.332  1.00  0.00     0.074 A 
ATOM     38  C   UNL A   1      41.875  25.848  28.141  1.00  0.00     0.049 A 
ATOM     39  N   UNL A   1      44.763  26.539  27.500  1.00  0.00    -0.248 NA
ATOM     40  C   UNL A   1      45.048  24.344  26.756  1.00  0.00     0.031 C 
ATOM     41  C   UNL A   1      40.479  25.539  28.445  1.00  0.00     0.029 A 
ATOM     42  N   UNL A   1      42.014  27.166  28.475  1.00  0.00    -0.354 N 
ATOM     43  C   UNL A   1      46.067  26.364  27.057  1.00  0.00     0.074 A 
ATOM     44  C   UNL A   1      46.202  24.984  26.650  1.00  0.00     0.031 C 
ATOM     45  C   UNL A   1      39.884  26.646  28.921  1.00  0.00     0.029 A 
ATOM     46  C   UNL A   1      40.868  27.723  28.983  1.00  0.00     0.049 A 
ATOM     47  H   UNL A   1      42.855  27.668  28.363  1.00  0.00     0.167 HD
ATOM     48  C   UNL A   1      47.055  27.284  26.985  1.00  0.00     0.037 A 
ATOM     49  C   UNL A   1      40.654  28.964  29.455  1.00  0.00     0.037 A 
ATOM     50  C   UNL A   1      46.895  28.655  27.394  1.00  0.00     0.049 A 
ATOM     51  C   UNL A   1      41.788  29.955  29.411  1.00  0.00     0.074 A 
ATOM     52  C   UNL A   1      47.817  29.683  27.350  1.00  0.00     0.029 A 
ATOM     53  N   UNL A   1      45.728  29.182  27.931  1.00  0.00    -0.354 N 
ATOM     54  N   UNL A   1      43.010  29.797  28.961  1.00  0.00    -0.248 NA
ATOM     55  C   UNL A   1      41.509  31.298  29.932  1.00  0.00     0.031 C 
ATOM     56  C   UNL A   1      47.227  30.818  27.915  1.00  0.00     0.029 A 
ATOM     57  C   UNL A   1      45.916  30.516  28.250  1.00  0.00     0.049 A 
ATOM     58  H   UNL A   1      44.891  28.681  28.065  1.00  0.00     0.167 HD
ATOM     59  C   UNL A   1      43.638  31.025  29.117  1.00  0.00     0.074 A 
ATOM     60  C   UNL A   1      42.653  31.922  29.688  1.00  0.00     0.031 C 
ATOM     61  C   UNL A   1      44.912  31.383  28.816  1.00  0.00     0.037 A 
BRANCH  48  62
ATOM     62  C   UNL A   1      48.393  26.832  26.476  1.00  0.00     0.064 A 
ATOM     63  C   UNL A   1      49.334  26.209  27.311  1.00  0.00     0.173 A 
ATOM     64  C   UNL A   1      48.731  27.007  25.126  1.00  0.00     0.173 A 
ATOM     65  F   UNL A   1      49.069  26.035  28.615  1.00  0.00    -0.203 F 
ATOM     66  C   UNL A   1      50.571  25.802  26.818  1.00  0.00     0.198 A 
ATOM     67  C   UNL A   1      49.957  26.570  24.630  1.00  0.00     0.198 A 
ATOM     68  F   UNL A   1      47.871  27.599  24.285  1.00  0.00    -0.203 F 
ATOM     69  F   UNL A   1      51.473  25.256  27.646  1.00  0.00    -0.200 F 
ATOM     70  C   UNL A   1      50.879  25.975  25.478  1.00  0.00     0.200 A 
ATOM     71  F   UNL A   1      50.247  26.730  23.332  1.00  0.00    -0.200 F 
ATOM     72  F   UNL A   1      52.067  25.577  25.004  1.00  0.00    -0.200 F 
ENDBRANCH  48  62
BRANCH  49  73
ATOM     73  C   UNL A   1      39.324  29.330  30.004  1.00  0.00     0.064 A 
ATOM     74  C   UNL A   1      38.313  29.840  29.181  1.00  0.00     0.173 A 
ATOM     75  C   UNL A   1      39.036  29.172  31.369  1.00  0.00     0.173 A 
ATOM     76  F   UNL A   1      38.544  30.024  27.872  1.00  0.00    -0.203 F 
ATOM     77  C   UNL A   1      37.072  30.201  29.703  1.00  0.00     0.198 A 
ATOM     78  C   UNL A   1      37.786  29.504  31.885  1.00  0.00     0.198 A 
ATOM     79  F   UNL A   1      39.967  28.681  32.200  1.00  0.00    -0.203 F 
ATOM     80  F   UNL A   1      36.139  30.731  28.901  1.00  0.00    -0.200 F 
ATOM     81  C   UNL A   1      36.808  30.027  31.053  1.00  0.00     0.200 A 
ATOM     82  F   UNL A   1      37.530  29.318  33.187  1.00  0.00    -0.200 F 
ATOM     83  F   UNL A   1      35.614  30.370  31.554  1.00  0.00    -0.200 F 
ENDBRANCH  49  73
BRANCH  61  84
ATOM     84  C   UNL A   1      45.296  32.813  29.068  1.00  0.00     0.064 A 
ATOM     85  C   UNL A   1      45.857  33.222  30.286  1.00  0.00     0.173 A 
ATOM     86  C   UNL A   1      45.132  33.776  28.062  1.00  0.00     0.173 A 
ATOM     87  F   UNL A   1      46.023  32.342  31.284  1.00  0.00    -0.203 F 
ATOM     88  C   UNL A   1      46.209  34.553  30.499  1.00  0.00     0.198 A 
ATOM     89  C   UNL A   1      45.519  35.097  28.265  1.00  0.00     0.198 A 
ATOM     90  F   UNL A   1      44.609  33.433  26.875  1.00  0.00    -0.203 F 
ATOM     91  F   UNL A   1      46.690  34.933  31.690  1.00  0.00    -0.200 F 
ATOM     92  C   UNL A   1      46.047  35.486  29.486  1.00  0.00     0.200 A 
ATOM     93  F   UNL A   1      45.378  35.993  27.279  1.00  0.00    -0.200 F 
ATOM     94  F   UNL A   1      46.392  36.764  29.690  1.00  0.00    -0.200 F 
ENDBRANCH  61  84
ENDBRANCH  35  36
ENDBRANCH  28  30
ENDBRANCH  27  28
ENDBRANCH  26  27
ENDBRANCH  25  26
ENDBRANCH   1  25
TORSDOF 18
ENDMDL
