MODEL 1
REMARK VINA RESULT:     -11.1      0.000      0.000
REMARK SMILES CS(=O)(=O)NCCC(=O)N1CCC(Cc2cccc(C(=O)OCCOCCOC(=O)c3ccc(-c4c5nc(c(-c6c(F)c(F)c(F)c(F)c6F)c6ccc([nH]6)c(-c6c(F)c(F)c(F)c(F)c6F)c6nc(c(-c7c(F)c(F)c(F)c(F)c7F)c7ccc4[nH]7)C=C6)C=C5)cc3)c2)CC1
REMARK SMILES IDX 23 1 22 2 20 3 21 4 19 5 15 6 16 7 94 8 17 9 18 10 14 11
REMARK SMILES IDX 13 12 8 13 9 14 10 15 11 16 96 17 12 18 95 19 7 20 6 21 5 22
REMARK SMILES IDX 2 24 1 25 3 26 4 27 24 28 25 29 26 30 27 31 28 32 29 33
REMARK SMILES IDX 30 34 31 35 32 36 93 37 33 38 92 39 34 40 35 41 36 42 86 43
REMARK SMILES IDX 37 44 91 45 85 46 87 47 38 48 90 49 84 50 83 51 39 53 71 54
REMARK SMILES IDX 51 55 70 56 52 57 55 58 69 59 88 60 53 61 54 62 68 64 89 65
REMARK SMILES IDX 56 66 40 67 41 68 49 69 42 70 43 71 47 72 50 73 44 74 45 75
REMARK SMILES IDX 48 76 46 77 72 78 73 79 81 80 74 81 75 82 79 83 82 84 76 85
REMARK SMILES IDX 77 86 80 87 78 88 57 89 58 90 66 91 59 92 60 93 64 94 67 95
REMARK SMILES IDX 61 96 62 97 65 98 63 99
REMARK H PARENT 5 23 87 52 55 63
REMARK Flexibility Score: inf
ROOT
ATOM      1  C   UNL A   1      43.056  19.902  25.898  1.00  0.00     0.261 C 
ENDROOT
BRANCH   1   2
ATOM      2  O   UNL A   1      42.144  20.998  25.746  1.00  0.00    -0.460 OA
BRANCH   2   3
ATOM      3  C   UNL A   1      40.922  20.809  26.305  1.00  0.00     0.338 C 
ATOM      4  O   UNL A   1      40.431  19.745  26.645  1.00  0.00    -0.246 OA
BRANCH   3   5
ATOM      5  C   UNL A   1      40.312  22.122  26.625  1.00  0.00     0.060 A 
ATOM      6  C   UNL A   1      38.512  23.748  26.487  1.00  0.00    -0.047 A 
ATOM      7  C   UNL A   1      39.262  24.624  27.281  1.00  0.00     0.004 A 
ATOM      8  C   UNL A   1      39.068  22.512  26.117  1.00  0.00     0.019 A 
ATOM      9  C   UNL A   1      40.524  24.256  27.746  1.00  0.00     0.001 A 
ATOM     10  C   UNL A   1      41.039  23.000  27.436  1.00  0.00     0.016 A 
BRANCH   6  11
ATOM     11  C   UNL A   1      37.094  24.106  26.105  1.00  0.00     0.039 C 
BRANCH  11  12
ATOM     12  C   UNL A   1      36.407  23.012  25.266  1.00  0.00    -0.003 C 
ATOM     13  C   UNL A   1      32.831  21.215  24.280  1.00  0.00     0.223 C 
ATOM     14  O   UNL A   1      32.229  21.216  25.357  1.00  0.00    -0.275 OA
ATOM     15  N   UNL A   1      34.182  21.483  24.222  1.00  0.00    -0.343 N 
ATOM     16  C   UNL A   1      35.049  20.899  25.235  1.00  0.00     0.119 C 
ATOM     17  C   UNL A   1      34.749  22.557  23.424  1.00  0.00     0.119 C 
ATOM     18  C   UNL A   1      35.674  21.964  26.125  1.00  0.00     0.025 C 
ATOM     19  C   UNL A   1      35.404  23.635  24.287  1.00  0.00     0.025 C 
BRANCH  13  20
ATOM     20  C   UNL A   1      32.167  20.607  23.050  1.00  0.00     0.116 C 
BRANCH  20  21
ATOM     21  C   UNL A   1      32.170  19.109  22.816  1.00  0.00     0.108 C 
BRANCH  21  22
ATOM     22  N   UNL A   1      32.643  18.305  23.942  1.00  0.00    -0.215 NA
ATOM     23  H   UNL A   1      32.959  18.979  24.641  1.00  0.00     0.140 HD
BRANCH  22  24
ATOM     24  S   UNL A   1      33.840  17.157  23.865  1.00  0.00     0.208 S 
ATOM     25  C   UNL A   1      33.207  15.865  24.911  1.00  0.00     0.176 C 
ATOM     26  O   UNL A   1      35.046  17.688  24.454  1.00  0.00    -0.213 OA
ATOM     27  O   UNL A   1      33.806  16.681  22.500  1.00  0.00    -0.213 OA
ENDBRANCH  22  24
ENDBRANCH  21  22
ENDBRANCH  20  21
ENDBRANCH  13  20
ENDBRANCH  11  12
ENDBRANCH   6  11
ENDBRANCH   3   5
ENDBRANCH   2   3
ENDBRANCH   1   2
BRANCH   1  28
ATOM     28  C   UNL A   1      44.333  20.128  25.079  1.00  0.00     0.202 C 
BRANCH  28  29
ATOM     29  O   UNL A   1      44.599  21.457  24.635  1.00  0.00    -0.374 OA
BRANCH  29  30
ATOM     30  C   UNL A   1      45.747  22.117  25.168  1.00  0.00     0.202 C 
BRANCH  30  31
ATOM     31  C   UNL A   1      46.245  23.375  24.446  1.00  0.00     0.261 C 
BRANCH  31  32
ATOM     32  O   UNL A   1      45.291  24.451  24.487  1.00  0.00    -0.460 OA
BRANCH  32  33
ATOM     33  C   UNL A   1      45.799  25.623  24.934  1.00  0.00     0.338 C 
ATOM     34  O   UNL A   1      46.820  26.180  24.568  1.00  0.00    -0.246 OA
BRANCH  33  35
ATOM     35  C   UNL A   1      44.843  26.268  25.852  1.00  0.00     0.060 A 
ATOM     36  C   UNL A   1      44.845  27.668  25.901  1.00  0.00     0.016 A 
ATOM     37  C   UNL A   1      44.031  25.526  26.711  1.00  0.00     0.016 A 
ATOM     38  C   UNL A   1      44.083  28.332  26.857  1.00  0.00     0.010 A 
ATOM     39  C   UNL A   1      43.268  26.196  27.674  1.00  0.00     0.010 A 
ATOM     40  C   UNL A   1      43.325  27.598  27.779  1.00  0.00    -0.014 A 
BRANCH  40  41
ATOM     41  C   UNL A   1      42.720  28.297  28.939  1.00  0.00     0.031 A 
ATOM     42  C   UNL A   1      43.492  28.381  30.227  1.00  0.00     0.074 A 
ATOM     43  C   UNL A   1      41.518  28.889  28.831  1.00  0.00     0.049 A 
ATOM     44  N   UNL A   1      43.153  28.930  31.366  1.00  0.00    -0.248 NA
ATOM     45  C   UNL A   1      44.825  27.759  30.233  1.00  0.00     0.031 C 
ATOM     46  C   UNL A   1      40.692  28.906  27.626  1.00  0.00     0.029 A 
ATOM     47  N   UNL A   1      40.783  29.588  29.755  1.00  0.00    -0.354 N 
ATOM     48  C   UNL A   1      44.225  28.712  32.224  1.00  0.00     0.074 A 
ATOM     49  C   UNL A   1      45.209  27.950  31.488  1.00  0.00     0.031 C 
ATOM     50  C   UNL A   1      39.559  29.579  27.885  1.00  0.00     0.029 A 
ATOM     51  C   UNL A   1      39.567  30.011  29.281  1.00  0.00     0.049 A 
ATOM     52  H   UNL A   1      41.099  29.770  30.670  1.00  0.00     0.167 HD
ATOM     53  C   UNL A   1      44.378  29.123  33.506  1.00  0.00     0.037 A 
ATOM     54  C   UNL A   1      38.566  30.655  29.911  1.00  0.00     0.037 A 
ATOM     55  C   UNL A   1      43.396  29.887  34.234  1.00  0.00     0.049 A 
ATOM     56  C   UNL A   1      38.735  31.046  31.357  1.00  0.00     0.074 A 
ATOM     57  C   UNL A   1      43.465  30.370  35.529  1.00  0.00     0.029 A 
ATOM     58  N   UNL A   1      42.162  30.272  33.729  1.00  0.00    -0.354 N 
ATOM     59  N   UNL A   1      39.760  30.862  32.153  1.00  0.00    -0.248 NA
ATOM     60  C   UNL A   1      37.607  31.744  31.989  1.00  0.00     0.031 C 
ATOM     61  C   UNL A   1      42.250  30.992  35.830  1.00  0.00     0.029 A 
ATOM     62  C   UNL A   1      41.449  30.960  34.699  1.00  0.00     0.049 A 
ATOM     63  H   UNL A   1      41.840  30.083  32.818  1.00  0.00     0.167 HD
ATOM     64  C   UNL A   1      39.416  31.448  33.365  1.00  0.00     0.074 A 
ATOM     65  C   UNL A   1      38.092  32.007  33.193  1.00  0.00     0.031 C 
ATOM     66  C   UNL A   1      40.133  31.518  34.515  1.00  0.00     0.037 A 
BRANCH  53  67
ATOM     67  C   UNL A   1      45.641  28.729  34.218  1.00  0.00     0.064 A 
ATOM     68  C   UNL A   1      45.745  27.528  34.937  1.00  0.00     0.173 A 
ATOM     69  C   UNL A   1      46.777  29.550  34.150  1.00  0.00     0.173 A 
ATOM     70  F   UNL A   1      44.686  26.713  35.045  1.00  0.00    -0.203 F 
ATOM     71  C   UNL A   1      46.929  27.179  35.583  1.00  0.00     0.198 A 
ATOM     72  C   UNL A   1      47.969  29.182  34.769  1.00  0.00     0.198 A 
ATOM     73  F   UNL A   1      46.736  30.708  33.473  1.00  0.00    -0.203 F 
ATOM     74  F   UNL A   1      46.988  26.052  36.306  1.00  0.00    -0.200 F 
ATOM     75  C   UNL A   1      48.041  28.002  35.492  1.00  0.00     0.200 A 
ATOM     76  F   UNL A   1      49.047  29.971  34.667  1.00  0.00    -0.200 F 
ATOM     77  F   UNL A   1      49.182  27.659  36.106  1.00  0.00    -0.200 F 
ENDBRANCH  53  67
BRANCH  54  78
ATOM     78  C   UNL A   1      37.308  30.966  29.181  1.00  0.00     0.064 A 
ATOM     79  C   UNL A   1      36.342  29.977  28.945  1.00  0.00     0.173 A 
ATOM     80  C   UNL A   1      37.057  32.254  28.684  1.00  0.00     0.173 A 
ATOM     81  F   UNL A   1      36.549  28.724  29.376  1.00  0.00    -0.203 F 
ATOM     82  C   UNL A   1      35.186  30.259  28.220  1.00  0.00     0.198 A 
ATOM     83  C   UNL A   1      35.885  32.543  27.988  1.00  0.00     0.198 A 
ATOM     84  F   UNL A   1      37.951  33.234  28.877  1.00  0.00    -0.203 F 
ATOM     85  F   UNL A   1      34.307  29.282  27.960  1.00  0.00    -0.200 F 
ATOM     86  C   UNL A   1      34.955  31.542  27.748  1.00  0.00     0.200 A 
ATOM     87  F   UNL A   1      35.663  33.785  27.539  1.00  0.00    -0.200 F 
ATOM     88  F   UNL A   1      33.843  31.812  27.051  1.00  0.00    -0.200 F 
ENDBRANCH  54  78
BRANCH  66  89
ATOM     89  C   UNL A   1      39.520  32.268  35.665  1.00  0.00     0.064 A 
ATOM     90  C   UNL A   1      39.757  33.635  35.872  1.00  0.00     0.173 A 
ATOM     91  C   UNL A   1      38.662  31.611  36.561  1.00  0.00     0.173 A 
ATOM     92  F   UNL A   1      40.579  34.308  35.053  1.00  0.00    -0.203 F 
ATOM     93  C   UNL A   1      39.189  34.306  36.952  1.00  0.00     0.198 A 
ATOM     94  C   UNL A   1      38.066  32.294  37.618  1.00  0.00     0.198 A 
ATOM     95  F   UNL A   1      38.391  30.306  36.406  1.00  0.00    -0.203 F 
ATOM     96  F   UNL A   1      39.480  35.597  37.164  1.00  0.00    -0.200 F 
ATOM     97  C   UNL A   1      38.339  33.638  37.820  1.00  0.00     0.200 A 
ATOM     98  F   UNL A   1      37.229  31.650  38.444  1.00  0.00    -0.200 F 
ATOM     99  F   UNL A   1      37.791  34.287  38.856  1.00  0.00    -0.200 F 
ENDBRANCH  66  89
ENDBRANCH  40  41
ENDBRANCH  33  35
ENDBRANCH  32  33
ENDBRANCH  31  32
ENDBRANCH  30  31
ENDBRANCH  29  30
ENDBRANCH  28  29
ENDBRANCH   1  28
TORSDOF 20
ENDMDL
MODEL 2
REMARK VINA RESULT:     -10.6      1.192      7.217
REMARK SMILES CS(=O)(=O)NCCC(=O)N1CCC(Cc2cccc(C(=O)OCCOCCOC(=O)c3ccc(-c4c5nc(c(-c6c(F)c(F)c(F)c(F)c6F)c6ccc([nH]6)c(-c6c(F)c(F)c(F)c(F)c6F)c6nc(c(-c7c(F)c(F)c(F)c(F)c7F)c7ccc4[nH]7)C=C6)C=C5)cc3)c2)CC1
REMARK SMILES IDX 23 1 22 2 20 3 21 4 19 5 15 6 16 7 94 8 17 9 18 10 14 11
REMARK SMILES IDX 13 12 8 13 9 14 10 15 11 16 96 17 12 18 95 19 7 20 6 21 5 22
REMARK SMILES IDX 2 24 1 25 3 26 4 27 24 28 25 29 26 30 27 31 28 32 29 33
REMARK SMILES IDX 30 34 31 35 32 36 93 37 33 38 92 39 34 40 35 41 36 42 86 43
REMARK SMILES IDX 37 44 91 45 85 46 87 47 38 48 90 49 84 50 83 51 39 53 71 54
REMARK SMILES IDX 51 55 70 56 52 57 55 58 69 59 88 60 53 61 54 62 68 64 89 65
REMARK SMILES IDX 56 66 40 67 41 68 49 69 42 70 43 71 47 72 50 73 44 74 45 75
REMARK SMILES IDX 48 76 46 77 72 78 73 79 81 80 74 81 75 82 79 83 82 84 76 85
REMARK SMILES IDX 77 86 80 87 78 88 57 89 58 90 66 91 59 92 60 93 64 94 67 95
REMARK SMILES IDX 61 96 62 97 65 98 63 99
REMARK H PARENT 5 23 87 52 55 63
REMARK Flexibility Score: inf
ROOT
ATOM      1  C   UNL A   1      42.953  20.126  25.853  1.00  0.00     0.261 C 
ENDROOT
BRANCH   1   2
ATOM      2  O   UNL A   1      42.175  21.069  26.603  1.00  0.00    -0.460 OA
BRANCH   2   3
ATOM      3  C   UNL A   1      40.831  20.911  26.504  1.00  0.00     0.338 C 
ATOM      4  O   UNL A   1      40.227  19.859  26.380  1.00  0.00    -0.246 OA
BRANCH   3   5
ATOM      5  C   UNL A   1      40.157  22.209  26.753  1.00  0.00     0.060 A 
ATOM      6  C   UNL A   1      38.311  23.763  26.470  1.00  0.00    -0.047 A 
ATOM      7  C   UNL A   1      38.984  24.686  27.282  1.00  0.00     0.004 A 
ATOM      8  C   UNL A   1      38.931  22.539  26.166  1.00  0.00     0.019 A 
ATOM      9  C   UNL A   1      40.229  24.377  27.826  1.00  0.00     0.001 A 
ATOM     10  C   UNL A   1      40.806  23.133  27.579  1.00  0.00     0.016 A 
BRANCH   6  11
ATOM     11  C   UNL A   1      36.906  24.058  26.001  1.00  0.00     0.039 C 
BRANCH  11  12
ATOM     12  C   UNL A   1      36.268  22.877  25.245  1.00  0.00    -0.003 C 
ATOM     13  C   UNL A   1      32.772  20.868  24.388  1.00  0.00     0.223 C 
ATOM     14  O   UNL A   1      32.164  20.928  25.460  1.00  0.00    -0.275 OA
ATOM     15  N   UNL A   1      34.111  21.186  24.314  1.00  0.00    -0.343 N 
ATOM     16  C   UNL A   1      34.994  20.715  25.371  1.00  0.00     0.119 C 
ATOM     17  C   UNL A   1      34.640  22.217  23.438  1.00  0.00     0.119 C 
ATOM     18  C   UNL A   1      35.572  21.869  26.180  1.00  0.00     0.025 C 
ATOM     19  C   UNL A   1      35.247  23.383  24.219  1.00  0.00     0.025 C 
BRANCH  13  20
ATOM     20  C   UNL A   1      32.141  20.143  23.206  1.00  0.00     0.116 C 
BRANCH  20  21
ATOM     21  C   UNL A   1      32.423  18.676  22.943  1.00  0.00     0.108 C 
BRANCH  21  22
ATOM     22  N   UNL A   1      32.956  17.932  24.084  1.00  0.00    -0.215 NA
ATOM     23  H   UNL A   1      33.595  18.576  24.551  1.00  0.00     0.140 HD
BRANCH  22  24
ATOM     24  S   UNL A   1      33.772  16.490  23.990  1.00  0.00     0.208 S 
ATOM     25  C   UNL A   1      35.161  16.759  25.067  1.00  0.00     0.176 C 
ATOM     26  O   UNL A   1      34.254  16.304  22.641  1.00  0.00    -0.213 OA
ATOM     27  O   UNL A   1      32.897  15.529  24.623  1.00  0.00    -0.213 OA
ENDBRANCH  22  24
ENDBRANCH  21  22
ENDBRANCH  20  21
ENDBRANCH  13  20
ENDBRANCH  11  12
ENDBRANCH   6  11
ENDBRANCH   3   5
ENDBRANCH   2   3
ENDBRANCH   1   2
BRANCH   1  28
ATOM     28  C   UNL A   1      44.215  20.782  25.279  1.00  0.00     0.202 C 
BRANCH  28  29
ATOM     29  O   UNL A   1      44.049  22.006  24.565  1.00  0.00    -0.374 OA
BRANCH  29  30
ATOM     30  C   UNL A   1      45.184  22.531  23.876  1.00  0.00     0.202 C 
BRANCH  30  31
ATOM     31  C   UNL A   1      45.909  23.725  24.508  1.00  0.00     0.261 C 
BRANCH  31  32
ATOM     32  O   UNL A   1      45.085  24.445  25.441  1.00  0.00    -0.460 OA
BRANCH  32  33
ATOM     33  C   UNL A   1      45.499  24.357  26.727  1.00  0.00     0.338 C 
ATOM     34  O   UNL A   1      46.514  23.829  27.147  1.00  0.00    -0.246 OA
BRANCH  33  35
ATOM     35  C   UNL A   1      44.616  25.155  27.595  1.00  0.00     0.060 A 
ATOM     36  C   UNL A   1      44.646  26.546  27.436  1.00  0.00     0.016 A 
ATOM     37  C   UNL A   1      43.847  24.570  28.603  1.00  0.00     0.016 A 
ATOM     38  C   UNL A   1      43.959  27.364  28.329  1.00  0.00     0.010 A 
ATOM     39  C   UNL A   1      43.160  25.393  29.501  1.00  0.00     0.010 A 
ATOM     40  C   UNL A   1      43.249  26.794  29.394  1.00  0.00    -0.014 A 
BRANCH  40  41
ATOM     41  C   UNL A   1      42.733  27.671  30.472  1.00  0.00     0.031 A 
ATOM     42  C   UNL A   1      41.440  28.410  30.261  1.00  0.00     0.074 A 
ATOM     43  C   UNL A   1      43.386  27.772  31.643  1.00  0.00     0.049 A 
ATOM     44  N   UNL A   1      40.812  29.236  31.060  1.00  0.00    -0.248 NA
ATOM     45  C   UNL A   1      40.763  28.189  28.974  1.00  0.00     0.031 C 
ATOM     46  C   UNL A   1      44.628  27.079  31.979  1.00  0.00     0.029 A 
ATOM     47  N   UNL A   1      43.092  28.504  32.767  1.00  0.00    -0.354 N 
ATOM     48  C   UNL A   1      39.676  29.639  30.369  1.00  0.00     0.074 A 
ATOM     49  C   UNL A   1      39.717  28.998  29.073  1.00  0.00     0.031 C 
ATOM     50  C   UNL A   1      44.994  27.422  33.225  1.00  0.00     0.029 A 
ATOM     51  C   UNL A   1      44.031  28.382  33.761  1.00  0.00     0.049 A 
ATOM     52  H   UNL A   1      42.285  29.061  32.852  1.00  0.00     0.167 HD
ATOM     53  C   UNL A   1      38.682  30.461  30.785  1.00  0.00     0.037 A 
ATOM     54  C   UNL A   1      44.112  28.993  34.958  1.00  0.00     0.037 A 
ATOM     55  C   UNL A   1      38.643  31.094  32.078  1.00  0.00     0.049 A 
ATOM     56  C   UNL A   1      43.025  29.953  35.372  1.00  0.00     0.074 A 
ATOM     57  C   UNL A   1      37.669  31.926  32.603  1.00  0.00     0.029 A 
ATOM     58  N   UNL A   1      39.628  30.970  33.049  1.00  0.00    -0.354 N 
ATOM     59  N   UNL A   1      41.940  30.308  34.726  1.00  0.00    -0.248 NA
ATOM     60  C   UNL A   1      43.172  30.590  36.687  1.00  0.00     0.031 C 
ATOM     61  C   UNL A   1      38.094  32.355  33.864  1.00  0.00     0.029 A 
ATOM     62  C   UNL A   1      39.298  31.735  34.157  1.00  0.00     0.049 A 
ATOM     63  H   UNL A   1      40.439  30.420  32.962  1.00  0.00     0.167 HD
ATOM     64  C   UNL A   1      41.260  31.179  35.568  1.00  0.00     0.074 A 
ATOM     65  C   UNL A   1      42.049  31.287  36.777  1.00  0.00     0.031 C 
ATOM     66  C   UNL A   1      40.089  31.830  35.358  1.00  0.00     0.037 A 
BRANCH  53  67
ATOM     67  C   UNL A   1      37.567  30.748  29.819  1.00  0.00     0.064 A 
ATOM     68  C   UNL A   1      37.468  31.973  29.142  1.00  0.00     0.173 A 
ATOM     69  C   UNL A   1      36.601  29.769  29.542  1.00  0.00     0.173 A 
ATOM     70  F   UNL A   1      38.357  32.949  29.379  1.00  0.00    -0.203 F 
ATOM     71  C   UNL A   1      36.431  32.216  28.245  1.00  0.00     0.198 A 
ATOM     72  C   UNL A   1      35.584  30.003  28.620  1.00  0.00     0.198 A 
ATOM     73  F   UNL A   1      36.648  28.578  30.158  1.00  0.00    -0.203 F 
ATOM     74  F   UNL A   1      36.328  33.412  27.649  1.00  0.00    -0.200 F 
ATOM     75  C   UNL A   1      35.494  31.229  27.979  1.00  0.00     0.200 A 
ATOM     76  F   UNL A   1      34.689  29.041  28.353  1.00  0.00    -0.200 F 
ATOM     77  F   UNL A   1      34.502  31.461  27.109  1.00  0.00    -0.200 F 
ENDBRANCH  53  67
BRANCH  54  78
ATOM     78  C   UNL A   1      45.270  28.725  35.852  1.00  0.00     0.064 A 
ATOM     79  C   UNL A   1      45.200  27.749  36.856  1.00  0.00     0.173 A 
ATOM     80  C   UNL A   1      46.461  29.455  35.735  1.00  0.00     0.173 A 
ATOM     81  F   UNL A   1      44.072  27.043  37.027  1.00  0.00    -0.203 F 
ATOM     82  C   UNL A   1      46.269  27.531  37.723  1.00  0.00     0.198 A 
ATOM     83  C   UNL A   1      47.542  29.214  36.581  1.00  0.00     0.198 A 
ATOM     84  F   UNL A   1      46.578  30.404  34.794  1.00  0.00    -0.203 F 
ATOM     85  F   UNL A   1      46.154  26.633  38.711  1.00  0.00    -0.200 F 
ATOM     86  C   UNL A   1      47.441  28.259  37.581  1.00  0.00     0.200 A 
ATOM     87  F   UNL A   1      48.674  29.914  36.436  1.00  0.00    -0.200 F 
ATOM     88  F   UNL A   1      48.468  28.049  38.415  1.00  0.00    -0.200 F 
ENDBRANCH  54  78
BRANCH  66  89
ATOM     89  C   UNL A   1      39.562  32.681  36.481  1.00  0.00     0.064 A 
ATOM     90  C   UNL A   1      38.551  32.230  37.343  1.00  0.00     0.173 A 
ATOM     91  C   UNL A   1      40.095  33.960  36.710  1.00  0.00     0.173 A 
ATOM     92  F   UNL A   1      37.999  31.021  37.162  1.00  0.00    -0.203 F 
ATOM     93  C   UNL A   1      38.070  33.040  38.368  1.00  0.00     0.198 A 
ATOM     94  C   UNL A   1      39.637  34.752  37.759  1.00  0.00     0.198 A 
ATOM     95  F   UNL A   1      41.070  34.438  35.922  1.00  0.00    -0.203 F 
ATOM     96  F   UNL A   1      37.061  32.611  39.141  1.00  0.00    -0.200 F 
ATOM     97  C   UNL A   1      38.616  34.297  38.580  1.00  0.00     0.200 A 
ATOM     98  F   UNL A   1      40.180  35.958  37.973  1.00  0.00    -0.200 F 
ATOM     99  F   UNL A   1      38.153  35.073  39.570  1.00  0.00    -0.200 F 
ENDBRANCH  66  89
ENDBRANCH  40  41
ENDBRANCH  33  35
ENDBRANCH  32  33
ENDBRANCH  31  32
ENDBRANCH  30  31
ENDBRANCH  29  30
ENDBRANCH  28  29
ENDBRANCH   1  28
TORSDOF 20
ENDMDL
MODEL 3
REMARK VINA RESULT:     -10.4      1.462      2.404
REMARK SMILES CS(=O)(=O)NCCC(=O)N1CCC(Cc2cccc(C(=O)OCCOCCOC(=O)c3ccc(-c4c5nc(c(-c6c(F)c(F)c(F)c(F)c6F)c6ccc([nH]6)c(-c6c(F)c(F)c(F)c(F)c6F)c6nc(c(-c7c(F)c(F)c(F)c(F)c7F)c7ccc4[nH]7)C=C6)C=C5)cc3)c2)CC1
REMARK SMILES IDX 23 1 22 2 20 3 21 4 19 5 15 6 16 7 94 8 17 9 18 10 14 11
REMARK SMILES IDX 13 12 8 13 9 14 10 15 11 16 96 17 12 18 95 19 7 20 6 21 5 22
REMARK SMILES IDX 2 24 1 25 3 26 4 27 24 28 25 29 26 30 27 31 28 32 29 33
REMARK SMILES IDX 30 34 31 35 32 36 93 37 33 38 92 39 34 40 35 41 36 42 86 43
REMARK SMILES IDX 37 44 91 45 85 46 87 47 38 48 90 49 84 50 83 51 39 53 71 54
REMARK SMILES IDX 51 55 70 56 52 57 55 58 69 59 88 60 53 61 54 62 68 64 89 65
REMARK SMILES IDX 56 66 40 67 41 68 49 69 42 70 43 71 47 72 50 73 44 74 45 75
REMARK SMILES IDX 48 76 46 77 72 78 73 79 81 80 74 81 75 82 79 83 82 84 76 85
REMARK SMILES IDX 77 86 80 87 78 88 57 89 58 90 66 91 59 92 60 93 64 94 67 95
REMARK SMILES IDX 61 96 62 97 65 98 63 99
REMARK H PARENT 5 23 87 52 55 63
REMARK Flexibility Score: inf
ROOT
ATOM      1  C   UNL A   1      43.134  19.764  25.943  1.00  0.00     0.261 C 
ENDROOT
BRANCH   1   2
ATOM      2  O   UNL A   1      42.339  20.577  26.818  1.00  0.00    -0.460 OA
BRANCH   2   3
ATOM      3  C   UNL A   1      41.013  20.605  26.527  1.00  0.00     0.338 C 
ATOM      4  O   UNL A   1      40.291  19.645  26.322  1.00  0.00    -0.246 OA
BRANCH   3   5
ATOM      5  C   UNL A   1      40.501  21.990  26.671  1.00  0.00     0.060 A 
ATOM      6  C   UNL A   1      38.799  23.696  26.363  1.00  0.00    -0.047 A 
ATOM      7  C   UNL A   1      39.640  24.626  26.988  1.00  0.00     0.004 A 
ATOM      8  C   UNL A   1      39.260  22.384  26.161  1.00  0.00     0.019 A 
ATOM      9  C   UNL A   1      40.898  24.245  27.452  1.00  0.00     0.001 A 
ATOM     10  C   UNL A   1      41.320  22.925  27.312  1.00  0.00     0.016 A 
BRANCH   6  11
ATOM     11  C   UNL A   1      37.389  24.089  25.990  1.00  0.00     0.039 C 
BRANCH  11  12
ATOM     12  C   UNL A   1      36.650  22.989  25.205  1.00  0.00    -0.003 C 
ATOM     13  C   UNL A   1      33.269  20.639  24.993  1.00  0.00     0.223 C 
ATOM     14  O   UNL A   1      33.045  20.391  26.180  1.00  0.00    -0.275 OA
ATOM     15  N   UNL A   1      34.474  21.180  24.596  1.00  0.00    -0.343 N 
ATOM     16  C   UNL A   1      35.695  20.664  25.196  1.00  0.00     0.119 C 
ATOM     17  C   UNL A   1      34.586  22.433  23.870  1.00  0.00     0.119 C 
ATOM     18  C   UNL A   1      36.398  21.718  26.041  1.00  0.00     0.025 C 
ATOM     19  C   UNL A   1      35.306  23.510  24.683  1.00  0.00     0.025 C 
BRANCH  13  20
ATOM     20  C   UNL A   1      32.353  20.064  23.920  1.00  0.00     0.116 C 
BRANCH  20  21
ATOM     21  C   UNL A   1      32.471  18.616  23.482  1.00  0.00     0.108 C 
BRANCH  21  22
ATOM     22  N   UNL A   1      33.068  17.716  24.467  1.00  0.00    -0.215 NA
ATOM     23  H   UNL A   1      33.811  18.257  24.912  1.00  0.00     0.140 HD
BRANCH  22  24
ATOM     24  S   UNL A   1      33.744  16.238  24.128  1.00  0.00     0.208 S 
ATOM     25  C   UNL A   1      35.153  16.197  25.213  1.00  0.00     0.176 C 
ATOM     26  O   UNL A   1      34.205  16.228  22.760  1.00  0.00    -0.213 OA
ATOM     27  O   UNL A   1      32.782  15.273  24.612  1.00  0.00    -0.213 OA
ENDBRANCH  22  24
ENDBRANCH  21  22
ENDBRANCH  20  21
ENDBRANCH  13  20
ENDBRANCH  11  12
ENDBRANCH   6  11
ENDBRANCH   3   5
ENDBRANCH   2   3
ENDBRANCH   1   2
BRANCH   1  28
ATOM     28  C   UNL A   1      44.146  20.615  25.166  1.00  0.00     0.202 C 
BRANCH  28  29
ATOM     29  O   UNL A   1      43.664  21.812  24.556  1.00  0.00    -0.374 OA
BRANCH  29  30
ATOM     30  C   UNL A   1      44.619  22.669  23.931  1.00  0.00     0.202 C 
BRANCH  30  31
ATOM     31  C   UNL A   1      44.920  24.012  24.607  1.00  0.00     0.261 C 
BRANCH  31  32
ATOM     32  O   UNL A   1      44.289  24.139  25.893  1.00  0.00    -0.460 OA
BRANCH  32  33
ATOM     33  C   UNL A   1      45.090  23.821  26.937  1.00  0.00     0.338 C 
ATOM     34  O   UNL A   1      45.976  22.985  26.966  1.00  0.00    -0.246 OA
BRANCH  33  35
ATOM     35  C   UNL A   1      44.866  24.762  28.048  1.00  0.00     0.060 A 
ATOM     36  C   UNL A   1      44.168  24.283  29.164  1.00  0.00     0.016 A 
ATOM     37  C   UNL A   1      45.244  26.104  27.966  1.00  0.00     0.016 A 
ATOM     38  C   UNL A   1      43.785  25.160  30.174  1.00  0.00     0.010 A 
ATOM     39  C   UNL A   1      44.857  26.984  28.982  1.00  0.00     0.010 A 
ATOM     40  C   UNL A   1      44.088  26.524  30.068  1.00  0.00    -0.014 A 
BRANCH  40  41
ATOM     41  C   UNL A   1      43.467  27.480  31.016  1.00  0.00     0.031 A 
ATOM     42  C   UNL A   1      44.102  27.695  32.363  1.00  0.00     0.074 A 
ATOM     43  C   UNL A   1      42.376  28.182  30.664  1.00  0.00     0.049 A 
ATOM     44  N   UNL A   1      43.724  28.469  33.348  1.00  0.00    -0.248 NA
ATOM     45  C   UNL A   1      45.329  26.930  32.637  1.00  0.00     0.031 C 
ATOM     46  C   UNL A   1      41.692  28.087  29.376  1.00  0.00     0.029 A 
ATOM     47  N   UNL A   1      41.651  29.113  31.364  1.00  0.00    -0.354 N 
ATOM     48  C   UNL A   1      44.659  28.278  34.359  1.00  0.00     0.074 A 
ATOM     49  C   UNL A   1      45.600  27.289  33.884  1.00  0.00     0.031 C 
ATOM     50  C   UNL A   1      40.641  28.924  29.379  1.00  0.00     0.029 A 
ATOM     51  C   UNL A   1      40.561  29.588  30.678  1.00  0.00     0.049 A 
ATOM     52  H   UNL A   1      41.890  29.413  32.271  1.00  0.00     0.167 HD
ATOM     53  C   UNL A   1      44.730  28.885  35.568  1.00  0.00     0.037 A 
ATOM     54  C   UNL A   1      39.598  30.446  31.065  1.00  0.00     0.037 A 
ATOM     55  C   UNL A   1      43.792  29.874  36.035  1.00  0.00     0.049 A 
ATOM     56  C   UNL A   1      39.666  31.059  32.441  1.00  0.00     0.074 A 
ATOM     57  C   UNL A   1      43.790  30.563  37.235  1.00  0.00     0.029 A 
ATOM     58  N   UNL A   1      42.683  30.309  35.323  1.00  0.00    -0.354 N 
ATOM     59  N   UNL A   1      40.566  30.896  33.380  1.00  0.00    -0.248 NA
ATOM     60  C   UNL A   1      38.584  31.984  32.806  1.00  0.00     0.031 C 
ATOM     61  C   UNL A   1      42.647  31.367  37.276  1.00  0.00     0.029 A 
ATOM     62  C   UNL A   1      41.973  31.234  36.072  1.00  0.00     0.049 A 
ATOM     63  H   UNL A   1      42.437  30.004  34.420  1.00  0.00     0.167 HD
ATOM     64  C   UNL A   1      40.180  31.720  34.430  1.00  0.00     0.074 A 
ATOM     65  C   UNL A   1      38.972  32.394  34.004  1.00  0.00     0.031 C 
ATOM     66  C   UNL A   1      40.774  31.904  35.636  1.00  0.00     0.037 A 
BRANCH  53  67
ATOM     67  C   UNL A   1      45.845  28.473  36.488  1.00  0.00     0.064 A 
ATOM     68  C   UNL A   1      45.703  27.417  37.401  1.00  0.00     0.173 A 
ATOM     69  C   UNL A   1      47.087  29.125  36.431  1.00  0.00     0.173 A 
ATOM     70  F   UNL A   1      44.534  26.769  37.506  1.00  0.00    -0.203 F 
ATOM     71  C   UNL A   1      46.752  27.047  38.239  1.00  0.00     0.198 A 
ATOM     72  C   UNL A   1      48.144  28.731  37.247  1.00  0.00     0.198 A 
ATOM     73  F   UNL A   1      47.280  30.140  35.574  1.00  0.00    -0.203 F 
ATOM     74  F   UNL A   1      46.577  26.069  39.139  1.00  0.00    -0.200 F 
ATOM     75  C   UNL A   1      47.974  27.699  38.157  1.00  0.00     0.200 A 
ATOM     76  F   UNL A   1      49.328  29.352  37.154  1.00  0.00    -0.200 F 
ATOM     77  F   UNL A   1      48.985  27.336  38.957  1.00  0.00    -0.200 F 
ENDBRANCH  53  67
BRANCH  54  78
ATOM     78  C   UNL A   1      38.479  30.772  30.142  1.00  0.00     0.064 A 
ATOM     79  C   UNL A   1      38.397  32.023  29.514  1.00  0.00     0.173 A 
ATOM     80  C   UNL A   1      37.455  29.848  29.887  1.00  0.00     0.173 A 
ATOM     81  F   UNL A   1      39.337  32.951  29.747  1.00  0.00    -0.203 F 
ATOM     82  C   UNL A   1      37.324  32.344  28.685  1.00  0.00     0.198 A 
ATOM     83  C   UNL A   1      36.399  30.157  29.033  1.00  0.00     0.198 A 
ATOM     84  F   UNL A   1      37.483  28.639  30.468  1.00  0.00    -0.203 F 
ATOM     85  F   UNL A   1      37.241  33.566  28.143  1.00  0.00    -0.200 F 
ATOM     86  C   UNL A   1      36.330  31.409  28.440  1.00  0.00     0.200 A 
ATOM     87  F   UNL A   1      35.444  29.249  28.794  1.00  0.00    -0.200 F 
ATOM     88  F   UNL A   1      35.297  31.718  27.644  1.00  0.00    -0.200 F 
ENDBRANCH  54  78
BRANCH  66  89
ATOM     89  C   UNL A   1      40.152  32.909  36.566  1.00  0.00     0.064 A 
ATOM     90  C   UNL A   1      39.028  32.602  37.347  1.00  0.00     0.173 A 
ATOM     91  C   UNL A   1      40.707  34.192  36.694  1.00  0.00     0.173 A 
ATOM     92  F   UNL A   1      38.451  31.395  37.254  1.00  0.00    -0.203 F 
ATOM     93  C   UNL A   1      38.461  33.553  38.192  1.00  0.00     0.198 A 
ATOM     94  C   UNL A   1      40.160  35.127  37.568  1.00  0.00     0.198 A 
ATOM     95  F   UNL A   1      41.789  34.536  35.979  1.00  0.00    -0.203 F 
ATOM     96  F   UNL A   1      37.351  33.256  38.882  1.00  0.00    -0.200 F 
ATOM     97  C   UNL A   1      39.031  34.812  38.308  1.00  0.00     0.200 A 
ATOM     98  F   UNL A   1      40.724  36.337  37.692  1.00  0.00    -0.200 F 
ATOM     99  F   UNL A   1      38.486  35.723  39.124  1.00  0.00    -0.200 F 
ENDBRANCH  66  89
ENDBRANCH  40  41
ENDBRANCH  33  35
ENDBRANCH  32  33
ENDBRANCH  31  32
ENDBRANCH  30  31
ENDBRANCH  29  30
ENDBRANCH  28  29
ENDBRANCH   1  28
TORSDOF 20
ENDMDL
