MODEL 1
REMARK VINA RESULT:     -10.4      0.000      0.000
REMARK SMILES Cc1cc2c(c(C)c1Br)C=C(C(=O)OCCOCCOC(=O)c1ccc(-c3c4nc(c(-c5c(F)c(F)c(F)c(F)c5F)c5ccc([nH]5)c(-c5c(F)c(F)c(F)c(F)c5F)c5nc(c(-c6c(F)c(F)c(F)c(F)c6F)c6ccc3[nH]6)C=C5)C=C4)cc1)[C@@H](C(F)(F)F)O2
REMARK SMILES IDX 18 1 17 2 16 3 15 4 14 5 12 6 13 7 11 8 1 9 2 10 3 11 8 12
REMARK SMILES IDX 4 13 6 14 9 15 5 16 91 17 7 18 10 19 86 20 87 21 88 22 89 23
REMARK SMILES IDX 90 24 19 25 20 26 21 27 22 28 23 29 24 30 85 31 25 32 84 33
REMARK SMILES IDX 26 34 27 35 28 36 78 37 29 38 83 39 77 40 79 41 30 42 82 43
REMARK SMILES IDX 76 44 75 45 31 47 63 48 43 49 62 50 44 51 47 52 61 53 80 54
REMARK SMILES IDX 45 55 46 56 60 58 81 59 48 60 32 61 33 62 41 63 34 64 35 65
REMARK SMILES IDX 39 66 42 67 36 68 37 69 40 70 38 71 64 72 65 73 73 74 66 75
REMARK SMILES IDX 67 76 71 77 74 78 68 79 69 80 72 81 70 82 49 83 50 84 58 85
REMARK SMILES IDX 51 86 52 87 56 88 59 89 53 90 54 91 57 92 55 93
REMARK H PARENT 79 46 47 57
REMARK Flexibility Score: inf
ROOT
ATOM      1  C   UNL A   1      33.442  35.216  28.680  1.00  0.00     0.202 C 
ENDROOT
BRANCH   1   2
ATOM      2  O   UNL A   1      32.502  35.153  29.755  1.00  0.00    -0.374 OA
BRANCH   2   3
ATOM      3  C   UNL A   1      32.655  36.077  30.829  1.00  0.00     0.202 C 
BRANCH   3   4
ATOM      4  C   UNL A   1      32.831  35.479  32.227  1.00  0.00     0.261 C 
BRANCH   4   5
ATOM      5  O   UNL A   1      34.208  35.488  32.633  1.00  0.00    -0.460 OA
BRANCH   5   6
ATOM      6  C   UNL A   1      34.902  34.378  32.286  1.00  0.00     0.338 C 
ATOM      7  O   UNL A   1      34.462  33.384  31.730  1.00  0.00    -0.246 OA
BRANCH   6   8
ATOM      8  C   UNL A   1      36.335  34.572  32.569  1.00  0.00     0.087 C 
ATOM      9  C   UNL A   1      42.762  34.025  32.662  1.00  0.00     0.046 C 
ATOM     10  C   UNL A   1      41.332  34.260  32.252  1.00  0.00    -0.033 A 
ATOM     11  C   UNL A   1      40.410  34.497  33.283  1.00  0.00     0.051 A 
ATOM     12  C   UNL A   1      40.877  34.282  30.917  1.00  0.00     0.024 A 
ATOM     13  C   UNL A   1      39.053  34.642  33.015  1.00  0.00     0.128 A 
ATOM     14  C   UNL A   1      39.501  34.448  30.623  1.00  0.00    -0.026 A 
ATOM     15  Br  UNL A   1      42.148  34.071  29.501  1.00  0.00    -0.050 Br
ATOM     16  C   UNL A   1      38.585  34.571  31.701  1.00  0.00     0.021 A 
ATOM     17  O   UNL A   1      38.261  34.852  34.110  1.00  0.00    -0.475 OA
ATOM     18  C   UNL A   1      38.969  34.479  29.207  1.00  0.00     0.046 C 
ATOM     19  C   UNL A   1      37.139  34.548  31.499  1.00  0.00     0.027 C 
ATOM     20  C   UNL A   1      36.821  34.738  33.977  1.00  0.00     0.316 C 
BRANCH  20  21
ATOM     21  C   UNL A   1      36.341  33.617  34.912  1.00  0.00     0.430 C 
ATOM     22  F   UNL A   1      36.763  33.828  36.182  1.00  0.00    -0.167 F 
ATOM     23  F   UNL A   1      34.989  33.551  34.964  1.00  0.00    -0.167 F 
ATOM     24  F   UNL A   1      36.793  32.404  34.528  1.00  0.00    -0.167 F 
ENDBRANCH  20  21
ENDBRANCH   6   8
ENDBRANCH   5   6
ENDBRANCH   4   5
ENDBRANCH   3   4
ENDBRANCH   2   3
ENDBRANCH   1   2
BRANCH   1  25
ATOM     25  C   UNL A   1      33.584  33.966  27.802  1.00  0.00     0.261 C 
BRANCH  25  26
ATOM     26  O   UNL A   1      33.931  32.798  28.570  1.00  0.00    -0.460 OA
BRANCH  26  27
ATOM     27  C   UNL A   1      34.176  31.685  27.839  1.00  0.00     0.338 C 
ATOM     28  O   UNL A   1      33.537  31.265  26.885  1.00  0.00    -0.246 OA
BRANCH  27  29
ATOM     29  C   UNL A   1      35.471  31.106  28.234  1.00  0.00     0.060 A 
ATOM     30  C   UNL A   1      35.477  29.795  28.725  1.00  0.00     0.016 A 
ATOM     31  C   UNL A   1      36.649  31.856  28.191  1.00  0.00     0.016 A 
ATOM     32  C   UNL A   1      36.660  29.238  29.204  1.00  0.00     0.010 A 
ATOM     33  C   UNL A   1      37.834  31.297  28.683  1.00  0.00     0.010 A 
ATOM     34  C   UNL A   1      37.839  29.995  29.214  1.00  0.00    -0.014 A 
BRANCH  34  35
ATOM     35  C   UNL A   1      39.048  29.452  29.878  1.00  0.00     0.031 A 
ATOM     36  C   UNL A   1      39.416  29.938  31.252  1.00  0.00     0.074 A 
ATOM     37  C   UNL A   1      39.779  28.495  29.280  1.00  0.00     0.049 A 
ATOM     38  N   UNL A   1      40.413  29.577  32.019  1.00  0.00    -0.248 NA
ATOM     39  C   UNL A   1      38.543  30.966  31.843  1.00  0.00     0.031 C 
ATOM     40  C   UNL A   1      39.497  27.918  27.967  1.00  0.00     0.029 A 
ATOM     41  N   UNL A   1      40.906  27.834  29.704  1.00  0.00    -0.354 N 
ATOM     42  C   UNL A   1      40.279  30.319  33.185  1.00  0.00     0.074 A 
ATOM     43  C   UNL A   1      39.132  31.183  33.009  1.00  0.00     0.031 C 
ATOM     44  C   UNL A   1      40.419  26.980  27.696  1.00  0.00     0.029 A 
ATOM     45  C   UNL A   1      41.372  26.910  28.802  1.00  0.00     0.049 A 
ATOM     46  H   UNL A   1      41.337  28.007  30.572  1.00  0.00     0.167 HD
ATOM     47  C   UNL A   1      41.036  30.269  34.306  1.00  0.00     0.037 A 
ATOM     48  C   UNL A   1      42.450  26.102  28.863  1.00  0.00     0.037 A 
ATOM     49  C   UNL A   1      42.178  29.411  34.476  1.00  0.00     0.049 A 
ATOM     50  C   UNL A   1      43.326  26.130  30.089  1.00  0.00     0.074 A 
ATOM     51  C   UNL A   1      43.010  29.291  35.576  1.00  0.00     0.029 A 
ATOM     52  N   UNL A   1      42.653  28.529  33.518  1.00  0.00    -0.354 N 
ATOM     53  N   UNL A   1      43.181  26.821  31.192  1.00  0.00    -0.248 NA
ATOM     54  C   UNL A   1      44.516  25.264  30.077  1.00  0.00     0.031 C 
ATOM     55  C   UNL A   1      44.013  28.370  35.268  1.00  0.00     0.029 A 
ATOM     56  C   UNL A   1      43.778  27.876  33.995  1.00  0.00     0.049 A 
ATOM     57  H   UNL A   1      42.250  28.385  32.631  1.00  0.00     0.167 HD
ATOM     58  C   UNL A   1      44.236  26.452  32.017  1.00  0.00     0.074 A 
ATOM     59  C   UNL A   1      45.014  25.472  31.289  1.00  0.00     0.031 C 
ATOM     60  C   UNL A   1      44.531  26.887  33.266  1.00  0.00     0.037 A 
BRANCH  47  61
ATOM     61  C   UNL A   1      40.656  31.163  35.448  1.00  0.00     0.064 A 
ATOM     62  C   UNL A   1      41.460  32.250  35.822  1.00  0.00     0.173 A 
ATOM     63  C   UNL A   1      39.439  30.983  36.122  1.00  0.00     0.173 A 
ATOM     64  F   UNL A   1      42.637  32.458  35.214  1.00  0.00    -0.203 F 
ATOM     65  C   UNL A   1      41.064  33.117  36.837  1.00  0.00     0.198 A 
ATOM     66  C   UNL A   1      39.034  31.867  37.119  1.00  0.00     0.198 A 
ATOM     67  F   UNL A   1      38.631  29.962  35.799  1.00  0.00    -0.203 F 
ATOM     68  F   UNL A   1      41.860  34.134  37.195  1.00  0.00    -0.200 F 
ATOM     69  C   UNL A   1      39.848  32.932  37.476  1.00  0.00     0.200 A 
ATOM     70  F   UNL A   1      37.852  31.695  37.726  1.00  0.00    -0.200 F 
ATOM     71  F   UNL A   1      39.459  33.779  38.439  1.00  0.00    -0.200 F 
ENDBRANCH  47  61
BRANCH  48  72
ATOM     72  C   UNL A   1      42.746  25.180  27.736  1.00  0.00     0.064 A 
ATOM     73  C   UNL A   1      42.158  23.909  27.673  1.00  0.00     0.173 A 
ATOM     74  C   UNL A   1      43.615  25.550  26.699  1.00  0.00     0.173 A 
ATOM     75  F   UNL A   1      41.338  23.502  28.653  1.00  0.00    -0.203 F 
ATOM     76  C   UNL A   1      42.433  23.040  26.619  1.00  0.00     0.198 A 
ATOM     77  C   UNL A   1      43.870  24.690  25.632  1.00  0.00     0.198 A 
ATOM     78  F   UNL A   1      44.206  26.754  26.715  1.00  0.00    -0.203 F 
ATOM     79  F   UNL A   1      41.885  21.818  26.601  1.00  0.00    -0.200 F 
ATOM     80  C   UNL A   1      43.283  23.434  25.596  1.00  0.00     0.200 A 
ATOM     81  F   UNL A   1      44.684  25.078  24.641  1.00  0.00    -0.200 F 
ATOM     82  F   UNL A   1      43.541  22.601  24.578  1.00  0.00    -0.200 F 
ENDBRANCH  48  72
BRANCH  60  83
ATOM     83  C   UNL A   1      45.722  26.291  33.955  1.00  0.00     0.064 A 
ATOM     84  C   UNL A   1      45.620  25.113  34.708  1.00  0.00     0.173 A 
ATOM     85  C   UNL A   1      46.999  26.847  33.772  1.00  0.00     0.173 A 
ATOM     86  F   UNL A   1      44.422  24.549  34.919  1.00  0.00    -0.203 F 
ATOM     87  C   UNL A   1      46.752  24.515  35.257  1.00  0.00     0.198 A 
ATOM     88  C   UNL A   1      48.130  26.233  34.299  1.00  0.00     0.198 A 
ATOM     89  F   UNL A   1      47.149  27.969  33.051  1.00  0.00    -0.203 F 
ATOM     90  F   UNL A   1      46.630  23.401  35.990  1.00  0.00    -0.200 F 
ATOM     91  C   UNL A   1      48.007  25.068  35.041  1.00  0.00     0.200 A 
ATOM     92  F   UNL A   1      49.342  26.760  34.076  1.00  0.00    -0.200 F 
ATOM     93  F   UNL A   1      49.097  24.478  35.550  1.00  0.00    -0.200 F 
ENDBRANCH  60  83
ENDBRANCH  34  35
ENDBRANCH  27  29
ENDBRANCH  26  27
ENDBRANCH  25  26
ENDBRANCH   1  25
TORSDOF 15
ENDMDL
MODEL 2
REMARK VINA RESULT:     -10.4      4.190      7.238
REMARK SMILES Cc1cc2c(c(C)c1Br)C=C(C(=O)OCCOCCOC(=O)c1ccc(-c3c4nc(c(-c5c(F)c(F)c(F)c(F)c5F)c5ccc([nH]5)c(-c5c(F)c(F)c(F)c(F)c5F)c5nc(c(-c6c(F)c(F)c(F)c(F)c6F)c6ccc3[nH]6)C=C5)C=C4)cc1)[C@@H](C(F)(F)F)O2
REMARK SMILES IDX 18 1 17 2 16 3 15 4 14 5 12 6 13 7 11 8 1 9 2 10 3 11 8 12
REMARK SMILES IDX 4 13 6 14 9 15 5 16 91 17 7 18 10 19 86 20 87 21 88 22 89 23
REMARK SMILES IDX 90 24 19 25 20 26 21 27 22 28 23 29 24 30 85 31 25 32 84 33
REMARK SMILES IDX 26 34 27 35 28 36 78 37 29 38 83 39 77 40 79 41 30 42 82 43
REMARK SMILES IDX 76 44 75 45 31 47 63 48 43 49 62 50 44 51 47 52 61 53 80 54
REMARK SMILES IDX 45 55 46 56 60 58 81 59 48 60 32 61 33 62 41 63 34 64 35 65
REMARK SMILES IDX 39 66 42 67 36 68 37 69 40 70 38 71 64 72 65 73 73 74 66 75
REMARK SMILES IDX 67 76 71 77 74 78 68 79 69 80 72 81 70 82 49 83 50 84 58 85
REMARK SMILES IDX 51 86 52 87 56 88 59 89 53 90 54 91 57 92 55 93
REMARK H PARENT 79 46 47 57
REMARK Flexibility Score: inf
ROOT
ATOM      1  C   UNL A   1      31.349  32.009  26.721  1.00  0.00     0.202 C 
ENDROOT
BRANCH   1   2
ATOM      2  O   UNL A   1      32.015  30.826  26.276  1.00  0.00    -0.374 OA
BRANCH   2   3
ATOM      3  C   UNL A   1      32.691  30.035  27.251  1.00  0.00     0.202 C 
BRANCH   3   4
ATOM      4  C   UNL A   1      32.466  28.523  27.182  1.00  0.00     0.261 C 
BRANCH   4   5
ATOM      5  O   UNL A   1      33.664  27.830  26.799  1.00  0.00    -0.460 OA
BRANCH   5   6
ATOM      6  C   UNL A   1      33.635  27.309  25.550  1.00  0.00     0.338 C 
ATOM      7  O   UNL A   1      33.793  27.914  24.501  1.00  0.00    -0.246 OA
BRANCH   6   8
ATOM      8  C   UNL A   1      33.501  25.842  25.619  1.00  0.00     0.087 C 
ATOM      9  C   UNL A   1      34.177  19.505  24.628  1.00  0.00     0.046 C 
ATOM     10  C   UNL A   1      34.403  20.948  24.996  1.00  0.00    -0.033 A 
ATOM     11  C   UNL A   1      33.259  21.733  25.201  1.00  0.00     0.051 A 
ATOM     12  C   UNL A   1      35.672  21.539  25.169  1.00  0.00     0.024 A 
ATOM     13  C   UNL A   1      33.359  23.096  25.463  1.00  0.00     0.128 A 
ATOM     14  C   UNL A   1      35.795  22.921  25.455  1.00  0.00    -0.026 A 
ATOM     15  Br  UNL A   1      37.235  20.446  25.001  1.00  0.00    -0.050 Br
ATOM     16  C   UNL A   1      34.613  23.705  25.542  1.00  0.00     0.021 A 
ATOM     17  O   UNL A   1      32.169  23.748  25.627  1.00  0.00    -0.475 OA
ATOM     18  C   UNL A   1      37.134  23.597  25.650  1.00  0.00     0.046 C 
ATOM     19  C   UNL A   1      34.653  25.161  25.637  1.00  0.00     0.027 C 
ATOM     20  C   UNL A   1      32.147  25.199  25.623  1.00  0.00     0.316 C 
BRANCH  20  21
ATOM     21  C   UNL A   1      31.259  25.662  24.459  1.00  0.00     0.430 C 
ATOM     22  F   UNL A   1      30.717  26.878  24.712  1.00  0.00    -0.167 F 
ATOM     23  F   UNL A   1      31.964  25.790  23.309  1.00  0.00    -0.167 F 
ATOM     24  F   UNL A   1      30.243  24.804  24.220  1.00  0.00    -0.167 F 
ENDBRANCH  20  21
ENDBRANCH   6   8
ENDBRANCH   5   6
ENDBRANCH   4   5
ENDBRANCH   3   4
ENDBRANCH   2   3
ENDBRANCH   1   2
BRANCH   1  25
ATOM     25  C   UNL A   1      32.196  33.283  26.842  1.00  0.00     0.261 C 
BRANCH  25  26
ATOM     26  O   UNL A   1      32.259  33.767  28.197  1.00  0.00    -0.460 OA
BRANCH  26  27
ATOM     27  C   UNL A   1      33.305  34.585  28.463  1.00  0.00     0.338 C 
ATOM     28  O   UNL A   1      33.297  35.805  28.533  1.00  0.00    -0.246 OA
BRANCH  27  29
ATOM     29  C   UNL A   1      34.475  33.783  28.856  1.00  0.00     0.060 A 
ATOM     30  C   UNL A   1      34.248  32.614  29.593  1.00  0.00     0.016 A 
ATOM     31  C   UNL A   1      35.777  34.201  28.569  1.00  0.00     0.016 A 
ATOM     32  C   UNL A   1      35.325  31.874  30.073  1.00  0.00     0.010 A 
ATOM     33  C   UNL A   1      36.858  33.461  29.061  1.00  0.00     0.010 A 
ATOM     34  C   UNL A   1      36.636  32.308  29.836  1.00  0.00    -0.014 A 
BRANCH  34  35
ATOM     35  C   UNL A   1      37.765  31.607  30.492  1.00  0.00     0.031 A 
ATOM     36  C   UNL A   1      38.070  31.889  31.936  1.00  0.00     0.074 A 
ATOM     37  C   UNL A   1      38.478  30.688  29.816  1.00  0.00     0.049 A 
ATOM     38  N   UNL A   1      38.992  31.368  32.706  1.00  0.00    -0.248 NA
ATOM     39  C   UNL A   1      37.221  32.888  32.605  1.00  0.00     0.031 C 
ATOM     40  C   UNL A   1      38.249  30.302  28.425  1.00  0.00     0.029 A 
ATOM     41  N   UNL A   1      39.534  29.905  30.214  1.00  0.00    -0.354 N 
ATOM     42  C   UNL A   1      38.825  31.964  33.949  1.00  0.00     0.074 A 
ATOM     43  C   UNL A   1      37.744  32.916  33.822  1.00  0.00     0.031 C 
ATOM     44  C   UNL A   1      39.132  29.348  28.087  1.00  0.00     0.029 A 
ATOM     45  C   UNL A   1      40.005  29.075  29.227  1.00  0.00     0.049 A 
ATOM     46  H   UNL A   1      39.917  29.938  31.121  1.00  0.00     0.167 HD
ATOM     47  C   UNL A   1      39.502  31.721  35.096  1.00  0.00     0.037 A 
ATOM     48  C   UNL A   1      41.028  28.197  29.244  1.00  0.00     0.037 A 
ATOM     49  C   UNL A   1      40.580  30.776  35.217  1.00  0.00     0.049 A 
ATOM     50  C   UNL A   1      41.822  28.011  30.511  1.00  0.00     0.074 A 
ATOM     51  C   UNL A   1      41.329  30.462  36.338  1.00  0.00     0.029 A 
ATOM     52  N   UNL A   1      41.064  29.993  34.180  1.00  0.00    -0.354 N 
ATOM     53  N   UNL A   1      41.645  28.564  31.685  1.00  0.00    -0.248 NA
ATOM     54  C   UNL A   1      42.958  27.078  30.454  1.00  0.00     0.031 C 
ATOM     55  C   UNL A   1      42.296  29.524  35.970  1.00  0.00     0.029 A 
ATOM     56  C   UNL A   1      42.116  29.212  34.632  1.00  0.00     0.049 A 
ATOM     57  H   UNL A   1      40.713  29.991  33.261  1.00  0.00     0.167 HD
ATOM     58  C   UNL A   1      42.620  28.024  32.514  1.00  0.00     0.074 A 
ATOM     59  C   UNL A   1      43.386  27.097  31.710  1.00  0.00     0.031 C 
ATOM     60  C   UNL A   1      42.857  28.277  33.824  1.00  0.00     0.037 A 
BRANCH  47  61
ATOM     61  C   UNL A   1      39.100  32.486  36.321  1.00  0.00     0.064 A 
ATOM     62  C   UNL A   1      38.193  31.953  37.248  1.00  0.00     0.173 A 
ATOM     63  C   UNL A   1      39.687  33.726  36.613  1.00  0.00     0.173 A 
ATOM     64  F   UNL A   1      37.597  30.776  37.009  1.00  0.00    -0.203 F 
ATOM     65  C   UNL A   1      37.880  32.640  38.419  1.00  0.00     0.198 A 
ATOM     66  C   UNL A   1      39.392  34.398  37.797  1.00  0.00     0.198 A 
ATOM     67  F   UNL A   1      40.566  34.276  35.762  1.00  0.00    -0.203 F 
ATOM     68  F   UNL A   1      36.990  32.125  39.278  1.00  0.00    -0.200 F 
ATOM     69  C   UNL A   1      38.487  33.855  38.697  1.00  0.00     0.200 A 
ATOM     70  F   UNL A   1      39.990  35.565  38.071  1.00  0.00    -0.200 F 
ATOM     71  F   UNL A   1      38.200  34.505  39.833  1.00  0.00    -0.200 F 
ENDBRANCH  47  61
BRANCH  48  72
ATOM     72  C   UNL A   1      41.344  27.409  28.025  1.00  0.00     0.064 A 
ATOM     73  C   UNL A   1      42.241  27.896  27.064  1.00  0.00     0.173 A 
ATOM     74  C   UNL A   1      40.763  26.152  27.797  1.00  0.00     0.173 A 
ATOM     75  F   UNL A   1      42.804  29.102  27.227  1.00  0.00    -0.203 F 
ATOM     76  C   UNL A   1      42.539  27.160  25.919  1.00  0.00     0.198 A 
ATOM     77  C   UNL A   1      41.081  25.406  26.665  1.00  0.00     0.198 A 
ATOM     78  F   UNL A   1      39.896  25.643  28.685  1.00  0.00    -0.203 F 
ATOM     79  F   UNL A   1      43.373  27.666  25.000  1.00  0.00    -0.200 F 
ATOM     80  C   UNL A   1      41.965  25.913  25.724  1.00  0.00     0.200 A 
ATOM     81  F   UNL A   1      40.532  24.197  26.485  1.00  0.00    -0.200 F 
ATOM     82  F   UNL A   1      42.258  25.203  24.626  1.00  0.00    -0.200 F 
ENDBRANCH  48  72
BRANCH  60  83
ATOM     83  C   UNL A   1      43.964  27.520  34.497  1.00  0.00     0.064 A 
ATOM     84  C   UNL A   1      45.248  28.067  34.634  1.00  0.00     0.173 A 
ATOM     85  C   UNL A   1      43.707  26.280  35.104  1.00  0.00     0.173 A 
ATOM     86  F   UNL A   1      45.544  29.244  34.063  1.00  0.00    -0.203 F 
ATOM     87  C   UNL A   1      46.237  27.396  35.349  1.00  0.00     0.198 A 
ATOM     88  C   UNL A   1      44.690  25.627  35.841  1.00  0.00     0.198 A 
ATOM     89  F   UNL A   1      42.492  25.721  35.010  1.00  0.00    -0.203 F 
ATOM     90  F   UNL A   1      47.463  27.927  35.450  1.00  0.00    -0.200 F 
ATOM     91  C   UNL A   1      45.954  26.184  35.963  1.00  0.00     0.200 A 
ATOM     92  F   UNL A   1      44.410  24.464  36.446  1.00  0.00    -0.200 F 
ATOM     93  F   UNL A   1      46.900  25.554  36.672  1.00  0.00    -0.200 F 
ENDBRANCH  60  83
ENDBRANCH  34  35
ENDBRANCH  27  29
ENDBRANCH  26  27
ENDBRANCH  25  26
ENDBRANCH   1  25
TORSDOF 15
ENDMDL
MODEL 3
REMARK VINA RESULT:     -10.3      4.522      7.510
REMARK SMILES Cc1cc2c(c(C)c1Br)C=C(C(=O)OCCOCCOC(=O)c1ccc(-c3c4nc(c(-c5c(F)c(F)c(F)c(F)c5F)c5ccc([nH]5)c(-c5c(F)c(F)c(F)c(F)c5F)c5nc(c(-c6c(F)c(F)c(F)c(F)c6F)c6ccc3[nH]6)C=C5)C=C4)cc1)[C@@H](C(F)(F)F)O2
REMARK SMILES IDX 18 1 17 2 16 3 15 4 14 5 12 6 13 7 11 8 1 9 2 10 3 11 8 12
REMARK SMILES IDX 4 13 6 14 9 15 5 16 91 17 7 18 10 19 86 20 87 21 88 22 89 23
REMARK SMILES IDX 90 24 19 25 20 26 21 27 22 28 23 29 24 30 85 31 25 32 84 33
REMARK SMILES IDX 26 34 27 35 28 36 78 37 29 38 83 39 77 40 79 41 30 42 82 43
REMARK SMILES IDX 76 44 75 45 31 47 63 48 43 49 62 50 44 51 47 52 61 53 80 54
REMARK SMILES IDX 45 55 46 56 60 58 81 59 48 60 32 61 33 62 41 63 34 64 35 65
REMARK SMILES IDX 39 66 42 67 36 68 37 69 40 70 38 71 64 72 65 73 73 74 66 75
REMARK SMILES IDX 67 76 71 77 74 78 68 79 69 80 72 81 70 82 49 83 50 84 58 85
REMARK SMILES IDX 51 86 52 87 56 88 59 89 53 90 54 91 57 92 55 93
REMARK H PARENT 79 46 47 57
REMARK Flexibility Score: inf
ROOT
ATOM      1  C   UNL A   1      32.897  31.884  27.590  1.00  0.00     0.202 C 
ENDROOT
BRANCH   1   2
ATOM      2  O   UNL A   1      34.215  31.425  27.896  1.00  0.00    -0.374 OA
BRANCH   2   3
ATOM      3  C   UNL A   1      34.576  30.111  27.478  1.00  0.00     0.202 C 
BRANCH   3   4
ATOM      4  C   UNL A   1      33.682  29.458  26.422  1.00  0.00     0.261 C 
BRANCH   4   5
ATOM      5  O   UNL A   1      33.452  28.070  26.712  1.00  0.00    -0.460 OA
BRANCH   5   6
ATOM      6  C   UNL A   1      32.153  27.752  26.928  1.00  0.00     0.338 C 
ATOM      7  O   UNL A   1      31.351  28.373  27.606  1.00  0.00    -0.246 OA
BRANCH   6   8
ATOM      8  C   UNL A   1      31.782  26.579  26.116  1.00  0.00     0.087 C 
ATOM      9  C   UNL A   1      31.958  21.290  22.427  1.00  0.00     0.046 C 
ATOM     10  C   UNL A   1      32.086  22.272  23.562  1.00  0.00    -0.033 A 
ATOM     11  C   UNL A   1      31.262  23.407  23.510  1.00  0.00     0.051 A 
ATOM     12  C   UNL A   1      32.947  22.108  24.667  1.00  0.00     0.024 A 
ATOM     13  C   UNL A   1      31.364  24.413  24.465  1.00  0.00     0.128 A 
ATOM     14  C   UNL A   1      33.050  23.114  25.661  1.00  0.00    -0.026 A 
ATOM     15  Br  UNL A   1      33.990  20.508  24.801  1.00  0.00    -0.050 Br
ATOM     16  C   UNL A   1      32.283  24.299  25.510  1.00  0.00     0.021 A 
ATOM     17  O   UNL A   1      30.517  25.472  24.290  1.00  0.00    -0.475 OA
ATOM     18  C   UNL A   1      33.959  22.980  26.863  1.00  0.00     0.046 C 
ATOM     19  C   UNL A   1      32.471  25.461  26.374  1.00  0.00     0.027 C 
ATOM     20  C   UNL A   1      30.730  26.687  25.055  1.00  0.00     0.316 C 
BRANCH  20  21
ATOM     21  C   UNL A   1      30.990  27.835  24.067  1.00  0.00     0.430 C 
ATOM     22  F   UNL A   1      30.637  29.028  24.603  1.00  0.00    -0.167 F 
ATOM     23  F   UNL A   1      32.301  27.933  23.744  1.00  0.00    -0.167 F 
ATOM     24  F   UNL A   1      30.298  27.684  22.917  1.00  0.00    -0.167 F 
ENDBRANCH  20  21
ENDBRANCH   6   8
ENDBRANCH   5   6
ENDBRANCH   4   5
ENDBRANCH   3   4
ENDBRANCH   2   3
ENDBRANCH   1   2
BRANCH   1  25
ATOM     25  C   UNL A   1      32.736  33.374  27.262  1.00  0.00     0.261 C 
BRANCH  25  26
ATOM     26  O   UNL A   1      32.248  34.129  28.387  1.00  0.00    -0.460 OA
BRANCH  26  27
ATOM     27  C   UNL A   1      33.046  35.150  28.781  1.00  0.00     0.338 C 
ATOM     28  O   UNL A   1      32.817  36.348  28.702  1.00  0.00    -0.246 OA
BRANCH  27  29
ATOM     29  C   UNL A   1      34.207  34.618  29.515  1.00  0.00     0.060 A 
ATOM     30  C   UNL A   1      35.459  34.684  28.893  1.00  0.00     0.016 A 
ATOM     31  C   UNL A   1      34.062  34.000  30.760  1.00  0.00     0.016 A 
ATOM     32  C   UNL A   1      36.570  34.106  29.502  1.00  0.00     0.010 A 
ATOM     33  C   UNL A   1      35.178  33.411  31.365  1.00  0.00     0.010 A 
ATOM     34  C   UNL A   1      36.431  33.439  30.727  1.00  0.00    -0.014 A 
BRANCH  34  35
ATOM     35  C   UNL A   1      37.581  32.687  31.281  1.00  0.00     0.031 A 
ATOM     36  C   UNL A   1      38.100  33.034  32.648  1.00  0.00     0.074 A 
ATOM     37  C   UNL A   1      38.124  31.669  30.590  1.00  0.00     0.049 A 
ATOM     38  N   UNL A   1      39.074  32.487  33.328  1.00  0.00    -0.248 NA
ATOM     39  C   UNL A   1      37.428  34.143  33.345  1.00  0.00     0.031 C 
ATOM     40  C   UNL A   1      37.679  31.216  29.273  1.00  0.00     0.029 A 
ATOM     41  N   UNL A   1      39.161  30.826  30.904  1.00  0.00    -0.354 N 
ATOM     42  C   UNL A   1      39.124  33.173  34.535  1.00  0.00     0.074 A 
ATOM     43  C   UNL A   1      38.112  34.205  34.478  1.00  0.00     0.031 C 
ATOM     44  C   UNL A   1      38.433  30.170  28.896  1.00  0.00     0.029 A 
ATOM     45  C   UNL A   1      39.429  29.897  29.930  1.00  0.00     0.049 A 
ATOM     46  H   UNL A   1      39.664  30.883  31.748  1.00  0.00     0.167 HD
ATOM     47  C   UNL A   1      39.930  32.947  35.599  1.00  0.00     0.037 A 
ATOM     48  C   UNL A   1      40.374  28.937  29.879  1.00  0.00     0.037 A 
ATOM     49  C   UNL A   1      40.938  31.922  35.650  1.00  0.00     0.049 A 
ATOM     50  C   UNL A   1      41.316  28.765  31.043  1.00  0.00     0.074 A 
ATOM     51  C   UNL A   1      41.806  31.619  36.684  1.00  0.00     0.029 A 
ATOM     52  N   UNL A   1      41.217  31.036  34.620  1.00  0.00    -0.354 N 
ATOM     53  N   UNL A   1      41.343  29.406  32.186  1.00  0.00    -0.248 NA
ATOM     54  C   UNL A   1      42.359  27.736  30.909  1.00  0.00     0.031 C 
ATOM     55  C   UNL A   1      42.640  30.579  36.265  1.00  0.00     0.029 A 
ATOM     56  C   UNL A   1      42.257  30.199  34.989  1.00  0.00     0.049 A 
ATOM     57  H   UNL A   1      40.745  31.005  33.757  1.00  0.00     0.167 HD
ATOM     58  C   UNL A   1      42.377  28.838  32.918  1.00  0.00     0.074 A 
ATOM     59  C   UNL A   1      42.954  27.799  32.094  1.00  0.00     0.031 C 
ATOM     60  C   UNL A   1      42.808  29.153  34.164  1.00  0.00     0.037 A 
BRANCH  47  61
ATOM     61  C   UNL A   1      39.758  33.821  36.805  1.00  0.00     0.064 A 
ATOM     62  C   UNL A   1      40.360  35.085  36.882  1.00  0.00     0.173 A 
ATOM     63  C   UNL A   1      38.919  33.427  37.858  1.00  0.00     0.173 A 
ATOM     64  F   UNL A   1      41.179  35.502  35.905  1.00  0.00    -0.203 F 
ATOM     65  C   UNL A   1      40.137  35.919  37.975  1.00  0.00     0.198 A 
ATOM     66  C   UNL A   1      38.677  34.274  38.937  1.00  0.00     0.198 A 
ATOM     67  F   UNL A   1      38.314  32.230  37.830  1.00  0.00    -0.203 F 
ATOM     68  F   UNL A   1      40.744  37.112  38.040  1.00  0.00    -0.200 F 
ATOM     69  C   UNL A   1      39.288  35.517  38.995  1.00  0.00     0.200 A 
ATOM     70  F   UNL A   1      37.845  33.891  39.915  1.00  0.00    -0.200 F 
ATOM     71  F   UNL A   1      39.058  36.329  40.036  1.00  0.00    -0.200 F 
ENDBRANCH  47  61
BRANCH  48  72
ATOM     72  C   UNL A   1      40.461  28.048  28.692  1.00  0.00     0.064 A 
ATOM     73  C   UNL A   1      41.213  28.417  27.569  1.00  0.00     0.173 A 
ATOM     74  C   UNL A   1      39.801  26.810  28.658  1.00  0.00     0.173 A 
ATOM     75  F   UNL A   1      41.843  29.601  27.546  1.00  0.00    -0.203 F 
ATOM     76  C   UNL A   1      41.296  27.587  26.453  1.00  0.00     0.198 A 
ATOM     77  C   UNL A   1      39.905  25.969  27.552  1.00  0.00     0.198 A 
ATOM     78  F   UNL A   1      39.065  26.412  29.706  1.00  0.00    -0.203 F 
ATOM     79  F   UNL A   1      41.993  27.981  25.378  1.00  0.00    -0.200 F 
ATOM     80  C   UNL A   1      40.648  26.361  26.448  1.00  0.00     0.200 A 
ATOM     81  F   UNL A   1      39.286  24.781  27.555  1.00  0.00    -0.200 F 
ATOM     82  F   UNL A   1      40.734  25.559  25.378  1.00  0.00    -0.200 F 
ENDBRANCH  48  72
BRANCH  60  83
ATOM     83  C   UNL A   1      43.935  28.350  34.742  1.00  0.00     0.064 A 
ATOM     84  C   UNL A   1      45.265  28.786  34.659  1.00  0.00     0.173 A 
ATOM     85  C   UNL A   1      43.668  27.184  35.479  1.00  0.00     0.173 A 
ATOM     86  F   UNL A   1      45.571  29.888  33.959  1.00  0.00    -0.203 F 
ATOM     87  C   UNL A   1      46.288  28.081  35.288  1.00  0.00     0.198 A 
ATOM     88  C   UNL A   1      44.690  26.498  36.128  1.00  0.00     0.198 A 
ATOM     89  F   UNL A   1      42.411  26.732  35.596  1.00  0.00    -0.203 F 
ATOM     90  F   UNL A   1      47.555  28.504  35.179  1.00  0.00    -0.200 F 
ATOM     91  C   UNL A   1      45.999  26.946  36.032  1.00  0.00     0.200 A 
ATOM     92  F   UNL A   1      44.406  25.411  36.860  1.00  0.00    -0.200 F 
ATOM     93  F   UNL A   1      46.982  26.285  36.657  1.00  0.00    -0.200 F 
ENDBRANCH  60  83
ENDBRANCH  34  35
ENDBRANCH  27  29
ENDBRANCH  26  27
ENDBRANCH  25  26
ENDBRANCH   1  25
TORSDOF 15
ENDMDL
