MODEL 1
REMARK VINA RESULT:     -11.2      0.000      0.000
REMARK SMILES CC/C(C)=N/[NH+]=C1/NC(=O)[C@H](CC(=O)OCCOCCOC(=O)c2ccc(-c3c4nc(c(-c5c(F)c(F)c(F)c(F)c5F)c5ccc([nH]5)c(-c5c(F)c(F)c(F)c(F)c5F)c5nc(c(-c6c(F)c(F)c(F)c(F)c6F)c6ccc3[nH]6)C=C5)C=C4)cc2)S1
REMARK SMILES IDX 17 1 16 2 15 3 13 4 14 5 12 6 11 7 6 8 7 9 8 11 87 12 9 13
REMARK SMILES IDX 10 15 5 16 3 17 4 18 2 19 1 20 18 21 19 22 20 23 21 24 22 25
REMARK SMILES IDX 23 26 24 27 25 28 86 29 26 30 85 31 27 32 28 33 29 34 79 35
REMARK SMILES IDX 30 36 84 37 78 38 80 39 31 40 83 41 77 42 76 43 32 45 64 46
REMARK SMILES IDX 44 47 63 48 45 49 48 50 62 51 81 52 46 53 47 54 61 56 82 57
REMARK SMILES IDX 49 58 33 59 34 60 42 61 35 62 36 63 40 64 43 65 37 66 38 67
REMARK SMILES IDX 41 68 39 69 65 70 66 71 74 72 67 73 68 74 72 75 75 76 69 77
REMARK SMILES IDX 70 78 73 79 71 80 50 81 51 82 59 83 52 84 53 85 57 86 60 87
REMARK SMILES IDX 54 88 55 89 58 90 56 91
REMARK H PARENT 6 10 8 14 80 44 48 55
REMARK Flexibility Score: inf
ROOT
ATOM      1  C   UNL A   1      40.929  20.891  26.494  1.00  0.00     0.202 C 
ENDROOT
BRANCH   1   2
ATOM      2  C   UNL A   1      39.951  21.991  26.909  1.00  0.00     0.261 C 
BRANCH   2   3
ATOM      3  O   UNL A   1      38.945  22.207  25.904  1.00  0.00    -0.463 OA
BRANCH   3   4
ATOM      4  C   UNL A   1      38.166  23.305  26.028  1.00  0.00     0.307 C 
ATOM      5  O   UNL A   1      38.349  24.219  26.819  1.00  0.00    -0.252 OA
BRANCH   4   6
ATOM      6  C   UNL A   1      37.003  23.258  25.072  1.00  0.00     0.150 C 
BRANCH   6   7
ATOM      7  C   UNL A   1      35.748  22.647  25.666  1.00  0.00     0.184 C 
ATOM      8  N   UNL A   1      33.189  19.914  24.703  1.00  0.00    -0.142 N 
ATOM      9  C   UNL A   1      33.996  20.902  24.895  1.00  0.00     0.337 C 
ATOM     10  H   UNL A   1      32.216  20.036  24.624  1.00  0.00     0.343 HD
ATOM     11  N   UNL A   1      33.542  22.173  24.867  1.00  0.00    -0.202 N 
ATOM     12  S   UNL A   1      35.701  20.868  25.230  1.00  0.00    -0.020 SA
ATOM     13  C   UNL A   1      34.417  23.182  25.144  1.00  0.00     0.322 C 
ATOM     14  H   UNL A   1      32.602  22.367  24.651  1.00  0.00     0.316 HD
ATOM     15  O   UNL A   1      34.099  24.359  25.052  1.00  0.00    -0.246 OA
BRANCH   8  16
ATOM     16  N   UNL A   1      33.791  18.661  24.613  1.00  0.00    -0.095 NA
ATOM     17  C   UNL A   1      33.426  17.911  23.616  1.00  0.00     0.058 C 
ATOM     18  C   UNL A   1      32.371  18.280  22.601  1.00  0.00     0.066 C 
BRANCH  17  19
ATOM     19  C   UNL A   1      34.090  16.557  23.489  1.00  0.00     0.052 C 
ATOM     20  C   UNL A   1      34.653  16.135  24.831  1.00  0.00     0.010 C 
ENDBRANCH  17  19
ENDBRANCH   8  16
ENDBRANCH   6   7
ENDBRANCH   4   6
ENDBRANCH   3   4
ENDBRANCH   2   3
ENDBRANCH   1   2
BRANCH   1  21
ATOM     21  O   UNL A   1      41.830  21.244  25.444  1.00  0.00    -0.374 OA
BRANCH  21  22
ATOM     22  C   UNL A   1      43.192  21.431  25.822  1.00  0.00     0.202 C 
BRANCH  22  23
ATOM     23  C   UNL A   1      44.023  22.297  24.868  1.00  0.00     0.261 C 
BRANCH  23  24
ATOM     24  O   UNL A   1      43.390  23.569  24.632  1.00  0.00    -0.460 OA
BRANCH  24  25
ATOM     25  C   UNL A   1      44.099  24.643  25.046  1.00  0.00     0.338 C 
ATOM     26  O   UNL A   1      45.187  25.016  24.624  1.00  0.00    -0.246 OA
BRANCH  25  27
ATOM     27  C   UNL A   1      43.307  25.453  25.989  1.00  0.00     0.060 A 
ATOM     28  C   UNL A   1      43.690  26.789  26.164  1.00  0.00     0.016 A 
ATOM     29  C   UNL A   1      42.257  24.916  26.738  1.00  0.00     0.016 A 
ATOM     30  C   UNL A   1      43.067  27.578  27.128  1.00  0.00     0.010 A 
ATOM     31  C   UNL A   1      41.634  25.708  27.710  1.00  0.00     0.010 A 
ATOM     32  C   UNL A   1      42.062  27.030  27.936  1.00  0.00    -0.014 A 
BRANCH  32  33
ATOM     33  C   UNL A   1      41.574  27.797  29.109  1.00  0.00     0.031 A 
ATOM     34  C   UNL A   1      42.318  27.691  30.411  1.00  0.00     0.074 A 
ATOM     35  C   UNL A   1      40.510  28.612  29.007  1.00  0.00     0.049 A 
ATOM     36  N   UNL A   1      42.066  28.260  31.563  1.00  0.00    -0.248 NA
ATOM     37  C   UNL A   1      43.508  26.826  30.414  1.00  0.00     0.031 C 
ATOM     38  C   UNL A   1      39.732  28.836  27.791  1.00  0.00     0.029 A 
ATOM     39  N   UNL A   1      39.902  29.405  29.949  1.00  0.00    -0.354 N 
ATOM     40  C   UNL A   1      43.061  27.817  32.428  1.00  0.00     0.074 A 
ATOM     41  C   UNL A   1      43.897  26.906  31.678  1.00  0.00     0.031 C 
ATOM     42  C   UNL A   1      38.746  29.707  28.060  1.00  0.00     0.029 A 
ATOM     43  C   UNL A   1      38.803  30.077  29.475  1.00  0.00     0.049 A 
ATOM     44  H   UNL A   1      40.223  29.484  30.876  1.00  0.00     0.167 HD
ATOM     45  C   UNL A   1      43.263  28.150  33.725  1.00  0.00     0.037 A 
ATOM     46  C   UNL A   1      37.934  30.883  30.114  1.00  0.00     0.037 A 
ATOM     47  C   UNL A   1      42.430  29.058  34.470  1.00  0.00     0.049 A 
ATOM     48  C   UNL A   1      38.134  31.176  31.579  1.00  0.00     0.074 A 
ATOM     49  C   UNL A   1      42.564  29.474  35.783  1.00  0.00     0.029 A 
ATOM     50  N   UNL A   1      41.299  29.683  33.967  1.00  0.00    -0.354 N 
ATOM     51  N   UNL A   1      39.089  30.774  32.382  1.00  0.00    -0.248 NA
ATOM     52  C   UNL A   1      37.133  32.037  32.224  1.00  0.00     0.031 C 
ATOM     53  C   UNL A   1      41.483  30.305  36.092  1.00  0.00     0.029 A 
ATOM     54  C   UNL A   1      40.707  30.457  34.954  1.00  0.00     0.049 A 
ATOM     55  H   UNL A   1      40.964  29.591  33.046  1.00  0.00     0.167 HD
ATOM     56  C   UNL A   1      38.822  31.356  33.616  1.00  0.00     0.074 A 
ATOM     57  C   UNL A   1      37.621  32.148  33.452  1.00  0.00     0.031 C 
ATOM     58  C   UNL A   1      39.513  31.245  34.778  1.00  0.00     0.037 A 
BRANCH  45  59
ATOM     59  C   UNL A   1      44.419  27.501  34.431  1.00  0.00     0.064 A 
ATOM     60  C   UNL A   1      45.689  28.096  34.474  1.00  0.00     0.173 A 
ATOM     61  C   UNL A   1      44.248  26.273  35.088  1.00  0.00     0.173 A 
ATOM     62  F   UNL A   1      45.910  29.263  33.851  1.00  0.00    -0.203 F 
ATOM     63  C   UNL A   1      46.753  27.469  35.120  1.00  0.00     0.198 A 
ATOM     64  C   UNL A   1      45.306  25.665  35.759  1.00  0.00     0.198 A 
ATOM     65  F   UNL A   1      43.054  25.663  35.082  1.00  0.00    -0.203 F 
ATOM     66  F   UNL A   1      47.970  28.029  35.100  1.00  0.00    -0.200 F 
ATOM     67  C   UNL A   1      46.559  26.259  35.766  1.00  0.00     0.200 A 
ATOM     68  F   UNL A   1      45.113  24.501  36.396  1.00  0.00    -0.200 F 
ATOM     69  F   UNL A   1      47.582  25.658  36.390  1.00  0.00    -0.200 F 
ENDBRANCH  45  59
BRANCH  46  70
ATOM     70  C   UNL A   1      36.789  31.472  29.371  1.00  0.00     0.064 A 
ATOM     71  C   UNL A   1      35.701  30.682  28.976  1.00  0.00     0.173 A 
ATOM     72  C   UNL A   1      36.764  32.833  29.034  1.00  0.00     0.173 A 
ATOM     73  F   UNL A   1      35.692  29.369  29.251  1.00  0.00    -0.203 F 
ATOM     74  C   UNL A   1      34.636  31.228  28.263  1.00  0.00     0.198 A 
ATOM     75  C   UNL A   1      35.686  33.385  28.346  1.00  0.00     0.198 A 
ATOM     76  F   UNL A   1      37.783  33.632  29.385  1.00  0.00    -0.203 F 
ATOM     77  F   UNL A   1      33.628  30.443  27.861  1.00  0.00    -0.200 F 
ATOM     78  C   UNL A   1      34.626  32.580  27.955  1.00  0.00     0.200 A 
ATOM     79  F   UNL A   1      35.674  34.693  28.060  1.00  0.00    -0.200 F 
ATOM     80  F   UNL A   1      33.599  33.107  27.275  1.00  0.00    -0.200 F 
ENDBRANCH  46  70
BRANCH  58  81
ATOM     81  C   UNL A   1      39.011  32.028  35.958  1.00  0.00     0.064 A 
ATOM     82  C   UNL A   1      38.172  31.453  36.925  1.00  0.00     0.173 A 
ATOM     83  C   UNL A   1      39.410  33.361  36.147  1.00  0.00     0.173 A 
ATOM     84  F   UNL A   1      37.751  30.187  36.786  1.00  0.00    -0.203 F 
ATOM     85  C   UNL A   1      37.731  32.191  38.022  1.00  0.00     0.198 A 
ATOM     86  C   UNL A   1      38.993  34.085  37.260  1.00  0.00     0.198 A 
ATOM     87  F   UNL A   1      40.218  33.958  35.258  1.00  0.00    -0.203 F 
ATOM     88  F   UNL A   1      36.891  31.636  38.905  1.00  0.00    -0.200 F 
ATOM     89  C   UNL A   1      38.148  33.503  38.192  1.00  0.00     0.200 A 
ATOM     90  F   UNL A   1      39.409  35.348  37.431  1.00  0.00    -0.200 F 
ATOM     91  F   UNL A   1      37.729  34.209  39.252  1.00  0.00    -0.200 F 
ENDBRANCH  58  81
ENDBRANCH  32  33
ENDBRANCH  25  27
ENDBRANCH  24  25
ENDBRANCH  23  24
ENDBRANCH  22  23
ENDBRANCH  21  22
ENDBRANCH   1  21
TORSDOF 17
ENDMDL
MODEL 2
REMARK VINA RESULT:     -10.8      1.768      3.218
REMARK SMILES CC/C(C)=N/[NH+]=C1/NC(=O)[C@H](CC(=O)OCCOCCOC(=O)c2ccc(-c3c4nc(c(-c5c(F)c(F)c(F)c(F)c5F)c5ccc([nH]5)c(-c5c(F)c(F)c(F)c(F)c5F)c5nc(c(-c6c(F)c(F)c(F)c(F)c6F)c6ccc3[nH]6)C=C5)C=C4)cc2)S1
REMARK SMILES IDX 17 1 16 2 15 3 13 4 14 5 12 6 11 7 6 8 7 9 8 11 87 12 9 13
REMARK SMILES IDX 10 15 5 16 3 17 4 18 2 19 1 20 18 21 19 22 20 23 21 24 22 25
REMARK SMILES IDX 23 26 24 27 25 28 86 29 26 30 85 31 27 32 28 33 29 34 79 35
REMARK SMILES IDX 30 36 84 37 78 38 80 39 31 40 83 41 77 42 76 43 32 45 64 46
REMARK SMILES IDX 44 47 63 48 45 49 48 50 62 51 81 52 46 53 47 54 61 56 82 57
REMARK SMILES IDX 49 58 33 59 34 60 42 61 35 62 36 63 40 64 43 65 37 66 38 67
REMARK SMILES IDX 41 68 39 69 65 70 66 71 74 72 67 73 68 74 72 75 75 76 69 77
REMARK SMILES IDX 70 78 73 79 71 80 50 81 51 82 59 83 52 84 53 85 57 86 60 87
REMARK SMILES IDX 54 88 55 89 58 90 56 91
REMARK H PARENT 6 10 8 14 80 44 48 55
REMARK Flexibility Score: inf
ROOT
ATOM      1  C   UNL A   1      40.469  21.556  26.688  1.00  0.00     0.202 C 
ENDROOT
BRANCH   1   2
ATOM      2  C   UNL A   1      39.243  22.397  26.326  1.00  0.00     0.261 C 
BRANCH   2   3
ATOM      3  O   UNL A   1      38.154  21.573  25.876  1.00  0.00    -0.463 OA
BRANCH   3   4
ATOM      4  C   UNL A   1      37.238  22.142  25.061  1.00  0.00     0.307 C 
ATOM      5  O   UNL A   1      37.032  21.830  23.897  1.00  0.00    -0.252 OA
BRANCH   4   6
ATOM      6  C   UNL A   1      36.497  23.248  25.765  1.00  0.00     0.150 C 
BRANCH   6   7
ATOM      7  C   UNL A   1      34.996  23.212  25.549  1.00  0.00     0.184 C 
ATOM      8  N   UNL A   1      31.994  25.594  26.059  1.00  0.00    -0.142 N 
ATOM      9  C   UNL A   1      33.016  24.806  26.045  1.00  0.00     0.337 C 
ATOM     10  H   UNL A   1      31.189  25.402  26.592  1.00  0.00     0.343 HD
ATOM     11  N   UNL A   1      33.072  23.740  26.871  1.00  0.00    -0.202 N 
ATOM     12  S   UNL A   1      34.436  24.883  25.047  1.00  0.00    -0.020 SA
ATOM     13  C   UNL A   1      34.139  22.896  26.772  1.00  0.00     0.322 C 
ATOM     14  H   UNL A   1      32.359  23.576  27.530  1.00  0.00     0.316 HD
ATOM     15  O   UNL A   1      34.300  21.963  27.545  1.00  0.00    -0.246 OA
BRANCH   8  16
ATOM     16  N   UNL A   1      32.108  26.735  25.269  1.00  0.00    -0.095 NA
ATOM     17  C   UNL A   1      31.892  27.873  25.859  1.00  0.00     0.058 C 
ATOM     18  C   UNL A   1      31.476  28.033  27.301  1.00  0.00     0.066 C 
BRANCH  17  19
ATOM     19  C   UNL A   1      32.039  29.125  25.020  1.00  0.00     0.052 C 
ATOM     20  C   UNL A   1      31.403  30.300  25.737  1.00  0.00     0.010 C 
ENDBRANCH  17  19
ENDBRANCH   8  16
ENDBRANCH   6   7
ENDBRANCH   4   6
ENDBRANCH   3   4
ENDBRANCH   2   3
ENDBRANCH   1   2
BRANCH   1  21
ATOM     21  O   UNL A   1      41.436  21.412  25.647  1.00  0.00    -0.374 OA
BRANCH  21  22
ATOM     22  C   UNL A   1      42.784  21.209  26.067  1.00  0.00     0.202 C 
BRANCH  22  23
ATOM     23  C   UNL A   1      43.825  22.100  25.378  1.00  0.00     0.261 C 
BRANCH  23  24
ATOM     24  O   UNL A   1      43.228  23.314  24.884  1.00  0.00    -0.460 OA
BRANCH  24  25
ATOM     25  C   UNL A   1      43.924  24.441  25.156  1.00  0.00     0.338 C 
ATOM     26  O   UNL A   1      44.961  24.815  24.621  1.00  0.00    -0.246 OA
BRANCH  25  27
ATOM     27  C   UNL A   1      43.175  25.297  26.093  1.00  0.00     0.060 A 
ATOM     28  C   UNL A   1      43.667  26.591  26.313  1.00  0.00     0.016 A 
ATOM     29  C   UNL A   1      42.057  24.839  26.795  1.00  0.00     0.016 A 
ATOM     30  C   UNL A   1      43.083  27.410  27.275  1.00  0.00     0.010 A 
ATOM     31  C   UNL A   1      41.474  25.662  27.767  1.00  0.00     0.010 A 
ATOM     32  C   UNL A   1      42.008  26.936  28.038  1.00  0.00    -0.014 A 
BRANCH  32  33
ATOM     33  C   UNL A   1      41.550  27.717  29.213  1.00  0.00     0.031 A 
ATOM     34  C   UNL A   1      42.303  27.596  30.509  1.00  0.00     0.074 A 
ATOM     35  C   UNL A   1      40.506  28.559  29.118  1.00  0.00     0.049 A 
ATOM     36  N   UNL A   1      42.076  28.174  31.661  1.00  0.00    -0.248 NA
ATOM     37  C   UNL A   1      43.471  26.702  30.503  1.00  0.00     0.031 C 
ATOM     38  C   UNL A   1      39.722  28.799  27.909  1.00  0.00     0.029 A 
ATOM     39  N   UNL A   1      39.926  29.369  30.064  1.00  0.00    -0.354 N 
ATOM     40  C   UNL A   1      43.067  27.709  32.518  1.00  0.00     0.074 A 
ATOM     41  C   UNL A   1      43.874  26.775  31.763  1.00  0.00     0.031 C 
ATOM     42  C   UNL A   1      38.761  29.696  28.185  1.00  0.00     0.029 A 
ATOM     43  C   UNL A   1      38.840  30.067  29.598  1.00  0.00     0.049 A 
ATOM     44  H   UNL A   1      40.257  29.442  30.988  1.00  0.00     0.167 HD
ATOM     45  C   UNL A   1      43.289  28.040  33.813  1.00  0.00     0.037 A 
ATOM     46  C   UNL A   1      37.998  30.896  30.243  1.00  0.00     0.037 A 
ATOM     47  C   UNL A   1      42.486  28.970  34.563  1.00  0.00     0.049 A 
ATOM     48  C   UNL A   1      38.218  31.187  31.705  1.00  0.00     0.074 A 
ATOM     49  C   UNL A   1      42.643  29.385  35.874  1.00  0.00     0.029 A 
ATOM     50  N   UNL A   1      41.366  29.622  34.069  1.00  0.00    -0.354 N 
ATOM     51  N   UNL A   1      39.170  30.764  32.501  1.00  0.00    -0.248 NA
ATOM     52  C   UNL A   1      37.245  32.074  32.357  1.00  0.00     0.031 C 
ATOM     53  C   UNL A   1      41.585  30.244  36.190  1.00  0.00     0.029 A 
ATOM     54  C   UNL A   1      40.803  30.412  35.059  1.00  0.00     0.049 A 
ATOM     55  H   UNL A   1      41.020  29.535  33.151  1.00  0.00     0.167 HD
ATOM     56  C   UNL A   1      38.929  31.355  33.736  1.00  0.00     0.074 A 
ATOM     57  C   UNL A   1      37.746  32.176  33.580  1.00  0.00     0.031 C 
ATOM     58  C   UNL A   1      39.627  31.230  34.891  1.00  0.00     0.037 A 
BRANCH  45  59
ATOM     59  C   UNL A   1      44.435  27.363  34.509  1.00  0.00     0.064 A 
ATOM     60  C   UNL A   1      45.719  27.929  34.544  1.00  0.00     0.173 A 
ATOM     61  C   UNL A   1      44.241  26.139  35.167  1.00  0.00     0.173 A 
ATOM     62  F   UNL A   1      45.962  29.091  33.920  1.00  0.00    -0.203 F 
ATOM     63  C   UNL A   1      46.773  27.277  35.182  1.00  0.00     0.198 A 
ATOM     64  C   UNL A   1      45.289  25.507  35.831  1.00  0.00     0.198 A 
ATOM     65  F   UNL A   1      43.033  25.556  35.170  1.00  0.00    -0.203 F 
ATOM     66  F   UNL A   1      48.003  27.809  35.153  1.00  0.00    -0.200 F 
ATOM     67  C   UNL A   1      46.556  26.071  35.829  1.00  0.00     0.200 A 
ATOM     68  F   UNL A   1      45.074  24.347  36.468  1.00  0.00    -0.200 F 
ATOM     69  F   UNL A   1      47.569  25.446  36.444  1.00  0.00    -0.200 F 
ENDBRANCH  45  59
BRANCH  46  70
ATOM     70  C   UNL A   1      36.861  31.512  29.509  1.00  0.00     0.064 A 
ATOM     71  C   UNL A   1      35.758  30.745  29.111  1.00  0.00     0.173 A 
ATOM     72  C   UNL A   1      36.859  32.876  29.184  1.00  0.00     0.173 A 
ATOM     73  F   UNL A   1      35.726  29.430  29.375  1.00  0.00    -0.203 F 
ATOM     74  C   UNL A   1      34.701  31.316  28.406  1.00  0.00     0.198 A 
ATOM     75  C   UNL A   1      35.788  33.453  28.504  1.00  0.00     0.198 A 
ATOM     76  F   UNL A   1      37.893  33.653  29.538  1.00  0.00    -0.203 F 
ATOM     77  F   UNL A   1      33.677  30.552  28.001  1.00  0.00    -0.200 F 
ATOM     78  C   UNL A   1      34.713  32.671  28.109  1.00  0.00     0.200 A 
ATOM     79  F   UNL A   1      35.799  34.763  28.230  1.00  0.00    -0.200 F 
ATOM     80  F   UNL A   1      33.693  33.222  27.438  1.00  0.00    -0.200 F 
ENDBRANCH  46  70
BRANCH  58  81
ATOM     81  C   UNL A   1      39.156  32.028  36.074  1.00  0.00     0.064 A 
ATOM     82  C   UNL A   1      39.587  33.345  36.297  1.00  0.00     0.173 A 
ATOM     83  C   UNL A   1      38.229  31.482  36.975  1.00  0.00     0.173 A 
ATOM     84  F   UNL A   1      40.484  33.910  35.474  1.00  0.00    -0.203 F 
ATOM     85  C   UNL A   1      39.126  34.075  37.391  1.00  0.00     0.198 A 
ATOM     86  C   UNL A   1      37.746  32.225  38.049  1.00  0.00     0.198 A 
ATOM     87  F   UNL A   1      37.777  30.230  36.805  1.00  0.00    -0.203 F 
ATOM     88  F   UNL A   1      39.589  35.313  37.610  1.00  0.00    -0.200 F 
ATOM     89  C   UNL A   1      38.201  33.517  38.261  1.00  0.00     0.200 A 
ATOM     90  F   UNL A   1      36.840  31.690  38.879  1.00  0.00    -0.200 F 
ATOM     91  F   UNL A   1      37.753  34.224  39.307  1.00  0.00    -0.200 F 
ENDBRANCH  58  81
ENDBRANCH  32  33
ENDBRANCH  25  27
ENDBRANCH  24  25
ENDBRANCH  23  24
ENDBRANCH  22  23
ENDBRANCH  21  22
ENDBRANCH   1  21
TORSDOF 17
ENDMDL
MODEL 3
REMARK VINA RESULT:     -10.7      3.540      8.079
REMARK SMILES CC/C(C)=N/[NH+]=C1/NC(=O)[C@H](CC(=O)OCCOCCOC(=O)c2ccc(-c3c4nc(c(-c5c(F)c(F)c(F)c(F)c5F)c5ccc([nH]5)c(-c5c(F)c(F)c(F)c(F)c5F)c5nc(c(-c6c(F)c(F)c(F)c(F)c6F)c6ccc3[nH]6)C=C5)C=C4)cc2)S1
REMARK SMILES IDX 17 1 16 2 15 3 13 4 14 5 12 6 11 7 6 8 7 9 8 11 87 12 9 13
REMARK SMILES IDX 10 15 5 16 3 17 4 18 2 19 1 20 18 21 19 22 20 23 21 24 22 25
REMARK SMILES IDX 23 26 24 27 25 28 86 29 26 30 85 31 27 32 28 33 29 34 79 35
REMARK SMILES IDX 30 36 84 37 78 38 80 39 31 40 83 41 77 42 76 43 32 45 64 46
REMARK SMILES IDX 44 47 63 48 45 49 48 50 62 51 81 52 46 53 47 54 61 56 82 57
REMARK SMILES IDX 49 58 33 59 34 60 42 61 35 62 36 63 40 64 43 65 37 66 38 67
REMARK SMILES IDX 41 68 39 69 65 70 66 71 74 72 67 73 68 74 72 75 75 76 69 77
REMARK SMILES IDX 70 78 73 79 71 80 50 81 51 82 59 83 52 84 53 85 57 86 60 87
REMARK SMILES IDX 54 88 55 89 58 90 56 91
REMARK H PARENT 6 10 8 14 80 44 48 55
REMARK Flexibility Score: inf
ROOT
ATOM      1  C   UNL A   1      32.933  27.608  24.072  1.00  0.00     0.202 C 
ENDROOT
BRANCH   1   2
ATOM      2  C   UNL A   1      31.575  27.502  23.376  1.00  0.00     0.261 C 
BRANCH   2   3
ATOM      3  O   UNL A   1      31.204  26.131  23.152  1.00  0.00    -0.463 OA
BRANCH   3   4
ATOM      4  C   UNL A   1      30.439  25.531  24.092  1.00  0.00     0.307 C 
ATOM      5  O   UNL A   1      29.660  26.101  24.843  1.00  0.00    -0.252 OA
BRANCH   4   6
ATOM      6  C   UNL A   1      30.681  24.045  24.124  1.00  0.00     0.150 C 
BRANCH   6   7
ATOM      7  C   UNL A   1      31.842  23.635  25.009  1.00  0.00     0.184 C 
ATOM      8  N   UNL A   1      33.512  20.342  26.158  1.00  0.00    -0.142 N 
ATOM      9  C   UNL A   1      32.825  21.390  25.848  1.00  0.00     0.337 C 
ATOM     10  H   UNL A   1      33.649  20.059  27.091  1.00  0.00     0.343 HD
ATOM     11  N   UNL A   1      32.152  22.074  26.797  1.00  0.00    -0.202 N 
ATOM     12  S   UNL A   1      32.622  22.139  24.293  1.00  0.00    -0.020 SA
ATOM     13  C   UNL A   1      31.497  23.215  26.435  1.00  0.00     0.322 C 
ATOM     14  H   UNL A   1      32.134  21.757  27.729  1.00  0.00     0.316 HD
ATOM     15  O   UNL A   1      30.797  23.836  27.221  1.00  0.00    -0.246 OA
BRANCH   8  16
ATOM     16  N   UNL A   1      34.046  19.639  25.082  1.00  0.00    -0.095 NA
ATOM     17  C   UNL A   1      33.566  18.449  24.870  1.00  0.00     0.058 C 
ATOM     18  C   UNL A   1      32.529  17.772  25.732  1.00  0.00     0.066 C 
BRANCH  17  19
ATOM     19  C   UNL A   1      34.117  17.682  23.687  1.00  0.00     0.052 C 
ATOM     20  C   UNL A   1      33.856  16.200  23.871  1.00  0.00     0.010 C 
ENDBRANCH  17  19
ENDBRANCH   8  16
ENDBRANCH   6   7
ENDBRANCH   4   6
ENDBRANCH   3   4
ENDBRANCH   2   3
ENDBRANCH   1   2
BRANCH   1  21
ATOM     21  O   UNL A   1      32.896  28.137  25.398  1.00  0.00    -0.374 OA
BRANCH  21  22
ATOM     22  C   UNL A   1      31.687  28.790  25.779  1.00  0.00     0.202 C 
BRANCH  22  23
ATOM     23  C   UNL A   1      31.858  30.207  26.340  1.00  0.00     0.261 C 
BRANCH  23  24
ATOM     24  O   UNL A   1      33.223  30.651  26.232  1.00  0.00    -0.460 OA
BRANCH  24  25
ATOM     25  C   UNL A   1      33.609  31.539  27.175  1.00  0.00     0.338 C 
ATOM     26  O   UNL A   1      32.942  32.453  27.645  1.00  0.00    -0.246 OA
BRANCH  25  27
ATOM     27  C   UNL A   1      34.926  31.168  27.726  1.00  0.00     0.060 A 
ATOM     28  C   UNL A   1      35.134  29.817  28.033  1.00  0.00     0.016 A 
ATOM     29  C   UNL A   1      35.915  32.115  28.000  1.00  0.00     0.016 A 
ATOM     30  C   UNL A   1      36.305  29.414  28.669  1.00  0.00     0.010 A 
ATOM     31  C   UNL A   1      37.091  31.709  28.644  1.00  0.00     0.010 A 
ATOM     32  C   UNL A   1      37.274  30.365  29.016  1.00  0.00    -0.014 A 
BRANCH  32  33
ATOM     33  C   UNL A   1      38.400  29.967  29.898  1.00  0.00     0.031 A 
ATOM     34  C   UNL A   1      39.428  29.000  29.377  1.00  0.00     0.074 A 
ATOM     35  C   UNL A   1      38.532  30.491  31.128  1.00  0.00     0.049 A 
ATOM     36  N   UNL A   1      40.484  28.507  29.974  1.00  0.00    -0.248 NA
ATOM     37  C   UNL A   1      39.239  28.527  27.998  1.00  0.00     0.031 C 
ATOM     38  C   UNL A   1      37.629  31.469  31.730  1.00  0.00     0.029 A 
ATOM     39  N   UNL A   1      39.484  30.271  32.093  1.00  0.00    -0.354 N 
ATOM     40  C   UNL A   1      41.080  27.662  29.045  1.00  0.00     0.074 A 
ATOM     41  C   UNL A   1      40.249  27.682  27.861  1.00  0.00     0.031 C 
ATOM     42  C   UNL A   1      38.068  31.764  32.965  1.00  0.00     0.029 A 
ATOM     43  C   UNL A   1      39.264  30.971  33.252  1.00  0.00     0.049 A 
ATOM     44  H   UNL A   1      40.251  29.667  31.966  1.00  0.00     0.167 HD
ATOM     45  C   UNL A   1      42.222  26.944  29.167  1.00  0.00     0.037 A 
ATOM     46  C   UNL A   1      39.940  30.960  34.417  1.00  0.00     0.037 A 
ATOM     47  C   UNL A   1      43.049  26.925  30.346  1.00  0.00     0.049 A 
ATOM     48  C   UNL A   1      41.163  30.091  34.556  1.00  0.00     0.074 A 
ATOM     49  C   UNL A   1      44.235  26.244  30.559  1.00  0.00     0.029 A 
ATOM     50  N   UNL A   1      42.767  27.612  31.517  1.00  0.00    -0.354 N 
ATOM     51  N   UNL A   1      41.734  29.314  33.667  1.00  0.00    -0.248 NA
ATOM     52  C   UNL A   1      41.836  30.099  35.862  1.00  0.00     0.031 C 
ATOM     53  C   UNL A   1      44.640  26.475  31.877  1.00  0.00     0.029 A 
ATOM     54  C   UNL A   1      43.741  27.347  32.468  1.00  0.00     0.049 A 
ATOM     55  H   UNL A   1      41.990  28.201  31.654  1.00  0.00     0.167 HD
ATOM     56  C   UNL A   1      42.848  28.768  34.294  1.00  0.00     0.074 A 
ATOM     57  C   UNL A   1      42.878  29.310  35.636  1.00  0.00     0.031 C 
ATOM     58  C   UNL A   1      43.763  27.897  33.800  1.00  0.00     0.037 A 
BRANCH  45  59
ATOM     59  C   UNL A   1      42.628  26.092  27.998  1.00  0.00     0.064 A 
ATOM     60  C   UNL A   1      43.538  26.546  27.031  1.00  0.00     0.173 A 
ATOM     61  C   UNL A   1      42.112  24.795  27.853  1.00  0.00     0.173 A 
ATOM     62  F   UNL A   1      44.053  27.783  27.115  1.00  0.00    -0.203 F 
ATOM     63  C   UNL A   1      43.889  25.746  25.945  1.00  0.00     0.198 A 
ATOM     64  C   UNL A   1      42.490  23.988  26.783  1.00  0.00     0.198 A 
ATOM     65  F   UNL A   1      41.242  24.309  28.751  1.00  0.00    -0.203 F 
ATOM     66  F   UNL A   1      44.716  26.223  25.004  1.00  0.00    -0.200 F 
ATOM     67  C   UNL A   1      43.370  24.468  25.825  1.00  0.00     0.200 A 
ATOM     68  F   UNL A   1      41.997  22.746  26.677  1.00  0.00    -0.200 F 
ATOM     69  F   UNL A   1      43.710  23.698  24.782  1.00  0.00    -0.200 F 
ENDBRANCH  45  59
BRANCH  46  70
ATOM     70  C   UNL A   1      39.472  31.799  35.551  1.00  0.00     0.064 A 
ATOM     71  C   UNL A   1      38.537  31.311  36.473  1.00  0.00     0.173 A 
ATOM     72  C   UNL A   1      39.944  33.108  35.730  1.00  0.00     0.173 A 
ATOM     73  F   UNL A   1      38.035  30.076  36.328  1.00  0.00    -0.203 F 
ATOM     74  C   UNL A   1      38.083  32.104  37.525  1.00  0.00     0.198 A 
ATOM     75  C   UNL A   1      39.512  33.890  36.799  1.00  0.00     0.198 A 
ATOM     76  F   UNL A   1      40.837  33.624  34.873  1.00  0.00    -0.203 F 
ATOM     77  F   UNL A   1      37.156  31.628  38.369  1.00  0.00    -0.200 F 
ATOM     78  C   UNL A   1      38.575  33.389  37.691  1.00  0.00     0.200 A 
ATOM     79  F   UNL A   1      39.999  35.126  36.962  1.00  0.00    -0.200 F 
ATOM     80  F   UNL A   1      38.144  34.149  38.707  1.00  0.00    -0.200 F 
ENDBRANCH  46  70
BRANCH  58  81
ATOM     81  C   UNL A   1      44.900  27.503  34.700  1.00  0.00     0.064 A 
ATOM     82  C   UNL A   1      46.088  28.247  34.760  1.00  0.00     0.173 A 
ATOM     83  C   UNL A   1      44.782  26.389  35.546  1.00  0.00     0.173 A 
ATOM     84  F   UNL A   1      46.258  29.313  33.963  1.00  0.00    -0.203 F 
ATOM     85  C   UNL A   1      47.125  27.875  35.614  1.00  0.00     0.198 A 
ATOM     86  C   UNL A   1      45.807  26.039  36.421  1.00  0.00     0.198 A 
ATOM     87  F   UNL A   1      43.664  25.647  35.535  1.00  0.00    -0.203 F 
ATOM     88  F   UNL A   1      48.268  28.572  35.618  1.00  0.00    -0.200 F 
ATOM     89  C   UNL A   1      46.980  26.776  36.448  1.00  0.00     0.200 A 
ATOM     90  F   UNL A   1      45.659  24.986  37.237  1.00  0.00    -0.200 F 
ATOM     91  F   UNL A   1      47.975  26.425  37.274  1.00  0.00    -0.200 F 
ENDBRANCH  58  81
ENDBRANCH  32  33
ENDBRANCH  25  27
ENDBRANCH  24  25
ENDBRANCH  23  24
ENDBRANCH  22  23
ENDBRANCH  21  22
ENDBRANCH   1  21
TORSDOF 17
ENDMDL
