MODEL 1
REMARK VINA RESULT:     -11.9      0.000      0.000
REMARK SMILES C[C@H]1CC[C@@](NC(=O)N[C@H]2CCOC2)(C(=O)OCCOCCOC(=O)c2ccc(-c3c4nc(c(-c5c(F)c(F)c(F)c(F)c5F)c5ccc([nH]5)c(-c5c(F)c(F)c(F)c(F)c5F)c5nc(c(-c6c(F)c(F)c(F)c(F)c6F)c6ccc3[nH]6)C=C5)C=C4)cc2)CC1
REMARK SMILES IDX 20 1 19 2 18 3 17 4 15 5 16 6 5 7 1 8 2 9 90 10 3 11 89 12
REMARK SMILES IDX 4 13 6 14 7 15 8 17 9 18 10 20 11 21 14 22 12 23 13 24 21 25
REMARK SMILES IDX 22 26 23 27 24 28 25 29 26 30 27 31 88 32 28 33 87 34 29 35
REMARK SMILES IDX 30 36 31 37 81 38 32 39 86 40 80 41 82 42 33 43 85 44 79 45
REMARK SMILES IDX 78 46 34 48 66 49 46 50 65 51 47 52 50 53 64 54 83 55 48 56
REMARK SMILES IDX 49 57 63 59 84 60 51 61 35 62 36 63 44 64 37 65 38 66 42 67
REMARK SMILES IDX 45 68 39 69 40 70 43 71 41 72 67 73 68 74 76 75 69 76 70 77
REMARK SMILES IDX 74 78 77 79 71 80 72 81 75 82 73 83 52 84 53 85 61 86 54 87
REMARK SMILES IDX 55 88 59 89 62 90 56 91 57 92 60 93 58 94
REMARK H PARENT 6 16 9 19 82 47 50 58
REMARK Flexibility Score: inf
ROOT
ATOM      1  O   UNL A   1      32.325  30.535  26.792  1.00  0.00    -0.374 OA
ENDROOT
BRANCH   1   2
ATOM      2  C   UNL A   1      31.896  29.261  26.377  1.00  0.00     0.202 C 
BRANCH   2   3
ATOM      3  C   UNL A   1      31.495  28.240  27.461  1.00  0.00     0.261 C 
BRANCH   3   4
ATOM      4  O   UNL A   1      31.105  26.886  27.163  1.00  0.00    -0.461 OA
BRANCH   4   5
ATOM      5  C   UNL A   1      31.759  26.135  26.237  1.00  0.00     0.331 C 
ATOM      6  O   UNL A   1      32.969  26.056  26.091  1.00  0.00    -0.249 OA
BRANCH   5   7
ATOM      7  C   UNL A   1      30.794  25.372  25.332  1.00  0.00     0.139 C 
ATOM      8  C   UNL A   1      32.685  28.105  22.740  1.00  0.00     0.007 C 
ATOM      9  C   UNL A   1      31.693  26.944  22.921  1.00  0.00    -0.014 C 
ATOM     10  C   UNL A   1      30.505  27.405  23.787  1.00  0.00     0.006 C 
ATOM     11  C   UNL A   1      32.455  25.702  23.411  1.00  0.00     0.006 C 
ATOM     12  C   UNL A   1      29.808  26.312  24.614  1.00  0.00     0.041 C 
ATOM     13  C   UNL A   1      31.622  24.700  24.206  1.00  0.00     0.041 C 
BRANCH   7  14
ATOM     14  N   UNL A   1      30.092  24.313  26.105  1.00  0.00    -0.322 N 
ATOM     15  C   UNL A   1      30.385  23.281  26.896  1.00  0.00     0.316 C 
ATOM     16  H   UNL A   1      29.116  24.399  26.002  1.00  0.00     0.166 HD
ATOM     17  O   UNL A   1      29.466  22.873  27.615  1.00  0.00    -0.249 OA
ATOM     18  N   UNL A   1      31.530  22.605  26.977  1.00  0.00    -0.333 N 
ATOM     19  H   UNL A   1      31.524  21.982  27.739  1.00  0.00     0.165 HD
BRANCH  18  20
ATOM     20  C   UNL A   1      32.784  22.535  26.251  1.00  0.00     0.112 C 
ATOM     21  C   UNL A   1      34.014  22.894  27.046  1.00  0.00     0.056 C 
ATOM     22  C   UNL A   1      33.171  21.146  25.738  1.00  0.00     0.185 C 
ATOM     23  C   UNL A   1      35.104  22.379  26.127  1.00  0.00     0.162 C 
ATOM     24  O   UNL A   1      34.597  21.164  25.545  1.00  0.00    -0.379 OA
ENDBRANCH  18  20
ENDBRANCH   7  14
ENDBRANCH   5   7
ENDBRANCH   4   5
ENDBRANCH   3   4
ENDBRANCH   2   3
ENDBRANCH   1   2
BRANCH   1  25
ATOM     25  C   UNL A   1      31.486  31.653  26.510  1.00  0.00     0.202 C 
BRANCH  25  26
ATOM     26  C   UNL A   1      32.027  33.044  26.874  1.00  0.00     0.261 C 
BRANCH  26  27
ATOM     27  O   UNL A   1      32.854  33.058  28.049  1.00  0.00    -0.460 OA
BRANCH  27  28
ATOM     28  C   UNL A   1      33.930  33.874  28.002  1.00  0.00     0.338 C 
ATOM     29  O   UNL A   1      33.943  35.081  27.844  1.00  0.00    -0.246 OA
BRANCH  28  30
ATOM     30  C   UNL A   1      35.084  33.078  28.451  1.00  0.00     0.060 A 
ATOM     31  C   UNL A   1      34.854  31.757  28.859  1.00  0.00     0.016 A 
ATOM     32  C   UNL A   1      36.380  33.599  28.404  1.00  0.00     0.016 A 
ATOM     33  C   UNL A   1      35.923  30.953  29.238  1.00  0.00     0.010 A 
ATOM     34  C   UNL A   1      37.448  32.803  28.816  1.00  0.00     0.010 A 
ATOM     35  C   UNL A   1      37.216  31.489  29.260  1.00  0.00    -0.014 A 
BRANCH  35  36
ATOM     36  C   UNL A   1      38.281  30.758  29.977  1.00  0.00     0.031 A 
ATOM     37  C   UNL A   1      38.507  31.103  31.420  1.00  0.00     0.074 A 
ATOM     38  C   UNL A   1      39.007  29.803  29.371  1.00  0.00     0.049 A 
ATOM     39  N   UNL A   1      39.395  30.638  32.259  1.00  0.00    -0.248 NA
ATOM     40  C   UNL A   1      37.603  32.114  31.996  1.00  0.00     0.031 C 
ATOM     41  C   UNL A   1      38.838  29.361  27.990  1.00  0.00     0.029 A 
ATOM     42  N   UNL A   1      40.039  29.039  29.850  1.00  0.00    -0.354 N 
ATOM     43  C   UNL A   1      39.157  31.299  33.457  1.00  0.00     0.074 A 
ATOM     44  C   UNL A   1      38.063  32.217  33.233  1.00  0.00     0.031 C 
ATOM     45  C   UNL A   1      39.753  28.411  27.725  1.00  0.00     0.029 A 
ATOM     46  C   UNL A   1      40.585  28.203  28.909  1.00  0.00     0.049 A 
ATOM     47  H   UNL A   1      40.358  29.085  30.780  1.00  0.00     0.167 HD
ATOM     48  C   UNL A   1      39.794  31.148  34.640  1.00  0.00     0.037 A 
ATOM     49  C   UNL A   1      41.655  27.388  28.995  1.00  0.00     0.037 A 
ATOM     50  C   UNL A   1      40.888  30.240  34.849  1.00  0.00     0.049 A 
ATOM     51  C   UNL A   1      42.400  27.297  30.304  1.00  0.00     0.074 A 
ATOM     52  C   UNL A   1      41.597  29.995  36.010  1.00  0.00     0.029 A 
ATOM     53  N   UNL A   1      41.441  29.436  33.861  1.00  0.00    -0.354 N 
ATOM     54  N   UNL A   1      42.154  27.900  31.443  1.00  0.00    -0.248 NA
ATOM     55  C   UNL A   1      43.573  26.412  30.339  1.00  0.00     0.031 C 
ATOM     56  C   UNL A   1      42.616  29.085  35.713  1.00  0.00     0.029 A 
ATOM     57  C   UNL A   1      42.505  28.719  34.380  1.00  0.00     0.049 A 
ATOM     58  H   UNL A   1      41.123  29.385  32.930  1.00  0.00     0.167 HD
ATOM     59  C   UNL A   1      43.123  27.453  32.333  1.00  0.00     0.074 A 
ATOM     60  C   UNL A   1      43.950  26.513  31.605  1.00  0.00     0.031 C 
ATOM     61  C   UNL A   1      43.314  27.789  33.633  1.00  0.00     0.037 A 
BRANCH  48  62
ATOM     62  C   UNL A   1      39.343  32.009  35.781  1.00  0.00     0.064 A 
ATOM     63  C   UNL A   1      39.872  33.292  35.993  1.00  0.00     0.173 A 
ATOM     64  C   UNL A   1      38.357  31.551  36.666  1.00  0.00     0.173 A 
ATOM     65  F   UNL A   1      40.835  33.766  35.189  1.00  0.00    -0.203 F 
ATOM     66  C   UNL A   1      39.445  34.074  37.063  1.00  0.00     0.198 A 
ATOM     67  C   UNL A   1      37.912  32.347  37.717  1.00  0.00     0.198 A 
ATOM     68  F   UNL A   1      37.823  30.330  36.510  1.00  0.00    -0.203 F 
ATOM     69  F   UNL A   1      39.999  35.275  37.275  1.00  0.00    -0.200 F 
ATOM     70  C   UNL A   1      38.460  33.604  37.919  1.00  0.00     0.200 A 
ATOM     71  F   UNL A   1      36.954  31.895  38.538  1.00  0.00    -0.200 F 
ATOM     72  F   UNL A   1      38.045  34.361  38.944  1.00  0.00    -0.200 F 
ENDBRANCH  48  62
BRANCH  49  73
ATOM     73  C   UNL A   1      42.101  26.612  27.808  1.00  0.00     0.064 A 
ATOM     74  C   UNL A   1      41.594  25.334  27.541  1.00  0.00     0.173 A 
ATOM     75  C   UNL A   1      43.070  27.124  26.931  1.00  0.00     0.173 A 
ATOM     76  F   UNL A   1      40.687  24.787  28.364  1.00  0.00    -0.203 F 
ATOM     77  C   UNL A   1      42.050  24.590  26.453  1.00  0.00     0.198 A 
ATOM     78  C   UNL A   1      43.504  26.392  25.827  1.00  0.00     0.198 A 
ATOM     79  F   UNL A   1      43.595  28.340  27.144  1.00  0.00    -0.203 F 
ATOM     80  F   UNL A   1      41.583  23.350  26.249  1.00  0.00    -0.200 F 
ATOM     81  C   UNL A   1      42.999  25.122  25.594  1.00  0.00     0.200 A 
ATOM     82  F   UNL A   1      44.415  26.915  24.995  1.00  0.00    -0.200 F 
ATOM     83  F   UNL A   1      43.436  24.407  24.549  1.00  0.00    -0.200 F 
ENDBRANCH  49  73
BRANCH  61  84
ATOM     84  C   UNL A   1      44.447  27.121  34.358  1.00  0.00     0.064 A 
ATOM     85  C   UNL A   1      45.712  27.718  34.452  1.00  0.00     0.173 A 
ATOM     86  C   UNL A   1      44.248  25.894  35.010  1.00  0.00     0.173 A 
ATOM     87  F   UNL A   1      45.956  28.885  33.837  1.00  0.00    -0.203 F 
ATOM     88  C   UNL A   1      46.744  27.098  35.151  1.00  0.00     0.198 A 
ATOM     89  C   UNL A   1      45.272  25.293  35.734  1.00  0.00     0.198 A 
ATOM     90  F   UNL A   1      43.053  25.287  34.958  1.00  0.00    -0.203 F 
ATOM     91  F   UNL A   1      47.958  27.663  35.190  1.00  0.00    -0.200 F 
ATOM     92  C   UNL A   1      46.522  25.892  35.799  1.00  0.00     0.200 A 
ATOM     93  F   UNL A   1      45.050  24.136  36.373  1.00  0.00    -0.200 F 
ATOM     94  F   UNL A   1      47.513  25.302  36.480  1.00  0.00    -0.200 F 
ENDBRANCH  61  84
ENDBRANCH  35  36
ENDBRANCH  28  30
ENDBRANCH  27  28
ENDBRANCH  26  27
ENDBRANCH  25  26
ENDBRANCH   1  25
TORSDOF 16
ENDMDL
MODEL 2
REMARK VINA RESULT:     -11.9      4.387     10.297
REMARK SMILES C[C@H]1CC[C@@](NC(=O)N[C@H]2CCOC2)(C(=O)OCCOCCOC(=O)c2ccc(-c3c4nc(c(-c5c(F)c(F)c(F)c(F)c5F)c5ccc([nH]5)c(-c5c(F)c(F)c(F)c(F)c5F)c5nc(c(-c6c(F)c(F)c(F)c(F)c6F)c6ccc3[nH]6)C=C5)C=C4)cc2)CC1
REMARK SMILES IDX 20 1 19 2 18 3 17 4 15 5 16 6 5 7 1 8 2 9 90 10 3 11 89 12
REMARK SMILES IDX 4 13 6 14 7 15 8 17 9 18 10 20 11 21 14 22 12 23 13 24 21 25
REMARK SMILES IDX 22 26 23 27 24 28 25 29 26 30 27 31 88 32 28 33 87 34 29 35
REMARK SMILES IDX 30 36 31 37 81 38 32 39 86 40 80 41 82 42 33 43 85 44 79 45
REMARK SMILES IDX 78 46 34 48 66 49 46 50 65 51 47 52 50 53 64 54 83 55 48 56
REMARK SMILES IDX 49 57 63 59 84 60 51 61 35 62 36 63 44 64 37 65 38 66 42 67
REMARK SMILES IDX 45 68 39 69 40 70 43 71 41 72 67 73 68 74 76 75 69 76 70 77
REMARK SMILES IDX 74 78 77 79 71 80 72 81 75 82 73 83 52 84 53 85 61 86 54 87
REMARK SMILES IDX 55 88 59 89 62 90 56 91 57 92 60 93 58 94
REMARK H PARENT 6 16 9 19 82 47 50 58
REMARK Flexibility Score: inf
ROOT
ATOM      1  O   UNL A   1      37.342  21.283  25.238  1.00  0.00    -0.374 OA
ENDROOT
BRANCH   1   2
ATOM      2  C   UNL A   1      36.192  21.739  24.568  1.00  0.00     0.202 C 
BRANCH   2   3
ATOM      3  C   UNL A   1      36.376  22.722  23.393  1.00  0.00     0.261 C 
BRANCH   3   4
ATOM      4  O   UNL A   1      35.276  23.363  22.722  1.00  0.00    -0.461 OA
BRANCH   4   5
ATOM      5  C   UNL A   1      34.325  24.059  23.400  1.00  0.00     0.331 C 
ATOM      6  O   UNL A   1      34.516  24.836  24.323  1.00  0.00    -0.249 OA
BRANCH   5   7
ATOM      7  C   UNL A   1      32.918  23.753  22.893  1.00  0.00     0.139 C 
ATOM      8  C   UNL A   1      32.998  22.080  26.760  1.00  0.00     0.007 C 
ATOM      9  C   UNL A   1      32.198  22.390  25.484  1.00  0.00    -0.014 C 
ATOM     10  C   UNL A   1      32.789  21.605  24.297  1.00  0.00     0.006 C 
ATOM     11  C   UNL A   1      32.093  23.914  25.312  1.00  0.00     0.006 C 
ATOM     12  C   UNL A   1      32.612  22.244  22.910  1.00  0.00     0.041 C 
ATOM     13  C   UNL A   1      31.903  24.394  23.876  1.00  0.00     0.041 C 
BRANCH   7  14
ATOM     14  N   UNL A   1      32.716  24.348  21.544  1.00  0.00    -0.322 N 
ATOM     15  C   UNL A   1      32.879  25.516  20.924  1.00  0.00     0.316 C 
ATOM     16  H   UNL A   1      32.352  23.677  20.922  1.00  0.00     0.166 HD
ATOM     17  O   UNL A   1      32.910  25.472  19.689  1.00  0.00    -0.249 OA
ATOM     18  N   UNL A   1      32.968  26.730  21.465  1.00  0.00    -0.333 N 
ATOM     19  H   UNL A   1      33.226  27.402  20.793  1.00  0.00     0.165 HD
BRANCH  18  20
ATOM     20  C   UNL A   1      32.791  27.334  22.771  1.00  0.00     0.112 C 
ATOM     21  C   UNL A   1      33.811  28.381  23.145  1.00  0.00     0.056 C 
ATOM     22  C   UNL A   1      31.492  28.120  22.963  1.00  0.00     0.185 C 
ATOM     23  C   UNL A   1      33.135  29.018  24.343  1.00  0.00     0.162 C 
ATOM     24  O   UNL A   1      31.727  29.041  24.044  1.00  0.00    -0.379 OA
ENDBRANCH  18  20
ENDBRANCH   7  14
ENDBRANCH   5   7
ENDBRANCH   4   5
ENDBRANCH   3   4
ENDBRANCH   2   3
ENDBRANCH   1   2
BRANCH   1  25
ATOM     25  C   UNL A   1      37.798  19.959  24.968  1.00  0.00     0.202 C 
BRANCH  25  26
ATOM     26  C   UNL A   1      39.131  19.534  25.602  1.00  0.00     0.261 C 
BRANCH  26  27
ATOM     27  O   UNL A   1      40.029  20.626  25.855  1.00  0.00    -0.460 OA
BRANCH  27  28
ATOM     28  C   UNL A   1      40.678  20.593  27.040  1.00  0.00     0.338 C 
ATOM     29  O   UNL A   1      41.149  19.623  27.604  1.00  0.00    -0.246 OA
BRANCH  28  30
ATOM     30  C   UNL A   1      40.958  21.991  27.408  1.00  0.00     0.060 A 
ATOM     31  C   UNL A   1      40.171  22.994  26.827  1.00  0.00     0.016 A 
ATOM     32  C   UNL A   1      41.931  22.303  28.362  1.00  0.00     0.016 A 
ATOM     33  C   UNL A   1      40.365  24.323  27.189  1.00  0.00     0.010 A 
ATOM     34  C   UNL A   1      42.147  23.638  28.699  1.00  0.00     0.010 A 
ATOM     35  C   UNL A   1      41.384  24.650  28.091  1.00  0.00    -0.014 A 
BRANCH  35  36
ATOM     36  C   UNL A   1      41.808  26.060  28.209  1.00  0.00     0.031 A 
ATOM     37  C   UNL A   1      43.144  26.432  27.633  1.00  0.00     0.074 A 
ATOM     38  C   UNL A   1      41.022  26.984  28.786  1.00  0.00     0.049 A 
ATOM     39  N   UNL A   1      43.762  27.584  27.635  1.00  0.00    -0.248 NA
ATOM     40  C   UNL A   1      43.886  25.351  26.961  1.00  0.00     0.031 C 
ATOM     41  C   UNL A   1      39.691  26.739  29.335  1.00  0.00     0.029 A 
ATOM     42  N   UNL A   1      41.242  28.319  29.010  1.00  0.00    -0.354 N 
ATOM     43  C   UNL A   1      44.959  27.365  26.969  1.00  0.00     0.074 A 
ATOM     44  C   UNL A   1      45.000  25.969  26.600  1.00  0.00     0.031 C 
ATOM     45  C   UNL A   1      39.217  27.888  29.852  1.00  0.00     0.029 A 
ATOM     46  C   UNL A   1      40.225  28.936  29.693  1.00  0.00     0.049 A 
ATOM     47  H   UNL A   1      42.052  28.790  28.708  1.00  0.00     0.167 HD
ATOM     48  C   UNL A   1      45.938  28.255  26.686  1.00  0.00     0.037 A 
ATOM     49  C   UNL A   1      40.138  30.197  30.159  1.00  0.00     0.037 A 
ATOM     50  C   UNL A   1      45.894  29.640  27.068  1.00  0.00     0.049 A 
ATOM     51  C   UNL A   1      41.280  31.150  29.902  1.00  0.00     0.074 A 
ATOM     52  C   UNL A   1      46.822  30.634  26.820  1.00  0.00     0.029 A 
ATOM     53  N   UNL A   1      44.864  30.222  27.795  1.00  0.00    -0.354 N 
ATOM     54  N   UNL A   1      42.398  30.949  29.245  1.00  0.00    -0.248 NA
ATOM     55  C   UNL A   1      41.147  32.506  30.452  1.00  0.00     0.031 C 
ATOM     56  C   UNL A   1      46.382  31.804  27.446  1.00  0.00     0.029 A 
ATOM     57  C   UNL A   1      45.151  31.555  28.033  1.00  0.00     0.049 A 
ATOM     58  H   UNL A   1      44.050  29.755  28.096  1.00  0.00     0.167 HD
ATOM     59  C   UNL A   1      43.089  32.153  29.283  1.00  0.00     0.074 A 
ATOM     60  C   UNL A   1      42.255  33.087  30.012  1.00  0.00     0.031 C 
ATOM     61  C   UNL A   1      44.303  32.463  28.764  1.00  0.00     0.037 A 
BRANCH  48  62
ATOM     62  C   UNL A   1      47.148  27.745  25.963  1.00  0.00     0.064 A 
ATOM     63  C   UNL A   1      47.229  27.748  24.562  1.00  0.00     0.173 A 
ATOM     64  C   UNL A   1      48.248  27.260  26.683  1.00  0.00     0.173 A 
ATOM     65  F   UNL A   1      46.193  28.180  23.827  1.00  0.00    -0.203 F 
ATOM     66  C   UNL A   1      48.359  27.263  23.909  1.00  0.00     0.198 A 
ATOM     67  C   UNL A   1      49.388  26.803  26.029  1.00  0.00     0.198 A 
ATOM     68  F   UNL A   1      48.219  27.230  28.025  1.00  0.00    -0.203 F 
ATOM     69  F   UNL A   1      48.394  27.230  22.570  1.00  0.00    -0.200 F 
ATOM     70  C   UNL A   1      49.440  26.798  24.644  1.00  0.00     0.200 A 
ATOM     71  F   UNL A   1      50.435  26.361  26.739  1.00  0.00    -0.200 F 
ATOM     72  F   UNL A   1      50.530  26.338  24.013  1.00  0.00    -0.200 F 
ENDBRANCH  48  62
BRANCH  49  73
ATOM     73  C   UNL A   1      38.946  30.628  30.935  1.00  0.00     0.064 A 
ATOM     74  C   UNL A   1      37.839  31.211  30.305  1.00  0.00     0.173 A 
ATOM     75  C   UNL A   1      38.902  30.491  32.332  1.00  0.00     0.173 A 
ATOM     76  F   UNL A   1      37.843  31.391  28.976  1.00  0.00    -0.203 F 
ATOM     77  C   UNL A   1      36.742  31.656  31.041  1.00  0.00     0.198 A 
ATOM     78  C   UNL A   1      37.792  30.910  33.064  1.00  0.00     0.198 A 
ATOM     79  F   UNL A   1      39.937  29.945  32.987  1.00  0.00    -0.203 F 
ATOM     80  F   UNL A   1      35.718  32.256  30.417  1.00  0.00    -0.200 F 
ATOM     81  C   UNL A   1      36.717  31.500  32.419  1.00  0.00     0.200 A 
ATOM     82  F   UNL A   1      37.770  30.747  34.394  1.00  0.00    -0.200 F 
ATOM     83  F   UNL A   1      35.662  31.928  33.125  1.00  0.00    -0.200 F 
ENDBRANCH  49  73
BRANCH  61  84
ATOM     84  C   UNL A   1      44.793  33.870  28.947  1.00  0.00     0.064 A 
ATOM     85  C   UNL A   1      45.597  34.232  30.038  1.00  0.00     0.173 A 
ATOM     86  C   UNL A   1      44.499  34.854  27.991  1.00  0.00     0.173 A 
ATOM     87  F   UNL A   1      45.897  33.330  30.984  1.00  0.00    -0.203 F 
ATOM     88  C   UNL A   1      46.065  35.536  30.179  1.00  0.00     0.198 A 
ATOM     89  C   UNL A   1      44.995  36.148  28.119  1.00  0.00     0.198 A 
ATOM     90  F   UNL A   1      43.743  34.557  26.924  1.00  0.00    -0.203 F 
ATOM     91  F   UNL A   1      46.793  35.871  31.252  1.00  0.00    -0.200 F 
ATOM     92  C   UNL A   1      45.772  36.490  29.215  1.00  0.00     0.200 A 
ATOM     93  F   UNL A   1      44.725  37.063  27.178  1.00  0.00    -0.200 F 
ATOM     94  F   UNL A   1      46.234  37.740  29.347  1.00  0.00    -0.200 F 
ENDBRANCH  61  84
ENDBRANCH  35  36
ENDBRANCH  28  30
ENDBRANCH  27  28
ENDBRANCH  26  27
ENDBRANCH  25  26
ENDBRANCH   1  25
TORSDOF 16
ENDMDL
MODEL 3
REMARK VINA RESULT:     -11.8      4.399     10.280
REMARK SMILES C[C@H]1CC[C@@](NC(=O)N[C@H]2CCOC2)(C(=O)OCCOCCOC(=O)c2ccc(-c3c4nc(c(-c5c(F)c(F)c(F)c(F)c5F)c5ccc([nH]5)c(-c5c(F)c(F)c(F)c(F)c5F)c5nc(c(-c6c(F)c(F)c(F)c(F)c6F)c6ccc3[nH]6)C=C5)C=C4)cc2)CC1
REMARK SMILES IDX 20 1 19 2 18 3 17 4 15 5 16 6 5 7 1 8 2 9 90 10 3 11 89 12
REMARK SMILES IDX 4 13 6 14 7 15 8 17 9 18 10 20 11 21 14 22 12 23 13 24 21 25
REMARK SMILES IDX 22 26 23 27 24 28 25 29 26 30 27 31 88 32 28 33 87 34 29 35
REMARK SMILES IDX 30 36 31 37 81 38 32 39 86 40 80 41 82 42 33 43 85 44 79 45
REMARK SMILES IDX 78 46 34 48 66 49 46 50 65 51 47 52 50 53 64 54 83 55 48 56
REMARK SMILES IDX 49 57 63 59 84 60 51 61 35 62 36 63 44 64 37 65 38 66 42 67
REMARK SMILES IDX 45 68 39 69 40 70 43 71 41 72 67 73 68 74 76 75 69 76 70 77
REMARK SMILES IDX 74 78 77 79 71 80 72 81 75 82 73 83 52 84 53 85 61 86 54 87
REMARK SMILES IDX 55 88 59 89 62 90 56 91 57 92 60 93 58 94
REMARK H PARENT 6 16 9 19 82 47 50 58
REMARK Flexibility Score: inf
ROOT
ATOM      1  O   UNL A   1      37.365  21.344  25.347  1.00  0.00    -0.374 OA
ENDROOT
BRANCH   1   2
ATOM      2  C   UNL A   1      36.204  21.851  24.736  1.00  0.00     0.202 C 
BRANCH   2   3
ATOM      3  C   UNL A   1      36.369  22.765  23.505  1.00  0.00     0.261 C 
BRANCH   3   4
ATOM      4  O   UNL A   1      35.255  23.307  22.771  1.00  0.00    -0.461 OA
BRANCH   4   5
ATOM      5  C   UNL A   1      34.309  24.081  23.364  1.00  0.00     0.331 C 
ATOM      6  O   UNL A   1      34.498  24.920  24.232  1.00  0.00    -0.249 OA
BRANCH   5   7
ATOM      7  C   UNL A   1      32.907  23.781  22.837  1.00  0.00     0.139 C 
ATOM      8  C   UNL A   1      32.928  22.100  26.701  1.00  0.00     0.007 C 
ATOM      9  C   UNL A   1      32.147  22.415  25.414  1.00  0.00    -0.014 C 
ATOM     10  C   UNL A   1      32.752  21.630  24.234  1.00  0.00     0.006 C 
ATOM     11  C   UNL A   1      32.049  23.940  25.244  1.00  0.00     0.006 C 
ATOM     12  C   UNL A   1      32.596  22.273  22.846  1.00  0.00     0.041 C 
ATOM     13  C   UNL A   1      31.881  24.423  23.805  1.00  0.00     0.041 C 
BRANCH   7  14
ATOM     14  N   UNL A   1      32.727  24.379  21.486  1.00  0.00    -0.322 N 
ATOM     15  C   UNL A   1      32.889  25.551  20.874  1.00  0.00     0.316 C 
ATOM     16  H   UNL A   1      32.384  23.706  20.854  1.00  0.00     0.166 HD
ATOM     17  O   UNL A   1      32.946  25.513  19.639  1.00  0.00    -0.249 OA
ATOM     18  N   UNL A   1      32.952  26.764  21.421  1.00  0.00    -0.333 N 
ATOM     19  H   UNL A   1      33.215  27.442  20.758  1.00  0.00     0.165 HD
BRANCH  18  20
ATOM     20  C   UNL A   1      32.741  27.361  22.726  1.00  0.00     0.112 C 
ATOM     21  C   UNL A   1      33.728  28.431  23.117  1.00  0.00     0.056 C 
ATOM     22  C   UNL A   1      31.419  28.114  22.900  1.00  0.00     0.185 C 
ATOM     23  C   UNL A   1      33.019  29.048  24.306  1.00  0.00     0.162 C 
ATOM     24  O   UNL A   1      31.615  29.038  23.985  1.00  0.00    -0.379 OA
ENDBRANCH  18  20
ENDBRANCH   7  14
ENDBRANCH   5   7
ENDBRANCH   4   5
ENDBRANCH   3   4
ENDBRANCH   2   3
ENDBRANCH   1   2
BRANCH   1  25
ATOM     25  C   UNL A   1      37.797  20.032  24.992  1.00  0.00     0.202 C 
BRANCH  25  26
ATOM     26  C   UNL A   1      39.148  19.564  25.552  1.00  0.00     0.261 C 
BRANCH  26  27
ATOM     27  O   UNL A   1      40.079  20.631  25.792  1.00  0.00    -0.460 OA
BRANCH  27  28
ATOM     28  C   UNL A   1      40.696  20.614  26.994  1.00  0.00     0.338 C 
ATOM     29  O   UNL A   1      41.153  19.652  27.584  1.00  0.00    -0.246 OA
BRANCH  28  30
ATOM     30  C   UNL A   1      40.964  22.017  27.352  1.00  0.00     0.060 A 
ATOM     31  C   UNL A   1      40.305  23.018  26.625  1.00  0.00     0.016 A 
ATOM     32  C   UNL A   1      41.794  22.339  28.429  1.00  0.00     0.016 A 
ATOM     33  C   UNL A   1      40.487  24.354  26.967  1.00  0.00     0.010 A 
ATOM     34  C   UNL A   1      42.002  23.680  28.748  1.00  0.00     0.010 A 
ATOM     35  C   UNL A   1      41.371  24.688  27.999  1.00  0.00    -0.014 A 
BRANCH  35  36
ATOM     36  C   UNL A   1      41.819  26.090  28.129  1.00  0.00     0.031 A 
ATOM     37  C   UNL A   1      43.161  26.444  27.557  1.00  0.00     0.074 A 
ATOM     38  C   UNL A   1      41.049  27.022  28.716  1.00  0.00     0.049 A 
ATOM     39  N   UNL A   1      43.799  27.585  27.571  1.00  0.00    -0.248 NA
ATOM     40  C   UNL A   1      43.885  25.356  26.875  1.00  0.00     0.031 C 
ATOM     41  C   UNL A   1      39.714  26.794  29.263  1.00  0.00     0.029 A 
ATOM     42  N   UNL A   1      41.291  28.350  28.952  1.00  0.00    -0.354 N 
ATOM     43  C   UNL A   1      44.992  27.352  26.902  1.00  0.00     0.074 A 
ATOM     44  C   UNL A   1      45.009  25.959  26.520  1.00  0.00     0.031 C 
ATOM     45  C   UNL A   1      39.260  27.945  29.790  1.00  0.00     0.029 A 
ATOM     46  C   UNL A   1      40.285  28.977  29.642  1.00  0.00     0.049 A 
ATOM     47  H   UNL A   1      42.109  28.810  28.655  1.00  0.00     0.167 HD
ATOM     48  C   UNL A   1      45.986  28.228  26.627  1.00  0.00     0.037 A 
ATOM     49  C   UNL A   1      40.220  30.236  30.120  1.00  0.00     0.037 A 
ATOM     50  C   UNL A   1      45.965  29.610  27.022  1.00  0.00     0.049 A 
ATOM     51  C   UNL A   1      41.377  31.172  29.871  1.00  0.00     0.074 A 
ATOM     52  C   UNL A   1      46.910  30.590  26.784  1.00  0.00     0.029 A 
ATOM     53  N   UNL A   1      44.946  30.202  27.755  1.00  0.00    -0.354 N 
ATOM     54  N   UNL A   1      42.492  30.958  29.212  1.00  0.00    -0.248 NA
ATOM     55  C   UNL A   1      41.268  32.525  30.434  1.00  0.00     0.031 C 
ATOM     56  C   UNL A   1      46.491  31.761  27.421  1.00  0.00     0.029 A 
ATOM     57  C   UNL A   1      45.255  31.528  28.006  1.00  0.00     0.049 A 
ATOM     58  H   UNL A   1      44.124  29.747  28.051  1.00  0.00     0.167 HD
ATOM     59  C   UNL A   1      43.204  32.150  29.261  1.00  0.00     0.074 A 
ATOM     60  C   UNL A   1      42.386  33.090  30.000  1.00  0.00     0.031 C 
ATOM     61  C   UNL A   1      44.423  32.443  28.745  1.00  0.00     0.037 A 
BRANCH  48  62
ATOM     62  C   UNL A   1      47.187  27.704  25.900  1.00  0.00     0.064 A 
ATOM     63  C   UNL A   1      47.266  27.716  24.499  1.00  0.00     0.173 A 
ATOM     64  C   UNL A   1      48.281  27.197  26.615  1.00  0.00     0.173 A 
ATOM     65  F   UNL A   1      46.236  28.167  23.768  1.00  0.00    -0.203 F 
ATOM     66  C   UNL A   1      48.388  27.217  23.841  1.00  0.00     0.198 A 
ATOM     67  C   UNL A   1      49.412  26.728  25.956  1.00  0.00     0.198 A 
ATOM     68  F   UNL A   1      48.253  27.160  27.956  1.00  0.00    -0.203 F 
ATOM     69  F   UNL A   1      48.422  27.192  22.502  1.00  0.00    -0.200 F 
ATOM     70  C   UNL A   1      49.463  26.731  24.571  1.00  0.00     0.200 A 
ATOM     71  F   UNL A   1      50.454  26.265  26.662  1.00  0.00    -0.200 F 
ATOM     72  F   UNL A   1      50.545  26.258  23.937  1.00  0.00    -0.200 F 
ENDBRANCH  48  62
BRANCH  49  73
ATOM     73  C   UNL A   1      39.035  30.679  30.900  1.00  0.00     0.064 A 
ATOM     74  C   UNL A   1      38.977  30.518  32.290  1.00  0.00     0.173 A 
ATOM     75  C   UNL A   1      37.920  31.249  30.265  1.00  0.00     0.173 A 
ATOM     76  F   UNL A   1      40.004  29.952  32.942  1.00  0.00    -0.203 F 
ATOM     77  C   UNL A   1      37.845  30.892  33.013  1.00  0.00     0.198 A 
ATOM     78  C   UNL A   1      36.801  31.650  30.991  1.00  0.00     0.198 A 
ATOM     79  F   UNL A   1      37.920  31.420  28.934  1.00  0.00    -0.203 F 
ATOM     80  F   UNL A   1      37.797  30.681  34.336  1.00  0.00    -0.200 F 
ATOM     81  C   UNL A   1      36.761  31.463  32.364  1.00  0.00     0.200 A 
ATOM     82  F   UNL A   1      35.760  32.210  30.360  1.00  0.00    -0.200 F 
ATOM     83  F   UNL A   1      35.674  31.823  33.060  1.00  0.00    -0.200 F 
ENDBRANCH  49  73
BRANCH  61  84
ATOM     84  C   UNL A   1      44.937  33.840  28.942  1.00  0.00     0.064 A 
ATOM     85  C   UNL A   1      44.593  34.879  28.066  1.00  0.00     0.173 A 
ATOM     86  C   UNL A   1      45.739  34.152  30.050  1.00  0.00     0.173 A 
ATOM     87  F   UNL A   1      43.838  34.630  26.985  1.00  0.00    -0.203 F 
ATOM     88  C   UNL A   1      45.056  36.175  28.278  1.00  0.00     0.198 A 
ATOM     89  C   UNL A   1      46.173  35.454  30.276  1.00  0.00     0.198 A 
ATOM     90  F   UNL A   1      46.087  33.196  30.924  1.00  0.00    -0.203 F 
ATOM     91  F   UNL A   1      44.753  37.144  27.403  1.00  0.00    -0.200 F 
ATOM     92  C   UNL A   1      45.837  36.464  29.387  1.00  0.00     0.200 A 
ATOM     93  F   UNL A   1      46.913  35.734  31.358  1.00  0.00    -0.200 F 
ATOM     94  F   UNL A   1      46.272  37.714  29.595  1.00  0.00    -0.200 F 
ENDBRANCH  61  84
ENDBRANCH  35  36
ENDBRANCH  28  30
ENDBRANCH  27  28
ENDBRANCH  26  27
ENDBRANCH  25  26
ENDBRANCH   1  25
TORSDOF 16
ENDMDL
