MODEL 1
REMARK VINA RESULT:     -13.1      0.000      0.000
REMARK SMILES C[C@H]1CCc2sc3ncn4nc(/C=C\C(=O)OCCOCCOC(=O)c5ccc(-c6c7nc(c(-c8c(F)c(F)c(F)c(F)c8F)c8ccc([nH]8)c(-c8c(F)c(F)c(F)c(F)c8F)c8nc(c(-c9c(F)c(F)c(F)c(F)c9F)c9ccc6[nH]9)C=C8)C=C7)cc5)nc4c3c2C1
REMARK SMILES IDX 21 1 20 2 19 3 18 4 17 5 15 6 16 7 14 8 13 9 12 10 1 11 2 12
REMARK SMILES IDX 3 13 93 14 4 15 92 16 5 17 91 18 6 19 7 20 90 21 8 22 10 23
REMARK SMILES IDX 89 24 9 25 11 26 22 27 23 28 24 29 25 30 26 31 27 32 88 33
REMARK SMILES IDX 28 34 87 35 29 36 30 37 31 38 81 39 32 40 86 41 80 42 82 43
REMARK SMILES IDX 33 44 85 45 79 46 78 47 34 49 66 50 46 51 65 52 47 53 50 54
REMARK SMILES IDX 64 55 83 56 48 57 49 58 63 60 84 61 51 62 35 63 36 64 44 65
REMARK SMILES IDX 37 66 38 67 42 68 45 69 39 70 40 71 43 72 41 73 67 74 68 75
REMARK SMILES IDX 76 76 69 77 70 78 74 79 77 80 71 81 72 82 75 83 73 84 52 85
REMARK SMILES IDX 53 86 61 87 54 88 55 89 59 90 62 91 56 92 57 93 60 94 58 95
REMARK H PARENT 82 48 50 59
REMARK Flexibility Score: inf
ROOT
ATOM      1  C   UNL A   1      42.287  18.897  26.017  1.00  0.00     0.202 C 
ENDROOT
BRANCH   1   2
ATOM      2  O   UNL A   1      42.039  19.440  27.306  1.00  0.00    -0.374 OA
BRANCH   2   3
ATOM      3  C   UNL A   1      41.695  20.812  27.376  1.00  0.00     0.202 C 
BRANCH   3   4
ATOM      4  C   UNL A   1      40.599  21.353  26.460  1.00  0.00     0.261 C 
BRANCH   4   5
ATOM      5  O   UNL A   1      39.649  22.247  27.014  1.00  0.00    -0.460 OA
BRANCH   5   6
ATOM      6  C   UNL A   1      38.672  22.790  26.307  1.00  0.00     0.330 C 
ATOM      7  O   UNL A   1      38.464  23.994  26.128  1.00  0.00    -0.247 OA
BRANCH   6   8
ATOM      8  C   UNL A   1      37.989  21.721  25.541  1.00  0.00     0.097 C 
ATOM      9  C   UNL A   1      36.680  21.470  25.320  1.00  0.00     0.058 C 
BRANCH   9  10
ATOM     10  C   UNL A   1      35.464  22.152  25.674  1.00  0.00     0.175 A 
ATOM     11  C   UNL A   1      32.275  25.854  21.057  1.00  0.00     0.008 C 
ATOM     12  C   UNL A   1      33.130  26.614  22.082  1.00  0.00    -0.009 C 
ATOM     13  C   UNL A   1      32.437  27.851  22.678  1.00  0.00     0.009 C 
ATOM     14  C   UNL A   1      33.609  25.695  23.204  1.00  0.00     0.041 C 
ATOM     15  C   UNL A   1      31.272  27.510  23.646  1.00  0.00     0.047 C 
ATOM     16  C   UNL A   1      32.725  25.559  24.366  1.00  0.00    -0.020 A 
ATOM     17  C   UNL A   1      31.638  26.373  24.564  1.00  0.00     0.011 A 
ATOM     18  C   UNL A   1      32.858  24.592  25.378  1.00  0.00     0.060 A 
ATOM     19  S   UNL A   1      30.728  25.873  25.928  1.00  0.00    -0.120 S 
ATOM     20  C   UNL A   1      31.815  24.579  26.284  1.00  0.00     0.129 A 
ATOM     21  C   UNL A   1      33.884  23.556  25.604  1.00  0.00     0.168 A 
ATOM     22  N   UNL A   1      31.631  23.686  27.318  1.00  0.00    -0.225 NA
ATOM     23  N   UNL A   1      33.674  22.685  26.622  1.00  0.00    -0.201 N 
ATOM     24  N   UNL A   1      35.013  23.272  25.006  1.00  0.00    -0.207 NA
ATOM     25  C   UNL A   1      32.552  22.756  27.451  1.00  0.00     0.227 A 
ATOM     26  N   UNL A   1      34.676  21.784  26.710  1.00  0.00    -0.145 NA
ENDBRANCH   9  10
ENDBRANCH   6   8
ENDBRANCH   5   6
ENDBRANCH   4   5
ENDBRANCH   3   4
ENDBRANCH   2   3
ENDBRANCH   1   2
BRANCH   1  27
ATOM     27  C   UNL A   1      43.644  19.131  25.385  1.00  0.00     0.261 C 
BRANCH  27  28
ATOM     28  O   UNL A   1      43.747  20.433  24.825  1.00  0.00    -0.460 OA
BRANCH  28  29
ATOM     29  C   UNL A   1      44.993  20.781  24.431  1.00  0.00     0.338 C 
ATOM     30  O   UNL A   1      45.944  20.052  24.211  1.00  0.00    -0.246 OA
BRANCH  29  31
ATOM     31  C   UNL A   1      45.108  22.225  24.567  1.00  0.00     0.060 A 
ATOM     32  C   UNL A   1      46.166  22.760  25.300  1.00  0.00     0.016 A 
ATOM     33  C   UNL A   1      43.985  22.983  24.276  1.00  0.00     0.016 A 
ATOM     34  C   UNL A   1      45.886  23.859  26.099  1.00  0.00     0.010 A 
ATOM     35  C   UNL A   1      43.892  24.197  24.874  1.00  0.00     0.010 A 
ATOM     36  C   UNL A   1      44.610  24.428  26.032  1.00  0.00    -0.014 A 
BRANCH  36  37
ATOM     37  C   UNL A   1      44.193  25.590  26.815  1.00  0.00     0.031 A 
ATOM     38  C   UNL A   1      45.164  26.690  26.510  1.00  0.00     0.074 A 
ATOM     39  C   UNL A   1      43.077  25.640  27.606  1.00  0.00     0.049 A 
ATOM     40  N   UNL A   1      46.187  26.985  27.244  1.00  0.00    -0.248 NA
ATOM     41  C   UNL A   1      45.278  27.264  25.146  1.00  0.00     0.031 C 
ATOM     42  C   UNL A   1      42.028  24.638  27.902  1.00  0.00     0.029 A 
ATOM     43  N   UNL A   1      42.641  26.690  28.396  1.00  0.00    -0.354 N 
ATOM     44  C   UNL A   1      46.862  27.996  26.569  1.00  0.00     0.074 A 
ATOM     45  C   UNL A   1      46.446  27.910  25.206  1.00  0.00     0.031 C 
ATOM     46  C   UNL A   1      40.972  25.215  28.548  1.00  0.00     0.029 A 
ATOM     47  C   UNL A   1      41.297  26.597  28.850  1.00  0.00     0.049 A 
ATOM     48  H   UNL A   1      43.222  27.450  28.627  1.00  0.00     0.167 HD
ATOM     49  C   UNL A   1      47.383  29.031  27.281  1.00  0.00     0.037 A 
ATOM     50  C   UNL A   1      40.598  27.551  29.556  1.00  0.00     0.037 A 
ATOM     51  C   UNL A   1      47.491  28.642  28.667  1.00  0.00     0.049 A 
ATOM     52  C   UNL A   1      41.634  28.447  30.148  1.00  0.00     0.074 A 
ATOM     53  C   UNL A   1      48.222  27.699  29.358  1.00  0.00     0.029 A 
ATOM     54  N   UNL A   1      46.376  28.905  29.420  1.00  0.00    -0.354 N 
ATOM     55  N   UNL A   1      42.463  28.020  31.064  1.00  0.00    -0.248 NA
ATOM     56  C   UNL A   1      42.118  29.507  29.270  1.00  0.00     0.031 C 
ATOM     57  C   UNL A   1      47.311  27.138  30.305  1.00  0.00     0.029 A 
ATOM     58  C   UNL A   1      46.120  27.862  30.269  1.00  0.00     0.049 A 
ATOM     59  H   UNL A   1      45.836  29.727  29.359  1.00  0.00     0.167 HD
ATOM     60  C   UNL A   1      43.708  28.394  30.586  1.00  0.00     0.074 A 
ATOM     61  C   UNL A   1      43.426  29.293  29.455  1.00  0.00     0.031 C 
ATOM     62  C   UNL A   1      44.833  27.679  30.896  1.00  0.00     0.037 A 
BRANCH  49  63
ATOM     63  C   UNL A   1      47.292  30.485  26.862  1.00  0.00     0.064 A 
ATOM     64  C   UNL A   1      48.439  31.294  26.984  1.00  0.00     0.173 A 
ATOM     65  C   UNL A   1      46.086  31.186  26.630  1.00  0.00     0.173 A 
ATOM     66  F   UNL A   1      49.634  30.743  27.246  1.00  0.00    -0.203 F 
ATOM     67  C   UNL A   1      48.375  32.690  26.926  1.00  0.00     0.198 A 
ATOM     68  C   UNL A   1      46.033  32.577  26.527  1.00  0.00     0.198 A 
ATOM     69  F   UNL A   1      44.894  30.580  26.602  1.00  0.00    -0.203 F 
ATOM     70  F   UNL A   1      49.478  33.416  27.151  1.00  0.00    -0.200 F 
ATOM     71  C   UNL A   1      47.172  33.330  26.696  1.00  0.00     0.200 A 
ATOM     72  F   UNL A   1      44.848  33.178  26.337  1.00  0.00    -0.200 F 
ATOM     73  F   UNL A   1      47.101  34.668  26.678  1.00  0.00    -0.200 F 
ENDBRANCH  49  63
BRANCH  50  74
ATOM     74  C   UNL A   1      39.201  28.074  29.331  1.00  0.00     0.064 A 
ATOM     75  C   UNL A   1      38.270  28.306  30.376  1.00  0.00     0.173 A 
ATOM     76  C   UNL A   1      38.876  28.669  28.101  1.00  0.00     0.173 A 
ATOM     77  F   UNL A   1      38.497  27.821  31.608  1.00  0.00    -0.203 F 
ATOM     78  C   UNL A   1      37.118  29.099  30.197  1.00  0.00     0.198 A 
ATOM     79  C   UNL A   1      37.740  29.470  27.927  1.00  0.00     0.198 A 
ATOM     80  F   UNL A   1      39.711  28.560  27.060  1.00  0.00    -0.203 F 
ATOM     81  F   UNL A   1      36.281  29.331  31.220  1.00  0.00    -0.200 F 
ATOM     82  C   UNL A   1      36.868  29.697  28.974  1.00  0.00     0.200 A 
ATOM     83  F   UNL A   1      37.536  30.074  26.749  1.00  0.00    -0.200 F 
ATOM     84  F   UNL A   1      35.818  30.517  28.813  1.00  0.00    -0.200 F 
ENDBRANCH  50  74
BRANCH  62  85
ATOM     85  C   UNL A   1      44.713  26.577  31.919  1.00  0.00     0.064 A 
ATOM     86  C   UNL A   1      44.584  26.761  33.309  1.00  0.00     0.173 A 
ATOM     87  C   UNL A   1      44.597  25.267  31.441  1.00  0.00     0.173 A 
ATOM     88  F   UNL A   1      44.551  27.989  33.840  1.00  0.00    -0.203 F 
ATOM     89  C   UNL A   1      44.423  25.676  34.177  1.00  0.00     0.198 A 
ATOM     90  C   UNL A   1      44.399  24.192  32.301  1.00  0.00     0.198 A 
ATOM     91  F   UNL A   1      44.623  25.037  30.120  1.00  0.00    -0.203 F 
ATOM     92  F   UNL A   1      44.316  25.877  35.500  1.00  0.00    -0.200 F 
ATOM     93  C   UNL A   1      44.336  24.391  33.671  1.00  0.00     0.200 A 
ATOM     94  F   UNL A   1      44.241  22.962  31.795  1.00  0.00    -0.200 F 
ATOM     95  F   UNL A   1      44.166  23.347  34.495  1.00  0.00    -0.200 F 
ENDBRANCH  62  85
ENDBRANCH  36  37
ENDBRANCH  29  31
ENDBRANCH  28  29
ENDBRANCH  27  28
ENDBRANCH   1  27
TORSDOF 15
ENDMDL
MODEL 2
REMARK VINA RESULT:     -12.8      4.848     10.269
REMARK SMILES C[C@H]1CCc2sc3ncn4nc(/C=C\C(=O)OCCOCCOC(=O)c5ccc(-c6c7nc(c(-c8c(F)c(F)c(F)c(F)c8F)c8ccc([nH]8)c(-c8c(F)c(F)c(F)c(F)c8F)c8nc(c(-c9c(F)c(F)c(F)c(F)c9F)c9ccc6[nH]9)C=C8)C=C7)cc5)nc4c3c2C1
REMARK SMILES IDX 21 1 20 2 19 3 18 4 17 5 15 6 16 7 14 8 13 9 12 10 1 11 2 12
REMARK SMILES IDX 3 13 93 14 4 15 92 16 5 17 91 18 6 19 7 20 90 21 8 22 10 23
REMARK SMILES IDX 89 24 9 25 11 26 22 27 23 28 24 29 25 30 26 31 27 32 88 33
REMARK SMILES IDX 28 34 87 35 29 36 30 37 31 38 81 39 32 40 86 41 80 42 82 43
REMARK SMILES IDX 33 44 85 45 79 46 78 47 34 49 66 50 46 51 65 52 47 53 50 54
REMARK SMILES IDX 64 55 83 56 48 57 49 58 63 60 84 61 51 62 35 63 36 64 44 65
REMARK SMILES IDX 37 66 38 67 42 68 45 69 39 70 40 71 43 72 41 73 67 74 68 75
REMARK SMILES IDX 76 76 69 77 70 78 74 79 77 80 71 81 72 82 75 83 73 84 52 85
REMARK SMILES IDX 53 86 61 87 54 88 55 89 59 90 62 91 56 92 57 93 60 94 58 95
REMARK H PARENT 82 48 50 59
REMARK Flexibility Score: inf
ROOT
ATOM      1  C   UNL A   1      32.972  35.900  29.465  1.00  0.00     0.202 C 
ENDROOT
BRANCH   1   2
ATOM      2  O   UNL A   1      32.815  34.812  28.566  1.00  0.00    -0.374 OA
BRANCH   2   3
ATOM      3  C   UNL A   1      33.995  34.240  28.030  1.00  0.00     0.202 C 
BRANCH   3   4
ATOM      4  C   UNL A   1      34.454  32.872  28.531  1.00  0.00     0.261 C 
BRANCH   4   5
ATOM      5  O   UNL A   1      34.975  31.956  27.584  1.00  0.00    -0.460 OA
BRANCH   5   6
ATOM      6  C   UNL A   1      34.420  30.781  27.336  1.00  0.00     0.330 C 
ATOM      7  O   UNL A   1      34.998  29.696  27.219  1.00  0.00    -0.247 OA
BRANCH   6   8
ATOM      8  C   UNL A   1      32.950  30.912  27.466  1.00  0.00     0.097 C 
ATOM      9  C   UNL A   1      31.934  30.395  26.742  1.00  0.00     0.058 C 
BRANCH   9  10
ATOM     10  C   UNL A   1      31.870  29.484  25.629  1.00  0.00     0.175 A 
ATOM     11  C   UNL A   1      34.118  23.192  26.360  1.00  0.00     0.008 C 
ATOM     12  C   UNL A   1      35.049  24.178  25.641  1.00  0.00    -0.009 C 
ATOM     13  C   UNL A   1      35.686  23.616  24.360  1.00  0.00     0.009 C 
ATOM     14  C   UNL A   1      34.340  25.497  25.334  1.00  0.00     0.041 C 
ATOM     15  C   UNL A   1      34.683  23.442  23.187  1.00  0.00     0.047 C 
ATOM     16  C   UNL A   1      33.625  25.577  24.057  1.00  0.00    -0.020 A 
ATOM     17  C   UNL A   1      33.759  24.627  23.076  1.00  0.00     0.011 A 
ATOM     18  C   UNL A   1      32.719  26.591  23.697  1.00  0.00     0.060 A 
ATOM     19  S   UNL A   1      32.690  24.927  21.770  1.00  0.00    -0.120 S 
ATOM     20  C   UNL A   1      32.067  26.362  22.501  1.00  0.00     0.129 A 
ATOM     21  C   UNL A   1      32.305  27.820  24.401  1.00  0.00     0.168 A 
ATOM     22  N   UNL A   1      31.065  27.131  21.948  1.00  0.00    -0.225 NA
ATOM     23  N   UNL A   1      31.312  28.552  23.839  1.00  0.00    -0.201 N 
ATOM     24  N   UNL A   1      32.702  28.390  25.509  1.00  0.00    -0.207 NA
ATOM     25  C   UNL A   1      30.702  28.193  22.635  1.00  0.00     0.227 A 
ATOM     26  N   UNL A   1      31.020  29.637  24.588  1.00  0.00    -0.145 NA
ENDBRANCH   9  10
ENDBRANCH   6   8
ENDBRANCH   5   6
ENDBRANCH   4   5
ENDBRANCH   3   4
ENDBRANCH   2   3
ENDBRANCH   1   2
BRANCH   1  27
ATOM     27  C   UNL A   1      32.600  35.695  30.920  1.00  0.00     0.261 C 
BRANCH  27  28
ATOM     28  O   UNL A   1      33.428  34.723  31.543  1.00  0.00    -0.460 OA
BRANCH  28  29
ATOM     29  C   UNL A   1      33.967  35.113  32.719  1.00  0.00     0.338 C 
ATOM     30  O   UNL A   1      33.901  36.205  33.254  1.00  0.00    -0.246 OA
BRANCH  29  31
ATOM     31  C   UNL A   1      34.894  34.073  33.142  1.00  0.00     0.060 A 
ATOM     32  C   UNL A   1      36.039  34.426  33.854  1.00  0.00     0.016 A 
ATOM     33  C   UNL A   1      34.791  32.839  32.521  1.00  0.00     0.016 A 
ATOM     34  C   UNL A   1      37.207  33.741  33.548  1.00  0.00     0.010 A 
ATOM     35  C   UNL A   1      35.908  32.069  32.496  1.00  0.00     0.010 A 
ATOM     36  C   UNL A   1      37.140  32.675  32.645  1.00  0.00    -0.014 A 
BRANCH  36  37
ATOM     37  C   UNL A   1      38.294  31.871  32.246  1.00  0.00     0.031 A 
ATOM     38  C   UNL A   1      39.043  31.535  33.500  1.00  0.00     0.074 A 
ATOM     39  C   UNL A   1      38.560  31.465  30.966  1.00  0.00     0.049 A 
ATOM     40  N   UNL A   1      40.072  32.187  33.934  1.00  0.00    -0.248 NA
ATOM     41  C   UNL A   1      38.434  30.694  34.561  1.00  0.00     0.031 C 
ATOM     42  C   UNL A   1      37.841  31.681  29.690  1.00  0.00     0.029 A 
ATOM     43  N   UNL A   1      39.645  30.734  30.514  1.00  0.00    -0.354 N 
ATOM     44  C   UNL A   1      40.405  31.608  35.152  1.00  0.00     0.074 A 
ATOM     45  C   UNL A   1      39.231  30.934  35.606  1.00  0.00     0.031 C 
ATOM     46  C   UNL A   1      38.342  30.876  28.707  1.00  0.00     0.029 A 
ATOM     47  C   UNL A   1      39.507  30.176  29.213  1.00  0.00     0.049 A 
ATOM     48  H   UNL A   1      40.457  30.608  31.057  1.00  0.00     0.167 HD
ATOM     49  C   UNL A   1      41.718  31.422  35.458  1.00  0.00     0.037 A 
ATOM     50  C   UNL A   1      40.391  29.329  28.583  1.00  0.00     0.037 A 
ATOM     51  C   UNL A   1      42.523  32.267  34.609  1.00  0.00     0.049 A 
ATOM     52  C   UNL A   1      41.689  29.502  29.299  1.00  0.00     0.074 A 
ATOM     53  C   UNL A   1      42.674  33.629  34.455  1.00  0.00     0.029 A 
ATOM     54  N   UNL A   1      42.892  31.693  33.420  1.00  0.00    -0.354 N 
ATOM     55  N   UNL A   1      42.349  30.629  29.252  1.00  0.00    -0.248 NA
ATOM     56  C   UNL A   1      41.846  28.702  30.509  1.00  0.00     0.031 C 
ATOM     57  C   UNL A   1      42.742  33.842  33.045  1.00  0.00     0.029 A 
ATOM     58  C   UNL A   1      42.794  32.605  32.404  1.00  0.00     0.049 A 
ATOM     59  H   UNL A   1      43.185  30.759  33.312  1.00  0.00     0.167 HD
ATOM     60  C   UNL A   1      42.612  30.917  30.581  1.00  0.00     0.074 A 
ATOM     61  C   UNL A   1      42.250  29.692  31.313  1.00  0.00     0.031 C 
ATOM     62  C   UNL A   1      42.745  32.208  31.016  1.00  0.00     0.037 A 
BRANCH  49  63
ATOM     63  C   UNL A   1      42.274  30.164  36.095  1.00  0.00     0.064 A 
ATOM     64  C   UNL A   1      43.316  30.290  37.034  1.00  0.00     0.173 A 
ATOM     65  C   UNL A   1      42.045  28.850  35.625  1.00  0.00     0.173 A 
ATOM     66  F   UNL A   1      43.651  31.494  37.520  1.00  0.00    -0.203 F 
ATOM     67  C   UNL A   1      44.095  29.198  37.433  1.00  0.00     0.198 A 
ATOM     68  C   UNL A   1      42.795  27.755  36.059  1.00  0.00     0.198 A 
ATOM     69  F   UNL A   1      41.172  28.575  34.651  1.00  0.00    -0.203 F 
ATOM     70  F   UNL A   1      45.140  29.389  38.250  1.00  0.00    -0.200 F 
ATOM     71  C   UNL A   1      43.833  27.931  36.946  1.00  0.00     0.200 A 
ATOM     72  F   UNL A   1      42.545  26.541  35.547  1.00  0.00    -0.200 F 
ATOM     73  F   UNL A   1      44.601  26.891  37.296  1.00  0.00    -0.200 F 
ENDBRANCH  49  63
BRANCH  50  74
ATOM     74  C   UNL A   1      40.120  28.048  27.834  1.00  0.00     0.064 A 
ATOM     75  C   UNL A   1      40.793  27.677  26.641  1.00  0.00     0.173 A 
ATOM     76  C   UNL A   1      39.419  27.011  28.470  1.00  0.00     0.173 A 
ATOM     77  F   UNL A   1      41.529  28.576  25.969  1.00  0.00    -0.203 F 
ATOM     78  C   UNL A   1      40.779  26.355  26.149  1.00  0.00     0.198 A 
ATOM     79  C   UNL A   1      39.419  25.694  27.991  1.00  0.00     0.198 A 
ATOM     80  F   UNL A   1      38.792  27.236  29.632  1.00  0.00    -0.203 F 
ATOM     81  F   UNL A   1      41.462  26.031  25.040  1.00  0.00    -0.200 F 
ATOM     82  C   UNL A   1      40.108  25.362  26.840  1.00  0.00     0.200 A 
ATOM     83  F   UNL A   1      38.798  24.738  28.694  1.00  0.00    -0.200 F 
ATOM     84  F   UNL A   1      40.153  24.087  26.425  1.00  0.00    -0.200 F 
ENDBRANCH  50  74
BRANCH  62  85
ATOM     85  C   UNL A   1      42.779  33.305  29.982  1.00  0.00     0.064 A 
ATOM     86  C   UNL A   1      43.840  33.556  29.091  1.00  0.00     0.173 A 
ATOM     87  C   UNL A   1      41.614  34.059  29.806  1.00  0.00     0.173 A 
ATOM     88  F   UNL A   1      44.941  32.795  29.100  1.00  0.00    -0.203 F 
ATOM     89  C   UNL A   1      43.759  34.565  28.125  1.00  0.00     0.198 A 
ATOM     90  C   UNL A   1      41.520  35.037  28.822  1.00  0.00     0.198 A 
ATOM     91  F   UNL A   1      40.539  33.807  30.567  1.00  0.00    -0.203 F 
ATOM     92  F   UNL A   1      44.790  34.794  27.296  1.00  0.00    -0.200 F 
ATOM     93  C   UNL A   1      42.599  35.309  27.996  1.00  0.00     0.200 A 
ATOM     94  F   UNL A   1      40.367  35.699  28.657  1.00  0.00    -0.200 F 
ATOM     95  F   UNL A   1      42.508  36.267  27.063  1.00  0.00    -0.200 F 
ENDBRANCH  62  85
ENDBRANCH  36  37
ENDBRANCH  29  31
ENDBRANCH  28  29
ENDBRANCH  27  28
ENDBRANCH   1  27
TORSDOF 15
ENDMDL
MODEL 3
REMARK VINA RESULT:     -12.6      1.929      3.248
REMARK SMILES C[C@H]1CCc2sc3ncn4nc(/C=C\C(=O)OCCOCCOC(=O)c5ccc(-c6c7nc(c(-c8c(F)c(F)c(F)c(F)c8F)c8ccc([nH]8)c(-c8c(F)c(F)c(F)c(F)c8F)c8nc(c(-c9c(F)c(F)c(F)c(F)c9F)c9ccc6[nH]9)C=C8)C=C7)cc5)nc4c3c2C1
REMARK SMILES IDX 21 1 20 2 19 3 18 4 17 5 15 6 16 7 14 8 13 9 12 10 1 11 2 12
REMARK SMILES IDX 3 13 93 14 4 15 92 16 5 17 91 18 6 19 7 20 90 21 8 22 10 23
REMARK SMILES IDX 89 24 9 25 11 26 22 27 23 28 24 29 25 30 26 31 27 32 88 33
REMARK SMILES IDX 28 34 87 35 29 36 30 37 31 38 81 39 32 40 86 41 80 42 82 43
REMARK SMILES IDX 33 44 85 45 79 46 78 47 34 49 66 50 46 51 65 52 47 53 50 54
REMARK SMILES IDX 64 55 83 56 48 57 49 58 63 60 84 61 51 62 35 63 36 64 44 65
REMARK SMILES IDX 37 66 38 67 42 68 45 69 39 70 40 71 43 72 41 73 67 74 68 75
REMARK SMILES IDX 76 76 69 77 70 78 74 79 77 80 71 81 72 82 75 83 73 84 52 85
REMARK SMILES IDX 53 86 61 87 54 88 55 89 59 90 62 91 56 92 57 93 60 94 58 95
REMARK H PARENT 82 48 50 59
REMARK Flexibility Score: inf
ROOT
ATOM      1  C   UNL A   1      45.690  18.706  25.286  1.00  0.00     0.202 C 
ENDROOT
BRANCH   1   2
ATOM      2  O   UNL A   1      44.472  18.088  25.675  1.00  0.00    -0.374 OA
BRANCH   2   3
ATOM      3  C   UNL A   1      43.273  18.797  25.412  1.00  0.00     0.202 C 
BRANCH   3   4
ATOM      4  C   UNL A   1      42.513  19.431  26.575  1.00  0.00     0.261 C 
BRANCH   4   5
ATOM      5  O   UNL A   1      41.140  19.111  26.726  1.00  0.00    -0.460 OA
BRANCH   5   6
ATOM      6  C   UNL A   1      40.184  19.684  26.014  1.00  0.00     0.330 C 
ATOM      7  O   UNL A   1      39.223  19.127  25.475  1.00  0.00    -0.247 OA
BRANCH   6   8
ATOM      8  C   UNL A   1      40.296  21.155  26.164  1.00  0.00     0.097 C 
ATOM      9  C   UNL A   1      39.371  22.137  26.105  1.00  0.00     0.058 C 
BRANCH   9  10
ATOM     10  C   UNL A   1      37.942  22.147  25.942  1.00  0.00     0.175 A 
ATOM     11  C   UNL A   1      34.609  16.323  25.542  1.00  0.00     0.008 C 
ATOM     12  C   UNL A   1      34.876  17.058  24.221  1.00  0.00    -0.009 C 
ATOM     13  C   UNL A   1      33.655  17.127  23.288  1.00  0.00     0.009 C 
ATOM     14  C   UNL A   1      35.427  18.463  24.462  1.00  0.00     0.041 C 
ATOM     15  C   UNL A   1      32.536  18.079  23.792  1.00  0.00     0.047 C 
ATOM     16  C   UNL A   1      34.442  19.539  24.612  1.00  0.00    -0.020 A 
ATOM     17  C   UNL A   1      33.110  19.364  24.328  1.00  0.00     0.011 A 
ATOM     18  C   UNL A   1      34.723  20.836  25.076  1.00  0.00     0.060 A 
ATOM     19  S   UNL A   1      32.201  20.758  24.739  1.00  0.00    -0.120 S 
ATOM     20  C   UNL A   1      33.601  21.620  25.266  1.00  0.00     0.129 A 
ATOM     21  C   UNL A   1      35.997  21.481  25.449  1.00  0.00     0.168 A 
ATOM     22  N   UNL A   1      33.564  22.892  25.797  1.00  0.00    -0.225 NA
ATOM     23  N   UNL A   1      35.930  22.728  25.977  1.00  0.00    -0.201 N 
ATOM     24  N   UNL A   1      37.245  21.096  25.383  1.00  0.00    -0.207 NA
ATOM     25  C   UNL A   1      34.721  23.406  26.153  1.00  0.00     0.227 A 
ATOM     26  N   UNL A   1      37.159  23.195  26.286  1.00  0.00    -0.145 NA
ENDBRANCH   9  10
ENDBRANCH   6   8
ENDBRANCH   5   6
ENDBRANCH   4   5
ENDBRANCH   3   4
ENDBRANCH   2   3
ENDBRANCH   1   2
BRANCH   1  27
ATOM     27  C   UNL A   1      45.761  19.370  23.926  1.00  0.00     0.261 C 
BRANCH  27  28
ATOM     28  O   UNL A   1      44.908  20.503  23.847  1.00  0.00    -0.460 OA
BRANCH  28  29
ATOM     29  C   UNL A   1      45.456  21.654  24.299  1.00  0.00     0.338 C 
ATOM     30  O   UNL A   1      46.611  22.028  24.200  1.00  0.00    -0.246 OA
BRANCH  29  31
ATOM     31  C   UNL A   1      44.486  22.283  25.183  1.00  0.00     0.060 A 
ATOM     32  C   UNL A   1      43.388  22.944  24.634  1.00  0.00     0.016 A 
ATOM     33  C   UNL A   1      44.874  22.509  26.494  1.00  0.00     0.016 A 
ATOM     34  C   UNL A   1      42.996  24.127  25.245  1.00  0.00     0.010 A 
ATOM     35  C   UNL A   1      44.248  23.515  27.155  1.00  0.00     0.010 A 
ATOM     36  C   UNL A   1      43.639  24.517  26.424  1.00  0.00    -0.014 A 
BRANCH  36  37
ATOM     37  C   UNL A   1      43.314  25.734  27.165  1.00  0.00     0.031 A 
ATOM     38  C   UNL A   1      44.331  26.764  26.775  1.00  0.00     0.074 A 
ATOM     39  C   UNL A   1      42.233  25.882  27.992  1.00  0.00     0.049 A 
ATOM     40  N   UNL A   1      45.395  27.034  27.459  1.00  0.00    -0.248 NA
ATOM     41  C   UNL A   1      44.425  27.268  25.383  1.00  0.00     0.031 C 
ATOM     42  C   UNL A   1      41.143  24.954  28.371  1.00  0.00     0.029 A 
ATOM     43  N   UNL A   1      41.884  26.989  28.746  1.00  0.00    -0.354 N 
ATOM     44  C   UNL A   1      46.098  27.974  26.714  1.00  0.00     0.074 A 
ATOM     45  C   UNL A   1      45.628  27.850  25.372  1.00  0.00     0.031 C 
ATOM     46  C   UNL A   1      40.145  25.618  29.025  1.00  0.00     0.029 A 
ATOM     47  C   UNL A   1      40.555  26.991  29.251  1.00  0.00     0.049 A 
ATOM     48  H   UNL A   1      42.514  27.725  28.921  1.00  0.00     0.167 HD
ATOM     49  C   UNL A   1      46.701  29.010  27.358  1.00  0.00     0.037 A 
ATOM     50  C   UNL A   1      39.935  28.013  29.935  1.00  0.00     0.037 A 
ATOM     51  C   UNL A   1      46.839  28.679  28.756  1.00  0.00     0.049 A 
ATOM     52  C   UNL A   1      41.039  28.876  30.448  1.00  0.00     0.074 A 
ATOM     53  C   UNL A   1      47.543  27.729  29.465  1.00  0.00     0.029 A 
ATOM     54  N   UNL A   1      45.769  29.038  29.534  1.00  0.00    -0.354 N 
ATOM     55  N   UNL A   1      41.877  28.446  31.353  1.00  0.00    -0.248 NA
ATOM     56  C   UNL A   1      41.547  29.867  29.504  1.00  0.00     0.031 C 
ATOM     57  C   UNL A   1      46.640  27.262  30.468  1.00  0.00     0.029 A 
ATOM     58  C   UNL A   1      45.489  28.049  30.439  1.00  0.00     0.049 A 
ATOM     59  H   UNL A   1      45.272  29.884  29.454  1.00  0.00     0.167 HD
ATOM     60  C   UNL A   1      43.123  28.728  30.816  1.00  0.00     0.074 A 
ATOM     61  C   UNL A   1      42.847  29.589  29.654  1.00  0.00     0.031 C 
ATOM     62  C   UNL A   1      44.218  27.967  31.119  1.00  0.00     0.037 A 
BRANCH  49  63
ATOM     63  C   UNL A   1      46.672  30.447  26.874  1.00  0.00     0.064 A 
ATOM     64  C   UNL A   1      47.866  31.193  26.913  1.00  0.00     0.173 A 
ATOM     65  C   UNL A   1      45.498  31.203  26.656  1.00  0.00     0.173 A 
ATOM     66  F   UNL A   1      49.038  30.588  27.154  1.00  0.00    -0.203 F 
ATOM     67  C   UNL A   1      47.877  32.587  26.791  1.00  0.00     0.198 A 
ATOM     68  C   UNL A   1      45.517  32.589  26.489  1.00  0.00     0.198 A 
ATOM     69  F   UNL A   1      44.274  30.666  26.703  1.00  0.00    -0.203 F 
ATOM     70  F   UNL A   1      49.026  33.259  26.939  1.00  0.00    -0.200 F 
ATOM     71  C   UNL A   1      46.702  33.284  26.578  1.00  0.00     0.200 A 
ATOM     72  F   UNL A   1      44.361  33.248  26.317  1.00  0.00    -0.200 F 
ATOM     73  F   UNL A   1      46.704  34.621  26.499  1.00  0.00    -0.200 F 
ENDBRANCH  49  63
BRANCH  50  74
ATOM     74  C   UNL A   1      38.561  28.603  29.734  1.00  0.00     0.064 A 
ATOM     75  C   UNL A   1      37.723  29.024  30.799  1.00  0.00     0.173 A 
ATOM     76  C   UNL A   1      38.186  29.065  28.462  1.00  0.00     0.173 A 
ATOM     77  F   UNL A   1      38.007  28.678  32.065  1.00  0.00    -0.203 F 
ATOM     78  C   UNL A   1      36.613  29.869  30.594  1.00  0.00     0.198 A 
ATOM     79  C   UNL A   1      37.093  29.917  28.260  1.00  0.00     0.198 A 
ATOM     80  F   UNL A   1      38.937  28.772  27.392  1.00  0.00    -0.203 F 
ATOM     81  F   UNL A   1      35.867  30.283  31.630  1.00  0.00    -0.200 F 
ATOM     82  C   UNL A   1      36.314  30.330  29.324  1.00  0.00     0.200 A 
ATOM     83  F   UNL A   1      36.844  30.386  27.031  1.00  0.00    -0.200 F 
ATOM     84  F   UNL A   1      35.308  31.197  29.127  1.00  0.00    -0.200 F 
ENDBRANCH  50  74
BRANCH  62  85
ATOM     85  C   UNL A   1      44.078  26.920  32.196  1.00  0.00     0.064 A 
ATOM     86  C   UNL A   1      43.975  25.533  31.979  1.00  0.00     0.173 A 
ATOM     87  C   UNL A   1      44.182  27.346  33.524  1.00  0.00     0.173 A 
ATOM     88  F   UNL A   1      44.002  25.025  30.741  1.00  0.00    -0.203 F 
ATOM     89  C   UNL A   1      43.904  24.630  33.046  1.00  0.00     0.198 A 
ATOM     90  C   UNL A   1      44.149  26.445  34.584  1.00  0.00     0.198 A 
ATOM     91  F   UNL A   1      44.370  28.646  33.792  1.00  0.00    -0.203 F 
ATOM     92  F   UNL A   1      43.792  23.312  32.813  1.00  0.00    -0.200 F 
ATOM     93  C   UNL A   1      43.986  25.090  34.349  1.00  0.00     0.200 A 
ATOM     94  F   UNL A   1      44.305  26.894  35.837  1.00  0.00    -0.200 F 
ATOM     95  F   UNL A   1      43.934  24.231  35.376  1.00  0.00    -0.200 F 
ENDBRANCH  62  85
ENDBRANCH  36  37
ENDBRANCH  29  31
ENDBRANCH  28  29
ENDBRANCH  27  28
ENDBRANCH   1  27
TORSDOF 15
ENDMDL
