MODEL 1
REMARK VINA RESULT:     -13.2      0.000      0.000
REMARK SMILES NS(=O)(=O)c1ccc(-n2nc(C(=O)OCCOCCOC(=O)c3ccc(-c4c5nc(c(-c6c(F)c(F)c(F)c(F)c6F)c6ccc([nH]6)c(-c6c(F)c(F)c(F)c(F)c6F)c6nc(c(-c7c(F)c(F)c(F)c(F)c7F)c7ccc4[nH]7)C=C6)C=C5)cc3)cc2-c2cc3ccccc3s2)cc1
REMARK SMILES IDX 16 1 15 2 14 3 12 4 13 5 11 6 9 7 10 8 87 9 86 10 8 11 5 12
REMARK SMILES IDX 6 13 98 14 7 15 97 16 2 17 3 18 4 19 1 20 88 23 89 24 96 25
REMARK SMILES IDX 90 26 95 27 91 28 94 29 92 30 93 31 17 32 18 33 19 34 20 35
REMARK SMILES IDX 21 36 22 37 23 38 24 39 85 40 25 41 84 42 26 43 27 44 28 45
REMARK SMILES IDX 78 46 29 47 83 48 77 49 79 50 30 51 82 52 76 53 75 54 31 56
REMARK SMILES IDX 63 57 43 58 62 59 44 60 47 61 61 62 80 63 45 64 46 65 60 67
REMARK SMILES IDX 81 68 48 69 32 70 33 71 41 72 34 73 35 74 39 75 42 76 36 77
REMARK SMILES IDX 37 78 40 79 38 80 64 81 65 82 73 83 66 84 67 85 71 86 74 87
REMARK SMILES IDX 68 88 69 89 72 90 70 91 49 92 50 93 58 94 51 95 52 96 56 97
REMARK SMILES IDX 59 98 53 99 54 100 57 101 55 102
REMARK H PARENT 1 21 1 22 79 55 47 66
REMARK Flexibility Score: inf
ROOT
ATOM      1  C   UNL A   1      40.549  21.631  27.497  1.00  0.00     0.202 C 
ENDROOT
BRANCH   1   2
ATOM      2  C   UNL A   1      40.106  22.169  26.136  1.00  0.00     0.261 C 
BRANCH   2   3
ATOM      3  O   UNL A   1      38.689  22.369  26.097  1.00  0.00    -0.458 OA
BRANCH   3   4
ATOM      4  C   UNL A   1      37.985  21.451  25.361  1.00  0.00     0.358 C 
ATOM      5  O   UNL A   1      38.313  20.282  25.212  1.00  0.00    -0.244 OA
BRANCH   4   6
ATOM      6  C   UNL A   1      36.754  22.043  24.824  1.00  0.00     0.171 A 
ATOM      7  N   UNL A   1      35.134  23.408  24.651  1.00  0.00    -0.231 N 
ATOM      8  N   UNL A   1      36.477  23.360  24.833  1.00  0.00    -0.160 NA
ATOM      9  C   UNL A   1      34.597  22.150  24.531  1.00  0.00     0.085 A 
ATOM     10  C   UNL A   1      35.680  21.332  24.253  1.00  0.00     0.068 A 
BRANCH   7  11
ATOM     11  C   UNL A   1      34.481  24.639  24.496  1.00  0.00     0.065 A 
ATOM     12  C   UNL A   1      33.201  27.075  24.238  1.00  0.00     0.082 A 
ATOM     13  C   UNL A   1      33.352  26.245  23.118  1.00  0.00     0.024 A 
ATOM     14  C   UNL A   1      33.686  26.690  25.491  1.00  0.00     0.024 A 
ATOM     15  C   UNL A   1      34.014  25.024  23.240  1.00  0.00     0.030 A 
ATOM     16  C   UNL A   1      34.310  25.451  25.627  1.00  0.00     0.030 A 
BRANCH  12  17
ATOM     17  S   UNL A   1      32.351  28.608  24.009  1.00  0.00     0.238 S 
ATOM     18  O   UNL A   1      31.122  28.563  24.756  1.00  0.00    -0.207 OA
ATOM     19  O   UNL A   1      32.405  28.941  22.601  1.00  0.00    -0.207 OA
BRANCH  17  20
ATOM     20  N   UNL A   1      33.306  29.759  24.776  1.00  0.00    -0.225 NA
ATOM     21  H   UNL A   1      33.744  29.344  25.598  1.00  0.00     0.137 HD
ATOM     22  H   UNL A   1      32.726  30.547  25.061  1.00  0.00     0.137 HD
ENDBRANCH  17  20
ENDBRANCH  12  17
ENDBRANCH   7  11
BRANCH   9  23
ATOM     23  C   UNL A   1      33.295  21.669  24.919  1.00  0.00     0.054 A 
ATOM     24  C   UNL A   1      32.270  21.262  24.072  1.00  0.00     0.031 A 
ATOM     25  S   UNL A   1      33.322  20.422  26.158  1.00  0.00    -0.134 S 
ATOM     26  C   UNL A   1      32.497  19.844  23.820  1.00  0.00    -0.007 A 
ATOM     27  C   UNL A   1      33.277  19.282  24.842  1.00  0.00     0.035 A 
ATOM     28  C   UNL A   1      32.215  19.051  22.687  1.00  0.00     0.009 A 
ATOM     29  C   UNL A   1      33.915  18.041  24.711  1.00  0.00     0.019 A 
ATOM     30  C   UNL A   1      32.875  17.827  22.530  1.00  0.00     0.001 A 
ATOM     31  C   UNL A   1      33.746  17.352  23.507  1.00  0.00     0.001 A 
ENDBRANCH   9  23
ENDBRANCH   4   6
ENDBRANCH   3   4
ENDBRANCH   2   3
ENDBRANCH   1   2
BRANCH   1  32
ATOM     32  O   UNL A   1      41.838  21.028  27.601  1.00  0.00    -0.374 OA
BRANCH  32  33
ATOM     33  C   UNL A   1      42.037  19.658  27.270  1.00  0.00     0.202 C 
BRANCH  33  34
ATOM     34  C   UNL A   1      42.848  19.304  26.034  1.00  0.00     0.261 C 
BRANCH  34  35
ATOM     35  O   UNL A   1      43.099  20.424  25.202  1.00  0.00    -0.460 OA
BRANCH  35  36
ATOM     36  C   UNL A   1      44.416  20.716  25.088  1.00  0.00     0.338 C 
ATOM     37  O   UNL A   1      45.351  19.934  25.077  1.00  0.00    -0.246 OA
BRANCH  36  38
ATOM     38  C   UNL A   1      44.577  22.168  25.184  1.00  0.00     0.060 A 
ATOM     39  C   UNL A   1      45.499  22.612  26.134  1.00  0.00     0.016 A 
ATOM     40  C   UNL A   1      43.590  23.005  24.646  1.00  0.00     0.016 A 
ATOM     41  C   UNL A   1      45.257  23.816  26.747  1.00  0.00     0.010 A 
ATOM     42  C   UNL A   1      43.337  24.196  25.273  1.00  0.00     0.010 A 
ATOM     43  C   UNL A   1      44.113  24.532  26.378  1.00  0.00    -0.014 A 
BRANCH  43  44
ATOM     44  C   UNL A   1      43.809  25.743  27.102  1.00  0.00     0.031 A 
ATOM     45  C   UNL A   1      44.787  26.800  26.785  1.00  0.00     0.074 A 
ATOM     46  C   UNL A   1      42.713  25.874  27.870  1.00  0.00     0.049 A 
ATOM     47  N   UNL A   1      45.772  27.194  27.519  1.00  0.00    -0.248 NA
ATOM     48  C   UNL A   1      44.836  27.291  25.397  1.00  0.00     0.031 C 
ATOM     49  C   UNL A   1      41.574  24.959  27.982  1.00  0.00     0.029 A 
ATOM     50  N   UNL A   1      42.346  26.922  28.657  1.00  0.00    -0.354 N 
ATOM     51  C   UNL A   1      46.410  28.172  26.765  1.00  0.00     0.074 A 
ATOM     52  C   UNL A   1      45.973  27.988  25.410  1.00  0.00     0.031 C 
ATOM     53  C   UNL A   1      40.551  25.591  28.606  1.00  0.00     0.029 A 
ATOM     54  C   UNL A   1      41.012  26.891  29.058  1.00  0.00     0.049 A 
ATOM     55  H   UNL A   1      42.967  27.639  28.920  1.00  0.00     0.167 HD
ATOM     56  C   UNL A   1      46.926  29.269  27.382  1.00  0.00     0.037 A 
ATOM     57  C   UNL A   1      40.352  27.918  29.650  1.00  0.00     0.037 A 
ATOM     58  C   UNL A   1      47.048  29.032  28.800  1.00  0.00     0.049 A 
ATOM     59  C   UNL A   1      41.381  28.811  30.237  1.00  0.00     0.074 A 
ATOM     60  C   UNL A   1      47.835  28.254  29.619  1.00  0.00     0.029 A 
ATOM     61  N   UNL A   1      45.926  29.367  29.512  1.00  0.00    -0.354 N 
ATOM     62  N   UNL A   1      42.153  28.465  31.231  1.00  0.00    -0.248 NA
ATOM     63  C   UNL A   1      41.839  29.959  29.464  1.00  0.00     0.031 C 
ATOM     64  C   UNL A   1      47.036  27.956  30.764  1.00  0.00     0.029 A 
ATOM     65  C   UNL A   1      45.806  28.603  30.637  1.00  0.00     0.049 A 
ATOM     66  H   UNL A   1      45.288  30.068  29.246  1.00  0.00     0.167 HD
ATOM     67  C   UNL A   1      43.371  29.058  30.950  1.00  0.00     0.074 A 
ATOM     68  C   UNL A   1      43.075  30.084  29.956  1.00  0.00     0.031 C 
ATOM     69  C   UNL A   1      44.535  28.443  31.313  1.00  0.00     0.037 A 
BRANCH  56  70
ATOM     70  C   UNL A   1      46.791  30.681  26.838  1.00  0.00     0.064 A 
ATOM     71  C   UNL A   1      47.922  31.522  26.877  1.00  0.00     0.173 A 
ATOM     72  C   UNL A   1      45.564  31.338  26.589  1.00  0.00     0.173 A 
ATOM     73  F   UNL A   1      49.138  31.018  27.130  1.00  0.00    -0.203 F 
ATOM     74  C   UNL A   1      47.817  32.912  26.751  1.00  0.00     0.198 A 
ATOM     75  C   UNL A   1      45.470  32.716  26.412  1.00  0.00     0.198 A 
ATOM     76  F   UNL A   1      44.384  30.710  26.617  1.00  0.00    -0.203 F 
ATOM     77  F   UNL A   1      48.902  33.678  26.919  1.00  0.00    -0.200 F 
ATOM     78  C   UNL A   1      46.590  33.507  26.524  1.00  0.00     0.200 A 
ATOM     79  F   UNL A   1      44.265  33.273  26.220  1.00  0.00    -0.200 F 
ATOM     80  F   UNL A   1      46.476  34.840  26.462  1.00  0.00    -0.200 F 
ENDBRANCH  56  70
BRANCH  57  81
ATOM     81  C   UNL A   1      38.952  28.363  29.440  1.00  0.00     0.064 A 
ATOM     82  C   UNL A   1      38.093  28.590  30.529  1.00  0.00     0.173 A 
ATOM     83  C   UNL A   1      38.531  28.869  28.196  1.00  0.00     0.173 A 
ATOM     84  F   UNL A   1      38.441  28.182  31.759  1.00  0.00    -0.203 F 
ATOM     85  C   UNL A   1      36.902  29.311  30.387  1.00  0.00     0.198 A 
ATOM     86  C   UNL A   1      37.341  29.586  28.055  1.00  0.00     0.198 A 
ATOM     87  F   UNL A   1      39.316  28.770  27.114  1.00  0.00    -0.203 F 
ATOM     88  F   UNL A   1      36.143  29.568  31.463  1.00  0.00    -0.200 F 
ATOM     89  C   UNL A   1      36.534  29.820  29.153  1.00  0.00     0.200 A 
ATOM     90  F   UNL A   1      37.019  30.110  26.864  1.00  0.00    -0.200 F 
ATOM     91  F   UNL A   1      35.431  30.572  29.030  1.00  0.00    -0.200 F 
ENDBRANCH  57  81
BRANCH  69  92
ATOM     92  C   UNL A   1      44.458  27.413  32.400  1.00  0.00     0.064 A 
ATOM     93  C   UNL A   1      44.279  26.036  32.187  1.00  0.00     0.173 A 
ATOM     94  C   UNL A   1      44.671  27.844  33.716  1.00  0.00     0.173 A 
ATOM     95  F   UNL A   1      44.149  25.541  30.949  1.00  0.00    -0.203 F 
ATOM     96  C   UNL A   1      44.279  25.139  33.256  1.00  0.00     0.198 A 
ATOM     97  C   UNL A   1      44.710  26.944  34.774  1.00  0.00     0.198 A 
ATOM     98  F   UNL A   1      44.887  29.144  33.969  1.00  0.00    -0.203 F 
ATOM     99  F   UNL A   1      44.091  23.830  33.035  1.00  0.00    -0.200 F 
ATOM    100  C   UNL A   1      44.503  25.594  34.546  1.00  0.00     0.200 A 
ATOM    101  F   UNL A   1      44.971  27.385  36.012  1.00  0.00    -0.200 F 
ATOM    102  F   UNL A   1      44.543  24.727  35.569  1.00  0.00    -0.200 F 
ENDBRANCH  69  92
ENDBRANCH  43  44
ENDBRANCH  36  38
ENDBRANCH  35  36
ENDBRANCH  34  35
ENDBRANCH  33  34
ENDBRANCH  32  33
ENDBRANCH   1  32
TORSDOF 18
ENDMDL
MODEL 2
REMARK VINA RESULT:     -12.9      3.878      9.780
REMARK SMILES NS(=O)(=O)c1ccc(-n2nc(C(=O)OCCOCCOC(=O)c3ccc(-c4c5nc(c(-c6c(F)c(F)c(F)c(F)c6F)c6ccc([nH]6)c(-c6c(F)c(F)c(F)c(F)c6F)c6nc(c(-c7c(F)c(F)c(F)c(F)c7F)c7ccc4[nH]7)C=C6)C=C5)cc3)cc2-c2cc3ccccc3s2)cc1
REMARK SMILES IDX 16 1 15 2 14 3 12 4 13 5 11 6 9 7 10 8 87 9 86 10 8 11 5 12
REMARK SMILES IDX 6 13 98 14 7 15 97 16 2 17 3 18 4 19 1 20 88 23 89 24 96 25
REMARK SMILES IDX 90 26 95 27 91 28 94 29 92 30 93 31 17 32 18 33 19 34 20 35
REMARK SMILES IDX 21 36 22 37 23 38 24 39 85 40 25 41 84 42 26 43 27 44 28 45
REMARK SMILES IDX 78 46 29 47 83 48 77 49 79 50 30 51 82 52 76 53 75 54 31 56
REMARK SMILES IDX 63 57 43 58 62 59 44 60 47 61 61 62 80 63 45 64 46 65 60 67
REMARK SMILES IDX 81 68 48 69 32 70 33 71 41 72 34 73 35 74 39 75 42 76 36 77
REMARK SMILES IDX 37 78 40 79 38 80 64 81 65 82 73 83 66 84 67 85 71 86 74 87
REMARK SMILES IDX 68 88 69 89 72 90 70 91 49 92 50 93 58 94 51 95 52 96 56 97
REMARK SMILES IDX 59 98 53 99 54 100 57 101 55 102
REMARK H PARENT 1 21 1 22 79 55 47 66
REMARK Flexibility Score: inf
ROOT
ATOM      1  C   UNL A   1      34.745  33.137  28.020  1.00  0.00     0.202 C 
ENDROOT
BRANCH   1   2
ATOM      2  C   UNL A   1      34.194  31.754  28.373  1.00  0.00     0.261 C 
BRANCH   2   3
ATOM      3  O   UNL A   1      33.982  30.968  27.196  1.00  0.00    -0.458 OA
BRANCH   3   4
ATOM      4  C   UNL A   1      32.672  30.784  26.837  1.00  0.00     0.358 C 
ATOM      5  O   UNL A   1      31.802  31.640  26.924  1.00  0.00    -0.244 OA
BRANCH   4   6
ATOM      6  C   UNL A   1      32.464  29.442  26.280  1.00  0.00     0.171 A 
ATOM      7  N   UNL A   1      32.948  27.469  25.655  1.00  0.00    -0.231 N 
ATOM      8  N   UNL A   1      33.132  28.343  26.676  1.00  0.00    -0.160 NA
ATOM      9  C   UNL A   1      32.181  28.017  24.656  1.00  0.00     0.085 A 
ATOM     10  C   UNL A   1      31.568  29.110  25.245  1.00  0.00     0.068 A 
BRANCH   7  11
ATOM     11  C   UNL A   1      33.416  26.151  25.755  1.00  0.00     0.065 A 
ATOM     12  C   UNL A   1      34.295  23.539  25.970  1.00  0.00     0.082 A 
ATOM     13  C   UNL A   1      35.153  24.525  25.462  1.00  0.00     0.024 A 
ATOM     14  C   UNL A   1      32.995  23.856  26.376  1.00  0.00     0.024 A 
ATOM     15  C   UNL A   1      34.707  25.839  25.334  1.00  0.00     0.030 A 
ATOM     16  C   UNL A   1      32.560  25.178  26.290  1.00  0.00     0.030 A 
BRANCH  12  17
ATOM     17  S   UNL A   1      34.928  21.895  26.104  1.00  0.00     0.238 S 
ATOM     18  O   UNL A   1      36.365  21.961  26.127  1.00  0.00    -0.207 OA
ATOM     19  O   UNL A   1      34.193  21.057  25.180  1.00  0.00    -0.207 OA
BRANCH  17  20
ATOM     20  N   UNL A   1      34.474  21.372  27.636  1.00  0.00    -0.225 NA
ATOM     21  H   UNL A   1      33.489  21.588  27.791  1.00  0.00     0.137 HD
ATOM     22  H   UNL A   1      35.041  21.845  28.339  1.00  0.00     0.137 HD
ENDBRANCH  17  20
ENDBRANCH  12  17
ENDBRANCH   7  11
BRANCH   9  23
ATOM     23  C   UNL A   1      32.218  27.773  23.236  1.00  0.00     0.054 A 
ATOM     24  C   UNL A   1      33.093  26.933  22.557  1.00  0.00     0.031 A 
ATOM     25  S   UNL A   1      30.654  27.396  22.525  1.00  0.00    -0.134 S 
ATOM     26  C   UNL A   1      32.472  25.614  22.566  1.00  0.00    -0.007 A 
ATOM     27  C   UNL A   1      31.086  25.724  22.757  1.00  0.00     0.035 A 
ATOM     28  C   UNL A   1      33.044  24.324  22.585  1.00  0.00     0.009 A 
ATOM     29  C   UNL A   1      30.284  24.636  23.125  1.00  0.00     0.019 A 
ATOM     30  C   UNL A   1      32.260  23.236  22.986  1.00  0.00     0.001 A 
ATOM     31  C   UNL A   1      30.912  23.399  23.295  1.00  0.00     0.001 A 
ENDBRANCH   9  23
ENDBRANCH   4   6
ENDBRANCH   3   4
ENDBRANCH   2   3
ENDBRANCH   1   2
BRANCH   1  32
ATOM     32  O   UNL A   1      33.832  34.230  27.940  1.00  0.00    -0.374 OA
BRANCH  32  33
ATOM     33  C   UNL A   1      33.987  35.380  28.764  1.00  0.00     0.202 C 
BRANCH  33  34
ATOM     34  C   UNL A   1      33.070  35.564  29.962  1.00  0.00     0.261 C 
BRANCH  34  35
ATOM     35  O   UNL A   1      33.269  34.579  30.962  1.00  0.00    -0.460 OA
BRANCH  35  36
ATOM     36  C   UNL A   1      33.656  35.099  32.150  1.00  0.00     0.338 C 
ATOM     37  O   UNL A   1      33.302  36.153  32.650  1.00  0.00    -0.246 OA
BRANCH  36  38
ATOM     38  C   UNL A   1      34.752  34.282  32.676  1.00  0.00     0.060 A 
ATOM     39  C   UNL A   1      35.972  34.940  32.838  1.00  0.00     0.016 A 
ATOM     40  C   UNL A   1      34.652  32.885  32.622  1.00  0.00     0.016 A 
ATOM     41  C   UNL A   1      37.122  34.209  32.670  1.00  0.00     0.010 A 
ATOM     42  C   UNL A   1      35.800  32.160  32.434  1.00  0.00     0.010 A 
ATOM     43  C   UNL A   1      37.005  32.850  32.359  1.00  0.00    -0.014 A 
BRANCH  43  44
ATOM     44  C   UNL A   1      38.214  32.114  32.079  1.00  0.00     0.031 A 
ATOM     45  C   UNL A   1      38.989  31.892  33.314  1.00  0.00     0.074 A 
ATOM     46  C   UNL A   1      38.502  31.627  30.859  1.00  0.00     0.049 A 
ATOM     47  N   UNL A   1      40.048  32.523  33.692  1.00  0.00    -0.248 NA
ATOM     48  C   UNL A   1      38.375  31.062  34.365  1.00  0.00     0.031 C 
ATOM     49  C   UNL A   1      37.633  31.574  29.680  1.00  0.00     0.029 A 
ATOM     50  N   UNL A   1      39.628  30.986  30.442  1.00  0.00    -0.354 N 
ATOM     51  C   UNL A   1      40.368  31.976  34.928  1.00  0.00     0.074 A 
ATOM     52  C   UNL A   1      39.185  31.310  35.395  1.00  0.00     0.031 C 
ATOM     53  C   UNL A   1      38.175  30.739  28.761  1.00  0.00     0.029 A 
ATOM     54  C   UNL A   1      39.485  30.320  29.227  1.00  0.00     0.049 A 
ATOM     55  H   UNL A   1      40.469  30.991  30.954  1.00  0.00     0.167 HD
ATOM     56  C   UNL A   1      41.673  31.792  35.267  1.00  0.00     0.037 A 
ATOM     57  C   UNL A   1      40.375  29.435  28.714  1.00  0.00     0.037 A 
ATOM     58  C   UNL A   1      42.527  32.568  34.401  1.00  0.00     0.049 A 
ATOM     59  C   UNL A   1      41.677  29.700  29.374  1.00  0.00     0.074 A 
ATOM     60  C   UNL A   1      42.809  33.903  34.211  1.00  0.00     0.029 A 
ATOM     61  N   UNL A   1      42.903  31.906  33.262  1.00  0.00    -0.354 N 
ATOM     62  N   UNL A   1      42.361  30.798  29.202  1.00  0.00    -0.248 NA
ATOM     63  C   UNL A   1      42.043  28.916  30.547  1.00  0.00     0.031 C 
ATOM     64  C   UNL A   1      43.159  34.038  32.833  1.00  0.00     0.029 A 
ATOM     65  C   UNL A   1      43.134  32.777  32.235  1.00  0.00     0.049 A 
ATOM     66  H   UNL A   1      42.994  30.929  33.192  1.00  0.00     0.167 HD
ATOM     67  C   UNL A   1      42.924  31.056  30.439  1.00  0.00     0.074 A 
ATOM     68  C   UNL A   1      42.833  29.796  31.169  1.00  0.00     0.031 C 
ATOM     69  C   UNL A   1      43.113  32.343  30.854  1.00  0.00     0.037 A 
BRANCH  56  70
ATOM     70  C   UNL A   1      42.195  30.543  35.957  1.00  0.00     0.064 A 
ATOM     71  C   UNL A   1      43.180  30.693  36.953  1.00  0.00     0.173 A 
ATOM     72  C   UNL A   1      42.021  29.223  35.480  1.00  0.00     0.173 A 
ATOM     73  F   UNL A   1      43.454  31.902  37.465  1.00  0.00    -0.203 F 
ATOM     74  C   UNL A   1      43.975  29.622  37.378  1.00  0.00     0.198 A 
ATOM     75  C   UNL A   1      42.778  28.149  35.942  1.00  0.00     0.198 A 
ATOM     76  F   UNL A   1      41.202  28.917  34.468  1.00  0.00    -0.203 F 
ATOM     77  F   UNL A   1      44.980  29.839  38.235  1.00  0.00    -0.200 F 
ATOM     78  C   UNL A   1      43.776  28.353  36.868  1.00  0.00     0.200 A 
ATOM     79  F   UNL A   1      42.585  26.933  35.413  1.00  0.00    -0.200 F 
ATOM     80  F   UNL A   1      44.572  27.338  37.227  1.00  0.00    -0.200 F 
ENDBRANCH  56  70
BRANCH  57  81
ATOM     81  C   UNL A   1      40.109  28.172  27.981  1.00  0.00     0.064 A 
ATOM     82  C   UNL A   1      40.754  27.890  26.765  1.00  0.00     0.173 A 
ATOM     83  C   UNL A   1      39.459  27.092  28.609  1.00  0.00     0.173 A 
ATOM     84  F   UNL A   1      41.437  28.851  26.124  1.00  0.00    -0.203 F 
ATOM     85  C   UNL A   1      40.779  26.597  26.228  1.00  0.00     0.198 A 
ATOM     86  C   UNL A   1      39.482  25.803  28.071  1.00  0.00     0.198 A 
ATOM     87  F   UNL A   1      38.880  27.243  29.808  1.00  0.00    -0.203 F 
ATOM     88  F   UNL A   1      41.465  26.352  25.102  1.00  0.00    -0.200 F 
ATOM     89  C   UNL A   1      40.154  25.553  26.889  1.00  0.00     0.200 A 
ATOM     90  F   UNL A   1      38.910  24.794  28.743  1.00  0.00    -0.200 F 
ATOM     91  F   UNL A   1      40.238  24.302  26.415  1.00  0.00    -0.200 F 
ENDBRANCH  57  81
BRANCH  69  92
ATOM     92  C   UNL A   1      43.154  33.406  29.797  1.00  0.00     0.064 A 
ATOM     93  C   UNL A   1      42.061  34.204  29.421  1.00  0.00     0.173 A 
ATOM     94  C   UNL A   1      44.394  33.685  29.208  1.00  0.00     0.173 A 
ATOM     95  F   UNL A   1      40.863  34.050  30.000  1.00  0.00    -0.203 F 
ATOM     96  C   UNL A   1      42.204  35.213  28.469  1.00  0.00     0.198 A 
ATOM     97  C   UNL A   1      44.542  34.716  28.288  1.00  0.00     0.198 A 
ATOM     98  F   UNL A   1      45.479  32.978  29.562  1.00  0.00    -0.203 F 
ATOM     99  F   UNL A   1      41.146  35.956  28.111  1.00  0.00    -0.200 F 
ATOM    100  C   UNL A   1      43.446  35.473  27.910  1.00  0.00     0.200 A 
ATOM    101  F   UNL A   1      45.754  34.990  27.786  1.00  0.00    -0.200 F 
ATOM    102  F   UNL A   1      43.592  36.468  27.024  1.00  0.00    -0.200 F 
ENDBRANCH  69  92
ENDBRANCH  43  44
ENDBRANCH  36  38
ENDBRANCH  35  36
ENDBRANCH  34  35
ENDBRANCH  33  34
ENDBRANCH  32  33
ENDBRANCH   1  32
TORSDOF 18
ENDMDL
MODEL 3
REMARK VINA RESULT:     -12.7      4.340      9.988
REMARK SMILES NS(=O)(=O)c1ccc(-n2nc(C(=O)OCCOCCOC(=O)c3ccc(-c4c5nc(c(-c6c(F)c(F)c(F)c(F)c6F)c6ccc([nH]6)c(-c6c(F)c(F)c(F)c(F)c6F)c6nc(c(-c7c(F)c(F)c(F)c(F)c7F)c7ccc4[nH]7)C=C6)C=C5)cc3)cc2-c2cc3ccccc3s2)cc1
REMARK SMILES IDX 16 1 15 2 14 3 12 4 13 5 11 6 9 7 10 8 87 9 86 10 8 11 5 12
REMARK SMILES IDX 6 13 98 14 7 15 97 16 2 17 3 18 4 19 1 20 88 23 89 24 96 25
REMARK SMILES IDX 90 26 95 27 91 28 94 29 92 30 93 31 17 32 18 33 19 34 20 35
REMARK SMILES IDX 21 36 22 37 23 38 24 39 85 40 25 41 84 42 26 43 27 44 28 45
REMARK SMILES IDX 78 46 29 47 83 48 77 49 79 50 30 51 82 52 76 53 75 54 31 56
REMARK SMILES IDX 63 57 43 58 62 59 44 60 47 61 61 62 80 63 45 64 46 65 60 67
REMARK SMILES IDX 81 68 48 69 32 70 33 71 41 72 34 73 35 74 39 75 42 76 36 77
REMARK SMILES IDX 37 78 40 79 38 80 64 81 65 82 73 83 66 84 67 85 71 86 74 87
REMARK SMILES IDX 68 88 69 89 72 90 70 91 49 92 50 93 58 94 51 95 52 96 56 97
REMARK SMILES IDX 59 98 53 99 54 100 57 101 55 102
REMARK H PARENT 1 21 1 22 79 55 47 66
REMARK Flexibility Score: inf
ROOT
ATOM      1  C   UNL A   1      34.426  32.853  29.121  1.00  0.00     0.202 C 
ENDROOT
BRANCH   1   2
ATOM      2  C   UNL A   1      34.566  31.994  27.863  1.00  0.00     0.261 C 
BRANCH   2   3
ATOM      3  O   UNL A   1      33.717  30.843  27.928  1.00  0.00    -0.458 OA
BRANCH   3   4
ATOM      4  C   UNL A   1      32.633  30.863  27.090  1.00  0.00     0.358 C 
ATOM      5  O   UNL A   1      31.973  31.861  26.831  1.00  0.00    -0.244 OA
BRANCH   4   6
ATOM      6  C   UNL A   1      32.403  29.540  26.498  1.00  0.00     0.171 A 
ATOM      7  N   UNL A   1      32.846  27.562  25.856  1.00  0.00    -0.231 N 
ATOM      8  N   UNL A   1      33.014  28.410  26.900  1.00  0.00    -0.160 NA
ATOM      9  C   UNL A   1      32.144  28.156  24.835  1.00  0.00     0.085 A 
ATOM     10  C   UNL A   1      31.544  29.259  25.417  1.00  0.00     0.068 A 
BRANCH   7  11
ATOM     11  C   UNL A   1      33.263  26.227  25.949  1.00  0.00     0.065 A 
ATOM     12  C   UNL A   1      34.040  23.582  26.150  1.00  0.00     0.082 A 
ATOM     13  C   UNL A   1      34.962  24.550  25.727  1.00  0.00     0.024 A 
ATOM     14  C   UNL A   1      32.727  23.933  26.477  1.00  0.00     0.024 A 
ATOM     15  C   UNL A   1      34.569  25.882  25.606  1.00  0.00     0.030 A 
ATOM     16  C   UNL A   1      32.342  25.271  26.399  1.00  0.00     0.030 A 
BRANCH  12  17
ATOM     17  S   UNL A   1      34.609  21.914  26.280  1.00  0.00     0.238 S 
ATOM     18  O   UNL A   1      34.258  21.218  25.070  1.00  0.00    -0.207 OA
ATOM     19  O   UNL A   1      34.262  21.426  27.598  1.00  0.00    -0.207 OA
BRANCH  17  20
ATOM     20  N   UNL A   1      36.287  22.020  26.272  1.00  0.00    -0.225 NA
ATOM     21  H   UNL A   1      36.683  21.169  26.670  1.00  0.00     0.137 HD
ATOM     22  H   UNL A   1      36.579  22.824  26.827  1.00  0.00     0.137 HD
ENDBRANCH  17  20
ENDBRANCH  12  17
ENDBRANCH   7  11
BRANCH   9  23
ATOM     23  C   UNL A   1      32.236  27.936  23.413  1.00  0.00     0.054 A 
ATOM     24  C   UNL A   1      33.111  27.078  22.756  1.00  0.00     0.031 A 
ATOM     25  S   UNL A   1      30.694  27.629  22.627  1.00  0.00    -0.134 S 
ATOM     26  C   UNL A   1      32.444  25.783  22.711  1.00  0.00    -0.007 A 
ATOM     27  C   UNL A   1      31.056  25.939  22.844  1.00  0.00     0.035 A 
ATOM     28  C   UNL A   1      32.969  24.473  22.730  1.00  0.00     0.009 A 
ATOM     29  C   UNL A   1      30.200  24.873  23.154  1.00  0.00     0.019 A 
ATOM     30  C   UNL A   1      32.131  23.406  23.075  1.00  0.00     0.001 A 
ATOM     31  C   UNL A   1      30.777  23.612  23.327  1.00  0.00     0.001 A 
ENDBRANCH   9  23
ENDBRANCH   4   6
ENDBRANCH   3   4
ENDBRANCH   2   3
ENDBRANCH   1   2
BRANCH   1  32
ATOM     32  O   UNL A   1      34.860  34.211  29.067  1.00  0.00    -0.374 OA
BRANCH  32  33
ATOM     33  C   UNL A   1      33.944  35.266  28.801  1.00  0.00     0.202 C 
BRANCH  33  34
ATOM     34  C   UNL A   1      33.023  35.747  29.911  1.00  0.00     0.261 C 
BRANCH  34  35
ATOM     35  O   UNL A   1      33.699  35.934  31.143  1.00  0.00    -0.460 OA
BRANCH  35  36
ATOM     36  C   UNL A   1      33.286  35.083  32.111  1.00  0.00     0.338 C 
ATOM     37  O   UNL A   1      32.153  34.939  32.537  1.00  0.00    -0.246 OA
BRANCH  36  38
ATOM     38  C   UNL A   1      34.467  34.483  32.733  1.00  0.00     0.060 A 
ATOM     39  C   UNL A   1      35.591  35.306  32.816  1.00  0.00     0.016 A 
ATOM     40  C   UNL A   1      34.548  33.088  32.849  1.00  0.00     0.016 A 
ATOM     41  C   UNL A   1      36.827  34.714  32.739  1.00  0.00     0.010 A 
ATOM     42  C   UNL A   1      35.780  32.500  32.750  1.00  0.00     0.010 A 
ATOM     43  C   UNL A   1      36.889  33.324  32.595  1.00  0.00    -0.014 A 
BRANCH  43  44
ATOM     44  C   UNL A   1      38.187  32.721  32.408  1.00  0.00     0.031 A 
ATOM     45  C   UNL A   1      38.970  32.767  33.657  1.00  0.00     0.074 A 
ATOM     46  C   UNL A   1      38.550  32.120  31.261  1.00  0.00     0.049 A 
ATOM     47  N   UNL A   1      39.934  33.575  33.941  1.00  0.00    -0.248 NA
ATOM     48  C   UNL A   1      38.457  32.010  34.811  1.00  0.00     0.031 C 
ATOM     49  C   UNL A   1      37.708  31.798  30.104  1.00  0.00     0.029 A 
ATOM     50  N   UNL A   1      39.754  31.580  30.926  1.00  0.00    -0.354 N 
ATOM     51  C   UNL A   1      40.308  33.241  35.237  1.00  0.00     0.074 A 
ATOM     52  C   UNL A   1      39.216  32.495  35.795  1.00  0.00     0.031 C 
ATOM     53  C   UNL A   1      38.364  30.927  29.301  1.00  0.00     0.029 A 
ATOM     54  C   UNL A   1      39.712  30.747  29.810  1.00  0.00     0.049 A 
ATOM     55  H   UNL A   1      40.581  31.762  31.427  1.00  0.00     0.167 HD
ATOM     56  C   UNL A   1      41.622  33.275  35.589  1.00  0.00     0.037 A 
ATOM     57  C   UNL A   1      40.716  29.925  29.413  1.00  0.00     0.037 A 
ATOM     58  C   UNL A   1      42.378  34.035  34.623  1.00  0.00     0.049 A 
ATOM     59  C   UNL A   1      41.965  30.442  30.025  1.00  0.00     0.074 A 
ATOM     60  C   UNL A   1      42.486  35.358  34.256  1.00  0.00     0.029 A 
ATOM     61  N   UNL A   1      42.849  33.283  33.579  1.00  0.00    -0.354 N 
ATOM     62  N   UNL A   1      42.502  31.588  29.705  1.00  0.00    -0.248 NA
ATOM     63  C   UNL A   1      42.416  29.875  31.289  1.00  0.00     0.031 C 
ATOM     64  C   UNL A   1      42.832  35.354  32.871  1.00  0.00     0.029 A 
ATOM     65  C   UNL A   1      42.977  34.033  32.445  1.00  0.00     0.049 A 
ATOM     66  H   UNL A   1      43.068  32.325  33.639  1.00  0.00     0.167 HD
ATOM     67  C   UNL A   1      43.013  32.078  30.894  1.00  0.00     0.074 A 
ATOM     68  C   UNL A   1      43.078  30.924  31.785  1.00  0.00     0.031 C 
ATOM     69  C   UNL A   1      43.029  33.422  31.134  1.00  0.00     0.037 A 
BRANCH  56  70
ATOM     70  C   UNL A   1      42.293  32.207  36.435  1.00  0.00     0.064 A 
ATOM     71  C   UNL A   1      43.097  32.619  37.517  1.00  0.00     0.173 A 
ATOM     72  C   UNL A   1      42.449  30.853  36.055  1.00  0.00     0.173 A 
ATOM     73  F   UNL A   1      43.056  33.887  37.953  1.00  0.00    -0.203 F 
ATOM     74  C   UNL A   1      44.031  31.766  38.116  1.00  0.00     0.198 A 
ATOM     75  C   UNL A   1      43.342  29.992  36.687  1.00  0.00     0.198 A 
ATOM     76  F   UNL A   1      41.840  30.322  34.990  1.00  0.00    -0.203 F 
ATOM     77  F   UNL A   1      44.857  32.239  39.056  1.00  0.00    -0.200 F 
ATOM     78  C   UNL A   1      44.155  30.454  37.696  1.00  0.00     0.200 A 
ATOM     79  F   UNL A   1      43.464  28.732  36.245  1.00  0.00    -0.200 F 
ATOM     80  F   UNL A   1      45.088  29.652  38.225  1.00  0.00    -0.200 F 
ENDBRANCH  56  70
BRANCH  57  81
ATOM     81  C   UNL A   1      40.623  28.553  28.855  1.00  0.00     0.064 A 
ATOM     82  C   UNL A   1      39.887  27.552  29.512  1.00  0.00     0.173 A 
ATOM     83  C   UNL A   1      40.993  28.286  27.523  1.00  0.00     0.173 A 
ATOM     84  F   UNL A   1      39.455  27.746  30.767  1.00  0.00    -0.203 F 
ATOM     85  C   UNL A   1      39.512  26.370  28.862  1.00  0.00     0.198 A 
ATOM     86  C   UNL A   1      40.620  27.105  26.877  1.00  0.00     0.198 A 
ATOM     87  F   UNL A   1      41.631  29.208  26.789  1.00  0.00    -0.203 F 
ATOM     88  F   UNL A   1      38.749  25.469  29.498  1.00  0.00    -0.200 F 
ATOM     89  C   UNL A   1      39.868  26.154  27.541  1.00  0.00     0.200 A 
ATOM     90  F   UNL A   1      40.935  26.928  25.586  1.00  0.00    -0.200 F 
ATOM     91  F   UNL A   1      39.449  25.056  26.896  1.00  0.00    -0.200 F 
ENDBRANCH  57  81
BRANCH  69  92
ATOM     92  C   UNL A   1      42.944  34.332  29.945  1.00  0.00     0.064 A 
ATOM     93  C   UNL A   1      44.041  34.741  29.170  1.00  0.00     0.173 A 
ATOM     94  C   UNL A   1      41.668  34.728  29.524  1.00  0.00     0.173 A 
ATOM     95  F   UNL A   1      45.284  34.336  29.465  1.00  0.00    -0.203 F 
ATOM     96  C   UNL A   1      43.864  35.543  28.042  1.00  0.00     0.198 A 
ATOM     97  C   UNL A   1      41.490  35.494  28.378  1.00  0.00     0.198 A 
ATOM     98  F   UNL A   1      40.583  34.331  30.206  1.00  0.00    -0.203 F 
ATOM     99  F   UNL A   1      44.925  35.937  27.322  1.00  0.00    -0.200 F 
ATOM    100  C   UNL A   1      42.588  35.911  27.643  1.00  0.00     0.200 A 
ATOM    101  F   UNL A   1      40.252  35.808  27.974  1.00  0.00    -0.200 F 
ATOM    102  F   UNL A   1      42.414  36.648  26.537  1.00  0.00    -0.200 F 
ENDBRANCH  69  92
ENDBRANCH  43  44
ENDBRANCH  36  38
ENDBRANCH  35  36
ENDBRANCH  34  35
ENDBRANCH  33  34
ENDBRANCH  32  33
ENDBRANCH   1  32
TORSDOF 18
ENDMDL
