MODEL 1
REMARK VINA RESULT:     -12.4      0.000      0.000
REMARK SMILES COc1ccc(-c2nc3ccc(C)cc3[nH]2)c(C(=O)OCCOCCOC(=O)c2ccc(-c3c4nc(c(-c5c(F)c(F)c(F)c(F)c5F)c5ccc([nH]5)c(-c5c(F)c(F)c(F)c(F)c5F)c5nc(c(-c6c(F)c(F)c(F)c(F)c6F)c6ccc3[nH]6)C=C5)C=C4)cc2)c1OC
REMARK SMILES IDX 24 1 23 2 22 3 21 4 20 5 18 6 19 7 17 8 3 9 4 10 92 11 5 12
REMARK SMILES IDX 6 13 2 14 1 15 93 16 94 17 7 18 8 19 16 20 9 21 15 22 10 24
REMARK SMILES IDX 14 25 11 26 12 27 13 28 25 29 26 30 27 31 28 32 29 33 30 34
REMARK SMILES IDX 91 35 31 36 90 37 32 38 33 39 34 40 84 41 35 42 89 43 83 44
REMARK SMILES IDX 85 45 36 46 88 47 82 48 81 49 37 51 69 52 49 53 68 54 50 55
REMARK SMILES IDX 53 56 67 57 86 58 51 59 52 60 66 62 87 63 54 64 38 65 39 66
REMARK SMILES IDX 47 67 40 68 41 69 45 70 48 71 42 72 43 73 46 74 44 75 70 76
REMARK SMILES IDX 71 77 79 78 72 79 73 80 77 81 80 82 74 83 75 84 78 85 76 86
REMARK SMILES IDX 55 87 56 88 64 89 57 90 58 91 62 92 65 93 59 94 60 95 63 96
REMARK SMILES IDX 61 97
REMARK H PARENT 16 23 85 50 53 61
REMARK Flexibility Score: inf
ROOT
ATOM      1  C   UNL A   1      31.814  29.733  25.655  1.00  0.00     0.202 C 
ENDROOT
BRANCH   1   2
ATOM      2  O   UNL A   1      32.983  29.195  25.031  1.00  0.00    -0.374 OA
BRANCH   2   3
ATOM      3  C   UNL A   1      33.588  28.063  25.664  1.00  0.00     0.202 C 
BRANCH   3   4
ATOM      4  C   UNL A   1      32.632  27.061  26.319  1.00  0.00     0.261 C 
BRANCH   4   5
ATOM      5  O   UNL A   1      33.091  25.735  26.027  1.00  0.00    -0.460 OA
BRANCH   5   6
ATOM      6  C   UNL A   1      32.205  24.749  26.292  1.00  0.00     0.342 C 
ATOM      7  O   UNL A   1      31.318  24.750  27.129  1.00  0.00    -0.246 OA
BRANCH   6   8
ATOM      8  C   UNL A   1      32.386  23.683  25.284  1.00  0.00     0.116 A 
ATOM      9  C   UNL A   1      33.446  21.652  24.557  1.00  0.00     0.161 A 
ATOM     10  C   UNL A   1      32.628  21.654  23.416  1.00  0.00     0.051 A 
ATOM     11  C   UNL A   1      33.340  22.671  25.510  1.00  0.00     0.176 A 
ATOM     12  C   UNL A   1      31.710  22.688  23.186  1.00  0.00     0.017 A 
ATOM     13  C   UNL A   1      31.603  23.739  24.101  1.00  0.00     0.036 A 
BRANCH   9  14
ATOM     14  O   UNL A   1      34.391  20.663  24.617  1.00  0.00    -0.493 OA
ATOM     15  C   UNL A   1      33.813  19.363  24.697  1.00  0.00     0.278 C 
ENDBRANCH   9  14
BRANCH  11  16
ATOM     16  O   UNL A   1      34.046  22.757  26.679  1.00  0.00    -0.492 OA
ATOM     17  C   UNL A   1      33.682  21.912  27.764  1.00  0.00     0.278 C 
ENDBRANCH  11  16
BRANCH  13  18
ATOM     18  C   UNL A   1      30.914  24.987  23.744  1.00  0.00     0.139 A 
ATOM     19  N   UNL A   1      31.520  25.940  23.070  1.00  0.00    -0.228 NA
ATOM     20  N   UNL A   1      29.613  25.361  24.008  1.00  0.00    -0.338 N 
ATOM     21  C   UNL A   1      30.644  26.973  22.955  1.00  0.00     0.089 A 
ATOM     22  C   UNL A   1      29.427  26.648  23.534  1.00  0.00     0.066 A 
ATOM     23  H   UNL A   1      28.934  24.807  24.455  1.00  0.00     0.168 HD
ATOM     24  C   UNL A   1      30.843  28.225  22.366  1.00  0.00     0.031 A 
ATOM     25  C   UNL A   1      28.355  27.550  23.564  1.00  0.00     0.031 A 
ATOM     26  C   UNL A   1      29.798  29.146  22.394  1.00  0.00     0.006 A 
ATOM     27  C   UNL A   1      28.571  28.826  22.994  1.00  0.00    -0.049 A 
ATOM     28  C   UNL A   1      27.495  29.875  23.004  1.00  0.00     0.044 C 
ENDBRANCH  13  18
ENDBRANCH   6   8
ENDBRANCH   5   6
ENDBRANCH   4   5
ENDBRANCH   3   4
ENDBRANCH   2   3
ENDBRANCH   1   2
BRANCH   1  29
ATOM     29  C   UNL A   1      31.997  31.073  26.363  1.00  0.00     0.261 C 
BRANCH  29  30
ATOM     30  O   UNL A   1      32.816  30.940  27.529  1.00  0.00    -0.460 OA
BRANCH  30  31
ATOM     31  C   UNL A   1      33.639  31.994  27.731  1.00  0.00     0.338 C 
ATOM     32  O   UNL A   1      33.346  33.173  27.815  1.00  0.00    -0.246 OA
BRANCH  31  33
ATOM     33  C   UNL A   1      35.000  31.496  27.977  1.00  0.00     0.060 A 
ATOM     34  C   UNL A   1      35.155  30.117  28.162  1.00  0.00     0.016 A 
ATOM     35  C   UNL A   1      36.085  32.367  28.103  1.00  0.00     0.016 A 
ATOM     36  C   UNL A   1      36.382  29.610  28.562  1.00  0.00     0.010 A 
ATOM     37  C   UNL A   1      37.318  31.857  28.507  1.00  0.00     0.010 A 
ATOM     38  C   UNL A   1      37.448  30.488  28.794  1.00  0.00    -0.014 A 
BRANCH  38  39
ATOM     39  C   UNL A   1      38.623  29.998  29.544  1.00  0.00     0.031 A 
ATOM     40  C   UNL A   1      38.819  30.482  30.954  1.00  0.00     0.074 A 
ATOM     41  C   UNL A   1      39.459  29.103  28.998  1.00  0.00     0.049 A 
ATOM     42  N   UNL A   1      39.758  30.184  31.813  1.00  0.00    -0.248 NA
ATOM     43  C   UNL A   1      37.819  31.437  31.461  1.00  0.00     0.031 C 
ATOM     44  C   UNL A   1      39.329  28.537  27.657  1.00  0.00     0.029 A 
ATOM     45  N   UNL A   1      40.580  28.508  29.512  1.00  0.00    -0.354 N 
ATOM     46  C   UNL A   1      39.467  30.920  32.956  1.00  0.00     0.074 A 
ATOM     47  C   UNL A   1      38.289  31.707  32.668  1.00  0.00     0.031 C 
ATOM     48  C   UNL A   1      40.331  27.665  27.456  1.00  0.00     0.029 A 
ATOM     49  C   UNL A   1      41.184  27.637  28.643  1.00  0.00     0.049 A 
ATOM     50  H   UNL A   1      40.919  28.688  30.418  1.00  0.00     0.167 HD
ATOM     51  C   UNL A   1      40.120  30.926  34.142  1.00  0.00     0.037 A 
ATOM     52  C   UNL A   1      42.303  26.906  28.797  1.00  0.00     0.037 A 
ATOM     53  C   UNL A   1      41.288  30.133  34.416  1.00  0.00     0.049 A 
ATOM     54  C   UNL A   1      43.051  26.983  30.102  1.00  0.00     0.074 A 
ATOM     55  C   UNL A   1      42.019  30.043  35.586  1.00  0.00     0.029 A 
ATOM     56  N   UNL A   1      41.902  29.296  33.494  1.00  0.00    -0.354 N 
ATOM     57  N   UNL A   1      42.757  27.656  31.190  1.00  0.00    -0.248 NA
ATOM     58  C   UNL A   1      44.283  26.191  30.201  1.00  0.00     0.031 C 
ATOM     59  C   UNL A   1      43.107  29.194  35.356  1.00  0.00     0.029 A 
ATOM     60  C   UNL A   1      43.021  28.707  34.060  1.00  0.00     0.049 A 
ATOM     61  H   UNL A   1      41.589  29.143  32.573  1.00  0.00     0.167 HD
ATOM     62  C   UNL A   1      43.744  27.340  32.114  1.00  0.00     0.074 A 
ATOM     63  C   UNL A   1      44.642  26.410  31.458  1.00  0.00     0.031 C 
ATOM     64  C   UNL A   1      43.893  27.775  33.390  1.00  0.00     0.037 A 
BRANCH  51  65
ATOM     65  C   UNL A   1      39.600  31.847  35.208  1.00  0.00     0.064 A 
ATOM     66  C   UNL A   1      38.676  31.420  36.174  1.00  0.00     0.173 A 
ATOM     67  C   UNL A   1      40.027  33.183  35.257  1.00  0.00     0.173 A 
ATOM     68  F   UNL A   1      38.221  30.158  36.164  1.00  0.00    -0.203 F 
ATOM     69  C   UNL A   1      38.170  32.305  37.124  1.00  0.00     0.198 A 
ATOM     70  C   UNL A   1      39.544  34.056  36.228  1.00  0.00     0.198 A 
ATOM     71  F   UNL A   1      40.910  33.644  34.359  1.00  0.00    -0.203 F 
ATOM     72  F   UNL A   1      37.240  31.891  37.995  1.00  0.00    -0.200 F 
ATOM     73  C   UNL A   1      38.607  33.620  37.153  1.00  0.00     0.200 A 
ATOM     74  F   UNL A   1      39.977  35.324  36.261  1.00  0.00    -0.200 F 
ATOM     75  F   UNL A   1      38.118  34.472  38.064  1.00  0.00    -0.200 F 
ENDBRANCH  51  65
BRANCH  52  76
ATOM     76  C   UNL A   1      42.766  26.021  27.699  1.00  0.00     0.064 A 
ATOM     77  C   UNL A   1      43.699  26.473  26.756  1.00  0.00     0.173 A 
ATOM     78  C   UNL A   1      42.287  24.709  27.567  1.00  0.00     0.173 A 
ATOM     79  F   UNL A   1      44.168  27.727  26.828  1.00  0.00    -0.203 F 
ATOM     80  C   UNL A   1      44.126  25.652  25.716  1.00  0.00     0.198 A 
ATOM     81  C   UNL A   1      42.736  23.879  26.542  1.00  0.00     0.198 A 
ATOM     82  F   UNL A   1      41.393  24.229  28.444  1.00  0.00    -0.203 F 
ATOM     83  F   UNL A   1      44.988  26.123  24.804  1.00  0.00    -0.200 F 
ATOM     84  C   UNL A   1      43.650  24.353  25.613  1.00  0.00     0.200 A 
ATOM     85  F   UNL A   1      42.281  22.622  26.452  1.00  0.00    -0.200 F 
ATOM     86  F   UNL A   1      44.064  23.562  24.614  1.00  0.00    -0.200 F 
ENDBRANCH  52  76
BRANCH  64  87
ATOM     87  C   UNL A   1      45.040  27.209  34.178  1.00  0.00     0.064 A 
ATOM     88  C   UNL A   1      46.292  27.840  34.222  1.00  0.00     0.173 A 
ATOM     89  C   UNL A   1      44.871  26.030  34.922  1.00  0.00     0.173 A 
ATOM     90  F   UNL A   1      46.509  28.960  33.518  1.00  0.00    -0.203 F 
ATOM     91  C   UNL A   1      47.341  27.295  34.958  1.00  0.00     0.198 A 
ATOM     92  C   UNL A   1      45.913  25.508  35.684  1.00  0.00     0.198 A 
ATOM     93  F   UNL A   1      43.692  25.392  34.921  1.00  0.00    -0.203 F 
ATOM     94  F   UNL A   1      48.544  27.885  34.942  1.00  0.00    -0.200 F 
ATOM     95  C   UNL A   1      47.149  26.135  35.693  1.00  0.00     0.200 A 
ATOM     96  F   UNL A   1      45.719  24.396  36.406  1.00  0.00    -0.200 F 
ATOM     97  F   UNL A   1      48.159  25.616  36.405  1.00  0.00    -0.200 F 
ENDBRANCH  64  87
ENDBRANCH  38  39
ENDBRANCH  31  33
ENDBRANCH  30  31
ENDBRANCH  29  30
ENDBRANCH   1  29
TORSDOF 17
ENDMDL
MODEL 2
REMARK VINA RESULT:     -12.3      0.959      2.053
REMARK SMILES COc1ccc(-c2nc3ccc(C)cc3[nH]2)c(C(=O)OCCOCCOC(=O)c2ccc(-c3c4nc(c(-c5c(F)c(F)c(F)c(F)c5F)c5ccc([nH]5)c(-c5c(F)c(F)c(F)c(F)c5F)c5nc(c(-c6c(F)c(F)c(F)c(F)c6F)c6ccc3[nH]6)C=C5)C=C4)cc2)c1OC
REMARK SMILES IDX 24 1 23 2 22 3 21 4 20 5 18 6 19 7 17 8 3 9 4 10 92 11 5 12
REMARK SMILES IDX 6 13 2 14 1 15 93 16 94 17 7 18 8 19 16 20 9 21 15 22 10 24
REMARK SMILES IDX 14 25 11 26 12 27 13 28 25 29 26 30 27 31 28 32 29 33 30 34
REMARK SMILES IDX 91 35 31 36 90 37 32 38 33 39 34 40 84 41 35 42 89 43 83 44
REMARK SMILES IDX 85 45 36 46 88 47 82 48 81 49 37 51 69 52 49 53 68 54 50 55
REMARK SMILES IDX 53 56 67 57 86 58 51 59 52 60 66 62 87 63 54 64 38 65 39 66
REMARK SMILES IDX 47 67 40 68 41 69 45 70 48 71 42 72 43 73 46 74 44 75 70 76
REMARK SMILES IDX 71 77 79 78 72 79 73 80 77 81 80 82 74 83 75 84 78 85 76 86
REMARK SMILES IDX 55 87 56 88 64 89 57 90 58 91 62 92 65 93 59 94 60 95 63 96
REMARK SMILES IDX 61 97
REMARK H PARENT 16 23 85 50 53 61
REMARK Flexibility Score: inf
ROOT
ATOM      1  C   UNL A   1      31.424  31.413  26.338  1.00  0.00     0.202 C 
ENDROOT
BRANCH   1   2
ATOM      2  O   UNL A   1      32.114  30.231  26.756  1.00  0.00    -0.374 OA
BRANCH   2   3
ATOM      3  C   UNL A   1      32.976  29.615  25.793  1.00  0.00     0.202 C 
BRANCH   3   4
ATOM      4  C   UNL A   1      33.393  28.170  26.084  1.00  0.00     0.261 C 
BRANCH   4   5
ATOM      5  O   UNL A   1      32.656  27.300  25.215  1.00  0.00    -0.460 OA
BRANCH   5   6
ATOM      6  C   UNL A   1      31.848  26.414  25.841  1.00  0.00     0.342 C 
ATOM      7  O   UNL A   1      31.226  26.577  26.876  1.00  0.00    -0.246 OA
BRANCH   6   8
ATOM      8  C   UNL A   1      31.716  25.221  24.978  1.00  0.00     0.116 A 
ATOM      9  C   UNL A   1      32.377  22.987  24.383  1.00  0.00     0.161 A 
ATOM     10  C   UNL A   1      31.374  22.971  23.401  1.00  0.00     0.051 A 
ATOM     11  C   UNL A   1      32.567  24.117  25.187  1.00  0.00     0.176 A 
ATOM     12  C   UNL A   1      30.560  24.091  23.179  1.00  0.00     0.017 A 
ATOM     13  C   UNL A   1      30.746  25.247  23.942  1.00  0.00     0.036 A 
BRANCH   9  14
ATOM     14  O   UNL A   1      33.192  21.889  24.428  1.00  0.00    -0.493 OA
ATOM     15  C   UNL A   1      32.738  20.914  25.365  1.00  0.00     0.278 C 
ENDBRANCH   9  14
BRANCH  11  16
ATOM     16  O   UNL A   1      33.477  24.240  26.202  1.00  0.00    -0.492 OA
ATOM     17  C   UNL A   1      34.852  24.403  25.875  1.00  0.00     0.278 C 
ENDBRANCH  11  16
BRANCH  13  18
ATOM     18  C   UNL A   1      30.159  26.530  23.529  1.00  0.00     0.139 A 
ATOM     19  N   UNL A   1      28.900  26.821  23.773  1.00  0.00    -0.228 NA
ATOM     20  N   UNL A   1      30.763  27.587  22.880  1.00  0.00    -0.338 N 
ATOM     21  C   UNL A   1      28.652  28.037  23.218  1.00  0.00     0.089 A 
ATOM     22  C   UNL A   1      29.803  28.555  22.644  1.00  0.00     0.066 A 
ATOM     23  H   UNL A   1      31.712  27.642  22.628  1.00  0.00     0.168 HD
ATOM     24  C   UNL A   1      27.448  28.746  23.171  1.00  0.00     0.031 A 
ATOM     25  C   UNL A   1      29.812  29.795  21.990  1.00  0.00     0.031 A 
ATOM     26  C   UNL A   1      27.426  29.975  22.514  1.00  0.00     0.006 A 
ATOM     27  C   UNL A   1      28.585  30.494  21.918  1.00  0.00    -0.049 A 
ATOM     28  C   UNL A   1      28.483  31.816  21.210  1.00  0.00     0.044 C 
ENDBRANCH  13  18
ENDBRANCH   6   8
ENDBRANCH   5   6
ENDBRANCH   4   5
ENDBRANCH   3   4
ENDBRANCH   2   3
ENDBRANCH   1   2
BRANCH   1  29
ATOM     29  C   UNL A   1      31.947  32.726  26.918  1.00  0.00     0.261 C 
BRANCH  29  30
ATOM     30  O   UNL A   1      32.904  32.494  27.956  1.00  0.00    -0.460 OA
BRANCH  30  31
ATOM     31  C   UNL A   1      33.903  33.404  27.981  1.00  0.00     0.338 C 
ATOM     32  O   UNL A   1      33.817  34.618  27.928  1.00  0.00    -0.246 OA
BRANCH  31  33
ATOM     33  C   UNL A   1      35.177  32.710  28.219  1.00  0.00     0.060 A 
ATOM     34  C   UNL A   1      35.126  31.323  28.403  1.00  0.00     0.016 A 
ATOM     35  C   UNL A   1      36.379  33.410  28.337  1.00  0.00     0.016 A 
ATOM     36  C   UNL A   1      36.266  30.639  28.796  1.00  0.00     0.010 A 
ATOM     37  C   UNL A   1      37.525  32.723  28.734  1.00  0.00     0.010 A 
ATOM     38  C   UNL A   1      37.452  31.349  29.021  1.00  0.00    -0.014 A 
BRANCH  38  39
ATOM     39  C   UNL A   1      38.546  30.690  29.764  1.00  0.00     0.031 A 
ATOM     40  C   UNL A   1      38.726  31.033  31.216  1.00  0.00     0.074 A 
ATOM     41  C   UNL A   1      39.320  29.770  29.169  1.00  0.00     0.049 A 
ATOM     42  N   UNL A   1      39.598  30.576  32.077  1.00  0.00    -0.248 NA
ATOM     43  C   UNL A   1      37.796  32.030  31.772  1.00  0.00     0.031 C 
ATOM     44  C   UNL A   1      39.196  29.335  27.780  1.00  0.00     0.029 A 
ATOM     45  N   UNL A   1      40.360  29.032  29.666  1.00  0.00    -0.354 N 
ATOM     46  C   UNL A   1      39.327  31.237  33.270  1.00  0.00     0.074 A 
ATOM     47  C   UNL A   1      38.238  32.152  33.014  1.00  0.00     0.031 C 
ATOM     48  C   UNL A   1      40.122  28.393  27.537  1.00  0.00     0.029 A 
ATOM     49  C   UNL A   1      40.919  28.185  28.745  1.00  0.00     0.049 A 
ATOM     50  H   UNL A   1      40.677  29.102  30.596  1.00  0.00     0.167 HD
ATOM     51  C   UNL A   1      39.928  31.081  34.473  1.00  0.00     0.037 A 
ATOM     52  C   UNL A   1      41.960  27.342  28.872  1.00  0.00     0.037 A 
ATOM     53  C   UNL A   1      41.008  30.163  34.715  1.00  0.00     0.049 A 
ATOM     54  C   UNL A   1      42.657  27.238  30.203  1.00  0.00     0.074 A 
ATOM     55  C   UNL A   1      41.678  29.906  35.897  1.00  0.00     0.029 A 
ATOM     56  N   UNL A   1      41.582  29.353  33.744  1.00  0.00    -0.354 N 
ATOM     57  N   UNL A   1      42.381  27.841  31.335  1.00  0.00    -0.248 NA
ATOM     58  C   UNL A   1      43.808  26.330  30.273  1.00  0.00     0.031 C 
ATOM     59  C   UNL A   1      42.694  28.982  35.629  1.00  0.00     0.029 A 
ATOM     60  C   UNL A   1      42.618  28.616  34.294  1.00  0.00     0.049 A 
ATOM     61  H   UNL A   1      41.295  29.308  32.804  1.00  0.00     0.167 HD
ATOM     62  C   UNL A   1      43.296  27.358  32.260  1.00  0.00     0.074 A 
ATOM     63  C   UNL A   1      44.133  26.406  31.556  1.00  0.00     0.031 C 
ATOM     64  C   UNL A   1      43.430  27.667  33.574  1.00  0.00     0.037 A 
BRANCH  51  65
ATOM     65  C   UNL A   1      39.450  31.954  35.598  1.00  0.00     0.064 A 
ATOM     66  C   UNL A   1      39.960  33.245  35.805  1.00  0.00     0.173 A 
ATOM     67  C   UNL A   1      38.472  31.486  36.489  1.00  0.00     0.173 A 
ATOM     68  F   UNL A   1      40.908  33.736  34.995  1.00  0.00    -0.203 F 
ATOM     69  C   UNL A   1      39.538  34.018  36.885  1.00  0.00     0.198 A 
ATOM     70  C   UNL A   1      38.029  32.275  37.547  1.00  0.00     0.198 A 
ATOM     71  F   UNL A   1      37.949  30.261  36.336  1.00  0.00    -0.203 F 
ATOM     72  F   UNL A   1      40.086  35.222  37.101  1.00  0.00    -0.200 F 
ATOM     73  C   UNL A   1      38.570  33.535  37.752  1.00  0.00     0.200 A 
ATOM     74  F   UNL A   1      37.084  31.810  38.377  1.00  0.00    -0.200 F 
ATOM     75  F   UNL A   1      38.166  34.277  38.792  1.00  0.00    -0.200 F 
ENDBRANCH  51  65
BRANCH  52  76
ATOM     76  C   UNL A   1      42.387  26.514  27.715  1.00  0.00     0.064 A 
ATOM     77  C   UNL A   1      43.394  26.956  26.847  1.00  0.00     0.173 A 
ATOM     78  C   UNL A   1      41.799  25.268  27.454  1.00  0.00     0.173 A 
ATOM     79  F   UNL A   1      43.970  28.151  27.044  1.00  0.00    -0.203 F 
ATOM     80  C   UNL A   1      43.789  26.189  25.753  1.00  0.00     0.198 A 
ATOM     81  C   UNL A   1      42.213  24.489  26.375  1.00  0.00     0.198 A 
ATOM     82  F   UNL A   1      40.831  24.799  28.255  1.00  0.00    -0.203 F 
ATOM     83  F   UNL A   1      44.725  26.654  24.915  1.00  0.00    -0.200 F 
ATOM     84  C   UNL A   1      43.203  24.953  25.522  1.00  0.00     0.200 A 
ATOM     85  F   UNL A   1      41.652  23.292  26.161  1.00  0.00    -0.200 F 
ATOM     86  F   UNL A   1      43.585  24.215  24.472  1.00  0.00    -0.200 F 
ENDBRANCH  52  76
BRANCH  64  87
ATOM     87  C   UNL A   1      44.488  26.932  34.347  1.00  0.00     0.064 A 
ATOM     88  C   UNL A   1      44.233  25.697  34.961  1.00  0.00     0.173 A 
ATOM     89  C   UNL A   1      45.785  27.460  34.447  1.00  0.00     0.173 A 
ATOM     90  F   UNL A   1      43.007  25.156  34.907  1.00  0.00    -0.203 F 
ATOM     91  C   UNL A   1      45.229  25.034  35.673  1.00  0.00     0.198 A 
ATOM     92  C   UNL A   1      46.786  26.777  35.131  1.00  0.00     0.198 A 
ATOM     93  F   UNL A   1      46.083  28.634  33.871  1.00  0.00    -0.203 F 
ATOM     94  F   UNL A   1      44.947  23.882  36.299  1.00  0.00    -0.200 F 
ATOM     95  C   UNL A   1      46.505  25.571  35.752  1.00  0.00     0.200 A 
ATOM     96  F   UNL A   1      48.023  27.291  35.191  1.00  0.00    -0.200 F 
ATOM     97  F   UNL A   1      47.463  24.927  36.434  1.00  0.00    -0.200 F 
ENDBRANCH  64  87
ENDBRANCH  38  39
ENDBRANCH  31  33
ENDBRANCH  30  31
ENDBRANCH  29  30
ENDBRANCH   1  29
TORSDOF 17
ENDMDL
MODEL 3
REMARK VINA RESULT:     -12.3      3.969      9.650
REMARK SMILES COc1ccc(-c2nc3ccc(C)cc3[nH]2)c(C(=O)OCCOCCOC(=O)c2ccc(-c3c4nc(c(-c5c(F)c(F)c(F)c(F)c5F)c5ccc([nH]5)c(-c5c(F)c(F)c(F)c(F)c5F)c5nc(c(-c6c(F)c(F)c(F)c(F)c6F)c6ccc3[nH]6)C=C5)C=C4)cc2)c1OC
REMARK SMILES IDX 24 1 23 2 22 3 21 4 20 5 18 6 19 7 17 8 3 9 4 10 92 11 5 12
REMARK SMILES IDX 6 13 2 14 1 15 93 16 94 17 7 18 8 19 16 20 9 21 15 22 10 24
REMARK SMILES IDX 14 25 11 26 12 27 13 28 25 29 26 30 27 31 28 32 29 33 30 34
REMARK SMILES IDX 91 35 31 36 90 37 32 38 33 39 34 40 84 41 35 42 89 43 83 44
REMARK SMILES IDX 85 45 36 46 88 47 82 48 81 49 37 51 69 52 49 53 68 54 50 55
REMARK SMILES IDX 53 56 67 57 86 58 51 59 52 60 66 62 87 63 54 64 38 65 39 66
REMARK SMILES IDX 47 67 40 68 41 69 45 70 48 71 42 72 43 73 46 74 44 75 70 76
REMARK SMILES IDX 71 77 79 78 72 79 73 80 77 81 80 82 74 83 75 84 78 85 76 86
REMARK SMILES IDX 55 87 56 88 64 89 57 90 58 91 62 92 65 93 59 94 60 95 63 96
REMARK SMILES IDX 61 97
REMARK H PARENT 16 23 85 50 53 61
REMARK Flexibility Score: inf
ROOT
ATOM      1  C   UNL A   1      36.044  21.005  25.000  1.00  0.00     0.202 C 
ENDROOT
BRANCH   1   2
ATOM      2  O   UNL A   1      35.626  21.646  26.209  1.00  0.00    -0.374 OA
BRANCH   2   3
ATOM      3  C   UNL A   1      35.265  23.028  26.112  1.00  0.00     0.202 C 
BRANCH   3   4
ATOM      4  C   UNL A   1      35.539  23.708  24.767  1.00  0.00     0.261 C 
BRANCH   4   5
ATOM      5  O   UNL A   1      34.689  24.857  24.656  1.00  0.00    -0.460 OA
BRANCH   5   6
ATOM      6  C   UNL A   1      34.028  24.971  23.482  1.00  0.00     0.342 C 
ATOM      7  O   UNL A   1      34.391  24.586  22.383  1.00  0.00    -0.246 OA
BRANCH   6   8
ATOM      8  C   UNL A   1      32.688  25.528  23.758  1.00  0.00     0.116 A 
ATOM      9  C   UNL A   1      31.265  27.398  24.268  1.00  0.00     0.161 A 
ATOM     10  C   UNL A   1      30.150  26.551  24.180  1.00  0.00     0.051 A 
ATOM     11  C   UNL A   1      32.556  26.898  24.062  1.00  0.00     0.176 A 
ATOM     12  C   UNL A   1      30.299  25.183  23.914  1.00  0.00     0.017 A 
ATOM     13  C   UNL A   1      31.577  24.645  23.737  1.00  0.00     0.036 A 
BRANCH   9  14
ATOM     14  O   UNL A   1      31.013  28.687  24.655  1.00  0.00    -0.493 OA
ATOM     15  C   UNL A   1      30.245  29.402  23.690  1.00  0.00     0.278 C 
ENDBRANCH   9  14
BRANCH  11  16
ATOM     16  O   UNL A   1      33.714  27.627  24.078  1.00  0.00    -0.492 OA
ATOM     17  C   UNL A   1      33.954  28.557  23.029  1.00  0.00     0.278 C 
ENDBRANCH  11  16
BRANCH  13  18
ATOM     18  C   UNL A   1      31.802  23.193  23.790  1.00  0.00     0.139 A 
ATOM     19  N   UNL A   1      31.978  22.565  24.932  1.00  0.00    -0.228 NA
ATOM     20  N   UNL A   1      31.851  22.288  22.751  1.00  0.00    -0.338 N 
ATOM     21  C   UNL A   1      32.220  21.260  24.642  1.00  0.00     0.089 A 
ATOM     22  C   UNL A   1      32.148  21.042  23.275  1.00  0.00     0.066 A 
ATOM     23  H   UNL A   1      31.700  22.493  21.801  1.00  0.00     0.168 HD
ATOM     24  C   UNL A   1      32.516  20.211  25.518  1.00  0.00     0.031 A 
ATOM     25  C   UNL A   1      32.374  19.779  22.711  1.00  0.00     0.031 A 
ATOM     26  C   UNL A   1      32.758  18.947  24.983  1.00  0.00     0.006 A 
ATOM     27  C   UNL A   1      32.703  18.728  23.599  1.00  0.00    -0.049 A 
ATOM     28  C   UNL A   1      32.995  17.344  23.091  1.00  0.00     0.044 C 
ENDBRANCH  13  18
ENDBRANCH   6   8
ENDBRANCH   5   6
ENDBRANCH   4   5
ENDBRANCH   3   4
ENDBRANCH   2   3
ENDBRANCH   1   2
BRANCH   1  29
ATOM     29  C   UNL A   1      37.475  20.473  24.992  1.00  0.00     0.261 C 
BRANCH  29  30
ATOM     30  O   UNL A   1      38.426  21.531  25.149  1.00  0.00    -0.460 OA
BRANCH  30  31
ATOM     31  C   UNL A   1      39.403  21.248  26.040  1.00  0.00     0.338 C 
ATOM     32  O   UNL A   1      40.010  20.202  26.185  1.00  0.00    -0.246 OA
BRANCH  31  33
ATOM     33  C   UNL A   1      39.749  22.473  26.775  1.00  0.00     0.060 A 
ATOM     34  C   UNL A   1      39.008  23.626  26.483  1.00  0.00     0.016 A 
ATOM     35  C   UNL A   1      40.821  22.512  27.668  1.00  0.00     0.016 A 
ATOM     36  C   UNL A   1      39.396  24.845  27.018  1.00  0.00     0.010 A 
ATOM     37  C   UNL A   1      41.211  23.738  28.204  1.00  0.00     0.010 A 
ATOM     38  C   UNL A   1      40.534  24.911  27.830  1.00  0.00    -0.014 A 
BRANCH  38  39
ATOM     39  C   UNL A   1      41.138  26.232  28.103  1.00  0.00     0.031 A 
ATOM     40  C   UNL A   1      42.535  26.491  27.611  1.00  0.00     0.074 A 
ATOM     41  C   UNL A   1      40.436  27.190  28.725  1.00  0.00     0.049 A 
ATOM     42  N   UNL A   1      43.266  27.569  27.713  1.00  0.00    -0.248 NA
ATOM     43  C   UNL A   1      43.197  25.378  26.910  1.00  0.00     0.031 C 
ATOM     44  C   UNL A   1      39.060  27.053  29.199  1.00  0.00     0.029 A 
ATOM     45  N   UNL A   1      40.784  28.471  29.057  1.00  0.00    -0.354 N 
ATOM     46  C   UNL A   1      44.475  27.261  27.099  1.00  0.00     0.074 A 
ATOM     47  C   UNL A   1      44.393  25.886  26.662  1.00  0.00     0.031 C 
ATOM     48  C   UNL A   1      38.676  28.214  29.755  1.00  0.00     0.029 A 
ATOM     49  C   UNL A   1      39.788  29.160  29.699  1.00  0.00     0.049 A 
ATOM     50  H   UNL A   1      41.666  28.861  28.853  1.00  0.00     0.167 HD
ATOM     51  C   UNL A   1      45.549  28.062  26.907  1.00  0.00     0.037 A 
ATOM     52  C   UNL A   1      39.788  30.414  30.188  1.00  0.00     0.037 A 
ATOM     53  C   UNL A   1      45.615  29.431  27.343  1.00  0.00     0.049 A 
ATOM     54  C   UNL A   1      41.022  31.262  30.024  1.00  0.00     0.074 A 
ATOM     55  C   UNL A   1      46.643  30.343  27.184  1.00  0.00     0.029 A 
ATOM     56  N   UNL A   1      44.603  30.084  28.035  1.00  0.00    -0.354 N 
ATOM     57  N   UNL A   1      42.150  30.979  29.418  1.00  0.00    -0.248 NA
ATOM     58  C   UNL A   1      40.976  32.609  30.607  1.00  0.00     0.031 C 
ATOM     59  C   UNL A   1      46.275  31.529  27.829  1.00  0.00     0.029 A 
ATOM     60  C   UNL A   1      44.993  31.378  28.337  1.00  0.00     0.049 A 
ATOM     61  H   UNL A   1      43.735  29.686  28.276  1.00  0.00     0.167 HD
ATOM     62  C   UNL A   1      42.933  32.121  29.512  1.00  0.00     0.074 A 
ATOM     63  C   UNL A   1      42.146  33.104  30.231  1.00  0.00     0.031 C 
ATOM     64  C   UNL A   1      44.188  32.341  29.044  1.00  0.00     0.037 A 
BRANCH  51  65
ATOM     65  C   UNL A   1      46.747  27.456  26.232  1.00  0.00     0.064 A 
ATOM     66  C   UNL A   1      47.751  26.793  26.955  1.00  0.00     0.173 A 
ATOM     67  C   UNL A   1      46.895  27.549  24.840  1.00  0.00     0.173 A 
ATOM     68  F   UNL A   1      47.668  26.691  28.289  1.00  0.00    -0.203 F 
ATOM     69  C   UNL A   1      48.877  26.283  26.314  1.00  0.00     0.198 A 
ATOM     70  C   UNL A   1      48.007  27.008  24.199  1.00  0.00     0.198 A 
ATOM     71  F   UNL A   1      45.965  28.170  24.101  1.00  0.00    -0.203 F 
ATOM     72  F   UNL A   1      49.854  25.712  27.031  1.00  0.00    -0.200 F 
ATOM     73  C   UNL A   1      49.002  26.386  24.937  1.00  0.00     0.200 A 
ATOM     74  F   UNL A   1      48.119  27.099  22.866  1.00  0.00    -0.200 F 
ATOM     75  F   UNL A   1      50.087  25.897  24.321  1.00  0.00    -0.200 F 
ENDBRANCH  51  65
BRANCH  52  76
ATOM     76  C   UNL A   1      38.572  30.948  30.853  1.00  0.00     0.064 A 
ATOM     77  C   UNL A   1      37.520  31.488  30.100  1.00  0.00     0.173 A 
ATOM     78  C   UNL A   1      38.436  30.931  32.248  1.00  0.00     0.173 A 
ATOM     79  F   UNL A   1      37.615  31.547  28.764  1.00  0.00    -0.203 F 
ATOM     80  C   UNL A   1      36.384  32.003  30.719  1.00  0.00     0.198 A 
ATOM     81  C   UNL A   1      37.287  31.422  32.865  1.00  0.00     0.198 A 
ATOM     82  F   UNL A   1      39.415  30.425  33.013  1.00  0.00    -0.203 F 
ATOM     83  F   UNL A   1      35.411  32.552  29.978  1.00  0.00    -0.200 F 
ATOM     84  C   UNL A   1      36.265  31.964  32.101  1.00  0.00     0.200 A 
ATOM     85  F   UNL A   1      37.172  31.372  34.199  1.00  0.00    -0.200 F 
ATOM     86  F   UNL A   1      35.170  32.456  32.695  1.00  0.00    -0.200 F 
ENDBRANCH  52  76
BRANCH  64  87
ATOM     87  C   UNL A   1      44.765  33.713  29.248  1.00  0.00     0.064 A 
ATOM     88  C   UNL A   1      45.538  34.031  30.374  1.00  0.00     0.173 A 
ATOM     89  C   UNL A   1      44.562  34.715  28.285  1.00  0.00     0.173 A 
ATOM     90  F   UNL A   1      45.749  33.115  31.330  1.00  0.00    -0.203 F 
ATOM     91  C   UNL A   1      46.062  35.310  30.542  1.00  0.00     0.198 A 
ATOM     92  C   UNL A   1      45.116  35.982  28.441  1.00  0.00     0.198 A 
ATOM     93  F   UNL A   1      43.837  34.459  27.186  1.00  0.00    -0.203 F 
ATOM     94  F   UNL A   1      46.751  35.608  31.652  1.00  0.00    -0.200 F 
ATOM     95  C   UNL A   1      45.856  36.282  29.574  1.00  0.00     0.200 A 
ATOM     96  F   UNL A   1      44.929  36.913  27.496  1.00  0.00    -0.200 F 
ATOM     97  F   UNL A   1      46.366  37.511  29.737  1.00  0.00    -0.200 F 
ENDBRANCH  64  87
ENDBRANCH  38  39
ENDBRANCH  31  33
ENDBRANCH  30  31
ENDBRANCH  29  30
ENDBRANCH   1  29
TORSDOF 17
ENDMDL
