MODEL 1
REMARK VINA RESULT:     -10.8      0.000      0.000
REMARK SMILES CC[C@@H](NC(=O)N1CCO[C@H](CC(=O)OCCOCCOC(=O)c2ccc(-c3c4nc(c(-c5c(F)c(F)c(F)c(F)c5F)c5ccc([nH]5)c(-c5c(F)c(F)c(F)c(F)c5F)c5nc(c(-c6c(F)c(F)c(F)c(F)c6F)c6ccc3[nH]6)C=C5)C=C4)cc2)C1)c1cccs1
REMARK SMILES IDX 17 1 16 2 15 3 13 4 14 5 12 6 11 7 7 8 8 9 87 10 9 11 10 12
REMARK SMILES IDX 5 13 4 14 6 16 3 17 2 18 1 19 88 20 89 21 92 22 90 23 91 24
REMARK SMILES IDX 18 25 19 26 20 27 21 28 22 29 23 30 24 31 25 32 86 33 26 34
REMARK SMILES IDX 85 35 27 36 28 37 29 38 79 39 30 40 84 41 78 42 80 43 31 44
REMARK SMILES IDX 83 45 77 46 76 47 32 49 64 50 44 51 63 52 45 53 48 54 62 55
REMARK SMILES IDX 81 56 46 57 47 58 61 60 82 61 49 62 33 63 34 64 42 65 35 66
REMARK SMILES IDX 36 67 40 68 43 69 37 70 38 71 41 72 39 73 65 74 66 75 74 76
REMARK SMILES IDX 67 77 68 78 72 79 75 80 69 81 70 82 73 83 71 84 50 85 51 86
REMARK SMILES IDX 59 87 52 88 53 89 57 90 60 91 54 92 55 93 58 94 56 95
REMARK H PARENT 4 15 80 48 48 59
REMARK Flexibility Score: inf
ROOT
ATOM      1  C   UNL A   1      32.809  29.088  24.400  1.00  0.00     0.202 C 
ENDROOT
BRANCH   1   2
ATOM      2  C   UNL A   1      32.183  29.003  23.003  1.00  0.00     0.261 C 
BRANCH   2   3
ATOM      3  O   UNL A   1      31.091  28.063  22.970  1.00  0.00    -0.463 OA
BRANCH   3   4
ATOM      4  C   UNL A   1      31.416  26.755  22.805  1.00  0.00     0.308 C 
ATOM      5  O   UNL A   1      32.052  26.308  21.860  1.00  0.00    -0.252 OA
BRANCH   4   6
ATOM      6  C   UNL A   1      30.811  25.875  23.863  1.00  0.00     0.156 C 
BRANCH   6   7
ATOM      7  C   UNL A   1      31.297  25.908  25.320  1.00  0.00     0.149 C 
ATOM      8  N   UNL A   1      32.332  23.696  25.393  1.00  0.00    -0.320 N 
ATOM      9  C   UNL A   1      31.550  23.321  26.553  1.00  0.00     0.150 C 
ATOM     10  C   UNL A   1      32.634  25.130  25.413  1.00  0.00     0.154 C 
ATOM     11  C   UNL A   1      30.219  24.061  26.489  1.00  0.00     0.182 C 
ATOM     12  O   UNL A   1      30.389  25.483  26.354  1.00  0.00    -0.374 OA
BRANCH   8  13
ATOM     13  C   UNL A   1      32.697  22.923  24.332  1.00  0.00     0.318 C 
ATOM     14  N   UNL A   1      33.996  22.620  24.075  1.00  0.00    -0.330 N 
ATOM     15  H   UNL A   1      34.381  23.073  23.290  1.00  0.00     0.166 HD
ATOM     16  O   UNL A   1      31.862  22.505  23.525  1.00  0.00    -0.249 OA
BRANCH  14  17
ATOM     17  C   UNL A   1      34.928  21.708  24.795  1.00  0.00     0.124 C 
BRANCH  17  18
ATOM     18  C   UNL A   1      34.241  20.838  25.876  1.00  0.00     0.027 C 
ATOM     19  C   UNL A   1      34.343  21.418  27.280  1.00  0.00     0.006 C 
ENDBRANCH  17  18
BRANCH  17  20
ATOM     20  C   UNL A   1      36.204  22.415  25.208  1.00  0.00     0.027 A 
ATOM     21  C   UNL A   1      36.411  23.776  25.390  1.00  0.00     0.017 A 
ATOM     22  S   UNL A   1      37.715  21.598  25.347  1.00  0.00    -0.147 S 
ATOM     23  C   UNL A   1      37.663  24.058  26.012  1.00  0.00     0.012 A 
ATOM     24  C   UNL A   1      38.430  22.926  26.126  1.00  0.00     0.065 A 
ENDBRANCH  17  20
ENDBRANCH  14  17
ENDBRANCH   8  13
ENDBRANCH   6   7
ENDBRANCH   4   6
ENDBRANCH   3   4
ENDBRANCH   2   3
ENDBRANCH   1   2
BRANCH   1  25
ATOM     25  O   UNL A   1      31.891  29.371  25.458  1.00  0.00    -0.374 OA
BRANCH  25  26
ATOM     26  C   UNL A   1      31.217  30.625  25.370  1.00  0.00     0.202 C 
BRANCH  26  27
ATOM     27  C   UNL A   1      31.521  31.617  26.496  1.00  0.00     0.261 C 
BRANCH  27  28
ATOM     28  O   UNL A   1      32.687  31.246  27.253  1.00  0.00    -0.460 OA
BRANCH  28  29
ATOM     29  C   UNL A   1      33.490  32.284  27.584  1.00  0.00     0.338 C 
ATOM     30  O   UNL A   1      33.190  33.462  27.649  1.00  0.00    -0.246 OA
BRANCH  29  31
ATOM     31  C   UNL A   1      34.820  31.788  28.001  1.00  0.00     0.060 A 
ATOM     32  C   UNL A   1      34.938  30.418  28.256  1.00  0.00     0.016 A 
ATOM     33  C   UNL A   1      35.904  32.643  28.217  1.00  0.00     0.016 A 
ATOM     34  C   UNL A   1      36.121  29.905  28.785  1.00  0.00     0.010 A 
ATOM     35  C   UNL A   1      37.096  32.124  28.742  1.00  0.00     0.010 A 
ATOM     36  C   UNL A   1      37.199  30.756  29.064  1.00  0.00    -0.014 A 
BRANCH  36  37
ATOM     37  C   UNL A   1      38.376  30.221  29.801  1.00  0.00     0.031 A 
ATOM     38  C   UNL A   1      38.618  30.653  31.221  1.00  0.00     0.074 A 
ATOM     39  C   UNL A   1      39.198  29.318  29.234  1.00  0.00     0.049 A 
ATOM     40  N   UNL A   1      39.546  30.267  32.060  1.00  0.00    -0.248 NA
ATOM     41  C   UNL A   1      37.690  31.653  31.770  1.00  0.00     0.031 C 
ATOM     42  C   UNL A   1      39.064  28.790  27.881  1.00  0.00     0.029 A 
ATOM     43  N   UNL A   1      40.310  28.681  29.729  1.00  0.00    -0.354 N 
ATOM     44  C   UNL A   1      39.312  30.970  33.234  1.00  0.00     0.074 A 
ATOM     45  C   UNL A   1      38.187  31.847  32.981  1.00  0.00     0.031 C 
ATOM     46  C   UNL A   1      40.061  27.925  27.641  1.00  0.00     0.029 A 
ATOM     47  C   UNL A   1      40.907  27.835  28.827  1.00  0.00     0.049 A 
ATOM     48  H   UNL A   1      40.646  28.818  30.644  1.00  0.00     0.167 HD
ATOM     49  C   UNL A   1      39.960  30.881  34.420  1.00  0.00     0.037 A 
ATOM     50  C   UNL A   1      42.008  27.069  28.940  1.00  0.00     0.037 A 
ATOM     51  C   UNL A   1      41.080  30.010  34.671  1.00  0.00     0.049 A 
ATOM     52  C   UNL A   1      42.746  27.025  30.250  1.00  0.00     0.074 A 
ATOM     53  C   UNL A   1      41.781  29.824  35.850  1.00  0.00     0.029 A 
ATOM     54  N   UNL A   1      41.676  29.191  33.721  1.00  0.00    -0.354 N 
ATOM     55  N   UNL A   1      42.480  27.651  31.372  1.00  0.00    -0.248 NA
ATOM     56  C   UNL A   1      43.925  26.152  30.316  1.00  0.00     0.031 C 
ATOM     57  C   UNL A   1      42.842  28.947  35.596  1.00  0.00     0.029 A 
ATOM     58  C   UNL A   1      42.758  28.527  34.279  1.00  0.00     0.049 A 
ATOM     59  H   UNL A   1      41.375  29.096  32.789  1.00  0.00     0.167 HD
ATOM     60  C   UNL A   1      43.437  27.225  32.283  1.00  0.00     0.074 A 
ATOM     61  C   UNL A   1      44.280  26.275  31.586  1.00  0.00     0.031 C 
ATOM     62  C   UNL A   1      43.600  27.587  33.580  1.00  0.00     0.037 A 
BRANCH  49  63
ATOM     63  C   UNL A   1      39.488  31.774  35.533  1.00  0.00     0.064 A 
ATOM     64  C   UNL A   1      38.529  31.352  36.468  1.00  0.00     0.173 A 
ATOM     65  C   UNL A   1      40.016  33.066  35.677  1.00  0.00     0.173 A 
ATOM     66  F   UNL A   1      37.983  30.131  36.372  1.00  0.00    -0.203 F 
ATOM     67  C   UNL A   1      38.088  32.205  37.478  1.00  0.00     0.198 A 
ATOM     68  C   UNL A   1      39.600  33.902  36.709  1.00  0.00     0.198 A 
ATOM     69  F   UNL A   1      40.940  33.519  34.815  1.00  0.00    -0.203 F 
ATOM     70  F   UNL A   1      37.125  31.803  38.320  1.00  0.00    -0.200 F 
ATOM     71  C   UNL A   1      38.629  33.476  37.601  1.00  0.00     0.200 A 
ATOM     72  F   UNL A   1      40.135  35.124  36.836  1.00  0.00    -0.200 F 
ATOM     73  F   UNL A   1      38.206  34.294  38.575  1.00  0.00    -0.200 F 
ENDBRANCH  49  63
BRANCH  50  74
ATOM     74  C   UNL A   1      42.467  26.262  27.778  1.00  0.00     0.064 A 
ATOM     75  C   UNL A   1      41.915  25.003  27.503  1.00  0.00     0.173 A 
ATOM     76  C   UNL A   1      43.468  26.738  26.917  1.00  0.00     0.173 A 
ATOM     77  F   UNL A   1      40.971  24.496  28.309  1.00  0.00    -0.203 F 
ATOM     78  C   UNL A   1      42.359  24.243  26.422  1.00  0.00     0.198 A 
ATOM     79  C   UNL A   1      43.889  25.990  25.819  1.00  0.00     0.198 A 
ATOM     80  F   UNL A   1      44.026  27.937  27.134  1.00  0.00    -0.203 F 
ATOM     81  F   UNL A   1      41.848  23.024  26.209  1.00  0.00    -0.200 F 
ATOM     82  C   UNL A   1      43.341  24.740  25.577  1.00  0.00     0.200 A 
ATOM     83  F   UNL A   1      44.826  26.483  24.997  1.00  0.00    -0.200 F 
ATOM     84  F   UNL A   1      43.762  24.013  24.535  1.00  0.00    -0.200 F 
ENDBRANCH  50  74
BRANCH  62  85
ATOM     85  C   UNL A   1      44.711  26.926  34.348  1.00  0.00     0.064 A 
ATOM     86  C   UNL A   1      45.991  27.496  34.441  1.00  0.00     0.173 A 
ATOM     87  C   UNL A   1      44.488  25.714  35.019  1.00  0.00     0.173 A 
ATOM     88  F   UNL A   1      46.265  28.648  33.809  1.00  0.00    -0.203 F 
ATOM     89  C   UNL A   1      47.011  26.860  35.143  1.00  0.00     0.198 A 
ATOM     90  C   UNL A   1      45.499  25.099  35.752  1.00  0.00     0.198 A 
ATOM     91  F   UNL A   1      43.283  25.127  34.973  1.00  0.00    -0.203 F 
ATOM     92  F   UNL A   1      48.241  27.393  35.164  1.00  0.00    -0.200 F 
ATOM     93  C   UNL A   1      46.763  25.666  35.804  1.00  0.00     0.200 A 
ATOM     94  F   UNL A   1      45.252  23.955  36.405  1.00  0.00    -0.200 F 
ATOM     95  F   UNL A   1      47.746  25.056  36.482  1.00  0.00    -0.200 F 
ENDBRANCH  62  85
ENDBRANCH  36  37
ENDBRANCH  29  31
ENDBRANCH  28  29
ENDBRANCH  27  28
ENDBRANCH  26  27
ENDBRANCH  25  26
ENDBRANCH   1  25
TORSDOF 19
ENDMDL
MODEL 2
REMARK VINA RESULT:     -10.7      1.346      2.589
REMARK SMILES CC[C@@H](NC(=O)N1CCO[C@H](CC(=O)OCCOCCOC(=O)c2ccc(-c3c4nc(c(-c5c(F)c(F)c(F)c(F)c5F)c5ccc([nH]5)c(-c5c(F)c(F)c(F)c(F)c5F)c5nc(c(-c6c(F)c(F)c(F)c(F)c6F)c6ccc3[nH]6)C=C5)C=C4)cc2)C1)c1cccs1
REMARK SMILES IDX 17 1 16 2 15 3 13 4 14 5 12 6 11 7 7 8 8 9 87 10 9 11 10 12
REMARK SMILES IDX 5 13 4 14 6 16 3 17 2 18 1 19 88 20 89 21 92 22 90 23 91 24
REMARK SMILES IDX 18 25 19 26 20 27 21 28 22 29 23 30 24 31 25 32 86 33 26 34
REMARK SMILES IDX 85 35 27 36 28 37 29 38 79 39 30 40 84 41 78 42 80 43 31 44
REMARK SMILES IDX 83 45 77 46 76 47 32 49 64 50 44 51 63 52 45 53 48 54 62 55
REMARK SMILES IDX 81 56 46 57 47 58 61 60 82 61 49 62 33 63 34 64 42 65 35 66
REMARK SMILES IDX 36 67 40 68 43 69 37 70 38 71 41 72 39 73 65 74 66 75 74 76
REMARK SMILES IDX 67 77 68 78 72 79 75 80 69 81 70 82 73 83 71 84 50 85 51 86
REMARK SMILES IDX 59 87 52 88 53 89 57 90 60 91 54 92 55 93 58 94 56 95
REMARK H PARENT 4 15 80 48 48 59
REMARK Flexibility Score: inf
ROOT
ATOM      1  C   UNL A   1      32.869  29.596  25.358  1.00  0.00     0.202 C 
ENDROOT
BRANCH   1   2
ATOM      2  C   UNL A   1      32.216  28.601  24.393  1.00  0.00     0.261 C 
BRANCH   2   3
ATOM      3  O   UNL A   1      31.007  28.044  24.947  1.00  0.00    -0.463 OA
BRANCH   3   4
ATOM      4  C   UNL A   1      30.229  27.318  24.106  1.00  0.00     0.308 C 
ATOM      5  O   UNL A   1      29.336  27.780  23.408  1.00  0.00    -0.252 OA
BRANCH   4   6
ATOM      6  C   UNL A   1      30.502  25.842  24.199  1.00  0.00     0.156 C 
BRANCH   6   7
ATOM      7  C   UNL A   1      31.031  25.040  23.001  1.00  0.00     0.149 C 
ATOM      8  N   UNL A   1      32.388  23.424  24.234  1.00  0.00    -0.320 N 
ATOM      9  C   UNL A   1      33.563  23.750  23.452  1.00  0.00     0.150 C 
ATOM     10  C   UNL A   1      31.173  23.555  23.424  1.00  0.00     0.154 C 
ATOM     11  C   UNL A   1      33.462  25.211  23.028  1.00  0.00     0.182 C 
ATOM     12  O   UNL A   1      32.229  25.498  22.346  1.00  0.00    -0.374 OA
BRANCH   8  13
ATOM     13  C   UNL A   1      32.308  23.127  25.562  1.00  0.00     0.318 C 
ATOM     14  N   UNL A   1      32.177  21.851  26.008  1.00  0.00    -0.330 N 
ATOM     15  H   UNL A   1      31.291  21.628  26.374  1.00  0.00     0.166 HD
ATOM     16  O   UNL A   1      32.302  24.015  26.418  1.00  0.00    -0.249 OA
BRANCH  14  17
ATOM     17  C   UNL A   1      33.165  20.736  26.028  1.00  0.00     0.124 C 
BRANCH  17  18
ATOM     18  C   UNL A   1      34.637  21.208  26.109  1.00  0.00     0.027 C 
ATOM     19  C   UNL A   1      35.469  20.818  24.895  1.00  0.00     0.006 C 
ENDBRANCH  17  18
BRANCH  17  20
ATOM     20  C   UNL A   1      32.850  19.682  24.986  1.00  0.00     0.027 A 
ATOM     21  C   UNL A   1      32.400  19.868  23.685  1.00  0.00     0.017 A 
ATOM     22  S   UNL A   1      32.837  17.996  25.345  1.00  0.00    -0.147 S 
ATOM     23  C   UNL A   1      32.443  18.667  22.917  1.00  0.00     0.012 A 
ATOM     24  C   UNL A   1      32.760  17.585  23.699  1.00  0.00     0.065 A 
ENDBRANCH  17  20
ENDBRANCH  14  17
ENDBRANCH   8  13
ENDBRANCH   6   7
ENDBRANCH   4   6
ENDBRANCH   3   4
ENDBRANCH   2   3
ENDBRANCH   1   2
BRANCH   1  25
ATOM     25  O   UNL A   1      32.017  30.079  26.400  1.00  0.00    -0.374 OA
BRANCH  25  26
ATOM     26  C   UNL A   1      31.298  31.274  26.103  1.00  0.00     0.202 C 
BRANCH  26  27
ATOM     27  C   UNL A   1      31.612  32.473  26.999  1.00  0.00     0.261 C 
BRANCH  27  28
ATOM     28  O   UNL A   1      32.970  32.928  26.849  1.00  0.00    -0.460 OA
BRANCH  28  29
ATOM     29  C   UNL A   1      33.484  33.519  27.954  1.00  0.00     0.338 C 
ATOM     30  O   UNL A   1      32.971  34.384  28.639  1.00  0.00    -0.246 OA
BRANCH  29  31
ATOM     31  C   UNL A   1      34.760  32.873  28.330  1.00  0.00     0.060 A 
ATOM     32  C   UNL A   1      34.702  31.535  28.737  1.00  0.00     0.016 A 
ATOM     33  C   UNL A   1      35.971  33.569  28.364  1.00  0.00     0.016 A 
ATOM     34  C   UNL A   1      35.841  30.906  29.237  1.00  0.00     0.010 A 
ATOM     35  C   UNL A   1      37.118  32.932  28.861  1.00  0.00     0.010 A 
ATOM     36  C   UNL A   1      37.051  31.607  29.335  1.00  0.00    -0.014 A 
BRANCH  36  37
ATOM     37  C   UNL A   1      38.199  30.981  30.043  1.00  0.00     0.031 A 
ATOM     38  C   UNL A   1      38.457  31.326  31.484  1.00  0.00     0.074 A 
ATOM     39  C   UNL A   1      38.980  30.070  29.430  1.00  0.00     0.049 A 
ATOM     40  N   UNL A   1      39.364  30.854  32.302  1.00  0.00    -0.248 NA
ATOM     41  C   UNL A   1      37.576  32.339  32.084  1.00  0.00     0.031 C 
ATOM     42  C   UNL A   1      38.825  29.620  28.051  1.00  0.00     0.029 A 
ATOM     43  N   UNL A   1      40.059  29.358  29.892  1.00  0.00    -0.354 N 
ATOM     44  C   UNL A   1      39.159  31.505  33.510  1.00  0.00     0.074 A 
ATOM     45  C   UNL A   1      38.078  32.446  33.304  1.00  0.00     0.031 C 
ATOM     46  C   UNL A   1      39.782  28.723  27.767  1.00  0.00     0.029 A 
ATOM     47  C   UNL A   1      40.619  28.532  28.947  1.00  0.00     0.049 A 
ATOM     48  H   UNL A   1      40.399  29.431  30.813  1.00  0.00     0.167 HD
ATOM     49  C   UNL A   1      39.799  31.324  34.691  1.00  0.00     0.037 A 
ATOM     50  C   UNL A   1      41.683  27.710  29.021  1.00  0.00     0.037 A 
ATOM     51  C   UNL A   1      40.877  30.390  34.896  1.00  0.00     0.049 A 
ATOM     52  C   UNL A   1      42.414  27.564  30.327  1.00  0.00     0.074 A 
ATOM     53  C   UNL A   1      41.564  30.110  36.065  1.00  0.00     0.029 A 
ATOM     54  N   UNL A   1      41.436  29.595  33.906  1.00  0.00    -0.354 N 
ATOM     55  N   UNL A   1      42.175  28.142  31.480  1.00  0.00    -0.248 NA
ATOM     56  C   UNL A   1      43.550  26.634  30.348  1.00  0.00     0.031 C 
ATOM     57  C   UNL A   1      42.584  29.199  35.766  1.00  0.00     0.029 A 
ATOM     58  C   UNL A   1      42.485  28.853  34.429  1.00  0.00     0.049 A 
ATOM     59  H   UNL A   1      41.134  29.563  32.969  1.00  0.00     0.167 HD
ATOM     60  C   UNL A   1      43.108  27.625  32.368  1.00  0.00     0.074 A 
ATOM     61  C   UNL A   1      43.907  26.674  31.623  1.00  0.00     0.031 C 
ATOM     62  C   UNL A   1      43.283  27.911  33.682  1.00  0.00     0.037 A 
BRANCH  49  63
ATOM     63  C   UNL A   1      39.366  32.179  35.849  1.00  0.00     0.064 A 
ATOM     64  C   UNL A   1      39.908  33.454  36.075  1.00  0.00     0.173 A 
ATOM     65  C   UNL A   1      38.379  31.723  36.735  1.00  0.00     0.173 A 
ATOM     66  F   UNL A   1      40.863  33.936  35.265  1.00  0.00    -0.203 F 
ATOM     67  C   UNL A   1      39.510  34.220  37.169  1.00  0.00     0.198 A 
ATOM     68  C   UNL A   1      37.956  32.506  37.805  1.00  0.00     0.198 A 
ATOM     69  F   UNL A   1      37.821  30.514  36.563  1.00  0.00    -0.203 F 
ATOM     70  F   UNL A   1      40.088  35.406  37.401  1.00  0.00    -0.200 F 
ATOM     71  C   UNL A   1      38.529  33.748  38.028  1.00  0.00     0.200 A 
ATOM     72  F   UNL A   1      36.997  32.055  38.626  1.00  0.00    -0.200 F 
ATOM     73  F   UNL A   1      38.144  34.487  39.078  1.00  0.00    -0.200 F 
ENDBRANCH  49  63
BRANCH  50  74
ATOM     74  C   UNL A   1      42.106  26.944  27.819  1.00  0.00     0.064 A 
ATOM     75  C   UNL A   1      41.581  25.675  27.542  1.00  0.00     0.173 A 
ATOM     76  C   UNL A   1      43.046  27.471  26.919  1.00  0.00     0.173 A 
ATOM     77  F   UNL A   1      40.696  25.120  28.383  1.00  0.00    -0.203 F 
ATOM     78  C   UNL A   1      41.993  24.953  26.423  1.00  0.00     0.198 A 
ATOM     79  C   UNL A   1      43.434  26.762  25.785  1.00  0.00     0.198 A 
ATOM     80  F   UNL A   1      43.577  28.683  27.136  1.00  0.00    -0.203 F 
ATOM     81  F   UNL A   1      41.510  23.722  26.207  1.00  0.00    -0.200 F 
ATOM     82  C   UNL A   1      42.914  25.500  25.542  1.00  0.00     0.200 A 
ATOM     83  F   UNL A   1      44.312  27.302  24.928  1.00  0.00    -0.200 F 
ATOM     84  F   UNL A   1      43.304  24.810  24.462  1.00  0.00    -0.200 F 
ENDBRANCH  50  74
BRANCH  62  85
ATOM     85  C   UNL A   1      44.360  27.160  34.415  1.00  0.00     0.064 A 
ATOM     86  C   UNL A   1      44.116  25.921  35.029  1.00  0.00     0.173 A 
ATOM     87  C   UNL A   1      45.663  27.678  34.487  1.00  0.00     0.173 A 
ATOM     88  F   UNL A   1      42.886  25.385  35.002  1.00  0.00    -0.203 F 
ATOM     89  C   UNL A   1      45.124  25.250  35.717  1.00  0.00     0.198 A 
ATOM     90  C   UNL A   1      46.678  26.985  35.143  1.00  0.00     0.198 A 
ATOM     91  F   UNL A   1      45.958  28.853  33.912  1.00  0.00    -0.203 F 
ATOM     92  F   UNL A   1      44.849  24.100  36.348  1.00  0.00    -0.200 F 
ATOM     93  C   UNL A   1      46.405  25.778  35.767  1.00  0.00     0.200 A 
ATOM     94  F   UNL A   1      47.920  27.490  35.174  1.00  0.00    -0.200 F 
ATOM     95  F   UNL A   1      47.374  25.129  36.427  1.00  0.00    -0.200 F 
ENDBRANCH  62  85
ENDBRANCH  36  37
ENDBRANCH  29  31
ENDBRANCH  28  29
ENDBRANCH  27  28
ENDBRANCH  26  27
ENDBRANCH  25  26
ENDBRANCH   1  25
TORSDOF 19
ENDMDL
MODEL 3
REMARK VINA RESULT:     -10.6      3.540      8.732
REMARK SMILES CC[C@@H](NC(=O)N1CCO[C@H](CC(=O)OCCOCCOC(=O)c2ccc(-c3c4nc(c(-c5c(F)c(F)c(F)c(F)c5F)c5ccc([nH]5)c(-c5c(F)c(F)c(F)c(F)c5F)c5nc(c(-c6c(F)c(F)c(F)c(F)c6F)c6ccc3[nH]6)C=C5)C=C4)cc2)C1)c1cccs1
REMARK SMILES IDX 17 1 16 2 15 3 13 4 14 5 12 6 11 7 7 8 8 9 87 10 9 11 10 12
REMARK SMILES IDX 5 13 4 14 6 16 3 17 2 18 1 19 88 20 89 21 92 22 90 23 91 24
REMARK SMILES IDX 18 25 19 26 20 27 21 28 22 29 23 30 24 31 25 32 86 33 26 34
REMARK SMILES IDX 85 35 27 36 28 37 29 38 79 39 30 40 84 41 78 42 80 43 31 44
REMARK SMILES IDX 83 45 77 46 76 47 32 49 64 50 44 51 63 52 45 53 48 54 62 55
REMARK SMILES IDX 81 56 46 57 47 58 61 60 82 61 49 62 33 63 34 64 42 65 35 66
REMARK SMILES IDX 36 67 40 68 43 69 37 70 38 71 41 72 39 73 65 74 66 75 74 76
REMARK SMILES IDX 67 77 68 78 72 79 75 80 69 81 70 82 73 83 71 84 50 85 51 86
REMARK SMILES IDX 59 87 52 88 53 89 57 90 60 91 54 92 55 93 58 94 56 95
REMARK H PARENT 4 15 80 48 48 59
REMARK Flexibility Score: inf
ROOT
ATOM      1  C   UNL A   1      41.896  20.752  26.425  1.00  0.00     0.202 C 
ENDROOT
BRANCH   1   2
ATOM      2  C   UNL A   1      40.489  21.132  26.900  1.00  0.00     0.261 C 
BRANCH   2   3
ATOM      3  O   UNL A   1      39.791  21.915  25.912  1.00  0.00    -0.463 OA
BRANCH   3   4
ATOM      4  C   UNL A   1      38.997  22.914  26.374  1.00  0.00     0.308 C 
ATOM      5  O   UNL A   1      39.280  23.655  27.306  1.00  0.00    -0.252 OA
BRANCH   4   6
ATOM      6  C   UNL A   1      37.661  22.951  25.686  1.00  0.00     0.156 C 
BRANCH   6   7
ATOM      7  C   UNL A   1      37.262  21.904  24.635  1.00  0.00     0.149 C 
ATOM      8  N   UNL A   1      35.085  22.833  24.025  1.00  0.00    -0.320 N 
ATOM      9  C   UNL A   1      34.424  21.573  24.297  1.00  0.00     0.150 C 
ATOM     10  C   UNL A   1      36.444  22.607  23.522  1.00  0.00     0.154 C 
ATOM     11  C   UNL A   1      35.197  20.858  25.399  1.00  0.00     0.182 C 
ATOM     12  O   UNL A   1      36.592  20.709  25.080  1.00  0.00    -0.374 OA
BRANCH   8  13
ATOM     13  C   UNL A   1      34.634  24.096  24.264  1.00  0.00     0.318 C 
ATOM     14  N   UNL A   1      33.781  24.729  23.418  1.00  0.00    -0.330 N 
ATOM     15  H   UNL A   1      34.180  25.463  22.898  1.00  0.00     0.166 HD
ATOM     16  O   UNL A   1      35.024  24.742  25.240  1.00  0.00    -0.249 OA
BRANCH  14  17
ATOM     17  C   UNL A   1      32.335  24.484  23.154  1.00  0.00     0.124 C 
BRANCH  17  18
ATOM     18  C   UNL A   1      31.663  25.582  22.294  1.00  0.00     0.027 C 
ATOM     19  C   UNL A   1      32.618  26.266  21.325  1.00  0.00     0.006 C 
ENDBRANCH  17  18
BRANCH  17  20
ATOM     20  C   UNL A   1      31.595  24.060  24.407  1.00  0.00     0.027 A 
ATOM     21  C   UNL A   1      31.156  22.789  24.756  1.00  0.00     0.017 A 
ATOM     22  S   UNL A   1      31.003  25.191  25.564  1.00  0.00    -0.147 S 
ATOM     23  C   UNL A   1      30.716  22.718  26.110  1.00  0.00     0.012 A 
ATOM     24  C   UNL A   1      30.675  23.962  26.688  1.00  0.00     0.065 A 
ENDBRANCH  17  20
ENDBRANCH  14  17
ENDBRANCH   8  13
ENDBRANCH   6   7
ENDBRANCH   4   6
ENDBRANCH   3   4
ENDBRANCH   2   3
ENDBRANCH   1   2
BRANCH   1  25
ATOM     25  O   UNL A   1      42.466  21.633  25.454  1.00  0.00    -0.374 OA
BRANCH  25  26
ATOM     26  C   UNL A   1      43.886  21.584  25.336  1.00  0.00     0.202 C 
BRANCH  26  27
ATOM     27  C   UNL A   1      44.506  22.624  24.400  1.00  0.00     0.261 C 
BRANCH  27  28
ATOM     28  O   UNL A   1      43.801  23.879  24.431  1.00  0.00    -0.460 OA
BRANCH  28  29
ATOM     29  C   UNL A   1      44.504  24.899  24.977  1.00  0.00     0.338 C 
ATOM     30  O   UNL A   1      45.620  25.277  24.672  1.00  0.00    -0.246 OA
BRANCH  29  31
ATOM     31  C   UNL A   1      43.671  25.624  25.960  1.00  0.00     0.060 A 
ATOM     32  C   UNL A   1      43.996  26.962  26.209  1.00  0.00     0.016 A 
ATOM     33  C   UNL A   1      42.649  24.999  26.682  1.00  0.00     0.016 A 
ATOM     34  C   UNL A   1      43.343  27.663  27.222  1.00  0.00     0.010 A 
ATOM     35  C   UNL A   1      41.989  25.709  27.695  1.00  0.00     0.010 A 
ATOM     36  C   UNL A   1      42.357  27.035  27.996  1.00  0.00    -0.014 A 
BRANCH  36  37
ATOM     37  C   UNL A   1      41.811  27.738  29.187  1.00  0.00     0.031 A 
ATOM     38  C   UNL A   1      42.513  27.604  30.511  1.00  0.00     0.074 A 
ATOM     39  C   UNL A   1      40.730  28.534  29.088  1.00  0.00     0.049 A 
ATOM     40  N   UNL A   1      42.240  28.176  31.657  1.00  0.00    -0.248 NA
ATOM     41  C   UNL A   1      43.678  26.708  30.548  1.00  0.00     0.031 C 
ATOM     42  C   UNL A   1      39.973  28.778  27.866  1.00  0.00     0.029 A 
ATOM     43  N   UNL A   1      40.080  29.287  30.036  1.00  0.00    -0.354 N 
ATOM     44  C   UNL A   1      43.199  27.713  32.548  1.00  0.00     0.074 A 
ATOM     45  C   UNL A   1      44.028  26.773  31.823  1.00  0.00     0.031 C 
ATOM     46  C   UNL A   1      38.951  29.606  28.134  1.00  0.00     0.029 A 
ATOM     47  C   UNL A   1      38.981  29.954  29.551  1.00  0.00     0.049 A 
ATOM     48  H   UNL A   1      40.375  29.344  30.973  1.00  0.00     0.167 HD
ATOM     49  C   UNL A   1      43.387  28.055  33.845  1.00  0.00     0.037 A 
ATOM     50  C   UNL A   1      38.098  30.758  30.173  1.00  0.00     0.037 A 
ATOM     51  C   UNL A   1      42.561  28.989  34.567  1.00  0.00     0.049 A 
ATOM     52  C   UNL A   1      38.293  31.082  31.629  1.00  0.00     0.074 A 
ATOM     53  C   UNL A   1      42.693  29.426  35.874  1.00  0.00     0.029 A 
ATOM     54  N   UNL A   1      41.437  29.619  34.050  1.00  0.00    -0.354 N 
ATOM     55  N   UNL A   1      39.238  30.684  32.447  1.00  0.00    -0.248 NA
ATOM     56  C   UNL A   1      37.310  31.983  32.243  1.00  0.00     0.031 C 
ATOM     57  C   UNL A   1      41.611  30.264  36.169  1.00  0.00     0.029 A 
ATOM     58  C   UNL A   1      40.847  30.411  35.023  1.00  0.00     0.049 A 
ATOM     59  H   UNL A   1      41.109  29.518  33.127  1.00  0.00     0.167 HD
ATOM     60  C   UNL A   1      38.982  31.309  33.659  1.00  0.00     0.074 A 
ATOM     61  C   UNL A   1      37.802  32.125  33.465  1.00  0.00     0.031 C 
ATOM     62  C   UNL A   1      39.667  31.217  34.827  1.00  0.00     0.037 A 
BRANCH  49  63
ATOM     63  C   UNL A   1      44.517  27.388  34.578  1.00  0.00     0.064 A 
ATOM     64  C   UNL A   1      44.351  26.165  35.245  1.00  0.00     0.173 A 
ATOM     65  C   UNL A   1      45.792  27.974  34.597  1.00  0.00     0.173 A 
ATOM     66  F   UNL A   1      43.151  25.565  35.269  1.00  0.00    -0.203 F 
ATOM     67  C   UNL A   1      45.407  25.576  35.938  1.00  0.00     0.198 A 
ATOM     68  C   UNL A   1      46.854  27.365  35.258  1.00  0.00     0.198 A 
ATOM     69  F   UNL A   1      46.009  29.141  33.970  1.00  0.00    -0.203 F 
ATOM     70  F   UNL A   1      45.208  24.440  36.622  1.00  0.00    -0.200 F 
ATOM     71  C   UNL A   1      46.658  26.173  35.939  1.00  0.00     0.200 A 
ATOM     72  F   UNL A   1      48.067  27.936  35.244  1.00  0.00    -0.200 F 
ATOM     73  F   UNL A   1      47.674  25.604  36.603  1.00  0.00    -0.200 F 
ENDBRANCH  49  63
BRANCH  50  74
ATOM     74  C   UNL A   1      36.958  31.330  29.409  1.00  0.00     0.064 A 
ATOM     75  C   UNL A   1      35.863  30.540  29.034  1.00  0.00     0.173 A 
ATOM     76  C   UNL A   1      36.942  32.685  29.041  1.00  0.00     0.173 A 
ATOM     77  F   UNL A   1      35.843  29.236  29.344  1.00  0.00    -0.203 F 
ATOM     78  C   UNL A   1      34.805  31.077  28.304  1.00  0.00     0.198 A 
ATOM     79  C   UNL A   1      35.868  33.227  28.338  1.00  0.00     0.198 A 
ATOM     80  F   UNL A   1      37.963  33.485  29.379  1.00  0.00    -0.203 F 
ATOM     81  F   UNL A   1      33.792  30.289  27.918  1.00  0.00    -0.200 F 
ATOM     82  C   UNL A   1      34.804  32.422  27.963  1.00  0.00     0.200 A 
ATOM     83  F   UNL A   1      35.866  34.531  28.025  1.00  0.00    -0.200 F 
ATOM     84  F   UNL A   1      33.783  32.939  27.267  1.00  0.00    -0.200 F 
ENDBRANCH  50  74
BRANCH  62  85
ATOM     85  C   UNL A   1      39.178  32.048  35.982  1.00  0.00     0.064 A 
ATOM     86  C   UNL A   1      38.273  31.544  36.929  1.00  0.00     0.173 A 
ATOM     87  C   UNL A   1      39.640  33.362  36.155  1.00  0.00     0.173 A 
ATOM     88  F   UNL A   1      37.790  30.299  36.806  1.00  0.00    -0.203 F 
ATOM     89  C   UNL A   1      37.821  32.336  37.982  1.00  0.00     0.198 A 
ATOM     90  C   UNL A   1      39.215  34.139  37.230  1.00  0.00     0.198 A 
ATOM     91  F   UNL A   1      40.512  33.894  35.286  1.00  0.00    -0.203 F 
ATOM     92  F   UNL A   1      36.908  31.853  38.836  1.00  0.00    -0.200 F 
ATOM     93  C   UNL A   1      38.297  33.629  38.136  1.00  0.00     0.200 A 
ATOM     94  F   UNL A   1      39.690  35.382  37.387  1.00  0.00    -0.200 F 
ATOM     95  F   UNL A   1      37.862  34.389  39.151  1.00  0.00    -0.200 F 
ENDBRANCH  62  85
ENDBRANCH  36  37
ENDBRANCH  29  31
ENDBRANCH  28  29
ENDBRANCH  27  28
ENDBRANCH  26  27
ENDBRANCH  25  26
ENDBRANCH   1  25
TORSDOF 19
ENDMDL
