MODEL 1
REMARK VINA RESULT:     -11.8      0.000      0.000
REMARK SMILES O=C(OCCOCCOC(=O)[C@@H]1CCCCN1c1ccccc1[N+](=O)[O-])c1ccc(-c2c3nc(c(-c4c(F)c(F)c(F)c(F)c4F)c4ccc([nH]4)c(-c4c(F)c(F)c(F)c(F)c4F)c4nc(c(-c5c(F)c(F)c(F)c(F)c5F)c5ccc2[nH]5)C=C4)C=C3)cc1
REMARK SMILES IDX 6 1 5 2 4 3 3 4 2 5 1 6 27 7 28 8 89 9 29 10 88 11 30 12
REMARK SMILES IDX 31 13 32 14 82 15 33 16 87 17 81 18 83 19 34 20 86 21 80 22
REMARK SMILES IDX 79 23 35 25 67 26 47 27 66 28 48 29 51 30 65 31 84 32 49 33
REMARK SMILES IDX 50 34 64 36 85 37 52 38 36 39 37 40 45 41 38 42 39 43 43 44
REMARK SMILES IDX 46 45 40 46 41 47 44 48 42 49 68 50 69 51 77 52 70 53 71 54
REMARK SMILES IDX 75 55 78 56 72 57 73 58 76 59 74 60 53 61 54 62 62 63 55 64
REMARK SMILES IDX 56 65 60 66 63 67 57 68 58 69 61 70 59 71 7 72 8 73 9 74
REMARK SMILES IDX 10 75 11 76 12 77 13 78 17 79 14 80 16 81 15 82 18 83 19 84
REMARK SMILES IDX 23 85 20 86 22 87 21 88 24 89 25 90 26 91
REMARK H PARENT 83 24 51 35
REMARK Flexibility Score: inf
ROOT
ATOM      1  O   UNL A   1      32.528  27.876  24.238  1.00  0.00    -0.374 OA
ENDROOT
BRANCH   1   2
ATOM      2  C   UNL A   1      31.503  28.538  24.990  1.00  0.00     0.202 C 
BRANCH   2   3
ATOM      3  C   UNL A   1      31.771  29.969  25.506  1.00  0.00     0.261 C 
BRANCH   3   4
ATOM      4  O   UNL A   1      33.079  30.115  26.119  1.00  0.00    -0.460 OA
BRANCH   4   5
ATOM      5  C   UNL A   1      33.507  31.049  27.011  1.00  0.00     0.338 C 
ATOM      6  O   UNL A   1      32.825  32.032  27.283  1.00  0.00    -0.246 OA
BRANCH   5   7
ATOM      7  C   UNL A   1      34.810  30.856  27.672  1.00  0.00     0.060 A 
ATOM      8  C   UNL A   1      35.188  29.584  28.050  1.00  0.00     0.016 A 
ATOM      9  C   UNL A   1      35.679  31.914  27.934  1.00  0.00     0.016 A 
ATOM     10  C   UNL A   1      36.215  29.351  28.903  1.00  0.00     0.010 A 
ATOM     11  C   UNL A   1      36.864  31.662  28.636  1.00  0.00     0.010 A 
ATOM     12  C   UNL A   1      37.110  30.374  29.133  1.00  0.00    -0.014 A 
BRANCH  12  13
ATOM     13  C   UNL A   1      38.251  29.966  29.945  1.00  0.00     0.031 A 
ATOM     14  C   UNL A   1      39.334  29.201  29.277  1.00  0.00     0.074 A 
ATOM     15  C   UNL A   1      38.386  30.548  31.155  1.00  0.00     0.049 A 
ATOM     16  N   UNL A   1      40.408  28.689  29.800  1.00  0.00    -0.248 NA
ATOM     17  C   UNL A   1      39.207  28.991  27.822  1.00  0.00     0.031 C 
ATOM     18  C   UNL A   1      37.431  31.504  31.746  1.00  0.00     0.029 A 
ATOM     19  N   UNL A   1      39.402  30.509  32.063  1.00  0.00    -0.354 N 
ATOM     20  C   UNL A   1      41.039  28.022  28.762  1.00  0.00     0.074 A 
ATOM     21  C   UNL A   1      40.266  28.238  27.563  1.00  0.00     0.031 C 
ATOM     22  C   UNL A   1      37.943  32.004  32.877  1.00  0.00     0.029 A 
ATOM     23  C   UNL A   1      39.171  31.288  33.171  1.00  0.00     0.049 A 
ATOM     24  H   UNL A   1      40.220  29.975  31.937  1.00  0.00     0.167 HD
ATOM     25  C   UNL A   1      42.147  27.260  28.859  1.00  0.00     0.037 A 
ATOM     26  C   UNL A   1      39.844  31.331  34.334  1.00  0.00     0.037 A 
ATOM     27  C   UNL A   1      42.870  27.124  30.093  1.00  0.00     0.049 A 
ATOM     28  C   UNL A   1      41.020  30.405  34.439  1.00  0.00     0.074 A 
ATOM     29  C   UNL A   1      43.957  26.328  30.384  1.00  0.00     0.029 A 
ATOM     30  N   UNL A   1      42.561  27.832  31.253  1.00  0.00    -0.354 N 
ATOM     31  N   UNL A   1      41.551  29.643  33.509  1.00  0.00    -0.248 NA
ATOM     32  C   UNL A   1      41.661  30.296  35.750  1.00  0.00     0.031 C 
ATOM     33  C   UNL A   1      44.275  26.519  31.733  1.00  0.00     0.029 A 
ATOM     34  C   UNL A   1      43.419  27.471  32.272  1.00  0.00     0.049 A 
ATOM     35  H   UNL A   1      41.835  28.492  31.334  1.00  0.00     0.167 HD
ATOM     36  C   UNL A   1      42.579  28.950  34.121  1.00  0.00     0.074 A 
ATOM     37  C   UNL A   1      42.624  29.423  35.495  1.00  0.00     0.031 C 
ATOM     38  C   UNL A   1      43.400  27.995  33.616  1.00  0.00     0.037 A 
BRANCH  25  39
ATOM     39  C   UNL A   1      42.530  26.447  27.663  1.00  0.00     0.064 A 
ATOM     40  C   UNL A   1      41.969  25.193  27.387  1.00  0.00     0.173 A 
ATOM     41  C   UNL A   1      43.520  26.930  26.792  1.00  0.00     0.173 A 
ATOM     42  F   UNL A   1      41.053  24.665  28.213  1.00  0.00    -0.203 F 
ATOM     43  C   UNL A   1      42.392  24.447  26.287  1.00  0.00     0.198 A 
ATOM     44  C   UNL A   1      43.923  26.193  25.681  1.00  0.00     0.198 A 
ATOM     45  F   UNL A   1      44.108  28.112  27.026  1.00  0.00    -0.203 F 
ATOM     46  F   UNL A   1      41.878  23.229  26.067  1.00  0.00    -0.200 F 
ATOM     47  C   UNL A   1      43.363  24.950  25.432  1.00  0.00     0.200 A 
ATOM     48  F   UNL A   1      44.867  26.679  24.864  1.00  0.00    -0.200 F 
ATOM     49  F   UNL A   1      43.770  24.231  24.378  1.00  0.00    -0.200 F 
ENDBRANCH  25  39
BRANCH  26  50
ATOM     50  C   UNL A   1      39.337  32.130  35.484  1.00  0.00     0.064 A 
ATOM     51  C   UNL A   1      39.703  33.469  35.669  1.00  0.00     0.173 A 
ATOM     52  C   UNL A   1      38.481  31.561  36.446  1.00  0.00     0.173 A 
ATOM     53  F   UNL A   1      40.531  34.062  34.796  1.00  0.00    -0.203 F 
ATOM     54  C   UNL A   1      39.256  34.196  36.772  1.00  0.00     0.198 A 
ATOM     55  C   UNL A   1      38.001  32.300  37.525  1.00  0.00     0.198 A 
ATOM     56  F   UNL A   1      38.097  30.280  36.336  1.00  0.00    -0.203 F 
ATOM     57  F   UNL A   1      39.671  35.458  36.953  1.00  0.00    -0.200 F 
ATOM     58  C   UNL A   1      38.400  33.614  37.696  1.00  0.00     0.200 A 
ATOM     59  F   UNL A   1      37.159  31.733  38.400  1.00  0.00    -0.200 F 
ATOM     60  F   UNL A   1      37.971  34.313  38.755  1.00  0.00    -0.200 F 
ENDBRANCH  26  50
BRANCH  38  61
ATOM     61  C   UNL A   1      44.406  27.435  34.567  1.00  0.00     0.064 A 
ATOM     62  C   UNL A   1      44.137  26.278  35.310  1.00  0.00     0.173 A 
ATOM     63  C   UNL A   1      45.662  28.040  34.696  1.00  0.00     0.173 A 
ATOM     64  F   UNL A   1      42.936  25.686  35.228  1.00  0.00    -0.203 F 
ATOM     65  C   UNL A   1      45.093  25.754  36.171  1.00  0.00     0.198 A 
ATOM     66  C   UNL A   1      46.626  27.494  35.533  1.00  0.00     0.198 A 
ATOM     67  F   UNL A   1      45.956  29.147  33.996  1.00  0.00    -0.203 F 
ATOM     68  F   UNL A   1      44.804  24.675  36.910  1.00  0.00    -0.200 F 
ATOM     69  C   UNL A   1      46.339  26.357  36.274  1.00  0.00     0.200 A 
ATOM     70  F   UNL A   1      47.834  28.068  35.622  1.00  0.00    -0.200 F 
ATOM     71  F   UNL A   1      47.264  25.843  37.095  1.00  0.00    -0.200 F 
ENDBRANCH  38  61
ENDBRANCH  12  13
ENDBRANCH   5   7
ENDBRANCH   4   5
ENDBRANCH   3   4
ENDBRANCH   2   3
ENDBRANCH   1   2
BRANCH   1  72
ATOM     72  C   UNL A   1      32.270  27.618  22.852  1.00  0.00     0.202 C 
BRANCH  72  73
ATOM     73  C   UNL A   1      33.283  26.637  22.279  1.00  0.00     0.261 C 
BRANCH  73  74
ATOM     74  O   UNL A   1      33.694  25.761  23.335  1.00  0.00    -0.462 OA
BRANCH  74  75
ATOM     75  C   UNL A   1      34.074  24.527  22.922  1.00  0.00     0.328 C 
ATOM     76  O   UNL A   1      33.680  23.990  21.890  1.00  0.00    -0.250 OA
BRANCH  75  77
ATOM     77  C   UNL A   1      34.931  23.795  23.934  1.00  0.00     0.192 C 
ATOM     78  C   UNL A   1      35.743  22.776  23.127  1.00  0.00     0.037 C 
ATOM     79  N   UNL A   1      34.364  23.131  25.158  1.00  0.00    -0.353 N 
ATOM     80  C   UNL A   1      36.809  22.122  23.991  1.00  0.00     0.005 C 
ATOM     81  C   UNL A   1      35.397  22.551  26.029  1.00  0.00     0.118 C 
ATOM     82  C   UNL A   1      36.183  21.510  25.240  1.00  0.00     0.022 C 
BRANCH  79  83
ATOM     83  C   UNL A   1      33.075  23.117  25.665  1.00  0.00     0.116 A 
ATOM     84  C   UNL A   1      32.630  24.194  26.447  1.00  0.00     0.033 A 
ATOM     85  C   UNL A   1      32.081  22.155  25.340  1.00  0.00     0.292 A 
ATOM     86  C   UNL A   1      31.297  24.313  26.877  1.00  0.00     0.003 A 
ATOM     87  C   UNL A   1      30.732  22.283  25.738  1.00  0.00     0.088 A 
ATOM     88  C   UNL A   1      30.344  23.370  26.508  1.00  0.00     0.007 A 
BRANCH  85  89
ATOM     89  N   UNL A   1      32.421  20.907  24.661  1.00  0.00     0.064 N 
ATOM     90  O   UNL A   1      32.770  20.983  23.474  1.00  0.00    -0.258 OA
ATOM     91  O   UNL A   1      32.272  19.845  25.284  1.00  0.00    -0.258 OA
ENDBRANCH  85  89
ENDBRANCH  79  83
ENDBRANCH  75  77
ENDBRANCH  74  75
ENDBRANCH  73  74
ENDBRANCH  72  73
ENDBRANCH   1  72
TORSDOF 16
ENDMDL
MODEL 2
REMARK VINA RESULT:     -11.7      1.079      2.230
REMARK SMILES O=C(OCCOCCOC(=O)[C@@H]1CCCCN1c1ccccc1[N+](=O)[O-])c1ccc(-c2c3nc(c(-c4c(F)c(F)c(F)c(F)c4F)c4ccc([nH]4)c(-c4c(F)c(F)c(F)c(F)c4F)c4nc(c(-c5c(F)c(F)c(F)c(F)c5F)c5ccc2[nH]5)C=C4)C=C3)cc1
REMARK SMILES IDX 6 1 5 2 4 3 3 4 2 5 1 6 27 7 28 8 89 9 29 10 88 11 30 12
REMARK SMILES IDX 31 13 32 14 82 15 33 16 87 17 81 18 83 19 34 20 86 21 80 22
REMARK SMILES IDX 79 23 35 25 67 26 47 27 66 28 48 29 51 30 65 31 84 32 49 33
REMARK SMILES IDX 50 34 64 36 85 37 52 38 36 39 37 40 45 41 38 42 39 43 43 44
REMARK SMILES IDX 46 45 40 46 41 47 44 48 42 49 68 50 69 51 77 52 70 53 71 54
REMARK SMILES IDX 75 55 78 56 72 57 73 58 76 59 74 60 53 61 54 62 62 63 55 64
REMARK SMILES IDX 56 65 60 66 63 67 57 68 58 69 61 70 59 71 7 72 8 73 9 74
REMARK SMILES IDX 10 75 11 76 12 77 13 78 17 79 14 80 16 81 15 82 18 83 19 84
REMARK SMILES IDX 23 85 20 86 22 87 21 88 24 89 25 90 26 91
REMARK H PARENT 83 24 51 35
REMARK Flexibility Score: inf
ROOT
ATOM      1  O   UNL A   1      31.762  27.801  25.054  1.00  0.00    -0.374 OA
ENDROOT
BRANCH   1   2
ATOM      2  C   UNL A   1      31.573  29.176  24.697  1.00  0.00     0.202 C 
BRANCH   2   3
ATOM      3  C   UNL A   1      31.698  30.252  25.799  1.00  0.00     0.261 C 
BRANCH   3   4
ATOM      4  O   UNL A   1      33.055  30.399  26.296  1.00  0.00    -0.460 OA
BRANCH   4   5
ATOM      5  C   UNL A   1      33.558  31.334  27.144  1.00  0.00     0.338 C 
ATOM      6  O   UNL A   1      32.949  32.371  27.387  1.00  0.00    -0.246 OA
BRANCH   5   7
ATOM      7  C   UNL A   1      34.855  31.077  27.796  1.00  0.00     0.060 A 
ATOM      8  C   UNL A   1      35.139  29.804  28.246  1.00  0.00     0.016 A 
ATOM      9  C   UNL A   1      35.810  32.076  27.979  1.00  0.00     0.016 A 
ATOM     10  C   UNL A   1      36.161  29.542  29.096  1.00  0.00     0.010 A 
ATOM     11  C   UNL A   1      36.986  31.773  28.677  1.00  0.00     0.010 A 
ATOM     12  C   UNL A   1      37.139  30.502  29.249  1.00  0.00    -0.014 A 
BRANCH  12  13
ATOM     13  C   UNL A   1      38.260  30.052  30.067  1.00  0.00     0.031 A 
ATOM     14  C   UNL A   1      39.335  29.277  29.397  1.00  0.00     0.074 A 
ATOM     15  C   UNL A   1      38.393  30.608  31.290  1.00  0.00     0.049 A 
ATOM     16  N   UNL A   1      40.391  28.732  29.923  1.00  0.00    -0.248 NA
ATOM     17  C   UNL A   1      39.222  29.098  27.937  1.00  0.00     0.031 C 
ATOM     18  C   UNL A   1      37.451  31.573  31.887  1.00  0.00     0.029 A 
ATOM     19  N   UNL A   1      39.396  30.529  32.209  1.00  0.00    -0.354 N 
ATOM     20  C   UNL A   1      41.021  28.072  28.880  1.00  0.00     0.074 A 
ATOM     21  C   UNL A   1      40.268  28.328  27.676  1.00  0.00     0.031 C 
ATOM     22  C   UNL A   1      37.959  32.040  33.034  1.00  0.00     0.029 A 
ATOM     23  C   UNL A   1      39.167  31.292  33.330  1.00  0.00     0.049 A 
ATOM     24  H   UNL A   1      40.203  29.980  32.083  1.00  0.00     0.167 HD
ATOM     25  C   UNL A   1      42.111  27.283  28.976  1.00  0.00     0.037 A 
ATOM     26  C   UNL A   1      39.826  31.298  34.501  1.00  0.00     0.037 A 
ATOM     27  C   UNL A   1      42.815  27.108  30.216  1.00  0.00     0.049 A 
ATOM     28  C   UNL A   1      40.981  30.344  34.603  1.00  0.00     0.074 A 
ATOM     29  C   UNL A   1      43.881  26.283  30.505  1.00  0.00     0.029 A 
ATOM     30  N   UNL A   1      42.506  27.800  31.386  1.00  0.00    -0.354 N 
ATOM     31  N   UNL A   1      41.507  29.589  33.664  1.00  0.00    -0.248 NA
ATOM     32  C   UNL A   1      41.602  30.196  35.919  1.00  0.00     0.031 C 
ATOM     33  C   UNL A   1      44.185  26.441  31.862  1.00  0.00     0.029 A 
ATOM     34  C   UNL A   1      43.343  27.401  32.409  1.00  0.00     0.049 A 
ATOM     35  H   UNL A   1      41.793  28.474  31.471  1.00  0.00     0.167 HD
ATOM     36  C   UNL A   1      42.512  28.862  34.275  1.00  0.00     0.074 A 
ATOM     37  C   UNL A   1      42.549  29.307  35.658  1.00  0.00     0.031 C 
ATOM     38  C   UNL A   1      43.318  27.899  33.762  1.00  0.00     0.037 A 
BRANCH  25  39
ATOM     39  C   UNL A   1      42.491  26.486  27.770  1.00  0.00     0.064 A 
ATOM     40  C   UNL A   1      43.475  26.903  26.862  1.00  0.00     0.173 A 
ATOM     41  C   UNL A   1      41.815  25.285  27.498  1.00  0.00     0.173 A 
ATOM     42  F   UNL A   1      44.117  28.065  27.051  1.00  0.00    -0.203 F 
ATOM     43  C   UNL A   1      43.762  26.152  25.723  1.00  0.00     0.198 A 
ATOM     44  C   UNL A   1      42.120  24.526  26.371  1.00  0.00     0.198 A 
ATOM     45  F   UNL A   1      40.846  24.855  28.319  1.00  0.00    -0.203 F 
ATOM     46  F   UNL A   1      44.672  26.592  24.843  1.00  0.00    -0.200 F 
ATOM     47  C   UNL A   1      43.090  24.962  25.482  1.00  0.00     0.200 A 
ATOM     48  F   UNL A   1      41.463  23.382  26.139  1.00  0.00    -0.200 F 
ATOM     49  F   UNL A   1      43.364  24.244  24.385  1.00  0.00    -0.200 F 
ENDBRANCH  25  39
BRANCH  26  50
ATOM     50  C   UNL A   1      39.321  32.085  35.660  1.00  0.00     0.064 A 
ATOM     51  C   UNL A   1      39.728  33.406  35.885  1.00  0.00     0.173 A 
ATOM     52  C   UNL A   1      38.429  31.521  36.591  1.00  0.00     0.173 A 
ATOM     53  F   UNL A   1      40.592  33.992  35.043  1.00  0.00    -0.203 F 
ATOM     54  C   UNL A   1      39.281  34.122  36.997  1.00  0.00     0.198 A 
ATOM     55  C   UNL A   1      37.951  32.250  37.678  1.00  0.00     0.198 A 
ATOM     56  F   UNL A   1      38.005  30.257  36.441  1.00  0.00    -0.203 F 
ATOM     57  F   UNL A   1      39.734  35.364  37.217  1.00  0.00    -0.200 F 
ATOM     58  C   UNL A   1      38.388  33.546  37.888  1.00  0.00     0.200 A 
ATOM     59  F   UNL A   1      37.072  31.691  38.521  1.00  0.00    -0.200 F 
ATOM     60  F   UNL A   1      37.961  34.233  38.956  1.00  0.00    -0.200 F 
ENDBRANCH  26  50
BRANCH  38  61
ATOM     61  C   UNL A   1      44.299  27.299  34.714  1.00  0.00     0.064 A 
ATOM     62  C   UNL A   1      43.986  26.149  35.450  1.00  0.00     0.173 A 
ATOM     63  C   UNL A   1      45.576  27.858  34.851  1.00  0.00     0.173 A 
ATOM     64  F   UNL A   1      42.765  25.600  35.361  1.00  0.00    -0.203 F 
ATOM     65  C   UNL A   1      44.919  25.587  36.313  1.00  0.00     0.198 A 
ATOM     66  C   UNL A   1      46.517  27.274  35.689  1.00  0.00     0.198 A 
ATOM     67  F   UNL A   1      45.912  28.956  34.158  1.00  0.00    -0.203 F 
ATOM     68  F   UNL A   1      44.589  24.516  37.046  1.00  0.00    -0.200 F 
ATOM     69  C   UNL A   1      46.185  26.144  36.424  1.00  0.00     0.200 A 
ATOM     70  F   UNL A   1      47.744  27.804  35.785  1.00  0.00    -0.200 F 
ATOM     71  F   UNL A   1      47.088  25.594  37.246  1.00  0.00    -0.200 F 
ENDBRANCH  38  61
ENDBRANCH  12  13
ENDBRANCH   5   7
ENDBRANCH   4   5
ENDBRANCH   3   4
ENDBRANCH   2   3
ENDBRANCH   1   2
BRANCH   1  72
ATOM     72  C   UNL A   1      31.154  27.342  26.268  1.00  0.00     0.202 C 
BRANCH  72  73
ATOM     73  C   UNL A   1      30.662  25.909  26.128  1.00  0.00     0.261 C 
BRANCH  73  74
ATOM     74  O   UNL A   1      31.526  25.070  26.904  1.00  0.00    -0.462 OA
BRANCH  74  75
ATOM     75  C   UNL A   1      31.194  23.755  26.883  1.00  0.00     0.328 C 
ATOM     76  O   UNL A   1      30.116  23.306  27.264  1.00  0.00    -0.250 OA
BRANCH  75  77
ATOM     77  C   UNL A   1      32.343  22.855  26.477  1.00  0.00     0.192 C 
ATOM     78  C   UNL A   1      33.163  22.633  27.753  1.00  0.00     0.037 C 
ATOM     79  N   UNL A   1      33.267  23.172  25.334  1.00  0.00    -0.353 N 
ATOM     80  C   UNL A   1      34.226  21.567  27.539  1.00  0.00     0.005 C 
ATOM     81  C   UNL A   1      34.257  22.115  25.083  1.00  0.00     0.118 C 
ATOM     82  C   UNL A   1      35.099  21.917  26.339  1.00  0.00     0.022 C 
BRANCH  79  83
ATOM     83  C   UNL A   1      33.235  24.197  24.403  1.00  0.00     0.116 A 
ATOM     84  C   UNL A   1      34.131  25.269  24.528  1.00  0.00     0.033 A 
ATOM     85  C   UNL A   1      32.456  24.197  23.215  1.00  0.00     0.292 A 
ATOM     86  C   UNL A   1      34.250  26.271  23.548  1.00  0.00     0.003 A 
ATOM     87  C   UNL A   1      32.592  25.178  22.209  1.00  0.00     0.088 A 
ATOM     88  C   UNL A   1      33.495  26.217  22.381  1.00  0.00     0.007 A 
BRANCH  85  89
ATOM     89  N   UNL A   1      31.377  23.232  23.011  1.00  0.00     0.064 N 
ATOM     90  O   UNL A   1      31.694  22.105  22.604  1.00  0.00    -0.258 OA
ATOM     91  O   UNL A   1      30.211  23.616  23.186  1.00  0.00    -0.258 OA
ENDBRANCH  85  89
ENDBRANCH  79  83
ENDBRANCH  75  77
ENDBRANCH  74  75
ENDBRANCH  73  74
ENDBRANCH  72  73
ENDBRANCH   1  72
TORSDOF 16
ENDMDL
MODEL 3
REMARK VINA RESULT:     -11.6      1.118      2.013
REMARK SMILES O=C(OCCOCCOC(=O)[C@@H]1CCCCN1c1ccccc1[N+](=O)[O-])c1ccc(-c2c3nc(c(-c4c(F)c(F)c(F)c(F)c4F)c4ccc([nH]4)c(-c4c(F)c(F)c(F)c(F)c4F)c4nc(c(-c5c(F)c(F)c(F)c(F)c5F)c5ccc2[nH]5)C=C4)C=C3)cc1
REMARK SMILES IDX 6 1 5 2 4 3 3 4 2 5 1 6 27 7 28 8 89 9 29 10 88 11 30 12
REMARK SMILES IDX 31 13 32 14 82 15 33 16 87 17 81 18 83 19 34 20 86 21 80 22
REMARK SMILES IDX 79 23 35 25 67 26 47 27 66 28 48 29 51 30 65 31 84 32 49 33
REMARK SMILES IDX 50 34 64 36 85 37 52 38 36 39 37 40 45 41 38 42 39 43 43 44
REMARK SMILES IDX 46 45 40 46 41 47 44 48 42 49 68 50 69 51 77 52 70 53 71 54
REMARK SMILES IDX 75 55 78 56 72 57 73 58 76 59 74 60 53 61 54 62 62 63 55 64
REMARK SMILES IDX 56 65 60 66 63 67 57 68 58 69 61 70 59 71 7 72 8 73 9 74
REMARK SMILES IDX 10 75 11 76 12 77 13 78 17 79 14 80 16 81 15 82 18 83 19 84
REMARK SMILES IDX 23 85 20 86 22 87 21 88 24 89 25 90 26 91
REMARK H PARENT 83 24 51 35
REMARK Flexibility Score: inf
ROOT
ATOM      1  O   UNL A   1      32.053  27.816  24.408  1.00  0.00    -0.374 OA
ENDROOT
BRANCH   1   2
ATOM      2  C   UNL A   1      31.579  29.162  24.535  1.00  0.00     0.202 C 
BRANCH   2   3
ATOM      3  C   UNL A   1      31.721  29.872  25.899  1.00  0.00     0.261 C 
BRANCH   3   4
ATOM      4  O   UNL A   1      33.091  30.249  26.202  1.00  0.00    -0.460 OA
BRANCH   4   5
ATOM      5  C   UNL A   1      33.547  31.174  27.088  1.00  0.00     0.338 C 
ATOM      6  O   UNL A   1      32.889  32.172  27.366  1.00  0.00    -0.246 OA
BRANCH   5   7
ATOM      7  C   UNL A   1      34.852  30.953  27.736  1.00  0.00     0.060 A 
ATOM      8  C   UNL A   1      35.204  29.675  28.118  1.00  0.00     0.016 A 
ATOM      9  C   UNL A   1      35.750  31.991  27.982  1.00  0.00     0.016 A 
ATOM     10  C   UNL A   1      36.234  29.422  28.961  1.00  0.00     0.010 A 
ATOM     11  C   UNL A   1      36.937  31.715  28.672  1.00  0.00     0.010 A 
ATOM     12  C   UNL A   1      37.156  30.424  29.175  1.00  0.00    -0.014 A 
BRANCH  12  13
ATOM     13  C   UNL A   1      38.295  29.993  29.977  1.00  0.00     0.031 A 
ATOM     14  C   UNL A   1      39.360  29.210  29.298  1.00  0.00     0.074 A 
ATOM     15  C   UNL A   1      38.451  30.569  31.188  1.00  0.00     0.049 A 
ATOM     16  N   UNL A   1      40.428  28.677  29.812  1.00  0.00    -0.248 NA
ATOM     17  C   UNL A   1      39.217  29.006  27.844  1.00  0.00     0.031 C 
ATOM     18  C   UNL A   1      37.519  31.541  31.788  1.00  0.00     0.029 A 
ATOM     19  N   UNL A   1      39.473  30.509  32.087  1.00  0.00    -0.354 N 
ATOM     20  C   UNL A   1      41.038  28.002  28.767  1.00  0.00     0.074 A 
ATOM     21  C   UNL A   1      40.260  28.235  27.575  1.00  0.00     0.031 C 
ATOM     22  C   UNL A   1      38.048  32.028  32.916  1.00  0.00     0.029 A 
ATOM     23  C   UNL A   1      39.265  31.289  33.199  1.00  0.00     0.049 A 
ATOM     24  H   UNL A   1      40.280  29.961  31.954  1.00  0.00     0.167 HD
ATOM     25  C   UNL A   1      42.134  27.219  28.854  1.00  0.00     0.037 A 
ATOM     26  C   UNL A   1      39.947  31.318  34.356  1.00  0.00     0.037 A 
ATOM     27  C   UNL A   1      42.863  27.066  30.081  1.00  0.00     0.049 A 
ATOM     28  C   UNL A   1      41.108  30.369  34.450  1.00  0.00     0.074 A 
ATOM     29  C   UNL A   1      43.938  26.251  30.362  1.00  0.00     0.029 A 
ATOM     30  N   UNL A   1      42.576  27.777  31.246  1.00  0.00    -0.354 N 
ATOM     31  N   UNL A   1      41.617  29.600  33.514  1.00  0.00    -0.248 NA
ATOM     32  C   UNL A   1      41.757  30.246  35.755  1.00  0.00     0.031 C 
ATOM     33  C   UNL A   1      44.270  26.432  31.709  1.00  0.00     0.029 A 
ATOM     34  C   UNL A   1      43.436  27.398  32.257  1.00  0.00     0.049 A 
ATOM     35  H   UNL A   1      41.863  28.450  31.334  1.00  0.00     0.167 HD
ATOM     36  C   UNL A   1      42.637  28.887  34.116  1.00  0.00     0.074 A 
ATOM     37  C   UNL A   1      42.702  29.355  35.491  1.00  0.00     0.031 C 
ATOM     38  C   UNL A   1      43.436  27.919  33.602  1.00  0.00     0.037 A 
BRANCH  25  39
ATOM     39  C   UNL A   1      42.492  26.403  27.653  1.00  0.00     0.064 A 
ATOM     40  C   UNL A   1      41.865  25.187  27.347  1.00  0.00     0.173 A 
ATOM     41  C   UNL A   1      43.524  26.839  26.807  1.00  0.00     0.173 A 
ATOM     42  F   UNL A   1      40.905  24.702  28.148  1.00  0.00    -0.203 F 
ATOM     43  C   UNL A   1      42.266  24.434  26.244  1.00  0.00     0.198 A 
ATOM     44  C   UNL A   1      43.907  26.096  25.693  1.00  0.00     0.198 A 
ATOM     45  F   UNL A   1      44.175  27.982  27.071  1.00  0.00    -0.203 F 
ATOM     46  F   UNL A   1      41.687  23.250  25.996  1.00  0.00    -0.200 F 
ATOM     47  C   UNL A   1      43.280  24.892  25.415  1.00  0.00     0.200 A 
ATOM     48  F   UNL A   1      44.892  26.539  24.901  1.00  0.00    -0.200 F 
ATOM     49  F   UNL A   1      43.665  24.165  24.357  1.00  0.00    -0.200 F 
ENDBRANCH  25  39
BRANCH  26  50
ATOM     50  C   UNL A   1      39.464  32.122  35.512  1.00  0.00     0.064 A 
ATOM     51  C   UNL A   1      39.942  33.415  35.760  1.00  0.00     0.173 A 
ATOM     52  C   UNL A   1      38.519  31.604  36.417  1.00  0.00     0.173 A 
ATOM     53  F   UNL A   1      40.858  33.957  34.944  1.00  0.00    -0.203 F 
ATOM     54  C   UNL A   1      39.514  34.145  36.870  1.00  0.00     0.198 A 
ATOM     55  C   UNL A   1      38.060  32.349  37.501  1.00  0.00     0.198 A 
ATOM     56  F   UNL A   1      38.025  30.368  36.245  1.00  0.00    -0.203 F 
ATOM     57  F   UNL A   1      40.033  35.356  37.113  1.00  0.00    -0.200 F 
ATOM     58  C   UNL A   1      38.568  33.615  37.735  1.00  0.00     0.200 A 
ATOM     59  F   UNL A   1      37.131  31.835  38.319  1.00  0.00    -0.200 F 
ATOM     60  F   UNL A   1      38.158  34.316  38.801  1.00  0.00    -0.200 F 
ENDBRANCH  26  50
BRANCH  38  61
ATOM     61  C   UNL A   1      44.439  27.338  34.544  1.00  0.00     0.064 A 
ATOM     62  C   UNL A   1      45.700  27.926  34.715  1.00  0.00     0.173 A 
ATOM     63  C   UNL A   1      44.113  26.212  35.309  1.00  0.00     0.173 A 
ATOM     64  F   UNL A   1      46.054  28.992  33.982  1.00  0.00    -0.203 F 
ATOM     65  C   UNL A   1      46.612  27.388  35.614  1.00  0.00     0.198 A 
ATOM     66  C   UNL A   1      45.016  25.697  36.230  1.00  0.00     0.198 A 
ATOM     67  F   UNL A   1      42.913  25.626  35.175  1.00  0.00    -0.203 F 
ATOM     68  F   UNL A   1      47.830  27.932  35.732  1.00  0.00    -0.200 F 
ATOM     69  C   UNL A   1      46.266  26.281  36.377  1.00  0.00     0.200 A 
ATOM     70  F   UNL A   1      44.676  24.638  36.977  1.00  0.00    -0.200 F 
ATOM     71  F   UNL A   1      47.143  25.773  37.252  1.00  0.00    -0.200 F 
ENDBRANCH  38  61
ENDBRANCH  12  13
ENDBRANCH   5   7
ENDBRANCH   4   5
ENDBRANCH   3   4
ENDBRANCH   2   3
ENDBRANCH   1   2
BRANCH   1  72
ATOM     72  C   UNL A   1      31.495  26.831  25.286  1.00  0.00     0.202 C 
BRANCH  72  73
ATOM     73  C   UNL A   1      32.565  26.220  26.179  1.00  0.00     0.261 C 
BRANCH  73  74
ATOM     74  O   UNL A   1      33.176  25.142  25.459  1.00  0.00    -0.462 OA
BRANCH  74  75
ATOM     75  C   UNL A   1      33.237  23.975  26.147  1.00  0.00     0.328 C 
ATOM     76  O   UNL A   1      32.334  23.541  26.858  1.00  0.00    -0.250 OA
BRANCH  75  77
ATOM     77  C   UNL A   1      34.597  23.311  26.077  1.00  0.00     0.192 C 
ATOM     78  C   UNL A   1      35.580  24.425  25.699  1.00  0.00     0.037 C 
ATOM     79  N   UNL A   1      34.871  22.093  25.240  1.00  0.00    -0.353 N 
ATOM     80  C   UNL A   1      37.018  23.943  25.810  1.00  0.00     0.005 C 
ATOM     81  C   UNL A   1      36.242  21.586  25.391  1.00  0.00     0.118 C 
ATOM     82  C   UNL A   1      37.223  22.680  24.981  1.00  0.00     0.022 C 
BRANCH  79  83
ATOM     83  C   UNL A   1      34.018  21.298  24.492  1.00  0.00     0.116 A 
ATOM     84  C   UNL A   1      33.771  19.978  24.900  1.00  0.00     0.033 A 
ATOM     85  C   UNL A   1      33.230  21.749  23.399  1.00  0.00     0.292 A 
ATOM     86  C   UNL A   1      32.814  19.162  24.273  1.00  0.00     0.003 A 
ATOM     87  C   UNL A   1      32.242  20.949  22.785  1.00  0.00     0.088 A 
ATOM     88  C   UNL A   1      32.037  19.651  23.228  1.00  0.00     0.007 A 
BRANCH  85  89
ATOM     89  N   UNL A   1      33.474  23.044  22.767  1.00  0.00     0.064 N 
ATOM     90  O   UNL A   1      32.494  23.782  22.588  1.00  0.00    -0.258 OA
ATOM     91  O   UNL A   1      34.626  23.298  22.385  1.00  0.00    -0.258 OA
ENDBRANCH  85  89
ENDBRANCH  79  83
ENDBRANCH  75  77
ENDBRANCH  74  75
ENDBRANCH  73  74
ENDBRANCH  72  73
ENDBRANCH   1  72
TORSDOF 16
ENDMDL
