MODEL 1
REMARK VINA RESULT:     -10.4      0.000      0.000
REMARK SMILES CCCNC(=O)CN(C)C(=O)C[N@@H+]1CCCC[C@H]1C(=O)OCCOCCOC(=O)c1ccc(-c2c3nc(c(-c4c(F)c(F)c(F)c(F)c4F)c4ccc([nH]4)c(-c4c(F)c(F)c(F)c(F)c4F)c4nc(c(-c5c(F)c(F)c(F)c(F)c5F)c5ccc2[nH]5)C=C4)C=C3)cc1
REMARK SMILES IDX 22 1 21 2 19 3 20 4 18 5 13 6 14 7 15 9 17 10 16 11 12 12
REMARK SMILES IDX 10 13 11 14 8 15 9 16 7 17 5 18 4 19 6 21 3 22 2 23 1 24
REMARK SMILES IDX 23 25 24 26 25 27 26 28 27 29 28 30 29 31 30 32 31 33 92 34
REMARK SMILES IDX 32 35 91 36 33 37 34 38 35 39 85 40 36 41 90 42 84 43 86 44
REMARK SMILES IDX 37 45 89 46 83 47 82 48 38 50 70 51 50 52 69 53 51 54 54 55
REMARK SMILES IDX 68 56 87 57 52 58 53 59 67 61 88 62 55 63 39 64 40 65 48 66
REMARK SMILES IDX 41 67 42 68 46 69 49 70 43 71 44 72 47 73 45 74 71 75 72 76
REMARK SMILES IDX 80 77 73 78 74 79 78 80 81 81 75 82 76 83 79 84 77 85 56 86
REMARK SMILES IDX 57 87 65 88 58 89 59 90 63 91 66 92 60 93 61 94 64 95 62 96
REMARK H PARENT 13 8 4 20 86 49 54 60
REMARK Flexibility Score: inf
ROOT
ATOM      1  C   UNL A   1      33.976  27.743  24.611  1.00  0.00     0.261 C 
ENDROOT
BRANCH   1   2
ATOM      2  O   UNL A   1      33.634  26.862  23.553  1.00  0.00    -0.459 OA
BRANCH   2   3
ATOM      3  C   UNL A   1      33.415  25.598  24.014  1.00  0.00     0.365 C 
ATOM      4  O   UNL A   1      34.295  24.894  24.499  1.00  0.00    -0.245 OA
BRANCH   3   5
ATOM      5  C   UNL A   1      31.909  25.294  24.093  1.00  0.00     0.295 C 
ATOM      6  N   UNL A   1      31.324  25.850  25.358  1.00  0.00    -0.315 N 
ATOM      7  C   UNL A   1      29.861  25.855  25.315  1.00  0.00     0.263 C 
ATOM      8  H   UNL A   1      31.659  26.814  25.381  1.00  0.00     0.349 HD
ATOM      9  C   UNL A   1      29.260  26.591  24.103  1.00  0.00     0.062 C 
ATOM     10  C   UNL A   1      31.236  25.821  22.790  1.00  0.00     0.078 C 
ATOM     11  C   UNL A   1      30.275  26.972  23.039  1.00  0.00     0.013 C 
BRANCH   6  12
ATOM     12  C   UNL A   1      31.850  25.271  26.652  1.00  0.00     0.364 C 
BRANCH  12  13
ATOM     13  C   UNL A   1      31.389  23.746  26.864  1.00  0.00     0.277 C 
ATOM     14  O   UNL A   1      30.215  23.498  27.159  1.00  0.00    -0.268 OA
BRANCH  13  15
ATOM     15  N   UNL A   1      32.371  22.704  26.813  1.00  0.00    -0.332 N 
ATOM     16  C   UNL A   1      33.516  22.783  27.710  1.00  0.00     0.147 C 
BRANCH  15  17
ATOM     17  C   UNL A   1      32.518  21.766  25.631  1.00  0.00     0.219 C 
BRANCH  17  18
ATOM     18  C   UNL A   1      33.756  21.051  24.762  1.00  0.00     0.239 C 
ATOM     19  N   UNL A   1      35.120  21.164  24.606  1.00  0.00    -0.355 N 
ATOM     20  H   UNL A   1      35.424  20.238  24.469  1.00  0.00     0.163 HD
ATOM     21  O   UNL A   1      33.372  20.002  24.184  1.00  0.00    -0.273 OA
BRANCH  19  22
ATOM     22  C   UNL A   1      36.440  22.017  24.535  1.00  0.00     0.115 C 
BRANCH  22  23
ATOM     23  C   UNL A   1      37.662  22.456  25.604  1.00  0.00     0.018 C 
ATOM     24  C   UNL A   1      38.211  23.808  26.157  1.00  0.00     0.006 C 
ENDBRANCH  22  23
ENDBRANCH  19  22
ENDBRANCH  17  18
ENDBRANCH  15  17
ENDBRANCH  13  15
ENDBRANCH  12  13
ENDBRANCH   6  12
ENDBRANCH   3   5
ENDBRANCH   2   3
ENDBRANCH   1   2
BRANCH   1  25
ATOM     25  C   UNL A   1      33.021  28.970  24.603  1.00  0.00     0.202 C 
BRANCH  25  26
ATOM     26  O   UNL A   1      33.179  30.012  25.595  1.00  0.00    -0.374 OA
BRANCH  26  27
ATOM     27  C   UNL A   1      32.203  30.494  26.570  1.00  0.00     0.202 C 
BRANCH  27  28
ATOM     28  C   UNL A   1      31.845  32.071  26.881  1.00  0.00     0.261 C 
BRANCH  28  29
ATOM     29  O   UNL A   1      32.919  33.066  26.883  1.00  0.00    -0.460 OA
BRANCH  29  30
ATOM     30  C   UNL A   1      33.252  33.801  27.997  1.00  0.00     0.338 C 
ATOM     31  O   UNL A   1      32.562  34.613  28.545  1.00  0.00    -0.246 OA
BRANCH  30  32
ATOM     32  C   UNL A   1      34.514  33.212  28.622  1.00  0.00     0.060 A 
ATOM     33  C   UNL A   1      34.431  31.977  29.291  1.00  0.00     0.016 A 
ATOM     34  C   UNL A   1      35.791  33.720  28.371  1.00  0.00     0.016 A 
ATOM     35  C   UNL A   1      35.598  31.227  29.591  1.00  0.00     0.010 A 
ATOM     36  C   UNL A   1      36.947  32.940  28.595  1.00  0.00     0.010 A 
ATOM     37  C   UNL A   1      36.875  31.688  29.232  1.00  0.00    -0.014 A 
BRANCH  37  38
ATOM     38  C   UNL A   1      38.116  31.043  29.788  1.00  0.00     0.031 A 
ATOM     39  C   UNL A   1      38.479  31.390  31.216  1.00  0.00     0.074 A 
ATOM     40  C   UNL A   1      38.920  30.171  29.135  1.00  0.00     0.049 A 
ATOM     41  N   UNL A   1      39.402  30.883  31.996  1.00  0.00    -0.248 NA
ATOM     42  C   UNL A   1      37.698  32.468  31.841  1.00  0.00     0.031 C 
ATOM     43  C   UNL A   1      38.800  29.751  27.741  1.00  0.00     0.029 A 
ATOM     44  N   UNL A   1      40.026  29.471  29.590  1.00  0.00    -0.354 N 
ATOM     45  C   UNL A   1      39.286  31.565  33.199  1.00  0.00     0.074 A 
ATOM     46  C   UNL A   1      38.281  32.585  33.018  1.00  0.00     0.031 C 
ATOM     47  C   UNL A   1      39.776  28.862  27.461  1.00  0.00     0.029 A 
ATOM     48  C   UNL A   1      40.593  28.631  28.656  1.00  0.00     0.049 A 
ATOM     49  H   UNL A   1      40.378  29.566  30.504  1.00  0.00     0.167 HD
ATOM     50  C   UNL A   1      39.904  31.343  34.380  1.00  0.00     0.037 A 
ATOM     51  C   UNL A   1      41.628  27.764  28.755  1.00  0.00     0.037 A 
ATOM     52  C   UNL A   1      40.902  30.345  34.616  1.00  0.00     0.049 A 
ATOM     53  C   UNL A   1      42.350  27.558  30.075  1.00  0.00     0.074 A 
ATOM     54  C   UNL A   1      41.526  30.019  35.807  1.00  0.00     0.029 A 
ATOM     55  N   UNL A   1      41.440  29.526  33.639  1.00  0.00    -0.354 N 
ATOM     56  N   UNL A   1      42.121  28.104  31.243  1.00  0.00    -0.248 NA
ATOM     57  C   UNL A   1      43.467  26.593  30.088  1.00  0.00     0.031 C 
ATOM     58  C   UNL A   1      42.482  29.035  35.542  1.00  0.00     0.029 A 
ATOM     59  C   UNL A   1      42.416  28.716  34.195  1.00  0.00     0.049 A 
ATOM     60  H   UNL A   1      41.170  29.519  32.694  1.00  0.00     0.167 HD
ATOM     61  C   UNL A   1      43.028  27.524  32.127  1.00  0.00     0.074 A 
ATOM     62  C   UNL A   1      43.811  26.578  31.368  1.00  0.00     0.031 C 
ATOM     63  C   UNL A   1      43.187  27.755  33.454  1.00  0.00     0.037 A 
BRANCH  50  64
ATOM     64  C   UNL A   1      39.481  32.209  35.526  1.00  0.00     0.064 A 
ATOM     65  C   UNL A   1      40.080  33.460  35.747  1.00  0.00     0.173 A 
ATOM     66  C   UNL A   1      38.491  31.778  36.417  1.00  0.00     0.173 A 
ATOM     67  F   UNL A   1      41.054  33.897  34.934  1.00  0.00    -0.203 F 
ATOM     68  C   UNL A   1      39.725  34.233  36.847  1.00  0.00     0.198 A 
ATOM     69  C   UNL A   1      38.118  32.570  37.498  1.00  0.00     0.198 A 
ATOM     70  F   UNL A   1      37.899  30.588  36.246  1.00  0.00    -0.203 F 
ATOM     71  F   UNL A   1      40.355  35.394  37.077  1.00  0.00    -0.200 F 
ATOM     72  C   UNL A   1      38.741  33.790  37.717  1.00  0.00     0.200 A 
ATOM     73  F   UNL A   1      37.165  32.144  38.338  1.00  0.00    -0.200 F 
ATOM     74  F   UNL A   1      38.402  34.534  38.779  1.00  0.00    -0.200 F 
ENDBRANCH  50  64
BRANCH  51  75
ATOM     75  C   UNL A   1      42.065  26.957  27.576  1.00  0.00     0.064 A 
ATOM     76  C   UNL A   1      41.540  25.675  27.341  1.00  0.00     0.173 A 
ATOM     77  C   UNL A   1      43.089  27.402  26.729  1.00  0.00     0.173 A 
ATOM     78  F   UNL A   1      40.595  25.180  28.154  1.00  0.00    -0.203 F 
ATOM     79  C   UNL A   1      42.037  24.866  26.320  1.00  0.00     0.198 A 
ATOM     80  C   UNL A   1      43.569  26.599  25.692  1.00  0.00     0.198 A 
ATOM     81  F   UNL A   1      43.644  28.607  26.924  1.00  0.00    -0.203 F 
ATOM     82  F   UNL A   1      41.561  23.623  26.160  1.00  0.00    -0.200 F 
ATOM     83  C   UNL A   1      43.050  25.329  25.494  1.00  0.00     0.200 A 
ATOM     84  F   UNL A   1      44.553  27.048  24.900  1.00  0.00    -0.200 F 
ATOM     85  F   UNL A   1      43.537  24.546  24.522  1.00  0.00    -0.200 F 
ENDBRANCH  51  75
BRANCH  63  86
ATOM     86  C   UNL A   1      44.215  26.957  34.207  1.00  0.00     0.064 A 
ATOM     87  C   UNL A   1      45.520  27.431  34.404  1.00  0.00     0.173 A 
ATOM     88  C   UNL A   1      43.860  25.744  34.819  1.00  0.00     0.173 A 
ATOM     89  F   UNL A   1      45.913  28.581  33.837  1.00  0.00    -0.203 F 
ATOM     90  C   UNL A   1      46.435  26.713  35.172  1.00  0.00     0.198 A 
ATOM     91  C   UNL A   1      44.770  25.043  35.609  1.00  0.00     0.198 A 
ATOM     92  F   UNL A   1      42.621  25.250  34.675  1.00  0.00    -0.203 F 
ATOM     93  F   UNL A   1      47.686  27.172  35.322  1.00  0.00    -0.200 F 
ATOM     94  C   UNL A   1      46.057  25.527  35.781  1.00  0.00     0.200 A 
ATOM     95  F   UNL A   1      44.395  23.906  36.211  1.00  0.00    -0.200 F 
ATOM     96  F   UNL A   1      46.934  24.847  36.534  1.00  0.00    -0.200 F 
ENDBRANCH  63  86
ENDBRANCH  37  38
ENDBRANCH  30  32
ENDBRANCH  29  30
ENDBRANCH  28  29
ENDBRANCH  27  28
ENDBRANCH  26  27
ENDBRANCH  25  26
ENDBRANCH   1  25
TORSDOF 21
ENDMDL
MODEL 2
REMARK VINA RESULT:     -10.3      4.855      9.211
REMARK SMILES CCCNC(=O)CN(C)C(=O)C[N@@H+]1CCCC[C@H]1C(=O)OCCOCCOC(=O)c1ccc(-c2c3nc(c(-c4c(F)c(F)c(F)c(F)c4F)c4ccc([nH]4)c(-c4c(F)c(F)c(F)c(F)c4F)c4nc(c(-c5c(F)c(F)c(F)c(F)c5F)c5ccc2[nH]5)C=C4)C=C3)cc1
REMARK SMILES IDX 22 1 21 2 19 3 20 4 18 5 13 6 14 7 15 9 17 10 16 11 12 12
REMARK SMILES IDX 10 13 11 14 8 15 9 16 7 17 5 18 4 19 6 21 3 22 2 23 1 24
REMARK SMILES IDX 23 25 24 26 25 27 26 28 27 29 28 30 29 31 30 32 31 33 92 34
REMARK SMILES IDX 32 35 91 36 33 37 34 38 35 39 85 40 36 41 90 42 84 43 86 44
REMARK SMILES IDX 37 45 89 46 83 47 82 48 38 50 70 51 50 52 69 53 51 54 54 55
REMARK SMILES IDX 68 56 87 57 52 58 53 59 67 61 88 62 55 63 39 64 40 65 48 66
REMARK SMILES IDX 41 67 42 68 46 69 49 70 43 71 44 72 47 73 45 74 71 75 72 76
REMARK SMILES IDX 80 77 73 78 74 79 78 80 81 81 75 82 76 83 79 84 77 85 56 86
REMARK SMILES IDX 57 87 65 88 58 89 59 90 63 91 66 92 60 93 61 94 64 95 62 96
REMARK H PARENT 13 8 4 20 86 49 54 60
REMARK Flexibility Score: inf
ROOT
ATOM      1  C   UNL A   1      36.710  23.191  23.742  1.00  0.00     0.261 C 
ENDROOT
BRANCH   1   2
ATOM      2  O   UNL A   1      35.610  22.961  22.876  1.00  0.00    -0.459 OA
BRANCH   2   3
ATOM      3  C   UNL A   1      34.552  23.759  23.198  1.00  0.00     0.365 C 
ATOM      4  O   UNL A   1      34.033  24.542  22.410  1.00  0.00    -0.245 OA
BRANCH   3   5
ATOM      5  C   UNL A   1      33.947  23.351  24.552  1.00  0.00     0.295 C 
ATOM      6  N   UNL A   1      33.176  24.491  25.151  1.00  0.00    -0.315 N 
ATOM      7  C   UNL A   1      32.339  24.045  26.266  1.00  0.00     0.263 C 
ATOM      8  H   UNL A   1      32.574  24.806  24.389  1.00  0.00     0.349 HD
ATOM      9  C   UNL A   1      31.375  22.896  25.922  1.00  0.00     0.062 C 
ATOM     10  C   UNL A   1      33.112  22.052  24.343  1.00  0.00     0.078 C 
ATOM     11  C   UNL A   1      31.623  22.259  24.564  1.00  0.00     0.013 C 
BRANCH   6  12
ATOM     12  C   UNL A   1      33.971  25.730  25.499  1.00  0.00     0.364 C 
BRANCH  12  13
ATOM     13  C   UNL A   1      33.321  27.060  24.875  1.00  0.00     0.277 C 
ATOM     14  O   UNL A   1      34.006  27.796  24.157  1.00  0.00    -0.268 OA
BRANCH  13  15
ATOM     15  N   UNL A   1      31.988  27.430  25.248  1.00  0.00    -0.332 N 
ATOM     16  C   UNL A   1      31.691  27.629  26.661  1.00  0.00     0.147 C 
BRANCH  15  17
ATOM     17  C   UNL A   1      30.790  27.227  24.342  1.00  0.00     0.219 C 
BRANCH  17  18
ATOM     18  C   UNL A   1      30.098  27.973  23.014  1.00  0.00     0.239 C 
ATOM     19  N   UNL A   1      29.282  29.046  22.730  1.00  0.00    -0.355 N 
ATOM     20  H   UNL A   1      29.622  29.387  21.872  1.00  0.00     0.163 HD
ATOM     21  O   UNL A   1      30.564  27.527  21.935  1.00  0.00    -0.273 OA
BRANCH  19  22
ATOM     22  C   UNL A   1      28.084  30.005  23.077  1.00  0.00     0.115 C 
BRANCH  22  23
ATOM     23  C   UNL A   1      27.828  31.667  23.112  1.00  0.00     0.018 C 
ATOM     24  C   UNL A   1      28.644  32.919  22.663  1.00  0.00     0.006 C 
ENDBRANCH  22  23
ENDBRANCH  19  22
ENDBRANCH  17  18
ENDBRANCH  15  17
ENDBRANCH  13  15
ENDBRANCH  12  13
ENDBRANCH   6  12
ENDBRANCH   3   5
ENDBRANCH   2   3
ENDBRANCH   1   2
BRANCH   1  25
ATOM     25  C   UNL A   1      37.158  21.851  24.391  1.00  0.00     0.202 C 
BRANCH  25  26
ATOM     26  O   UNL A   1      37.949  21.868  25.604  1.00  0.00    -0.374 OA
BRANCH  26  27
ATOM     27  C   UNL A   1      39.289  21.329  25.822  1.00  0.00     0.202 C 
BRANCH  27  28
ATOM     28  C   UNL A   1      39.660  19.752  26.120  1.00  0.00     0.261 C 
BRANCH  28  29
ATOM     29  O   UNL A   1      40.837  19.157  25.484  1.00  0.00    -0.460 OA
BRANCH  29  30
ATOM     30  C   UNL A   1      42.038  19.003  26.136  1.00  0.00     0.338 C 
ATOM     31  O   UNL A   1      42.625  17.973  26.312  1.00  0.00    -0.246 OA
BRANCH  30  32
ATOM     32  C   UNL A   1      42.674  20.376  26.337  1.00  0.00     0.060 A 
ATOM     33  C   UNL A   1      43.104  21.100  25.210  1.00  0.00     0.016 A 
ATOM     34  C   UNL A   1      42.645  21.052  27.560  1.00  0.00     0.016 A 
ATOM     35  C   UNL A   1      43.384  22.489  25.296  1.00  0.00     0.010 A 
ATOM     36  C   UNL A   1      42.845  22.448  27.631  1.00  0.00     0.010 A 
ATOM     37  C   UNL A   1      43.241  23.190  26.504  1.00  0.00    -0.014 A 
BRANCH  37  38
ATOM     38  C   UNL A   1      43.797  24.580  26.664  1.00  0.00     0.031 A 
ATOM     39  C   UNL A   1      42.832  25.646  27.139  1.00  0.00     0.074 A 
ATOM     40  C   UNL A   1      45.078  24.955  26.440  1.00  0.00     0.049 A 
ATOM     41  N   UNL A   1      43.059  26.886  27.497  1.00  0.00    -0.248 NA
ATOM     42  C   UNL A   1      41.415  25.258  27.202  1.00  0.00     0.031 C 
ATOM     43  C   UNL A   1      46.153  24.115  25.917  1.00  0.00     0.029 A 
ATOM     44  N   UNL A   1      45.693  26.181  26.638  1.00  0.00    -0.354 N 
ATOM     45  C   UNL A   1      41.820  27.402  27.849  1.00  0.00     0.074 A 
ATOM     46  C   UNL A   1      40.835  26.386  27.567  1.00  0.00     0.031 C 
ATOM     47  C   UNL A   1      47.289  24.841  25.850  1.00  0.00     0.029 A 
ATOM     48  C   UNL A   1      47.037  26.201  26.336  1.00  0.00     0.049 A 
ATOM     49  H   UNL A   1      45.209  26.973  26.966  1.00  0.00     0.167 HD
ATOM     50  C   UNL A   1      41.509  28.590  28.415  1.00  0.00     0.037 A 
ATOM     51  C   UNL A   1      47.960  27.184  26.457  1.00  0.00     0.037 A 
ATOM     52  C   UNL A   1      42.443  29.631  28.720  1.00  0.00     0.049 A 
ATOM     53  C   UNL A   1      47.589  28.533  27.047  1.00  0.00     0.074 A 
ATOM     54  C   UNL A   1      42.208  30.836  29.355  1.00  0.00     0.029 A 
ATOM     55  N   UNL A   1      43.786  29.600  28.392  1.00  0.00    -0.354 N 
ATOM     56  N   UNL A   1      46.440  28.948  27.518  1.00  0.00    -0.248 NA
ATOM     57  C   UNL A   1      48.660  29.544  27.139  1.00  0.00     0.031 C 
ATOM     58  C   UNL A   1      43.402  31.562  29.367  1.00  0.00     0.029 A 
ATOM     59  C   UNL A   1      44.389  30.784  28.783  1.00  0.00     0.049 A 
ATOM     60  H   UNL A   1      44.245  28.851  27.950  1.00  0.00     0.167 HD
ATOM     61  C   UNL A   1      46.659  30.239  27.994  1.00  0.00     0.074 A 
ATOM     62  C   UNL A   1      48.051  30.543  27.763  1.00  0.00     0.031 C 
ATOM     63  C   UNL A   1      45.779  31.090  28.578  1.00  0.00     0.037 A 
BRANCH  50  64
ATOM     64  C   UNL A   1      40.068  28.805  28.760  1.00  0.00     0.064 A 
ATOM     65  C   UNL A   1      39.586  28.544  30.054  1.00  0.00     0.173 A 
ATOM     66  C   UNL A   1      39.162  29.251  27.791  1.00  0.00     0.173 A 
ATOM     67  F   UNL A   1      40.416  28.086  31.004  1.00  0.00    -0.203 F 
ATOM     68  C   UNL A   1      38.237  28.689  30.352  1.00  0.00     0.198 A 
ATOM     69  C   UNL A   1      37.818  29.425  28.103  1.00  0.00     0.198 A 
ATOM     70  F   UNL A   1      39.579  29.506  26.542  1.00  0.00    -0.203 F 
ATOM     71  F   UNL A   1      37.786  28.372  31.574  1.00  0.00    -0.200 F 
ATOM     72  C   UNL A   1      37.356  29.135  29.378  1.00  0.00     0.200 A 
ATOM     73  F   UNL A   1      36.966  29.859  27.164  1.00  0.00    -0.200 F 
ATOM     74  F   UNL A   1      36.054  29.270  29.666  1.00  0.00    -0.200 F 
ENDBRANCH  50  64
BRANCH  51  75
ATOM     75  C   UNL A   1      49.378  26.957  26.047  1.00  0.00     0.064 A 
ATOM     76  C   UNL A   1      49.790  27.159  24.719  1.00  0.00     0.173 A 
ATOM     77  C   UNL A   1      50.318  26.431  26.944  1.00  0.00     0.173 A 
ATOM     78  F   UNL A   1      48.915  27.611  23.809  1.00  0.00    -0.203 F 
ATOM     79  C   UNL A   1      51.079  26.824  24.303  1.00  0.00     0.198 A 
ATOM     80  C   UNL A   1      51.615  26.118  26.530  1.00  0.00     0.198 A 
ATOM     81  F   UNL A   1      49.971  26.193  28.217  1.00  0.00    -0.203 F 
ATOM     82  F   UNL A   1      51.423  26.968  23.016  1.00  0.00    -0.200 F 
ATOM     83  C   UNL A   1      51.991  26.306  25.209  1.00  0.00     0.200 A 
ATOM     84  F   UNL A   1      52.492  25.611  27.407  1.00  0.00    -0.200 F 
ATOM     85  F   UNL A   1      53.224  25.971  24.805  1.00  0.00    -0.200 F 
ENDBRANCH  51  75
BRANCH  63  86
ATOM     86  C   UNL A   1      46.276  32.426  29.056  1.00  0.00     0.064 A 
ATOM     87  C   UNL A   1      46.826  32.595  30.334  1.00  0.00     0.173 A 
ATOM     88  C   UNL A   1      46.285  33.530  28.188  1.00  0.00     0.173 A 
ATOM     89  F   UNL A   1      46.837  31.575  31.206  1.00  0.00    -0.203 F 
ATOM     90  C   UNL A   1      47.354  33.823  30.732  1.00  0.00     0.198 A 
ATOM     91  C   UNL A   1      46.839  34.748  28.579  1.00  0.00     0.198 A 
ATOM     92  F   UNL A   1      45.784  33.420  26.949  1.00  0.00    -0.203 F 
ATOM     93  F   UNL A   1      47.848  33.969  31.969  1.00  0.00    -0.200 F 
ATOM     94  C   UNL A   1      47.368  34.894  29.851  1.00  0.00     0.200 A 
ATOM     95  F   UNL A   1      46.868  35.775  27.719  1.00  0.00    -0.200 F 
ATOM     96  F   UNL A   1      47.892  36.068  30.229  1.00  0.00    -0.200 F 
ENDBRANCH  63  86
ENDBRANCH  37  38
ENDBRANCH  30  32
ENDBRANCH  29  30
ENDBRANCH  28  29
ENDBRANCH  27  28
ENDBRANCH  26  27
ENDBRANCH  25  26
ENDBRANCH   1  25
TORSDOF 21
ENDMDL
MODEL 3
REMARK VINA RESULT:     -10.1      1.071      2.238
REMARK SMILES CCCNC(=O)CN(C)C(=O)C[N@@H+]1CCCC[C@H]1C(=O)OCCOCCOC(=O)c1ccc(-c2c3nc(c(-c4c(F)c(F)c(F)c(F)c4F)c4ccc([nH]4)c(-c4c(F)c(F)c(F)c(F)c4F)c4nc(c(-c5c(F)c(F)c(F)c(F)c5F)c5ccc2[nH]5)C=C4)C=C3)cc1
REMARK SMILES IDX 22 1 21 2 19 3 20 4 18 5 13 6 14 7 15 9 17 10 16 11 12 12
REMARK SMILES IDX 10 13 11 14 8 15 9 16 7 17 5 18 4 19 6 21 3 22 2 23 1 24
REMARK SMILES IDX 23 25 24 26 25 27 26 28 27 29 28 30 29 31 30 32 31 33 92 34
REMARK SMILES IDX 32 35 91 36 33 37 34 38 35 39 85 40 36 41 90 42 84 43 86 44
REMARK SMILES IDX 37 45 89 46 83 47 82 48 38 50 70 51 50 52 69 53 51 54 54 55
REMARK SMILES IDX 68 56 87 57 52 58 53 59 67 61 88 62 55 63 39 64 40 65 48 66
REMARK SMILES IDX 41 67 42 68 46 69 49 70 43 71 44 72 47 73 45 74 71 75 72 76
REMARK SMILES IDX 80 77 73 78 74 79 78 80 81 81 75 82 76 83 79 84 77 85 56 86
REMARK SMILES IDX 57 87 65 88 58 89 59 90 63 91 66 92 60 93 61 94 64 95 62 96
REMARK H PARENT 13 8 4 20 86 49 54 60
REMARK Flexibility Score: inf
ROOT
ATOM      1  C   UNL A   1      33.864  28.597  24.384  1.00  0.00     0.261 C 
ENDROOT
BRANCH   1   2
ATOM      2  O   UNL A   1      33.407  27.833  23.280  1.00  0.00    -0.459 OA
BRANCH   2   3
ATOM      3  C   UNL A   1      33.375  26.502  23.580  1.00  0.00     0.365 C 
ATOM      4  O   UNL A   1      34.347  25.880  23.997  1.00  0.00    -0.245 OA
BRANCH   3   5
ATOM      5  C   UNL A   1      31.930  25.975  23.587  1.00  0.00     0.295 C 
ATOM      6  N   UNL A   1      31.305  26.165  24.939  1.00  0.00    -0.315 N 
ATOM      7  C   UNL A   1      29.856  25.968  24.891  1.00  0.00     0.263 C 
ATOM      8  H   UNL A   1      31.501  27.141  25.164  1.00  0.00     0.349 HD
ATOM      9  C   UNL A   1      29.125  26.845  23.859  1.00  0.00     0.062 C 
ATOM     10  C   UNL A   1      31.155  26.659  22.421  1.00  0.00     0.078 C 
ATOM     11  C   UNL A   1      30.048  27.582  22.902  1.00  0.00     0.013 C 
BRANCH   6  12
ATOM     12  C   UNL A   1      31.943  25.411  26.085  1.00  0.00     0.364 C 
BRANCH  12  13
ATOM     13  C   UNL A   1      31.688  23.828  25.983  1.00  0.00     0.277 C 
ATOM     14  O   UNL A   1      30.939  23.276  26.796  1.00  0.00    -0.268 OA
BRANCH  13  15
ATOM     15  N   UNL A   1      32.417  23.061  25.017  1.00  0.00    -0.332 N 
ATOM     16  C   UNL A   1      31.698  22.523  23.870  1.00  0.00     0.147 C 
BRANCH  15  17
ATOM     17  C   UNL A   1      33.764  22.430  25.310  1.00  0.00     0.219 C 
BRANCH  17  18
ATOM     18  C   UNL A   1      34.431  20.897  25.360  1.00  0.00     0.239 C 
ATOM     19  N   UNL A   1      34.092  19.602  25.034  1.00  0.00    -0.355 N 
ATOM     20  H   UNL A   1      34.935  19.203  24.720  1.00  0.00     0.163 HD
ATOM     21  O   UNL A   1      35.657  20.932  25.636  1.00  0.00    -0.273 OA
BRANCH  19  22
ATOM     22  C   UNL A   1      33.044  18.435  24.908  1.00  0.00     0.115 C 
BRANCH  22  23
ATOM     23  C   UNL A   1      32.780  16.952  25.657  1.00  0.00     0.018 C 
ATOM     24  C   UNL A   1      33.190  15.477  25.359  1.00  0.00     0.006 C 
ENDBRANCH  22  23
ENDBRANCH  19  22
ENDBRANCH  17  18
ENDBRANCH  15  17
ENDBRANCH  13  15
ENDBRANCH  12  13
ENDBRANCH   6  12
ENDBRANCH   3   5
ENDBRANCH   2   3
ENDBRANCH   1   2
BRANCH   1  25
ATOM     25  C   UNL A   1      32.676  29.387  25.004  1.00  0.00     0.202 C 
BRANCH  25  26
ATOM     26  O   UNL A   1      32.902  30.246  26.147  1.00  0.00    -0.374 OA
BRANCH  26  27
ATOM     27  C   UNL A   1      31.927  31.038  26.895  1.00  0.00     0.202 C 
BRANCH  27  28
ATOM     28  C   UNL A   1      31.816  32.681  26.900  1.00  0.00     0.261 C 
BRANCH  28  29
ATOM     29  O   UNL A   1      33.024  33.483  27.103  1.00  0.00    -0.460 OA
BRANCH  29  30
ATOM     30  C   UNL A   1      33.292  34.141  28.281  1.00  0.00     0.338 C 
ATOM     31  O   UNL A   1      32.557  34.888  28.861  1.00  0.00    -0.246 OA
BRANCH  30  32
ATOM     32  C   UNL A   1      34.550  33.545  28.907  1.00  0.00     0.060 A 
ATOM     33  C   UNL A   1      34.447  32.343  29.631  1.00  0.00     0.016 A 
ATOM     34  C   UNL A   1      35.835  34.006  28.610  1.00  0.00     0.016 A 
ATOM     35  C   UNL A   1      35.599  31.575  29.942  1.00  0.00     0.010 A 
ATOM     36  C   UNL A   1      36.974  33.206  28.847  1.00  0.00     0.010 A 
ATOM     37  C   UNL A   1      36.880  31.985  29.539  1.00  0.00    -0.014 A 
BRANCH  37  38
ATOM     38  C   UNL A   1      38.115  31.330  30.100  1.00  0.00     0.031 A 
ATOM     39  C   UNL A   1      38.505  31.716  31.511  1.00  0.00     0.074 A 
ATOM     40  C   UNL A   1      38.890  30.419  29.465  1.00  0.00     0.049 A 
ATOM     41  N   UNL A   1      39.428  31.214  32.295  1.00  0.00    -0.248 NA
ATOM     42  C   UNL A   1      37.757  32.832  32.110  1.00  0.00     0.031 C 
ATOM     43  C   UNL A   1      38.742  29.957  28.088  1.00  0.00     0.029 A 
ATOM     44  N   UNL A   1      39.986  29.710  29.929  1.00  0.00    -0.354 N 
ATOM     45  C   UNL A   1      39.343  31.937  33.476  1.00  0.00     0.074 A 
ATOM     46  C   UNL A   1      38.359  32.974  33.275  1.00  0.00     0.031 C 
ATOM     47  C   UNL A   1      39.694  29.037  27.825  1.00  0.00     0.029 A 
ATOM     48  C   UNL A   1      40.522  28.827  29.016  1.00  0.00     0.049 A 
ATOM     49  H   UNL A   1      40.353  29.827  30.834  1.00  0.00     0.167 HD
ATOM     50  C   UNL A   1      39.973  31.740  34.655  1.00  0.00     0.037 A 
ATOM     51  C   UNL A   1      41.539  27.940  29.129  1.00  0.00     0.037 A 
ATOM     52  C   UNL A   1      40.952  30.728  34.911  1.00  0.00     0.049 A 
ATOM     53  C   UNL A   1      42.274  27.762  30.446  1.00  0.00     0.074 A 
ATOM     54  C   UNL A   1      41.585  30.428  36.104  1.00  0.00     0.029 A 
ATOM     55  N   UNL A   1      41.458  29.866  33.955  1.00  0.00    -0.354 N 
ATOM     56  N   UNL A   1      42.074  28.351  31.598  1.00  0.00    -0.248 NA
ATOM     57  C   UNL A   1      43.370  26.773  30.476  1.00  0.00     0.031 C 
ATOM     58  C   UNL A   1      42.515  29.414  35.859  1.00  0.00     0.029 A 
ATOM     59  C   UNL A   1      42.424  29.053  34.524  1.00  0.00     0.049 A 
ATOM     60  H   UNL A   1      41.175  29.834  33.014  1.00  0.00     0.167 HD
ATOM     61  C   UNL A   1      42.980  27.780  32.489  1.00  0.00     0.074 A 
ATOM     62  C   UNL A   1      43.731  26.792  31.751  1.00  0.00     0.031 C 
ATOM     63  C   UNL A   1      43.163  28.051  33.805  1.00  0.00     0.037 A 
BRANCH  50  64
ATOM     64  C   UNL A   1      39.586  32.653  35.777  1.00  0.00     0.064 A 
ATOM     65  C   UNL A   1      40.275  33.856  36.003  1.00  0.00     0.173 A 
ATOM     66  C   UNL A   1      38.539  32.314  36.642  1.00  0.00     0.173 A 
ATOM     67  F   UNL A   1      41.304  34.203  35.215  1.00  0.00    -0.203 F 
ATOM     68  C   UNL A   1      39.949  34.670  37.082  1.00  0.00     0.198 A 
ATOM     69  C   UNL A   1      38.196  33.147  37.702  1.00  0.00     0.198 A 
ATOM     70  F   UNL A   1      37.859  31.171  36.467  1.00  0.00    -0.203 F 
ATOM     71  F   UNL A   1      40.661  35.780  37.318  1.00  0.00    -0.200 F 
ATOM     72  C   UNL A   1      38.907  34.317  37.926  1.00  0.00     0.200 A 
ATOM     73  F   UNL A   1      37.188  32.810  38.517  1.00  0.00    -0.200 F 
ATOM     74  F   UNL A   1      38.596  35.100  38.968  1.00  0.00    -0.200 F 
ENDBRANCH  50  64
BRANCH  51  75
ATOM     75  C   UNL A   1      41.941  27.085  27.973  1.00  0.00     0.064 A 
ATOM     76  C   UNL A   1      42.849  27.552  27.008  1.00  0.00     0.173 A 
ATOM     77  C   UNL A   1      41.346  25.836  27.751  1.00  0.00     0.173 A 
ATOM     78  F   UNL A   1      43.406  28.764  27.145  1.00  0.00    -0.203 F 
ATOM     79  C   UNL A   1      43.128  26.812  25.859  1.00  0.00     0.198 A 
ATOM     80  C   UNL A   1      41.645  25.086  26.611  1.00  0.00     0.198 A 
ATOM     81  F   UNL A   1      40.453  25.353  28.626  1.00  0.00    -0.203 F 
ATOM     82  F   UNL A   1      43.949  27.312  24.925  1.00  0.00    -0.200 F 
ATOM     83  C   UNL A   1      42.527  25.578  25.662  1.00  0.00     0.200 A 
ATOM     84  F   UNL A   1      41.057  23.896  26.422  1.00  0.00    -0.200 F 
ATOM     85  F   UNL A   1      42.784  24.874  24.551  1.00  0.00    -0.200 F 
ENDBRANCH  51  75
BRANCH  63  86
ATOM     86  C   UNL A   1      44.183  27.255  34.571  1.00  0.00     0.064 A 
ATOM     87  C   UNL A   1      43.871  26.017  35.151  1.00  0.00     0.173 A 
ATOM     88  C   UNL A   1      45.514  27.695  34.644  1.00  0.00     0.173 A 
ATOM     89  F   UNL A   1      42.613  25.552  35.115  1.00  0.00    -0.203 F 
ATOM     90  C   UNL A   1      44.850  25.257  35.789  1.00  0.00     0.198 A 
ATOM     91  C   UNL A   1      46.496  26.919  35.259  1.00  0.00     0.198 A 
ATOM     92  F   UNL A   1      45.872  28.865  34.095  1.00  0.00    -0.203 F 
ATOM     93  F   UNL A   1      44.522  24.090  36.362  1.00  0.00    -0.200 F 
ATOM     94  C   UNL A   1      46.162  25.703  35.834  1.00  0.00     0.200 A 
ATOM     95  F   UNL A   1      47.766  27.346  35.285  1.00  0.00    -0.200 F 
ATOM     96  F   UNL A   1      47.105  24.963  36.432  1.00  0.00    -0.200 F 
ENDBRANCH  63  86
ENDBRANCH  37  38
ENDBRANCH  30  32
ENDBRANCH  29  30
ENDBRANCH  28  29
ENDBRANCH  27  28
ENDBRANCH  26  27
ENDBRANCH  25  26
ENDBRANCH   1  25
TORSDOF 21
ENDMDL
