MODEL 1
REMARK VINA RESULT:     -11.4      0.000      0.000
REMARK SMILES C[C@H](NC(=O)N1CC[C@H](C(=O)OCCOCCOC(=O)c2ccc(-c3c4nc(c(-c5c(F)c(F)c(F)c(F)c5F)c5ccc([nH]5)c(-c5c(F)c(F)c(F)c(F)c5F)c5nc(c(-c6c(F)c(F)c(F)c(F)c6F)c6ccc3[nH]6)C=C5)C=C4)cc2)[C@@H]1C)[C@@H]1CCCO1
REMARK SMILES IDX 14 1 13 2 12 3 10 4 11 5 9 6 6 7 7 8 84 9 8 10 85 11 4 12
REMARK SMILES IDX 3 13 5 15 2 16 1 17 86 18 87 19 90 20 88 21 89 22 15 23
REMARK SMILES IDX 16 24 17 25 18 26 19 27 20 28 21 29 22 30 83 31 23 32 82 33
REMARK SMILES IDX 24 34 25 35 26 36 76 37 27 38 81 39 75 40 77 41 28 42 80 43
REMARK SMILES IDX 74 44 73 45 29 47 61 48 41 49 60 50 42 51 45 52 59 53 78 54
REMARK SMILES IDX 43 55 44 56 58 58 79 59 46 60 30 61 31 62 39 63 32 64 33 65
REMARK SMILES IDX 37 66 40 67 34 68 35 69 38 70 36 71 62 72 63 73 71 74 64 75
REMARK SMILES IDX 65 76 69 77 72 78 66 79 67 80 70 81 68 82 47 83 48 84 56 85
REMARK SMILES IDX 49 86 50 87 54 88 57 89 51 90 52 91 55 92 53 93
REMARK H PARENT 3 14 77 46 45 57
REMARK Flexibility Score: inf
ROOT
ATOM      1  C   UNL A   1      36.371  21.491  25.589  1.00  0.00     0.202 C 
ENDROOT
BRANCH   1   2
ATOM      2  C   UNL A   1      34.866  21.211  25.511  1.00  0.00     0.261 C 
BRANCH   2   3
ATOM      3  O   UNL A   1      34.126  22.114  26.358  1.00  0.00    -0.463 OA
BRANCH   3   4
ATOM      4  C   UNL A   1      32.966  22.619  25.848  1.00  0.00     0.311 C 
ATOM      5  O   UNL A   1      31.952  22.846  26.492  1.00  0.00    -0.252 OA
BRANCH   4   6
ATOM      6  C   UNL A   1      33.112  22.856  24.364  1.00  0.00     0.123 C 
ATOM      7  N   UNL A   1      32.747  24.752  22.990  1.00  0.00    -0.321 N 
ATOM      8  C   UNL A   1      31.439  24.252  23.343  1.00  0.00     0.122 C 
ATOM      9  C   UNL A   1      33.734  24.199  23.906  1.00  0.00     0.098 C 
ATOM     10  C   UNL A   1      31.726  22.806  23.696  1.00  0.00     0.039 C 
ATOM     11  C   UNL A   1      34.113  25.257  24.944  1.00  0.00     0.032 C 
BRANCH   7  12
ATOM     12  C   UNL A   1      32.892  25.854  22.206  1.00  0.00     0.317 C 
ATOM     13  N   UNL A   1      32.084  26.930  22.399  1.00  0.00    -0.333 N 
ATOM     14  H   UNL A   1      31.491  27.168  21.649  1.00  0.00     0.165 HD
ATOM     15  O   UNL A   1      33.683  25.890  21.262  1.00  0.00    -0.249 OA
BRANCH  13  16
ATOM     16  C   UNL A   1      31.990  27.785  23.600  1.00  0.00     0.109 C 
ATOM     17  C   UNL A   1      32.990  28.932  23.684  1.00  0.00     0.034 C 
BRANCH  16  18
ATOM     18  C   UNL A   1      30.563  28.294  23.924  1.00  0.00     0.140 C 
ATOM     19  C   UNL A   1      29.540  27.984  22.841  1.00  0.00     0.036 C 
ATOM     20  O   UNL A   1      30.509  29.713  24.164  1.00  0.00    -0.376 OA
ATOM     21  C   UNL A   1      28.535  29.089  23.044  1.00  0.00     0.031 C 
ATOM     22  C   UNL A   1      29.438  30.255  23.372  1.00  0.00     0.160 C 
ENDBRANCH  16  18
ENDBRANCH  13  16
ENDBRANCH   7  12
ENDBRANCH   4   6
ENDBRANCH   3   4
ENDBRANCH   2   3
ENDBRANCH   1   2
BRANCH   1  23
ATOM     23  O   UNL A   1      37.225  20.850  24.639  1.00  0.00    -0.374 OA
BRANCH  23  24
ATOM     24  C   UNL A   1      37.772  19.590  25.000  1.00  0.00     0.202 C 
BRANCH  24  25
ATOM     25  C   UNL A   1      39.236  19.515  25.458  1.00  0.00     0.261 C 
BRANCH  25  26
ATOM     26  O   UNL A   1      39.776  20.775  25.837  1.00  0.00    -0.460 OA
BRANCH  26  27
ATOM     27  C   UNL A   1      40.542  20.704  26.949  1.00  0.00     0.338 C 
ATOM     28  O   UNL A   1      41.055  19.715  27.450  1.00  0.00    -0.246 OA
BRANCH  27  29
ATOM     29  C   UNL A   1      40.811  22.069  27.398  1.00  0.00     0.060 A 
ATOM     30  C   UNL A   1      40.080  23.102  26.802  1.00  0.00     0.016 A 
ATOM     31  C   UNL A   1      41.775  22.323  28.375  1.00  0.00     0.016 A 
ATOM     32  C   UNL A   1      40.353  24.416  27.148  1.00  0.00     0.010 A 
ATOM     33  C   UNL A   1      42.052  23.643  28.717  1.00  0.00     0.010 A 
ATOM     34  C   UNL A   1      41.371  24.689  28.071  1.00  0.00    -0.014 A 
BRANCH  34  35
ATOM     35  C   UNL A   1      41.847  26.076  28.220  1.00  0.00     0.031 A 
ATOM     36  C   UNL A   1      43.182  26.433  27.638  1.00  0.00     0.074 A 
ATOM     37  C   UNL A   1      41.078  26.992  28.828  1.00  0.00     0.049 A 
ATOM     38  N   UNL A   1      43.817  27.576  27.651  1.00  0.00    -0.248 NA
ATOM     39  C   UNL A   1      43.905  25.350  26.950  1.00  0.00     0.031 C 
ATOM     40  C   UNL A   1      39.750  26.742  29.383  1.00  0.00     0.029 A 
ATOM     41  N   UNL A   1      41.306  28.319  29.074  1.00  0.00    -0.354 N 
ATOM     42  C   UNL A   1      45.009  27.348  26.977  1.00  0.00     0.074 A 
ATOM     43  C   UNL A   1      45.034  25.950  26.610  1.00  0.00     0.031 C 
ATOM     44  C   UNL A   1      39.274  27.886  29.903  1.00  0.00     0.029 A 
ATOM     45  C   UNL A   1      40.282  28.933  29.746  1.00  0.00     0.049 A 
ATOM     46  H   UNL A   1      42.126  28.787  28.795  1.00  0.00     0.167 HD
ATOM     47  C   UNL A   1      45.985  28.236  26.678  1.00  0.00     0.037 A 
ATOM     48  C   UNL A   1      40.185  30.198  30.193  1.00  0.00     0.037 A 
ATOM     49  C   UNL A   1      45.943  29.621  27.066  1.00  0.00     0.049 A 
ATOM     50  C   UNL A   1      41.327  31.145  29.928  1.00  0.00     0.074 A 
ATOM     51  C   UNL A   1      46.871  30.617  26.823  1.00  0.00     0.029 A 
ATOM     52  N   UNL A   1      44.912  30.202  27.792  1.00  0.00    -0.354 N 
ATOM     53  N   UNL A   1      42.444  30.935  29.271  1.00  0.00    -0.248 NA
ATOM     54  C   UNL A   1      41.194  32.503  30.466  1.00  0.00     0.031 C 
ATOM     55  C   UNL A   1      46.429  31.784  27.455  1.00  0.00     0.029 A 
ATOM     56  C   UNL A   1      45.194  31.536  28.033  1.00  0.00     0.049 A 
ATOM     57  H   UNL A   1      44.099  29.734  28.092  1.00  0.00     0.167 HD
ATOM     58  C   UNL A   1      43.130  32.142  29.286  1.00  0.00     0.074 A 
ATOM     59  C   UNL A   1      42.295  33.082  30.008  1.00  0.00     0.031 C 
ATOM     60  C   UNL A   1      44.338  32.450  28.751  1.00  0.00     0.037 A 
BRANCH  47  61
ATOM     61  C   UNL A   1      47.182  27.721  25.931  1.00  0.00     0.064 A 
ATOM     62  C   UNL A   1      48.318  27.234  26.598  1.00  0.00     0.173 A 
ATOM     63  C   UNL A   1      47.199  27.722  24.529  1.00  0.00     0.173 A 
ATOM     64  F   UNL A   1      48.365  27.227  27.939  1.00  0.00    -0.203 F 
ATOM     65  C   UNL A   1      49.439  26.806  25.889  1.00  0.00     0.198 A 
ATOM     66  C   UNL A   1      48.307  27.259  23.822  1.00  0.00     0.198 A 
ATOM     67  F   UNL A   1      46.142  28.174  23.839  1.00  0.00    -0.203 F 
ATOM     68  F   UNL A   1      50.536  26.409  26.548  1.00  0.00    -0.200 F 
ATOM     69  C   UNL A   1      49.430  26.812  24.503  1.00  0.00     0.200 A 
ATOM     70  F   UNL A   1      48.292  27.255  22.483  1.00  0.00    -0.200 F 
ATOM     71  F   UNL A   1      50.508  26.402  23.822  1.00  0.00    -0.200 F 
ENDBRANCH  47  61
BRANCH  48  72
ATOM     72  C   UNL A   1      38.967  30.641  30.918  1.00  0.00     0.064 A 
ATOM     73  C   UNL A   1      37.853  31.131  30.222  1.00  0.00     0.173 A 
ATOM     74  C   UNL A   1      38.887  30.584  32.318  1.00  0.00     0.173 A 
ATOM     75  F   UNL A   1      37.887  31.223  28.885  1.00  0.00    -0.203 F 
ATOM     76  C   UNL A   1      36.714  31.565  30.899  1.00  0.00     0.198 A 
ATOM     77  C   UNL A   1      37.737  30.989  32.992  1.00  0.00     0.198 A 
ATOM     78  F   UNL A   1      39.923  30.119  33.032  1.00  0.00    -0.203 F 
ATOM     79  F   UNL A   1      35.682  32.070  30.212  1.00  0.00    -0.200 F 
ATOM     80  C   UNL A   1      36.655  31.487  32.282  1.00  0.00     0.200 A 
ATOM     81  F   UNL A   1      37.678  30.896  34.327  1.00  0.00    -0.200 F 
ATOM     82  F   UNL A   1      35.558  31.897  32.933  1.00  0.00    -0.200 F 
ENDBRANCH  48  72
BRANCH  60  83
ATOM     83  C   UNL A   1      44.805  33.871  28.888  1.00  0.00     0.064 A 
ATOM     84  C   UNL A   1      45.551  34.300  29.995  1.00  0.00     0.173 A 
ATOM     85  C   UNL A   1      44.533  34.805  27.876  1.00  0.00     0.173 A 
ATOM     86  F   UNL A   1      45.825  33.450  30.996  1.00  0.00    -0.203 F 
ATOM     87  C   UNL A   1      45.981  35.621  30.099  1.00  0.00     0.198 A 
ATOM     88  C   UNL A   1      44.996  36.113  27.965  1.00  0.00     0.198 A 
ATOM     89  F   UNL A   1      43.832  34.443  26.791  1.00  0.00    -0.203 F 
ATOM     90  F   UNL A   1      46.642  36.023  31.193  1.00  0.00    -0.200 F 
ATOM     91  C   UNL A   1      45.710  36.524  29.081  1.00  0.00     0.200 A 
ATOM     92  F   UNL A   1      44.750  36.979  26.972  1.00  0.00    -0.200 F 
ATOM     93  F   UNL A   1      46.132  37.792  29.179  1.00  0.00    -0.200 F 
ENDBRANCH  60  83
ENDBRANCH  34  35
ENDBRANCH  27  29
ENDBRANCH  26  27
ENDBRANCH  25  26
ENDBRANCH  24  25
ENDBRANCH  23  24
ENDBRANCH   1  23
TORSDOF 17
ENDMDL
MODEL 2
REMARK VINA RESULT:     -11.3      4.381     10.419
REMARK SMILES C[C@H](NC(=O)N1CC[C@H](C(=O)OCCOCCOC(=O)c2ccc(-c3c4nc(c(-c5c(F)c(F)c(F)c(F)c5F)c5ccc([nH]5)c(-c5c(F)c(F)c(F)c(F)c5F)c5nc(c(-c6c(F)c(F)c(F)c(F)c6F)c6ccc3[nH]6)C=C5)C=C4)cc2)[C@@H]1C)[C@@H]1CCCO1
REMARK SMILES IDX 14 1 13 2 12 3 10 4 11 5 9 6 6 7 7 8 84 9 8 10 85 11 4 12
REMARK SMILES IDX 3 13 5 15 2 16 1 17 86 18 87 19 90 20 88 21 89 22 15 23
REMARK SMILES IDX 16 24 17 25 18 26 19 27 20 28 21 29 22 30 83 31 23 32 82 33
REMARK SMILES IDX 24 34 25 35 26 36 76 37 27 38 81 39 75 40 77 41 28 42 80 43
REMARK SMILES IDX 74 44 73 45 29 47 61 48 41 49 60 50 42 51 45 52 59 53 78 54
REMARK SMILES IDX 43 55 44 56 58 58 79 59 46 60 30 61 31 62 39 63 32 64 33 65
REMARK SMILES IDX 37 66 40 67 34 68 35 69 38 70 36 71 62 72 63 73 71 74 64 75
REMARK SMILES IDX 65 76 69 77 72 78 66 79 67 80 70 81 68 82 47 83 48 84 56 85
REMARK SMILES IDX 49 86 50 87 54 88 57 89 51 90 52 91 55 92 53 93
REMARK H PARENT 3 14 77 46 45 57
REMARK Flexibility Score: inf
ROOT
ATOM      1  C   UNL A   1      32.198  28.603  26.829  1.00  0.00     0.202 C 
ENDROOT
BRANCH   1   2
ATOM      2  C   UNL A   1      31.403  27.882  25.735  1.00  0.00     0.261 C 
BRANCH   2   3
ATOM      3  O   UNL A   1      31.383  26.458  25.963  1.00  0.00    -0.463 OA
BRANCH   3   4
ATOM      4  C   UNL A   1      30.827  25.689  24.982  1.00  0.00     0.311 C 
ATOM      5  O   UNL A   1      29.771  25.927  24.413  1.00  0.00    -0.252 OA
BRANCH   4   6
ATOM      6  C   UNL A   1      31.705  24.494  24.699  1.00  0.00     0.123 C 
ATOM      7  N   UNL A   1      32.838  22.957  26.103  1.00  0.00    -0.321 N 
ATOM      8  C   UNL A   1      33.587  24.190  26.166  1.00  0.00     0.122 C 
ATOM      9  C   UNL A   1      31.509  23.232  25.575  1.00  0.00     0.098 C 
ATOM     10  C   UNL A   1      33.182  24.886  24.882  1.00  0.00     0.039 C 
ATOM     11  C   UNL A   1      30.500  23.251  26.726  1.00  0.00     0.032 C 
BRANCH   7  12
ATOM     12  C   UNL A   1      33.222  21.862  26.811  1.00  0.00     0.317 C 
ATOM     13  N   UNL A   1      33.100  20.625  26.260  1.00  0.00    -0.333 N 
ATOM     14  H   UNL A   1      32.485  20.005  26.715  1.00  0.00     0.165 HD
ATOM     15  O   UNL A   1      33.610  21.935  27.978  1.00  0.00    -0.249 OA
BRANCH  13  16
ATOM     16  C   UNL A   1      33.782  20.100  25.059  1.00  0.00     0.109 C 
ATOM     17  C   UNL A   1      35.287  20.328  24.990  1.00  0.00     0.034 C 
BRANCH  16  18
ATOM     18  C   UNL A   1      33.448  18.627  24.715  1.00  0.00     0.140 C 
ATOM     19  C   UNL A   1      34.646  17.822  24.235  1.00  0.00     0.036 C 
ATOM     20  O   UNL A   1      32.422  18.499  23.711  1.00  0.00    -0.376 OA
ATOM     21  C   UNL A   1      33.986  16.772  23.378  1.00  0.00     0.031 C 
ATOM     22  C   UNL A   1      32.891  17.575  22.715  1.00  0.00     0.160 C 
ENDBRANCH  16  18
ENDBRANCH  13  16
ENDBRANCH   7  12
ENDBRANCH   4   6
ENDBRANCH   3   4
ENDBRANCH   2   3
ENDBRANCH   1   2
BRANCH   1  23
ATOM     23  O   UNL A   1      31.750  29.895  27.246  1.00  0.00    -0.374 OA
BRANCH  23  24
ATOM     24  C   UNL A   1      31.775  30.937  26.280  1.00  0.00     0.202 C 
BRANCH  24  25
ATOM     25  C   UNL A   1      32.079  32.371  26.738  1.00  0.00     0.261 C 
BRANCH  25  26
ATOM     26  O   UNL A   1      32.809  32.435  27.957  1.00  0.00    -0.460 OA
BRANCH  26  27
ATOM     27  C   UNL A   1      33.835  33.313  27.908  1.00  0.00     0.338 C 
ATOM     28  O   UNL A   1      33.788  34.519  27.720  1.00  0.00    -0.246 OA
BRANCH  27  29
ATOM     29  C   UNL A   1      35.055  32.601  28.286  1.00  0.00     0.060 A 
ATOM     30  C   UNL A   1      34.925  31.273  28.707  1.00  0.00     0.016 A 
ATOM     31  C   UNL A   1      36.297  33.238  28.242  1.00  0.00     0.016 A 
ATOM     32  C   UNL A   1      36.046  30.584  29.141  1.00  0.00     0.010 A 
ATOM     33  C   UNL A   1      37.420  32.547  28.684  1.00  0.00     0.010 A 
ATOM     34  C   UNL A   1      37.287  31.236  29.174  1.00  0.00    -0.014 A 
BRANCH  34  35
ATOM     35  C   UNL A   1      38.406  30.605  29.895  1.00  0.00     0.031 A 
ATOM     36  C   UNL A   1      38.622  30.975  31.332  1.00  0.00     0.074 A 
ATOM     37  C   UNL A   1      39.179  29.697  29.279  1.00  0.00     0.049 A 
ATOM     38  N   UNL A   1      39.540  30.565  32.167  1.00  0.00    -0.248 NA
ATOM     39  C   UNL A   1      37.673  31.943  31.906  1.00  0.00     0.031 C 
ATOM     40  C   UNL A   1      39.013  29.247  27.899  1.00  0.00     0.029 A 
ATOM     41  N   UNL A   1      40.255  28.989  29.742  1.00  0.00    -0.354 N 
ATOM     42  C   UNL A   1      39.280  31.226  33.360  1.00  0.00     0.074 A 
ATOM     43  C   UNL A   1      38.150  32.098  33.130  1.00  0.00     0.031 C 
ATOM     44  C   UNL A   1      39.955  28.329  27.626  1.00  0.00     0.029 A 
ATOM     45  C   UNL A   1      40.807  28.159  28.801  1.00  0.00     0.049 A 
ATOM     46  H   UNL A   1      40.599  29.068  30.661  1.00  0.00     0.167 HD
ATOM     47  C   UNL A   1      39.920  31.098  34.545  1.00  0.00     0.037 A 
ATOM     48  C   UNL A   1      41.889  27.363  28.887  1.00  0.00     0.037 A 
ATOM     49  C   UNL A   1      41.052  30.232  34.747  1.00  0.00     0.049 A 
ATOM     50  C   UNL A   1      42.641  27.309  30.191  1.00  0.00     0.074 A 
ATOM     51  C   UNL A   1      41.785  30.019  35.899  1.00  0.00     0.029 A 
ATOM     52  N   UNL A   1      41.619  29.440  33.758  1.00  0.00    -0.354 N 
ATOM     53  N   UNL A   1      42.382  27.916  31.325  1.00  0.00    -0.248 NA
ATOM     54  C   UNL A   1      43.835  26.457  30.227  1.00  0.00     0.031 C 
ATOM     55  C   UNL A   1      42.832  29.144  35.591  1.00  0.00     0.029 A 
ATOM     56  C   UNL A   1      42.713  28.758  34.265  1.00  0.00     0.049 A 
ATOM     57  H   UNL A   1      41.293  29.373  32.831  1.00  0.00     0.167 HD
ATOM     58  C   UNL A   1      43.357  27.494  32.219  1.00  0.00     0.074 A 
ATOM     59  C   UNL A   1      44.206  26.569  31.494  1.00  0.00     0.031 C 
ATOM     60  C   UNL A   1      43.536  27.836  33.519  1.00  0.00     0.037 A 
BRANCH  47  61
ATOM     61  C   UNL A   1      39.430  31.940  35.689  1.00  0.00     0.064 A 
ATOM     62  C   UNL A   1      38.456  31.474  36.588  1.00  0.00     0.173 A 
ATOM     63  C   UNL A   1      39.932  33.235  35.885  1.00  0.00     0.173 A 
ATOM     64  F   UNL A   1      37.927  30.250  36.437  1.00  0.00    -0.203 F 
ATOM     65  C   UNL A   1      37.977  32.287  37.613  1.00  0.00     0.198 A 
ATOM     66  C   UNL A   1      39.478  34.032  36.933  1.00  0.00     0.198 A 
ATOM     67  F   UNL A   1      40.864  33.732  35.058  1.00  0.00    -0.203 F 
ATOM     68  F   UNL A   1      37.000  31.845  38.416  1.00  0.00    -0.200 F 
ATOM     69  C   UNL A   1      38.492  33.562  37.789  1.00  0.00     0.200 A 
ATOM     70  F   UNL A   1      39.985  35.260  37.108  1.00  0.00    -0.200 F 
ATOM     71  F   UNL A   1      38.031  34.344  38.774  1.00  0.00    -0.200 F 
ENDBRANCH  47  61
BRANCH  48  72
ATOM     72  C   UNL A   1      42.312  26.553  27.717  1.00  0.00     0.064 A 
ATOM     73  C   UNL A   1      43.280  27.030  26.822  1.00  0.00     0.173 A 
ATOM     74  C   UNL A   1      41.764  25.285  27.467  1.00  0.00     0.173 A 
ATOM     75  F   UNL A   1      43.821  28.243  27.007  1.00  0.00    -0.203 F 
ATOM     76  C   UNL A   1      43.668  26.281  25.713  1.00  0.00     0.198 A 
ATOM     77  C   UNL A   1      42.174  24.524  26.375  1.00  0.00     0.198 A 
ATOM     78  F   UNL A   1      40.838  24.779  28.295  1.00  0.00    -0.203 F 
ATOM     79  F   UNL A   1      44.561  26.781  24.850  1.00  0.00    -0.200 F 
ATOM     80  C   UNL A   1      43.119  25.026  25.494  1.00  0.00     0.200 A 
ATOM     81  F   UNL A   1      41.654  23.306  26.178  1.00  0.00    -0.200 F 
ATOM     82  F   UNL A   1      43.497  24.303  24.432  1.00  0.00    -0.200 F 
ENDBRANCH  48  72
BRANCH  60  83
ATOM     83  C   UNL A   1      44.666  27.172  34.252  1.00  0.00     0.064 A 
ATOM     84  C   UNL A   1      45.943  27.747  34.320  1.00  0.00     0.173 A 
ATOM     85  C   UNL A   1      44.454  25.960  34.928  1.00  0.00     0.173 A 
ATOM     86  F   UNL A   1      46.202  28.897  33.680  1.00  0.00    -0.203 F 
ATOM     87  C   UNL A   1      46.975  27.117  35.011  1.00  0.00     0.198 A 
ATOM     88  C   UNL A   1      45.477  25.352  35.648  1.00  0.00     0.198 A 
ATOM     89  F   UNL A   1      43.248  25.372  34.902  1.00  0.00    -0.203 F 
ATOM     90  F   UNL A   1      48.202  27.656  35.014  1.00  0.00    -0.200 F 
ATOM     91  C   UNL A   1      46.740  25.926  35.681  1.00  0.00     0.200 A 
ATOM     92  F   UNL A   1      45.243  24.211  36.310  1.00  0.00    -0.200 F 
ATOM     93  F   UNL A   1      47.732  25.326  36.352  1.00  0.00    -0.200 F 
ENDBRANCH  60  83
ENDBRANCH  34  35
ENDBRANCH  27  29
ENDBRANCH  26  27
ENDBRANCH  25  26
ENDBRANCH  24  25
ENDBRANCH  23  24
ENDBRANCH   1  23
TORSDOF 17
ENDMDL
MODEL 3
REMARK VINA RESULT:     -11.1      1.402      2.141
REMARK SMILES C[C@H](NC(=O)N1CC[C@H](C(=O)OCCOCCOC(=O)c2ccc(-c3c4nc(c(-c5c(F)c(F)c(F)c(F)c5F)c5ccc([nH]5)c(-c5c(F)c(F)c(F)c(F)c5F)c5nc(c(-c6c(F)c(F)c(F)c(F)c6F)c6ccc3[nH]6)C=C5)C=C4)cc2)[C@@H]1C)[C@@H]1CCCO1
REMARK SMILES IDX 14 1 13 2 12 3 10 4 11 5 9 6 6 7 7 8 84 9 8 10 85 11 4 12
REMARK SMILES IDX 3 13 5 15 2 16 1 17 86 18 87 19 90 20 88 21 89 22 15 23
REMARK SMILES IDX 16 24 17 25 18 26 19 27 20 28 21 29 22 30 83 31 23 32 82 33
REMARK SMILES IDX 24 34 25 35 26 36 76 37 27 38 81 39 75 40 77 41 28 42 80 43
REMARK SMILES IDX 74 44 73 45 29 47 61 48 41 49 60 50 42 51 45 52 59 53 78 54
REMARK SMILES IDX 43 55 44 56 58 58 79 59 46 60 30 61 31 62 39 63 32 64 33 65
REMARK SMILES IDX 37 66 40 67 34 68 35 69 38 70 36 71 62 72 63 73 71 74 64 75
REMARK SMILES IDX 65 76 69 77 72 78 66 79 67 80 70 81 68 82 47 83 48 84 56 85
REMARK SMILES IDX 49 86 50 87 54 88 57 89 51 90 52 91 55 92 53 93
REMARK H PARENT 3 14 77 46 45 57
REMARK Flexibility Score: inf
ROOT
ATOM      1  C   UNL A   1      36.015  20.683  24.999  1.00  0.00     0.202 C 
ENDROOT
BRANCH   1   2
ATOM      2  C   UNL A   1      34.670  21.307  24.612  1.00  0.00     0.261 C 
BRANCH   2   3
ATOM      3  O   UNL A   1      34.151  22.125  25.681  1.00  0.00    -0.463 OA
BRANCH   3   4
ATOM      4  C   UNL A   1      33.019  22.838  25.412  1.00  0.00     0.311 C 
ATOM      5  O   UNL A   1      32.244  23.273  26.251  1.00  0.00    -0.252 OA
BRANCH   4   6
ATOM      6  C   UNL A   1      32.858  23.011  23.920  1.00  0.00     0.123 C 
ATOM      7  N   UNL A   1      32.397  24.893  22.556  1.00  0.00    -0.321 N 
ATOM      8  C   UNL A   1      31.155  24.554  23.210  1.00  0.00     0.122 C 
ATOM      9  C   UNL A   1      33.499  24.260  23.266  1.00  0.00     0.098 C 
ATOM     10  C   UNL A   1      31.362  23.097  23.572  1.00  0.00     0.039 C 
ATOM     11  C   UNL A   1      34.205  25.301  24.138  1.00  0.00     0.032 C 
BRANCH   7  12
ATOM     12  C   UNL A   1      32.478  25.947  21.700  1.00  0.00     0.317 C 
ATOM     13  N   UNL A   1      31.600  26.979  21.815  1.00  0.00    -0.333 N 
ATOM     14  H   UNL A   1      31.001  27.126  21.047  1.00  0.00     0.165 HD
ATOM     15  O   UNL A   1      33.275  25.971  20.761  1.00  0.00    -0.249 OA
BRANCH  13  16
ATOM     16  C   UNL A   1      31.439  27.904  22.955  1.00  0.00     0.109 C 
ATOM     17  C   UNL A   1      32.707  28.237  23.731  1.00  0.00     0.034 C 
BRANCH  16  18
ATOM     18  C   UNL A   1      30.654  29.200  22.631  1.00  0.00     0.140 C 
ATOM     19  C   UNL A   1      30.138  29.929  23.864  1.00  0.00     0.036 C 
ATOM     20  O   UNL A   1      29.523  28.976  21.768  1.00  0.00    -0.376 OA
ATOM     21  C   UNL A   1      28.939  30.656  23.310  1.00  0.00     0.031 C 
ATOM     22  C   UNL A   1      28.383  29.625  22.354  1.00  0.00     0.160 C 
ENDBRANCH  16  18
ENDBRANCH  13  16
ENDBRANCH   7  12
ENDBRANCH   4   6
ENDBRANCH   3   4
ENDBRANCH   2   3
ENDBRANCH   1   2
BRANCH   1  23
ATOM     23  O   UNL A   1      37.211  21.338  24.567  1.00  0.00    -0.374 OA
BRANCH  23  24
ATOM     24  C   UNL A   1      38.360  21.208  25.391  1.00  0.00     0.202 C 
BRANCH  24  25
ATOM     25  C   UNL A   1      39.093  19.859  25.440  1.00  0.00     0.261 C 
BRANCH  25  26
ATOM     26  O   UNL A   1      39.940  19.715  26.574  1.00  0.00    -0.460 OA
BRANCH  26  27
ATOM     27  C   UNL A   1      41.243  19.579  26.242  1.00  0.00     0.338 C 
ATOM     28  O   UNL A   1      41.794  18.620  25.724  1.00  0.00    -0.246 OA
BRANCH  27  29
ATOM     29  C   UNL A   1      41.899  20.868  26.458  1.00  0.00     0.060 A 
ATOM     30  C   UNL A   1      42.158  21.248  27.779  1.00  0.00     0.016 A 
ATOM     31  C   UNL A   1      42.233  21.690  25.379  1.00  0.00     0.016 A 
ATOM     32  C   UNL A   1      42.715  22.492  28.032  1.00  0.00     0.010 A 
ATOM     33  C   UNL A   1      42.785  22.940  25.635  1.00  0.00     0.010 A 
ATOM     34  C   UNL A   1      42.985  23.357  26.963  1.00  0.00    -0.014 A 
BRANCH  34  35
ATOM     35  C   UNL A   1      43.303  24.768  27.248  1.00  0.00     0.031 A 
ATOM     36  C   UNL A   1      44.684  25.261  26.933  1.00  0.00     0.074 A 
ATOM     37  C   UNL A   1      42.360  25.586  27.741  1.00  0.00     0.049 A 
ATOM     38  N   UNL A   1      45.202  26.448  27.104  1.00  0.00    -0.248 NA
ATOM     39  C   UNL A   1      45.610  24.277  26.347  1.00  0.00     0.031 C 
ATOM     40  C   UNL A   1      40.982  25.201  28.035  1.00  0.00     0.029 A 
ATOM     41  N   UNL A   1      42.423  26.912  28.074  1.00  0.00    -0.354 N 
ATOM     42  C   UNL A   1      46.510  26.353  26.649  1.00  0.00     0.074 A 
ATOM     43  C   UNL A   1      46.724  24.983  26.240  1.00  0.00     0.031 C 
ATOM     44  C   UNL A   1      40.322  26.274  28.503  1.00  0.00     0.029 A 
ATOM     45  C   UNL A   1      41.245  27.405  28.572  1.00  0.00     0.049 A 
ATOM     46  H   UNL A   1      43.235  27.458  27.966  1.00  0.00     0.167 HD
ATOM     47  C   UNL A   1      47.442  27.331  26.567  1.00  0.00     0.037 A 
ATOM     48  C   UNL A   1      40.959  28.633  29.041  1.00  0.00     0.037 A 
ATOM     49  C   UNL A   1      47.210  28.686  26.993  1.00  0.00     0.049 A 
ATOM     50  C   UNL A   1      42.042  29.681  29.024  1.00  0.00     0.074 A 
ATOM     51  C   UNL A   1      48.074  29.764  26.960  1.00  0.00     0.029 A 
ATOM     52  N   UNL A   1      46.018  29.143  27.540  1.00  0.00    -0.354 N 
ATOM     53  N   UNL A   1      43.271  29.597  28.573  1.00  0.00    -0.248 NA
ATOM     54  C   UNL A   1      41.695  30.994  29.579  1.00  0.00     0.031 C 
ATOM     55  C   UNL A   1      47.426  30.857  27.544  1.00  0.00     0.029 A 
ATOM     56  C   UNL A   1      46.134  30.481  27.879  1.00  0.00     0.049 A 
ATOM     57  H   UNL A   1      45.209  28.596  27.670  1.00  0.00     0.167 HD
ATOM     58  C   UNL A   1      43.834  30.852  28.758  1.00  0.00     0.074 A 
ATOM     59  C   UNL A   1      42.805  31.682  29.351  1.00  0.00     0.031 C 
ATOM     60  C   UNL A   1      45.086  31.284  28.463  1.00  0.00     0.037 A 
BRANCH  47  61
ATOM     61  C   UNL A   1      48.793  26.954  26.031  1.00  0.00     0.064 A 
ATOM     62  C   UNL A   1      49.821  26.491  26.870  1.00  0.00     0.173 A 
ATOM     63  C   UNL A   1      49.071  27.064  24.660  1.00  0.00     0.173 A 
ATOM     64  F   UNL A   1      49.617  26.383  28.192  1.00  0.00    -0.203 F 
ATOM     65  C   UNL A   1      51.083  26.193  26.362  1.00  0.00     0.198 A 
ATOM     66  C   UNL A   1      50.323  26.731  24.150  1.00  0.00     0.198 A 
ATOM     67  F   UNL A   1      48.128  27.500  23.812  1.00  0.00    -0.203 F 
ATOM     68  F   UNL A   1      52.066  25.818  27.192  1.00  0.00    -0.200 F 
ATOM     69  C   UNL A   1      51.332  26.306  25.003  1.00  0.00     0.200 A 
ATOM     70  F   UNL A   1      50.558  26.830  22.835  1.00  0.00    -0.200 F 
ATOM     71  F   UNL A   1      52.546  26.020  24.516  1.00  0.00    -0.200 F 
ENDBRANCH  47  61
BRANCH  48  72
ATOM     72  C   UNL A   1      39.597  28.938  29.549  1.00  0.00     0.064 A 
ATOM     73  C   UNL A   1      39.263  28.716  30.892  1.00  0.00     0.173 A 
ATOM     74  C   UNL A   1      38.602  29.459  28.708  1.00  0.00     0.173 A 
ATOM     75  F   UNL A   1      40.174  28.202  31.731  1.00  0.00    -0.203 F 
ATOM     76  C   UNL A   1      37.982  28.983  31.369  1.00  0.00     0.198 A 
ATOM     77  C   UNL A   1      37.330  29.755  29.193  1.00  0.00     0.198 A 
ATOM     78  F   UNL A   1      38.870  29.695  27.415  1.00  0.00    -0.203 F 
ATOM     79  F   UNL A   1      37.677  28.719  32.646  1.00  0.00    -0.200 F 
ATOM     80  C   UNL A   1      37.019  29.509  30.521  1.00  0.00     0.200 A 
ATOM     81  F   UNL A   1      36.408  30.279  28.374  1.00  0.00    -0.200 F 
ATOM     82  F   UNL A   1      35.788  29.773  30.982  1.00  0.00    -0.200 F 
ENDBRANCH  48  72
BRANCH  60  83
ATOM     83  C   UNL A   1      45.395  32.728  28.737  1.00  0.00     0.064 A 
ATOM     84  C   UNL A   1      45.972  33.145  29.944  1.00  0.00     0.173 A 
ATOM     85  C   UNL A   1      45.141  33.702  27.758  1.00  0.00     0.173 A 
ATOM     86  F   UNL A   1      46.221  32.256  30.917  1.00  0.00    -0.203 F 
ATOM     87  C   UNL A   1      46.257  34.489  30.174  1.00  0.00     0.198 A 
ATOM     88  C   UNL A   1      45.461  35.038  27.977  1.00  0.00     0.198 A 
ATOM     89  F   UNL A   1      44.598  33.355  26.581  1.00  0.00    -0.203 F 
ATOM     90  F   UNL A   1      46.755  34.873  31.357  1.00  0.00    -0.200 F 
ATOM     91  C   UNL A   1      46.009  35.432  29.188  1.00  0.00     0.200 A 
ATOM     92  F   UNL A   1      45.237  35.945  27.015  1.00  0.00    -0.200 F 
ATOM     93  F   UNL A   1      46.290  36.724  29.408  1.00  0.00    -0.200 F 
ENDBRANCH  60  83
ENDBRANCH  34  35
ENDBRANCH  27  29
ENDBRANCH  26  27
ENDBRANCH  25  26
ENDBRANCH  24  25
ENDBRANCH  23  24
ENDBRANCH   1  23
TORSDOF 17
ENDMDL
