MODEL 1
REMARK VINA RESULT:     -11.9      0.000      0.000
REMARK SMILES COC(=O)c1sc(SCC(=O)OCCOCCOC(=O)c2ccc(-c3c4nc(c(-c5c(F)c(F)c(F)c(F)c5F)c5ccc([nH]5)c(-c5c(F)c(F)c(F)c(F)c5F)c5nc(c(-c6c(F)c(F)c(F)c(F)c6F)c6ccc3[nH]6)C=C5)C=C4)cc2)c(NC(=O)c2ccccc2)c1O
REMARK SMILES IDX 14 1 13 2 12 3 10 4 11 5 9 6 8 7 7 8 5 9 6 10 94 11 84 12
REMARK SMILES IDX 3 13 4 14 2 15 1 16 95 17 85 19 86 20 87 22 88 23 89 24
REMARK SMILES IDX 93 25 90 26 92 27 91 28 15 29 16 30 17 31 18 32 19 33 20 34
REMARK SMILES IDX 21 35 22 36 83 37 23 38 82 39 24 40 25 41 26 42 76 43 27 44
REMARK SMILES IDX 81 45 75 46 77 47 28 48 80 49 74 50 73 51 29 53 61 54 41 55
REMARK SMILES IDX 60 56 42 57 45 58 59 59 78 60 43 61 44 62 58 64 79 65 46 66
REMARK SMILES IDX 30 67 31 68 39 69 32 70 33 71 37 72 40 73 34 74 35 75 38 76
REMARK SMILES IDX 36 77 62 78 63 79 71 80 64 81 65 82 69 83 72 84 66 85 67 86
REMARK SMILES IDX 70 87 68 88 47 89 48 90 56 91 49 92 50 93 54 94 57 95 51 96
REMARK SMILES IDX 52 97 55 98 53 99
REMARK H PARENT 95 18 85 21 77 52 45 63
REMARK Flexibility Score: inf
ROOT
ATOM      1  C   UNL A   1      33.272  28.985  25.653  1.00  0.00     0.202 C 
ENDROOT
BRANCH   1   2
ATOM      2  C   UNL A   1      33.050  28.862  24.140  1.00  0.00     0.261 C 
BRANCH   2   3
ATOM      3  O   UNL A   1      33.427  27.548  23.658  1.00  0.00    -0.463 OA
BRANCH   3   4
ATOM      4  C   UNL A   1      33.672  27.416  22.310  1.00  0.00     0.316 C 
ATOM      5  O   UNL A   1      34.240  28.267  21.637  1.00  0.00    -0.251 OA
BRANCH   4   6
ATOM      6  C   UNL A   1      32.920  26.008  21.652  1.00  0.00     0.198 C 
BRANCH   6   7
ATOM      7  S   UNL A   1      33.373  23.508  22.141  1.00  0.00    -0.101 SA
BRANCH   7   8
ATOM      8  C   UNL A   1      34.376  23.035  23.634  1.00  0.00     0.089 A 
ATOM      9  C   UNL A   1      36.328  22.517  25.129  1.00  0.00     0.157 A 
ATOM     10  S   UNL A   1      36.105  22.992  23.491  1.00  0.00    -0.116 S 
ATOM     11  C   UNL A   1      35.116  22.477  25.781  1.00  0.00     0.166 A 
ATOM     12  C   UNL A   1      33.998  22.747  24.945  1.00  0.00     0.109 A 
BRANCH   9  13
ATOM     13  C   UNL A   1      37.653  22.214  25.637  1.00  0.00     0.352 C 
ATOM     14  O   UNL A   1      38.392  21.307  25.278  1.00  0.00    -0.245 OA
BRANCH  13  15
ATOM     15  O   UNL A   1      37.961  23.118  26.623  1.00  0.00    -0.465 OA
ATOM     16  C   UNL A   1      39.255  23.728  26.570  1.00  0.00     0.282 C 
ENDBRANCH  13  15
ENDBRANCH   9  13
BRANCH  11  17
ATOM     17  O   UNL A   1      34.959  22.138  27.083  1.00  0.00    -0.504 OA
ATOM     18  H   UNL A   1      34.299  21.520  27.330  1.00  0.00     0.293 HD
ENDBRANCH  11  17
BRANCH  12  19
ATOM     19  N   UNL A   1      32.724  22.644  25.488  1.00  0.00    -0.317 N 
ATOM     20  C   UNL A   1      31.872  21.597  25.342  1.00  0.00     0.255 C 
ATOM     21  H   UNL A   1      32.408  23.403  26.030  1.00  0.00     0.170 HD
ATOM     22  O   UNL A   1      30.706  21.616  25.703  1.00  0.00    -0.269 OA
BRANCH  20  23
ATOM     23  C   UNL A   1      32.453  20.424  24.699  1.00  0.00     0.040 A 
ATOM     24  C   UNL A   1      33.051  19.139  25.786  1.00  0.00     0.014 A 
ATOM     25  C   UNL A   1      32.166  20.063  22.917  1.00  0.00     0.014 A 
ATOM     26  C   UNL A   1      33.340  17.493  25.131  1.00  0.00     0.001 A 
ATOM     27  C   UNL A   1      32.458  18.404  22.284  1.00  0.00     0.001 A 
ATOM     28  C   UNL A   1      33.045  17.128  23.407  1.00  0.00     0.000 A 
ENDBRANCH  20  23
ENDBRANCH  12  19
ENDBRANCH   7   8
ENDBRANCH   6   7
ENDBRANCH   4   6
ENDBRANCH   3   4
ENDBRANCH   2   3
ENDBRANCH   1   2
BRANCH   1  29
ATOM     29  O   UNL A   1      32.921  30.256  26.205  1.00  0.00    -0.374 OA
BRANCH  29  30
ATOM     30  C   UNL A   1      33.426  30.557  27.500  1.00  0.00     0.202 C 
BRANCH  30  31
ATOM     31  C   UNL A   1      33.938  31.987  27.656  1.00  0.00     0.261 C 
BRANCH  31  32
ATOM     32  O   UNL A   1      35.363  32.050  27.767  1.00  0.00    -0.460 OA
BRANCH  32  33
ATOM     33  C   UNL A   1      35.847  32.373  28.986  1.00  0.00     0.338 C 
ATOM     34  O   UNL A   1      35.598  33.371  29.638  1.00  0.00    -0.246 OA
BRANCH  33  35
ATOM     35  C   UNL A   1      36.866  31.376  29.360  1.00  0.00     0.060 A 
ATOM     36  C   UNL A   1      38.157  31.855  29.577  1.00  0.00     0.016 A 
ATOM     37  C   UNL A   1      36.598  29.995  29.365  1.00  0.00     0.016 A 
ATOM     38  C   UNL A   1      39.195  30.951  29.671  1.00  0.00     0.010 A 
ATOM     39  C   UNL A   1      37.638  29.086  29.469  1.00  0.00     0.010 A 
ATOM     40  C   UNL A   1      38.937  29.574  29.573  1.00  0.00    -0.014 A 
BRANCH  40  41
ATOM     41  C   UNL A   1      40.081  28.693  29.731  1.00  0.00     0.031 A 
ATOM     42  C   UNL A   1      40.532  28.582  31.134  1.00  0.00     0.074 A 
ATOM     43  C   UNL A   1      40.702  28.049  28.725  1.00  0.00     0.049 A 
ATOM     44  N   UNL A   1      41.607  29.081  31.645  1.00  0.00    -0.248 NA
ATOM     45  C   UNL A   1      39.617  27.981  32.114  1.00  0.00     0.031 C 
ATOM     46  C   UNL A   1      40.211  27.839  27.364  1.00  0.00     0.029 A 
ATOM     47  N   UNL A   1      41.897  27.382  28.741  1.00  0.00    -0.354 N 
ATOM     48  C   UNL A   1      41.605  28.689  32.978  1.00  0.00     0.074 A 
ATOM     49  C   UNL A   1      40.293  28.164  33.249  1.00  0.00     0.031 C 
ATOM     50  C   UNL A   1      41.003  26.935  26.742  1.00  0.00     0.029 A 
ATOM     51  C   UNL A   1      42.131  26.620  27.606  1.00  0.00     0.049 A 
ATOM     52  H   UNL A   1      42.533  27.438  29.490  1.00  0.00     0.167 HD
ATOM     53  C   UNL A   1      42.779  28.571  33.651  1.00  0.00     0.037 A 
ATOM     54  C   UNL A   1      43.161  25.767  27.396  1.00  0.00     0.037 A 
ATOM     55  C   UNL A   1      43.842  29.270  32.972  1.00  0.00     0.049 A 
ATOM     56  C   UNL A   1      44.280  26.145  28.289  1.00  0.00     0.074 A 
ATOM     57  C   UNL A   1      44.300  30.564  32.873  1.00  0.00     0.029 A 
ATOM     58  N   UNL A   1      44.409  28.560  31.951  1.00  0.00    -0.354 N 
ATOM     59  N   UNL A   1      44.999  27.219  28.130  1.00  0.00    -0.248 NA
ATOM     60  C   UNL A   1      44.449  25.464  29.570  1.00  0.00     0.031 C 
ATOM     61  C   UNL A   1      45.085  30.627  31.681  1.00  0.00     0.029 A 
ATOM     62  C   UNL A   1      45.094  29.370  31.087  1.00  0.00     0.049 A 
ATOM     63  H   UNL A   1      44.334  27.584  31.850  1.00  0.00     0.167 HD
ATOM     64  C   UNL A   1      45.357  27.576  29.412  1.00  0.00     0.074 A 
ATOM     65  C   UNL A   1      45.171  26.381  30.220  1.00  0.00     0.031 C 
ATOM     66  C   UNL A   1      45.432  28.889  29.769  1.00  0.00     0.037 A 
BRANCH  53  67
ATOM     67  C   UNL A   1      43.098  27.432  34.598  1.00  0.00     0.064 A 
ATOM     68  C   UNL A   1      43.327  27.728  35.959  1.00  0.00     0.173 A 
ATOM     69  C   UNL A   1      43.520  26.149  34.182  1.00  0.00     0.173 A 
ATOM     70  F   UNL A   1      42.976  28.920  36.467  1.00  0.00    -0.203 F 
ATOM     71  C   UNL A   1      44.003  26.846  36.806  1.00  0.00     0.198 A 
ATOM     72  C   UNL A   1      44.150  25.253  35.042  1.00  0.00     0.198 A 
ATOM     73  F   UNL A   1      43.449  25.750  32.907  1.00  0.00    -0.203 F 
ATOM     74  F   UNL A   1      44.309  27.224  38.055  1.00  0.00    -0.200 F 
ATOM     75  C   UNL A   1      44.423  25.612  36.344  1.00  0.00     0.200 A 
ATOM     76  F   UNL A   1      44.567  24.069  34.569  1.00  0.00    -0.200 F 
ATOM     77  F   UNL A   1      45.128  24.791  37.132  1.00  0.00    -0.200 F 
ENDBRANCH  53  67
BRANCH  54  78
ATOM     78  C   UNL A   1      43.213  24.541  26.572  1.00  0.00     0.064 A 
ATOM     79  C   UNL A   1      43.949  24.498  25.377  1.00  0.00     0.173 A 
ATOM     80  C   UNL A   1      42.780  23.309  27.093  1.00  0.00     0.173 A 
ATOM     81  F   UNL A   1      44.427  25.627  24.834  1.00  0.00    -0.203 F 
ATOM     82  C   UNL A   1      44.268  23.286  24.759  1.00  0.00     0.198 A 
ATOM     83  C   UNL A   1      43.093  22.100  26.471  1.00  0.00     0.198 A 
ATOM     84  F   UNL A   1      42.134  23.250  28.266  1.00  0.00    -0.203 F 
ATOM     85  F   UNL A   1      45.034  23.278  23.659  1.00  0.00    -0.200 F 
ATOM     86  C   UNL A   1      43.851  22.087  25.314  1.00  0.00     0.200 A 
ATOM     87  F   UNL A   1      42.714  20.945  27.036  1.00  0.00    -0.200 F 
ATOM     88  F   UNL A   1      44.216  20.923  24.762  1.00  0.00    -0.200 F 
ENDBRANCH  54  78
BRANCH  66  89
ATOM     89  C   UNL A   1      45.707  29.868  28.676  1.00  0.00     0.064 A 
ATOM     90  C   UNL A   1      46.993  30.215  28.230  1.00  0.00     0.173 A 
ATOM     91  C   UNL A   1      44.613  30.479  28.049  1.00  0.00     0.173 A 
ATOM     92  F   UNL A   1      48.083  29.613  28.730  1.00  0.00    -0.203 F 
ATOM     93  C   UNL A   1      47.171  31.179  27.239  1.00  0.00     0.198 A 
ATOM     94  C   UNL A   1      44.793  31.413  27.035  1.00  0.00     0.198 A 
ATOM     95  F   UNL A   1      43.363  30.156  28.414  1.00  0.00    -0.203 F 
ATOM     96  F   UNL A   1      48.408  31.526  26.853  1.00  0.00    -0.200 F 
ATOM     97  C   UNL A   1      46.071  31.775  26.642  1.00  0.00     0.200 A 
ATOM     98  F   UNL A   1      43.725  31.958  26.435  1.00  0.00    -0.200 F 
ATOM     99  F   UNL A   1      46.242  32.688  25.676  1.00  0.00    -0.200 F 
ENDBRANCH  66  89
ENDBRANCH  40  41
ENDBRANCH  33  35
ENDBRANCH  32  33
ENDBRANCH  31  32
ENDBRANCH  30  31
ENDBRANCH  29  30
ENDBRANCH   1  29
TORSDOF 21
ENDMDL
MODEL 2
REMARK VINA RESULT:     -11.6      5.317      8.336
REMARK SMILES COC(=O)c1sc(SCC(=O)OCCOCCOC(=O)c2ccc(-c3c4nc(c(-c5c(F)c(F)c(F)c(F)c5F)c5ccc([nH]5)c(-c5c(F)c(F)c(F)c(F)c5F)c5nc(c(-c6c(F)c(F)c(F)c(F)c6F)c6ccc3[nH]6)C=C5)C=C4)cc2)c(NC(=O)c2ccccc2)c1O
REMARK SMILES IDX 14 1 13 2 12 3 10 4 11 5 9 6 8 7 7 8 5 9 6 10 94 11 84 12
REMARK SMILES IDX 3 13 4 14 2 15 1 16 95 17 85 19 86 20 87 22 88 23 89 24
REMARK SMILES IDX 93 25 90 26 92 27 91 28 15 29 16 30 17 31 18 32 19 33 20 34
REMARK SMILES IDX 21 35 22 36 83 37 23 38 82 39 24 40 25 41 26 42 76 43 27 44
REMARK SMILES IDX 81 45 75 46 77 47 28 48 80 49 74 50 73 51 29 53 61 54 41 55
REMARK SMILES IDX 60 56 42 57 45 58 59 59 78 60 43 61 44 62 58 64 79 65 46 66
REMARK SMILES IDX 30 67 31 68 39 69 32 70 33 71 37 72 40 73 34 74 35 75 38 76
REMARK SMILES IDX 36 77 62 78 63 79 71 80 64 81 65 82 69 83 72 84 66 85 67 86
REMARK SMILES IDX 70 87 68 88 47 89 48 90 56 91 49 92 50 93 54 94 57 95 51 96
REMARK SMILES IDX 52 97 55 98 53 99
REMARK H PARENT 95 18 85 21 77 52 45 63
REMARK Flexibility Score: inf
ROOT
ATOM      1  C   UNL A   1      32.873  36.013  29.453  1.00  0.00     0.202 C 
ENDROOT
BRANCH   1   2
ATOM      2  C   UNL A   1      33.279  37.192  30.347  1.00  0.00     0.261 C 
BRANCH   2   3
ATOM      3  O   UNL A   1      32.539  37.188  31.593  1.00  0.00    -0.463 OA
BRANCH   3   4
ATOM      4  C   UNL A   1      32.654  36.073  32.393  1.00  0.00     0.316 C 
ATOM      5  O   UNL A   1      31.775  35.227  32.509  1.00  0.00    -0.251 OA
BRANCH   4   6
ATOM      6  C   UNL A   1      34.093  36.110  33.347  1.00  0.00     0.198 C 
BRANCH   6   7
ATOM      7  S   UNL A   1      35.457  34.158  34.360  1.00  0.00    -0.101 SA
BRANCH   7   8
ATOM      8  C   UNL A   1      37.032  33.617  33.532  1.00  0.00     0.089 A 
ATOM      9  C   UNL A   1      39.047  33.583  32.032  1.00  0.00     0.157 A 
ATOM     10  S   UNL A   1      37.724  34.644  32.316  1.00  0.00    -0.116 S 
ATOM     11  C   UNL A   1      38.999  32.519  32.905  1.00  0.00     0.166 A 
ATOM     12  C   UNL A   1      37.853  32.511  33.747  1.00  0.00     0.109 A 
BRANCH   9  13
ATOM     13  C   UNL A   1      40.010  33.866  30.984  1.00  0.00     0.352 C 
ATOM     14  O   UNL A   1      39.777  34.308  29.866  1.00  0.00    -0.245 OA
BRANCH  13  15
ATOM     15  O   UNL A   1      41.263  33.542  31.440  1.00  0.00    -0.465 OA
ATOM     16  C   UNL A   1      41.969  34.543  32.182  1.00  0.00     0.282 C 
ENDBRANCH  13  15
ENDBRANCH   9  13
BRANCH  11  17
ATOM     17  O   UNL A   1      39.903  31.511  32.933  1.00  0.00    -0.504 OA
ATOM     18  H   UNL A   1      39.774  30.750  32.400  1.00  0.00     0.293 HD
ENDBRANCH  11  17
BRANCH  12  19
ATOM     19  N   UNL A   1      37.666  31.433  34.602  1.00  0.00    -0.317 N 
ATOM     20  C   UNL A   1      38.206  31.287  35.840  1.00  0.00     0.255 C 
ATOM     21  H   UNL A   1      37.087  30.705  34.280  1.00  0.00     0.170 HD
ATOM     22  O   UNL A   1      38.143  30.256  36.490  1.00  0.00    -0.269 OA
BRANCH  20  23
ATOM     23  C   UNL A   1      38.893  32.469  36.348  1.00  0.00     0.040 A 
ATOM     24  C   UNL A   1      37.955  33.518  37.449  1.00  0.00     0.014 A 
ATOM     25  C   UNL A   1      40.724  32.630  36.261  1.00  0.00     0.014 A 
ATOM     26  C   UNL A   1      38.817  34.704  38.484  1.00  0.00     0.001 A 
ATOM     27  C   UNL A   1      41.567  33.822  37.312  1.00  0.00     0.001 A 
ATOM     28  C   UNL A   1      40.597  34.852  38.422  1.00  0.00     0.000 A 
ENDBRANCH  20  23
ENDBRANCH  12  19
ENDBRANCH   7   8
ENDBRANCH   6   7
ENDBRANCH   4   6
ENDBRANCH   3   4
ENDBRANCH   2   3
ENDBRANCH   1   2
BRANCH   1  29
ATOM     29  O   UNL A   1      33.758  35.762  28.359  1.00  0.00    -0.374 OA
BRANCH  29  30
ATOM     30  C   UNL A   1      34.772  34.786  28.563  1.00  0.00     0.202 C 
BRANCH  30  31
ATOM     31  C   UNL A   1      34.348  33.619  29.453  1.00  0.00     0.261 C 
BRANCH  31  32
ATOM     32  O   UNL A   1      35.200  32.480  29.305  1.00  0.00    -0.460 OA
BRANCH  32  33
ATOM     33  C   UNL A   1      35.490  31.808  30.441  1.00  0.00     0.338 C 
ATOM     34  O   UNL A   1      34.968  31.945  31.533  1.00  0.00    -0.246 OA
BRANCH  33  35
ATOM     35  C   UNL A   1      36.668  30.958  30.189  1.00  0.00     0.060 A 
ATOM     36  C   UNL A   1      36.716  29.743  30.872  1.00  0.00     0.016 A 
ATOM     37  C   UNL A   1      37.757  31.395  29.415  1.00  0.00     0.016 A 
ATOM     38  C   UNL A   1      37.899  29.032  30.882  1.00  0.00     0.010 A 
ATOM     39  C   UNL A   1      38.942  30.677  29.416  1.00  0.00     0.010 A 
ATOM     40  C   UNL A   1      39.019  29.525  30.190  1.00  0.00    -0.014 A 
BRANCH  40  41
ATOM     41  C   UNL A   1      40.206  28.688  30.214  1.00  0.00     0.031 A 
ATOM     42  C   UNL A   1      40.819  28.597  31.556  1.00  0.00     0.074 A 
ATOM     43  C   UNL A   1      40.732  28.067  29.142  1.00  0.00     0.049 A 
ATOM     44  N   UNL A   1      41.925  29.138  31.942  1.00  0.00    -0.248 NA
ATOM     45  C   UNL A   1      40.045  27.963  32.632  1.00  0.00     0.031 C 
ATOM     46  C   UNL A   1      40.096  27.836  27.846  1.00  0.00     0.029 A 
ATOM     47  N   UNL A   1      41.946  27.446  29.019  1.00  0.00    -0.354 N 
ATOM     48  C   UNL A   1      42.090  28.748  33.265  1.00  0.00     0.074 A 
ATOM     49  C   UNL A   1      40.839  28.174  33.684  1.00  0.00     0.031 C 
ATOM     50  C   UNL A   1      40.846  26.962  27.135  1.00  0.00     0.029 A 
ATOM     51  C   UNL A   1      42.076  26.692  27.863  1.00  0.00     0.049 A 
ATOM     52  H   UNL A   1      42.661  27.528  29.690  1.00  0.00     0.167 HD
ATOM     53  C   UNL A   1      43.338  28.676  33.799  1.00  0.00     0.037 A 
ATOM     54  C   UNL A   1      43.108  25.878  27.534  1.00  0.00     0.037 A 
ATOM     55  C   UNL A   1      44.288  29.415  33.005  1.00  0.00     0.049 A 
ATOM     56  C   UNL A   1      44.306  26.300  28.294  1.00  0.00     0.074 A 
ATOM     57  C   UNL A   1      44.683  30.725  32.857  1.00  0.00     0.029 A 
ATOM     58  N   UNL A   1      44.762  28.725  31.924  1.00  0.00    -0.354 N 
ATOM     59  N   UNL A   1      44.961  27.401  28.057  1.00  0.00    -0.248 NA
ATOM     60  C   UNL A   1      44.647  25.629  29.546  1.00  0.00     0.031 C 
ATOM     61  C   UNL A   1      45.323  30.816  31.584  1.00  0.00     0.029 A 
ATOM     62  C   UNL A   1      45.312  29.559  30.989  1.00  0.00     0.049 A 
ATOM     63  H   UNL A   1      44.713  27.746  31.829  1.00  0.00     0.167 HD
ATOM     64  C   UNL A   1      45.449  27.774  29.290  1.00  0.00     0.074 A 
ATOM     65  C   UNL A   1      45.403  26.574  30.111  1.00  0.00     0.031 C 
ATOM     66  C   UNL A   1      45.514  29.089  29.640  1.00  0.00     0.037 A 
BRANCH  53  67
ATOM     67  C   UNL A   1      43.806  27.552  34.701  1.00  0.00     0.064 A 
ATOM     68  C   UNL A   1      43.753  26.228  34.214  1.00  0.00     0.173 A 
ATOM     69  C   UNL A   1      43.971  27.674  36.099  1.00  0.00     0.173 A 
ATOM     70  F   UNL A   1      43.590  25.987  32.904  1.00  0.00    -0.203 F 
ATOM     71  C   UNL A   1      43.771  25.123  35.069  1.00  0.00     0.198 A 
ATOM     72  C   UNL A   1      44.039  26.568  36.943  1.00  0.00     0.198 A 
ATOM     73  F   UNL A   1      43.957  28.857  36.722  1.00  0.00    -0.203 F 
ATOM     74  F   UNL A   1      43.590  23.892  34.572  1.00  0.00    -0.200 F 
ATOM     75  C   UNL A   1      43.905  25.295  36.435  1.00  0.00     0.200 A 
ATOM     76  F   UNL A   1      44.149  26.756  38.267  1.00  0.00    -0.200 F 
ATOM     77  F   UNL A   1      43.859  24.243  37.263  1.00  0.00    -0.200 F 
ENDBRANCH  53  67
BRANCH  54  78
ATOM     78  C   UNL A   1      43.112  24.654  26.706  1.00  0.00     0.064 A 
ATOM     79  C   UNL A   1      43.889  24.566  25.539  1.00  0.00     0.173 A 
ATOM     80  C   UNL A   1      42.580  23.451  27.204  1.00  0.00     0.173 A 
ATOM     81  F   UNL A   1      44.459  25.664  25.021  1.00  0.00    -0.203 F 
ATOM     82  C   UNL A   1      44.152  23.338  24.928  1.00  0.00     0.198 A 
ATOM     83  C   UNL A   1      42.838  22.226  26.588  1.00  0.00     0.198 A 
ATOM     84  F   UNL A   1      41.888  23.431  28.351  1.00  0.00    -0.203 F 
ATOM     85  F   UNL A   1      44.956  23.284  23.858  1.00  0.00    -0.200 F 
ATOM     86  C   UNL A   1      43.637  22.168  25.461  1.00  0.00     0.200 A 
ATOM     87  F   UNL A   1      42.364  21.097  27.132  1.00  0.00    -0.200 F 
ATOM     88  F   UNL A   1      43.947  20.983  24.917  1.00  0.00    -0.200 F 
ENDBRANCH  54  78
BRANCH  66  89
ATOM     89  C   UNL A   1      45.626  30.076  28.525  1.00  0.00     0.064 A 
ATOM     90  C   UNL A   1      46.841  30.525  27.984  1.00  0.00     0.173 A 
ATOM     91  C   UNL A   1      44.441  30.586  27.978  1.00  0.00     0.173 A 
ATOM     92  F   UNL A   1      48.011  30.022  28.405  1.00  0.00    -0.203 F 
ATOM     93  C   UNL A   1      46.864  31.490  26.979  1.00  0.00     0.198 A 
ATOM     94  C   UNL A   1      44.466  31.520  26.949  1.00  0.00     0.198 A 
ATOM     95  F   UNL A   1      43.252  30.162  28.436  1.00  0.00    -0.203 F 
ATOM     96  F   UNL A   1      48.035  31.935  26.501  1.00  0.00    -0.200 F 
ATOM     97  C   UNL A   1      45.676  31.985  26.461  1.00  0.00     0.200 A 
ATOM     98  F   UNL A   1      43.315  31.967  26.427  1.00  0.00    -0.200 F 
ATOM     99  F   UNL A   1      45.698  32.899  25.482  1.00  0.00    -0.200 F 
ENDBRANCH  66  89
ENDBRANCH  40  41
ENDBRANCH  33  35
ENDBRANCH  32  33
ENDBRANCH  31  32
ENDBRANCH  30  31
ENDBRANCH  29  30
ENDBRANCH   1  29
TORSDOF 21
ENDMDL
MODEL 3
REMARK VINA RESULT:     -11.1      2.993      4.871
REMARK SMILES COC(=O)c1sc(SCC(=O)OCCOCCOC(=O)c2ccc(-c3c4nc(c(-c5c(F)c(F)c(F)c(F)c5F)c5ccc([nH]5)c(-c5c(F)c(F)c(F)c(F)c5F)c5nc(c(-c6c(F)c(F)c(F)c(F)c6F)c6ccc3[nH]6)C=C5)C=C4)cc2)c(NC(=O)c2ccccc2)c1O
REMARK SMILES IDX 14 1 13 2 12 3 10 4 11 5 9 6 8 7 7 8 5 9 6 10 94 11 84 12
REMARK SMILES IDX 3 13 4 14 2 15 1 16 95 17 85 19 86 20 87 22 88 23 89 24
REMARK SMILES IDX 93 25 90 26 92 27 91 28 15 29 16 30 17 31 18 32 19 33 20 34
REMARK SMILES IDX 21 35 22 36 83 37 23 38 82 39 24 40 25 41 26 42 76 43 27 44
REMARK SMILES IDX 81 45 75 46 77 47 28 48 80 49 74 50 73 51 29 53 61 54 41 55
REMARK SMILES IDX 60 56 42 57 45 58 59 59 78 60 43 61 44 62 58 64 79 65 46 66
REMARK SMILES IDX 30 67 31 68 39 69 32 70 33 71 37 72 40 73 34 74 35 75 38 76
REMARK SMILES IDX 36 77 62 78 63 79 71 80 64 81 65 82 69 83 72 84 66 85 67 86
REMARK SMILES IDX 70 87 68 88 47 89 48 90 56 91 49 92 50 93 54 94 57 95 51 96
REMARK SMILES IDX 52 97 55 98 53 99
REMARK H PARENT 95 18 85 21 77 52 45 63
REMARK Flexibility Score: inf
ROOT
ATOM      1  C   UNL A   1      34.847  34.016  28.591  1.00  0.00     0.202 C 
ENDROOT
BRANCH   1   2
ATOM      2  C   UNL A   1      33.783  33.179  27.871  1.00  0.00     0.261 C 
BRANCH   2   3
ATOM      3  O   UNL A   1      34.234  31.817  27.664  1.00  0.00    -0.463 OA
BRANCH   3   4
ATOM      4  C   UNL A   1      33.344  30.936  27.094  1.00  0.00     0.316 C 
ATOM      5  O   UNL A   1      32.133  31.125  27.055  1.00  0.00    -0.251 OA
BRANCH   4   6
ATOM      6  C   UNL A   1      34.108  29.463  26.617  1.00  0.00     0.198 C 
BRANCH   6   7
ATOM      7  S   UNL A   1      33.607  27.914  24.606  1.00  0.00    -0.101 SA
BRANCH   7   8
ATOM      8  C   UNL A   1      32.267  26.632  24.749  1.00  0.00     0.089 A 
ATOM      9  C   UNL A   1      30.439  25.190  25.692  1.00  0.00     0.157 A 
ATOM     10  S   UNL A   1      31.459  26.446  26.274  1.00  0.00    -0.116 S 
ATOM     11  C   UNL A   1      30.659  24.984  24.348  1.00  0.00     0.166 A 
ATOM     12  C   UNL A   1      31.705  25.777  23.803  1.00  0.00     0.109 A 
BRANCH   9  13
ATOM     13  C   UNL A   1      29.524  24.506  26.587  1.00  0.00     0.352 C 
ATOM     14  O   UNL A   1      28.570  24.993  27.180  1.00  0.00    -0.245 OA
BRANCH  13  15
ATOM     15  O   UNL A   1      29.907  23.193  26.687  1.00  0.00    -0.465 OA
ATOM     16  C   UNL A   1      31.269  22.933  27.043  1.00  0.00     0.282 C 
ENDBRANCH  13  15
ENDBRANCH   9  13
BRANCH  11  17
ATOM     17  O   UNL A   1      30.008  24.060  23.600  1.00  0.00    -0.504 OA
ATOM     18  H   UNL A   1      29.156  23.767  23.855  1.00  0.00     0.293 HD
ENDBRANCH  11  17
BRANCH  12  19
ATOM     19  N   UNL A   1      32.063  25.580  22.476  1.00  0.00    -0.317 N 
ATOM     20  C   UNL A   1      32.971  24.681  22.015  1.00  0.00     0.255 C 
ATOM     21  H   UNL A   1      31.617  26.145  21.805  1.00  0.00     0.170 HD
ATOM     22  O   UNL A   1      33.370  24.650  20.862  1.00  0.00    -0.269 OA
BRANCH  20  23
ATOM     23  C   UNL A   1      33.459  23.740  23.017  1.00  0.00     0.040 A 
ATOM     24  C   UNL A   1      32.616  22.167  23.103  1.00  0.00     0.014 A 
ATOM     25  C   UNL A   1      35.108  23.945  23.807  1.00  0.00     0.014 A 
ATOM     26  C   UNL A   1      33.405  20.789  23.940  1.00  0.00     0.001 A 
ATOM     27  C   UNL A   1      35.882  22.547  24.636  1.00  0.00     0.001 A 
ATOM     28  C   UNL A   1      35.015  20.973  24.692  1.00  0.00     0.000 A 
ENDBRANCH  20  23
ENDBRANCH  12  19
ENDBRANCH   7   8
ENDBRANCH   6   7
ENDBRANCH   4   6
ENDBRANCH   3   4
ENDBRANCH   2   3
ENDBRANCH   1   2
BRANCH   1  29
ATOM     29  O   UNL A   1      34.357  35.220  29.185  1.00  0.00    -0.374 OA
BRANCH  29  30
ATOM     30  C   UNL A   1      33.037  35.185  29.715  1.00  0.00     0.202 C 
BRANCH  30  31
ATOM     31  C   UNL A   1      32.870  35.948  31.027  1.00  0.00     0.261 C 
BRANCH  31  32
ATOM     32  O   UNL A   1      32.987  35.101  32.173  1.00  0.00    -0.460 OA
BRANCH  32  33
ATOM     33  C   UNL A   1      34.022  35.366  33.001  1.00  0.00     0.338 C 
ATOM     34  O   UNL A   1      34.069  36.212  33.875  1.00  0.00    -0.246 OA
BRANCH  33  35
ATOM     35  C   UNL A   1      35.173  34.547  32.581  1.00  0.00     0.060 A 
ATOM     36  C   UNL A   1      34.934  33.187  32.389  1.00  0.00     0.016 A 
ATOM     37  C   UNL A   1      36.478  35.068  32.509  1.00  0.00     0.016 A 
ATOM     38  C   UNL A   1      36.011  32.335  32.253  1.00  0.00     0.010 A 
ATOM     39  C   UNL A   1      37.559  34.214  32.363  1.00  0.00     0.010 A 
ATOM     40  C   UNL A   1      37.319  32.847  32.285  1.00  0.00    -0.014 A 
BRANCH  40  41
ATOM     41  C   UNL A   1      38.389  31.885  32.086  1.00  0.00     0.031 A 
ATOM     42  C   UNL A   1      39.167  31.628  33.316  1.00  0.00     0.074 A 
ATOM     43  C   UNL A   1      38.683  31.291  30.915  1.00  0.00     0.049 A 
ATOM     44  N   UNL A   1      40.373  32.014  33.566  1.00  0.00    -0.248 NA
ATOM     45  C   UNL A   1      38.481  31.006  34.457  1.00  0.00     0.031 C 
ATOM     46  C   UNL A   1      37.850  31.227  29.715  1.00  0.00     0.029 A 
ATOM     47  N   UNL A   1      39.784  30.550  30.580  1.00  0.00    -0.354 N 
ATOM     48  C   UNL A   1      40.673  31.512  34.826  1.00  0.00     0.074 A 
ATOM     49  C   UNL A   1      39.433  31.050  35.390  1.00  0.00     0.031 C 
ATOM     50  C   UNL A   1      38.383  30.331  28.853  1.00  0.00     0.029 A 
ATOM     51  C   UNL A   1      39.661  29.873  29.376  1.00  0.00     0.049 A 
ATOM     52  H   UNL A   1      40.590  30.503  31.143  1.00  0.00     0.167 HD
ATOM     53  C   UNL A   1      41.965  31.264  35.166  1.00  0.00     0.037 A 
ATOM     54  C   UNL A   1      40.533  28.977  28.854  1.00  0.00     0.037 A 
ATOM     55  C   UNL A   1      42.877  31.949  34.285  1.00  0.00     0.049 A 
ATOM     56  C   UNL A   1      41.866  29.207  29.452  1.00  0.00     0.074 A 
ATOM     57  C   UNL A   1      43.401  33.215  34.156  1.00  0.00     0.029 A 
ATOM     58  N   UNL A   1      43.110  31.293  33.108  1.00  0.00    -0.354 N 
ATOM     59  N   UNL A   1      42.609  30.243  29.184  1.00  0.00    -0.248 NA
ATOM     60  C   UNL A   1      42.295  28.412  30.600  1.00  0.00     0.031 C 
ATOM     61  C   UNL A   1      43.865  33.329  32.809  1.00  0.00     0.029 A 
ATOM     62  C   UNL A   1      43.621  32.128  32.152  1.00  0.00     0.049 A 
ATOM     63  H   UNL A   1      42.931  30.335  32.966  1.00  0.00     0.167 HD
ATOM     64  C   UNL A   1      43.305  30.468  30.352  1.00  0.00     0.074 A 
ATOM     65  C   UNL A   1      43.230  29.224  31.101  1.00  0.00     0.031 C 
ATOM     66  C   UNL A   1      43.575  31.739  30.763  1.00  0.00     0.037 A 
BRANCH  53  67
ATOM     67  C   UNL A   1      42.416  30.031  35.924  1.00  0.00     0.064 A 
ATOM     68  C   UNL A   1      43.432  30.168  36.894  1.00  0.00     0.173 A 
ATOM     69  C   UNL A   1      42.153  28.706  35.509  1.00  0.00     0.173 A 
ATOM     70  F   UNL A   1      43.776  31.379  37.358  1.00  0.00    -0.203 F 
ATOM     71  C   UNL A   1      44.181  29.076  37.342  1.00  0.00     0.198 A 
ATOM     72  C   UNL A   1      42.869  27.614  35.996  1.00  0.00     0.198 A 
ATOM     73  F   UNL A   1      41.279  28.418  34.539  1.00  0.00    -0.203 F 
ATOM     74  F   UNL A   1      45.218  29.273  38.167  1.00  0.00    -0.200 F 
ATOM     75  C   UNL A   1      43.904  27.801  36.885  1.00  0.00     0.200 A 
ATOM     76  F   UNL A   1      42.598  26.387  35.525  1.00  0.00    -0.200 F 
ATOM     77  F   UNL A   1      44.660  26.761  37.261  1.00  0.00    -0.200 F 
ENDBRANCH  53  67
BRANCH  54  78
ATOM     78  C   UNL A   1      40.274  27.825  27.966  1.00  0.00     0.064 A 
ATOM     79  C   UNL A   1      40.981  27.659  26.763  1.00  0.00     0.173 A 
ATOM     80  C   UNL A   1      39.539  26.717  28.425  1.00  0.00     0.173 A 
ATOM     81  F   UNL A   1      41.733  28.657  26.276  1.00  0.00    -0.203 F 
ATOM     82  C   UNL A   1      40.983  26.440  26.079  1.00  0.00     0.198 A 
ATOM     83  C   UNL A   1      39.537  25.503  27.737  1.00  0.00     0.198 A 
ATOM     84  F   UNL A   1      38.894  26.762  29.599  1.00  0.00    -0.203 F 
ATOM     85  F   UNL A   1      41.727  26.297  24.974  1.00  0.00    -0.200 F 
ATOM     86  C   UNL A   1      40.272  25.360  26.574  1.00  0.00     0.200 A 
ATOM     87  F   UNL A   1      38.874  24.455  28.244  1.00  0.00    -0.200 F 
ATOM     88  F   UNL A   1      40.332  24.172  25.958  1.00  0.00    -0.200 F 
ENDBRANCH  54  78
BRANCH  66  89
ATOM     89  C   UNL A   1      43.648  32.787  29.703  1.00  0.00     0.064 A 
ATOM     90  C   UNL A   1      42.610  33.685  29.404  1.00  0.00     0.173 A 
ATOM     91  C   UNL A   1      44.831  32.888  28.958  1.00  0.00     0.173 A 
ATOM     92  F   UNL A   1      41.480  33.698  30.127  1.00  0.00    -0.203 F 
ATOM     93  C   UNL A   1      42.734  34.601  28.362  1.00  0.00     0.198 A 
ATOM     94  C   UNL A   1      44.966  33.829  27.944  1.00  0.00     0.198 A 
ATOM     95  F   UNL A   1      45.866  32.077  29.228  1.00  0.00    -0.203 F 
ATOM     96  F   UNL A   1      41.717  35.425  28.066  1.00  0.00    -0.200 F 
ATOM     97  C   UNL A   1      43.913  34.674  27.635  1.00  0.00     0.200 A 
ATOM     98  F   UNL A   1      46.121  33.920  27.269  1.00  0.00    -0.200 F 
ATOM     99  F   UNL A   1      44.039  35.568  26.645  1.00  0.00    -0.200 F 
ENDBRANCH  66  89
ENDBRANCH  40  41
ENDBRANCH  33  35
ENDBRANCH  32  33
ENDBRANCH  31  32
ENDBRANCH  30  31
ENDBRANCH  29  30
ENDBRANCH   1  29
TORSDOF 21
ENDMDL
