MODEL 1
REMARK VINA RESULT:     -12.1      0.000      0.000
REMARK SMILES COc1ccccc1C(=O)N/C(=C/c1ccc(Cl)cc1)C(=O)OCCOCCOC(=O)c1ccc(-c2c3nc(c(-c4c(F)c(F)c(F)c(F)c4F)c4ccc([nH]4)c(-c4c(F)c(F)c(F)c(F)c4F)c4nc(c(-c5c(F)c(F)c(F)c(F)c5F)c5ccc2[nH]5)C=C4)C=C3)cc1
REMARK SMILES IDX 25 1 24 2 23 3 21 4 22 5 12 6 13 7 11 8 9 9 10 10 8 12 3 13
REMARK SMILES IDX 4 14 5 15 7 16 6 17 2 18 1 19 14 20 15 21 20 22 16 23 19 24
REMARK SMILES IDX 17 25 18 26 26 27 27 28 28 29 29 30 30 31 31 32 32 33 33 34
REMARK SMILES IDX 94 35 34 36 93 37 35 38 36 39 37 40 87 41 38 42 92 43 86 44
REMARK SMILES IDX 88 45 39 46 91 47 85 48 84 49 40 51 72 52 52 53 71 54 53 55
REMARK SMILES IDX 56 56 70 57 89 58 54 59 55 60 69 62 90 63 57 64 41 65 42 66
REMARK SMILES IDX 50 67 43 68 44 69 48 70 51 71 45 72 46 73 49 74 47 75 73 76
REMARK SMILES IDX 74 77 82 78 75 79 76 80 80 81 83 82 77 83 78 84 81 85 79 86
REMARK SMILES IDX 58 87 59 88 67 89 60 90 61 91 65 92 68 93 62 94 63 95 66 96
REMARK SMILES IDX 64 97
REMARK H PARENT 11 11 88 50 56 61
REMARK Flexibility Score: inf
ROOT
ATOM      1  C   UNL A   1      33.700  28.588  25.102  1.00  0.00     0.202 C 
ENDROOT
BRANCH   1   2
ATOM      2  C   UNL A   1      33.112  27.626  26.140  1.00  0.00     0.261 C 
BRANCH   2   3
ATOM      3  O   UNL A   1      32.474  26.526  25.475  1.00  0.00    -0.459 OA
BRANCH   3   4
ATOM      4  C   UNL A   1      31.216  26.234  25.903  1.00  0.00     0.354 C 
ATOM      5  O   UNL A   1      30.655  26.724  26.873  1.00  0.00    -0.244 OA
BRANCH   4   6
ATOM      6  C   UNL A   1      30.576  25.211  25.007  1.00  0.00     0.128 C 
ATOM      7  C   UNL A   1      29.937  25.588  23.878  1.00  0.00     0.042 C 
BRANCH   6   8
ATOM      8  N   UNL A   1      30.655  23.850  25.273  1.00  0.00    -0.316 N 
ATOM      9  C   UNL A   1      31.661  22.904  25.228  1.00  0.00     0.259 C 
ATOM     10  O   UNL A   1      31.343  21.726  25.413  1.00  0.00    -0.269 OA
ATOM     11  H   UNL A   1      29.793  23.470  25.559  1.00  0.00     0.170 HD
BRANCH   9  12
ATOM     12  C   UNL A   1      33.103  23.209  25.071  1.00  0.00     0.082 A 
ATOM     13  C   UNL A   1      33.686  23.574  23.862  1.00  0.00     0.131 A 
ATOM     14  C   UNL A   1      35.081  23.623  23.750  1.00  0.00     0.047 A 
ATOM     15  C   UNL A   1      35.885  23.515  24.879  1.00  0.00     0.004 A 
ATOM     16  C   UNL A   1      33.908  23.194  26.221  1.00  0.00     0.018 A 
ATOM     17  C   UNL A   1      35.293  23.363  26.127  1.00  0.00     0.001 A 
BRANCH  13  18
ATOM     18  O   UNL A   1      32.954  23.783  22.730  1.00  0.00    -0.496 OA
ATOM     19  C   UNL A   1      33.115  25.083  22.170  1.00  0.00     0.278 C 
ENDBRANCH  13  18
ENDBRANCH   9  12
ENDBRANCH   6   8
BRANCH   7  20
ATOM     20  C   UNL A   1      29.660  26.950  23.397  1.00  0.00    -0.023 A 
ATOM     21  C   UNL A   1      28.354  27.445  23.531  1.00  0.00     0.010 A 
ATOM     22  C   UNL A   1      30.640  27.759  22.811  1.00  0.00     0.010 A 
ATOM     23  C   UNL A   1      28.041  28.743  23.121  1.00  0.00     0.021 A 
ATOM     24  C   UNL A   1      30.329  29.061  22.407  1.00  0.00     0.021 A 
ATOM     25  C   UNL A   1      29.032  29.549  22.569  1.00  0.00     0.041 A 
ATOM     26  Cl  UNL A   1      28.652  31.154  22.085  1.00  0.00    -0.084 Cl
ENDBRANCH   7  20
ENDBRANCH   4   6
ENDBRANCH   3   4
ENDBRANCH   2   3
ENDBRANCH   1   2
BRANCH   1  27
ATOM     27  O   UNL A   1      32.883  29.739  24.836  1.00  0.00    -0.374 OA
BRANCH  27  28
ATOM     28  C   UNL A   1      31.825  29.954  25.772  1.00  0.00     0.202 C 
BRANCH  28  29
ATOM     29  C   UNL A   1      31.965  31.254  26.560  1.00  0.00     0.261 C 
BRANCH  29  30
ATOM     30  O   UNL A   1      32.894  31.030  27.615  1.00  0.00    -0.460 OA
BRANCH  30  31
ATOM     31  C   UNL A   1      33.704  32.097  27.815  1.00  0.00     0.338 C 
ATOM     32  O   UNL A   1      33.381  33.257  27.963  1.00  0.00    -0.246 OA
BRANCH  31  33
ATOM     33  C   UNL A   1      35.069  31.587  28.024  1.00  0.00     0.060 A 
ATOM     34  C   UNL A   1      35.236  30.199  27.988  1.00  0.00     0.016 A 
ATOM     35  C   UNL A   1      36.156  32.442  28.241  1.00  0.00     0.016 A 
ATOM     36  C   UNL A   1      36.474  29.652  28.280  1.00  0.00     0.010 A 
ATOM     37  C   UNL A   1      37.400  31.897  28.531  1.00  0.00     0.010 A 
ATOM     38  C   UNL A   1      37.531  30.502  28.624  1.00  0.00    -0.014 A 
BRANCH  38  39
ATOM     39  C   UNL A   1      38.662  29.934  29.374  1.00  0.00     0.031 A 
ATOM     40  C   UNL A   1      38.865  30.413  30.783  1.00  0.00     0.074 A 
ATOM     41  C   UNL A   1      39.446  28.998  28.826  1.00  0.00     0.049 A 
ATOM     42  N   UNL A   1      39.771  30.067  31.656  1.00  0.00    -0.248 NA
ATOM     43  C   UNL A   1      37.915  31.428  31.273  1.00  0.00     0.031 C 
ATOM     44  C   UNL A   1      39.303  28.463  27.475  1.00  0.00     0.029 A 
ATOM     45  N   UNL A   1      40.531  28.344  29.343  1.00  0.00    -0.354 N 
ATOM     46  C   UNL A   1      39.498  30.816  32.792  1.00  0.00     0.074 A 
ATOM     47  C   UNL A   1      38.371  31.668  32.489  1.00  0.00     0.031 C 
ATOM     48  C   UNL A   1      40.293  27.583  27.252  1.00  0.00     0.029 A 
ATOM     49  C   UNL A   1      41.136  27.508  28.443  1.00  0.00     0.049 A 
ATOM     50  H   UNL A   1      40.844  28.463  30.267  1.00  0.00     0.167 HD
ATOM     51  C   UNL A   1      40.125  30.781  33.989  1.00  0.00     0.037 A 
ATOM     52  C   UNL A   1      42.262  26.783  28.574  1.00  0.00     0.037 A 
ATOM     53  C   UNL A   1      41.246  29.929  34.268  1.00  0.00     0.049 A 
ATOM     54  C   UNL A   1      42.976  26.792  29.899  1.00  0.00     0.074 A 
ATOM     55  C   UNL A   1      41.943  29.772  35.451  1.00  0.00     0.029 A 
ATOM     56  N   UNL A   1      41.843  29.094  33.332  1.00  0.00    -0.354 N 
ATOM     57  N   UNL A   1      42.683  27.457  30.992  1.00  0.00    -0.248 NA
ATOM     58  C   UNL A   1      44.163  25.937  30.015  1.00  0.00     0.031 C 
ATOM     59  C   UNL A   1      42.994  28.878  35.216  1.00  0.00     0.029 A 
ATOM     60  C   UNL A   1      42.922  28.441  33.901  1.00  0.00     0.049 A 
ATOM     61  H   UNL A   1      41.543  28.984  32.401  1.00  0.00     0.167 HD
ATOM     62  C   UNL A   1      43.636  27.091  31.931  1.00  0.00     0.074 A 
ATOM     63  C   UNL A   1      44.510  26.133  31.280  1.00  0.00     0.031 C 
ATOM     64  C   UNL A   1      43.776  27.502  33.217  1.00  0.00     0.037 A 
BRANCH  51  65
ATOM     65  C   UNL A   1      39.625  31.714  35.051  1.00  0.00     0.064 A 
ATOM     66  C   UNL A   1      38.655  31.319  35.987  1.00  0.00     0.173 A 
ATOM     67  C   UNL A   1      40.099  33.032  35.115  1.00  0.00     0.173 A 
ATOM     68  F   UNL A   1      38.151  30.077  35.953  1.00  0.00    -0.203 F 
ATOM     69  C   UNL A   1      38.154  32.219  36.924  1.00  0.00     0.198 A 
ATOM     70  C   UNL A   1      39.616  33.921  36.071  1.00  0.00     0.198 A 
ATOM     71  F   UNL A   1      41.020  33.463  34.241  1.00  0.00    -0.203 F 
ATOM     72  F   UNL A   1      37.184  31.838  37.766  1.00  0.00    -0.200 F 
ATOM     73  C   UNL A   1      38.638  33.518  36.967  1.00  0.00     0.200 A 
ATOM     74  F   UNL A   1      40.087  35.176  36.115  1.00  0.00    -0.200 F 
ATOM     75  F   UNL A   1      38.150  34.387  37.864  1.00  0.00    -0.200 F 
ENDBRANCH  51  65
BRANCH  52  76
ATOM     76  C   UNL A   1      42.762  26.009  27.413  1.00  0.00     0.064 A 
ATOM     77  C   UNL A   1      43.753  26.524  26.568  1.00  0.00     0.173 A 
ATOM     78  C   UNL A   1      42.295  24.711  27.162  1.00  0.00     0.173 A 
ATOM     79  F   UNL A   1      44.219  27.766  26.761  1.00  0.00    -0.203 F 
ATOM     80  C   UNL A   1      44.255  25.768  25.510  1.00  0.00     0.198 A 
ATOM     81  C   UNL A   1      42.814  23.949  26.118  1.00  0.00     0.198 A 
ATOM     82  F   UNL A   1      41.350  24.173  27.948  1.00  0.00    -0.203 F 
ATOM     83  F   UNL A   1      45.189  26.290  24.701  1.00  0.00    -0.200 F 
ATOM     84  C   UNL A   1      43.792  24.479  25.291  1.00  0.00     0.200 A 
ATOM     85  F   UNL A   1      42.374  22.698  25.920  1.00  0.00    -0.200 F 
ATOM     86  F   UNL A   1      44.289  23.748  24.285  1.00  0.00    -0.200 F 
ENDBRANCH  52  76
BRANCH  64  87
ATOM     87  C   UNL A   1      44.907  26.908  34.001  1.00  0.00     0.064 A 
ATOM     88  C   UNL A   1      44.756  25.706  34.704  1.00  0.00     0.173 A 
ATOM     89  C   UNL A   1      46.168  27.523  34.002  1.00  0.00     0.173 A 
ATOM     90  F   UNL A   1      43.566  25.089  34.741  1.00  0.00    -0.203 F 
ATOM     91  C   UNL A   1      45.825  25.148  35.400  1.00  0.00     0.198 A 
ATOM     92  C   UNL A   1      47.241  26.949  34.676  1.00  0.00     0.198 A 
ATOM     93  F   UNL A   1      46.362  28.671  33.336  1.00  0.00    -0.203 F 
ATOM     94  F   UNL A   1      45.652  24.019  36.099  1.00  0.00    -0.200 F 
ATOM     95  C   UNL A   1      47.067  25.766  35.379  1.00  0.00     0.200 A 
ATOM     96  F   UNL A   1      48.444  27.539  34.643  1.00  0.00    -0.200 F 
ATOM     97  F   UNL A   1      48.098  25.223  36.042  1.00  0.00    -0.200 F 
ENDBRANCH  64  87
ENDBRANCH  38  39
ENDBRANCH  31  33
ENDBRANCH  30  31
ENDBRANCH  29  30
ENDBRANCH  28  29
ENDBRANCH  27  28
ENDBRANCH   1  27
TORSDOF 18
ENDMDL
MODEL 2
REMARK VINA RESULT:     -12.1      0.495      7.148
REMARK SMILES COc1ccccc1C(=O)N/C(=C/c1ccc(Cl)cc1)C(=O)OCCOCCOC(=O)c1ccc(-c2c3nc(c(-c4c(F)c(F)c(F)c(F)c4F)c4ccc([nH]4)c(-c4c(F)c(F)c(F)c(F)c4F)c4nc(c(-c5c(F)c(F)c(F)c(F)c5F)c5ccc2[nH]5)C=C4)C=C3)cc1
REMARK SMILES IDX 25 1 24 2 23 3 21 4 22 5 12 6 13 7 11 8 9 9 10 10 8 12 3 13
REMARK SMILES IDX 4 14 5 15 7 16 6 17 2 18 1 19 14 20 15 21 20 22 16 23 19 24
REMARK SMILES IDX 17 25 18 26 26 27 27 28 28 29 29 30 30 31 31 32 32 33 33 34
REMARK SMILES IDX 94 35 34 36 93 37 35 38 36 39 37 40 87 41 38 42 92 43 86 44
REMARK SMILES IDX 88 45 39 46 91 47 85 48 84 49 40 51 72 52 52 53 71 54 53 55
REMARK SMILES IDX 56 56 70 57 89 58 54 59 55 60 69 62 90 63 57 64 41 65 42 66
REMARK SMILES IDX 50 67 43 68 44 69 48 70 51 71 45 72 46 73 49 74 47 75 73 76
REMARK SMILES IDX 74 77 82 78 75 79 76 80 80 81 83 82 77 83 78 84 81 85 79 86
REMARK SMILES IDX 58 87 59 88 67 89 60 90 61 91 65 92 68 93 62 94 63 95 66 96
REMARK SMILES IDX 64 97
REMARK H PARENT 11 11 88 50 56 61
REMARK Flexibility Score: inf
ROOT
ATOM      1  C   UNL A   1      33.806  28.618  25.418  1.00  0.00     0.202 C 
ENDROOT
BRANCH   1   2
ATOM      2  C   UNL A   1      33.147  27.601  26.358  1.00  0.00     0.261 C 
BRANCH   2   3
ATOM      3  O   UNL A   1      32.532  26.557  25.589  1.00  0.00    -0.459 OA
BRANCH   3   4
ATOM      4  C   UNL A   1      31.268  26.221  25.964  1.00  0.00     0.354 C 
ATOM      5  O   UNL A   1      30.659  26.673  26.925  1.00  0.00    -0.244 OA
BRANCH   4   6
ATOM      6  C   UNL A   1      30.688  25.204  25.023  1.00  0.00     0.128 C 
ATOM      7  C   UNL A   1      30.123  25.587  23.858  1.00  0.00     0.042 C 
BRANCH   6   8
ATOM      8  N   UNL A   1      30.754  23.841  25.285  1.00  0.00    -0.316 N 
ATOM      9  C   UNL A   1      31.733  22.872  25.179  1.00  0.00     0.259 C 
ATOM     10  O   UNL A   1      31.401  21.702  25.385  1.00  0.00    -0.269 OA
ATOM     11  H   UNL A   1      29.902  23.481  25.624  1.00  0.00     0.170 HD
BRANCH   9  12
ATOM     12  C   UNL A   1      33.169  23.145  24.932  1.00  0.00     0.082 A 
ATOM     13  C   UNL A   1      33.724  23.261  23.662  1.00  0.00     0.131 A 
ATOM     14  C   UNL A   1      35.116  23.292  23.512  1.00  0.00     0.047 A 
ATOM     15  C   UNL A   1      35.944  23.416  24.623  1.00  0.00     0.004 A 
ATOM     16  C   UNL A   1      33.997  23.364  26.044  1.00  0.00     0.018 A 
ATOM     17  C   UNL A   1      35.379  23.516  25.888  1.00  0.00     0.001 A 
BRANCH  13  18
ATOM     18  O   UNL A   1      32.968  23.235  22.527  1.00  0.00    -0.496 OA
ATOM     19  C   UNL A   1      32.901  24.486  21.849  1.00  0.00     0.278 C 
ENDBRANCH  13  18
ENDBRANCH   9  12
ENDBRANCH   6   8
BRANCH   7  20
ATOM     20  C   UNL A   1      29.874  26.951  23.369  1.00  0.00    -0.023 A 
ATOM     21  C   UNL A   1      28.580  27.475  23.501  1.00  0.00     0.010 A 
ATOM     22  C   UNL A   1      30.871  27.736  22.777  1.00  0.00     0.010 A 
ATOM     23  C   UNL A   1      28.294  28.777  23.083  1.00  0.00     0.021 A 
ATOM     24  C   UNL A   1      30.587  29.042  22.366  1.00  0.00     0.021 A 
ATOM     25  C   UNL A   1      29.301  29.558  22.526  1.00  0.00     0.041 A 
ATOM     26  Cl  UNL A   1      28.955  31.168  22.031  1.00  0.00    -0.084 Cl
ENDBRANCH   7  20
ENDBRANCH   4   6
ENDBRANCH   3   4
ENDBRANCH   2   3
ENDBRANCH   1   2
BRANCH   1  27
ATOM     27  O   UNL A   1      32.915  29.636  24.935  1.00  0.00    -0.374 OA
BRANCH  27  28
ATOM     28  C   UNL A   1      31.798  29.910  25.783  1.00  0.00     0.202 C 
BRANCH  28  29
ATOM     29  C   UNL A   1      31.896  31.252  26.503  1.00  0.00     0.261 C 
BRANCH  29  30
ATOM     30  O   UNL A   1      32.825  31.111  27.571  1.00  0.00    -0.460 OA
BRANCH  30  31
ATOM     31  C   UNL A   1      33.668  32.168  27.656  1.00  0.00     0.338 C 
ATOM     32  O   UNL A   1      33.384  33.347  27.627  1.00  0.00    -0.246 OA
BRANCH  31  33
ATOM     33  C   UNL A   1      35.002  31.648  27.996  1.00  0.00     0.060 A 
ATOM     34  C   UNL A   1      35.101  30.274  28.240  1.00  0.00     0.016 A 
ATOM     35  C   UNL A   1      36.128  32.478  28.065  1.00  0.00     0.016 A 
ATOM     36  C   UNL A   1      36.306  29.741  28.665  1.00  0.00     0.010 A 
ATOM     37  C   UNL A   1      37.338  31.945  28.488  1.00  0.00     0.010 A 
ATOM     38  C   UNL A   1      37.398  30.593  28.859  1.00  0.00    -0.014 A 
BRANCH  38  39
ATOM     39  C   UNL A   1      38.488  30.134  29.734  1.00  0.00     0.031 A 
ATOM     40  C   UNL A   1      39.415  29.086  29.189  1.00  0.00     0.074 A 
ATOM     41  C   UNL A   1      38.661  30.667  30.950  1.00  0.00     0.049 A 
ATOM     42  N   UNL A   1      40.453  28.523  29.746  1.00  0.00    -0.248 NA
ATOM     43  C   UNL A   1      39.127  28.602  27.827  1.00  0.00     0.031 C 
ATOM     44  C   UNL A   1      37.821  31.703  31.544  1.00  0.00     0.029 A 
ATOM     45  N   UNL A   1      39.599  30.393  31.906  1.00  0.00    -0.354 N 
ATOM     46  C   UNL A   1      40.939  27.627  28.804  1.00  0.00     0.074 A 
ATOM     47  C   UNL A   1      40.062  27.684  27.657  1.00  0.00     0.031 C 
ATOM     48  C   UNL A   1      38.260  31.955  32.788  1.00  0.00     0.029 A 
ATOM     49  C   UNL A   1      39.403  31.088  33.070  1.00  0.00     0.049 A 
ATOM     50  H   UNL A   1      40.340  29.760  31.772  1.00  0.00     0.167 HD
ATOM     51  C   UNL A   1      42.033  26.837  28.886  1.00  0.00     0.037 A 
ATOM     52  C   UNL A   1      40.068  31.006  34.237  1.00  0.00     0.037 A 
ATOM     53  C   UNL A   1      42.890  26.793  30.037  1.00  0.00     0.049 A 
ATOM     54  C   UNL A   1      41.256  30.087  34.327  1.00  0.00     0.074 A 
ATOM     55  C   UNL A   1      44.050  26.067  30.228  1.00  0.00     0.029 A 
ATOM     56  N   UNL A   1      42.661  27.506  31.207  1.00  0.00    -0.354 N 
ATOM     57  N   UNL A   1      41.750  29.282  33.416  1.00  0.00    -0.248 NA
ATOM     58  C   UNL A   1      41.989  30.078  35.598  1.00  0.00     0.031 C 
ATOM     59  C   UNL A   1      44.496  26.302  31.533  1.00  0.00     0.029 A 
ATOM     60  C   UNL A   1      43.641  27.213  32.139  1.00  0.00     0.049 A 
ATOM     61  H   UNL A   1      41.911  28.128  31.352  1.00  0.00     0.167 HD
ATOM     62  C   UNL A   1      42.860  28.683  33.994  1.00  0.00     0.074 A 
ATOM     63  C   UNL A   1      42.973  29.230  35.333  1.00  0.00     0.031 C 
ATOM     64  C   UNL A   1      43.714  27.769  33.467  1.00  0.00     0.037 A 
BRANCH  51  65
ATOM     65  C   UNL A   1      42.326  25.949  27.713  1.00  0.00     0.064 A 
ATOM     66  C   UNL A   1      41.683  24.712  27.543  1.00  0.00     0.173 A 
ATOM     67  C   UNL A   1      43.285  26.327  26.763  1.00  0.00     0.173 A 
ATOM     68  F   UNL A   1      40.777  24.293  28.438  1.00  0.00    -0.203 F 
ATOM     69  C   UNL A   1      42.017  23.871  26.484  1.00  0.00     0.198 A 
ATOM     70  C   UNL A   1      43.595  25.497  25.689  1.00  0.00     0.198 A 
ATOM     71  F   UNL A   1      43.932  27.495  26.882  1.00  0.00    -0.203 F 
ATOM     72  F   UNL A   1      41.436  22.669  26.376  1.00  0.00    -0.200 F 
ATOM     73  C   UNL A   1      42.969  24.267  25.556  1.00  0.00     0.200 A 
ATOM     74  F   UNL A   1      44.513  25.880  24.791  1.00  0.00    -0.200 F 
ATOM     75  F   UNL A   1      43.294  23.454  24.541  1.00  0.00    -0.200 F 
ENDBRANCH  51  65
BRANCH  52  76
ATOM     76  C   UNL A   1      39.607  31.815  35.390  1.00  0.00     0.064 A 
ATOM     77  C   UNL A   1      40.079  33.117  35.600  1.00  0.00     0.173 A 
ATOM     78  C   UNL A   1      38.639  31.318  36.274  1.00  0.00     0.173 A 
ATOM     79  F   UNL A   1      41.016  33.629  34.788  1.00  0.00    -0.203 F 
ATOM     80  C   UNL A   1      39.601  33.890  36.656  1.00  0.00     0.198 A 
ATOM     81  C   UNL A   1      38.146  32.100  37.315  1.00  0.00     0.198 A 
ATOM     82  F   UNL A   1      38.153  30.079  36.110  1.00  0.00    -0.203 F 
ATOM     83  F   UNL A   1      40.082  35.127  36.849  1.00  0.00    -0.200 F 
ATOM     84  C   UNL A   1      38.629  33.385  37.507  1.00  0.00     0.200 A 
ATOM     85  F   UNL A   1      37.196  31.613  38.126  1.00  0.00    -0.200 F 
ATOM     86  F   UNL A   1      38.157  34.137  38.511  1.00  0.00    -0.200 F 
ENDBRANCH  52  76
BRANCH  64  87
ATOM     87  C   UNL A   1      44.846  27.316  34.338  1.00  0.00     0.064 A 
ATOM     88  C   UNL A   1      46.058  28.018  34.385  1.00  0.00     0.173 A 
ATOM     89  C   UNL A   1      44.695  26.199  35.173  1.00  0.00     0.173 A 
ATOM     90  F   UNL A   1      46.253  29.084  33.596  1.00  0.00    -0.203 F 
ATOM     91  C   UNL A   1      47.089  27.604  35.225  1.00  0.00     0.198 A 
ATOM     92  C   UNL A   1      45.716  25.805  36.031  1.00  0.00     0.198 A 
ATOM     93  F   UNL A   1      43.549  25.500  35.168  1.00  0.00    -0.203 F 
ATOM     94  F   UNL A   1      48.254  28.264  35.227  1.00  0.00    -0.200 F 
ATOM     95  C   UNL A   1      46.914  26.504  36.051  1.00  0.00     0.200 A 
ATOM     96  F   UNL A   1      45.541  24.750  36.839  1.00  0.00    -0.200 F 
ATOM     97  F   UNL A   1      47.904  26.112  36.866  1.00  0.00    -0.200 F 
ENDBRANCH  64  87
ENDBRANCH  38  39
ENDBRANCH  31  33
ENDBRANCH  30  31
ENDBRANCH  29  30
ENDBRANCH  28  29
ENDBRANCH  27  28
ENDBRANCH   1  27
TORSDOF 18
ENDMDL
MODEL 3
REMARK VINA RESULT:     -11.6      1.123      2.192
REMARK SMILES COc1ccccc1C(=O)N/C(=C/c1ccc(Cl)cc1)C(=O)OCCOCCOC(=O)c1ccc(-c2c3nc(c(-c4c(F)c(F)c(F)c(F)c4F)c4ccc([nH]4)c(-c4c(F)c(F)c(F)c(F)c4F)c4nc(c(-c5c(F)c(F)c(F)c(F)c5F)c5ccc2[nH]5)C=C4)C=C3)cc1
REMARK SMILES IDX 25 1 24 2 23 3 21 4 22 5 12 6 13 7 11 8 9 9 10 10 8 12 3 13
REMARK SMILES IDX 4 14 5 15 7 16 6 17 2 18 1 19 14 20 15 21 20 22 16 23 19 24
REMARK SMILES IDX 17 25 18 26 26 27 27 28 28 29 29 30 30 31 31 32 32 33 33 34
REMARK SMILES IDX 94 35 34 36 93 37 35 38 36 39 37 40 87 41 38 42 92 43 86 44
REMARK SMILES IDX 88 45 39 46 91 47 85 48 84 49 40 51 72 52 52 53 71 54 53 55
REMARK SMILES IDX 56 56 70 57 89 58 54 59 55 60 69 62 90 63 57 64 41 65 42 66
REMARK SMILES IDX 50 67 43 68 44 69 48 70 51 71 45 72 46 73 49 74 47 75 73 76
REMARK SMILES IDX 74 77 82 78 75 79 76 80 80 81 83 82 77 83 78 84 81 85 79 86
REMARK SMILES IDX 58 87 59 88 67 89 60 90 61 91 65 92 68 93 62 94 63 95 66 96
REMARK SMILES IDX 64 97
REMARK H PARENT 11 11 88 50 56 61
REMARK Flexibility Score: inf
ROOT
ATOM      1  C   UNL A   1      32.135  29.780  27.041  1.00  0.00     0.202 C 
ENDROOT
BRANCH   1   2
ATOM      2  C   UNL A   1      32.068  28.990  25.730  1.00  0.00     0.261 C 
BRANCH   2   3
ATOM      3  O   UNL A   1      31.357  27.761  25.940  1.00  0.00    -0.459 OA
BRANCH   3   4
ATOM      4  C   UNL A   1      31.531  26.813  24.979  1.00  0.00     0.354 C 
ATOM      5  O   UNL A   1      32.537  26.653  24.301  1.00  0.00    -0.244 OA
BRANCH   4   6
ATOM      6  C   UNL A   1      30.305  25.954  24.854  1.00  0.00     0.128 C 
ATOM      7  C   UNL A   1      29.276  26.333  24.066  1.00  0.00     0.042 C 
BRANCH   6   8
ATOM      8  N   UNL A   1      30.201  24.725  25.495  1.00  0.00    -0.316 N 
ATOM      9  C   UNL A   1      30.853  23.512  25.392  1.00  0.00     0.259 C 
ATOM     10  O   UNL A   1      30.406  22.568  26.050  1.00  0.00    -0.269 OA
ATOM     11  H   UNL A   1      29.497  24.718  26.183  1.00  0.00     0.170 HD
BRANCH   9  12
ATOM     12  C   UNL A   1      32.102  23.286  24.628  1.00  0.00     0.082 A 
ATOM     13  C   UNL A   1      33.375  23.397  25.180  1.00  0.00     0.131 A 
ATOM     14  C   UNL A   1      34.498  23.392  24.344  1.00  0.00     0.047 A 
ATOM     15  C   UNL A   1      34.375  23.073  22.996  1.00  0.00     0.004 A 
ATOM     16  C   UNL A   1      31.991  22.873  23.291  1.00  0.00     0.018 A 
ATOM     17  C   UNL A   1      33.125  22.751  22.483  1.00  0.00     0.001 A 
BRANCH  13  18
ATOM     18  O   UNL A   1      33.578  23.624  26.510  1.00  0.00    -0.496 OA
ATOM     19  C   UNL A   1      33.821  22.441  27.267  1.00  0.00     0.278 C 
ENDBRANCH  13  18
ENDBRANCH   9  12
ENDBRANCH   6   8
BRANCH   7  20
ATOM     20  C   UNL A   1      29.105  27.595  23.332  1.00  0.00    -0.023 A 
ATOM     21  C   UNL A   1      27.843  28.207  23.352  1.00  0.00     0.010 A 
ATOM     22  C   UNL A   1      30.145  28.200  22.616  1.00  0.00     0.010 A 
ATOM     23  C   UNL A   1      27.632  29.423  22.699  1.00  0.00     0.021 A 
ATOM     24  C   UNL A   1      29.936  29.422  21.968  1.00  0.00     0.021 A 
ATOM     25  C   UNL A   1      28.682  30.030  22.017  1.00  0.00     0.041 A 
ATOM     26  Cl  UNL A   1      28.428  31.538  21.232  1.00  0.00    -0.084 Cl
ENDBRANCH   7  20
ENDBRANCH   4   6
ENDBRANCH   3   4
ENDBRANCH   2   3
ENDBRANCH   1   2
BRANCH   1  27
ATOM     27  O   UNL A   1      32.685  31.100  26.905  1.00  0.00    -0.374 OA
BRANCH  27  28
ATOM     28  C   UNL A   1      31.725  32.158  26.933  1.00  0.00     0.202 C 
BRANCH  28  29
ATOM     29  C   UNL A   1      32.311  33.501  27.357  1.00  0.00     0.261 C 
BRANCH  29  30
ATOM     30  O   UNL A   1      33.034  33.302  28.566  1.00  0.00    -0.460 OA
BRANCH  30  31
ATOM     31  C   UNL A   1      34.116  34.112  28.652  1.00  0.00     0.338 C 
ATOM     32  O   UNL A   1      34.132  35.321  28.756  1.00  0.00    -0.246 OA
BRANCH  31  33
ATOM     33  C   UNL A   1      35.304  33.255  28.799  1.00  0.00     0.060 A 
ATOM     34  C   UNL A   1      35.077  31.912  29.119  1.00  0.00     0.016 A 
ATOM     35  C   UNL A   1      36.602  33.748  28.620  1.00  0.00     0.016 A 
ATOM     36  C   UNL A   1      36.154  31.080  29.372  1.00  0.00     0.010 A 
ATOM     37  C   UNL A   1      37.684  32.914  28.871  1.00  0.00     0.010 A 
ATOM     38  C   UNL A   1      37.449  31.605  29.320  1.00  0.00    -0.014 A 
BRANCH  38  39
ATOM     39  C   UNL A   1      38.518  30.886  30.030  1.00  0.00     0.031 A 
ATOM     40  C   UNL A   1      38.733  31.223  31.478  1.00  0.00     0.074 A 
ATOM     41  C   UNL A   1      39.237  29.941  29.410  1.00  0.00     0.049 A 
ATOM     42  N   UNL A   1      39.593  30.731  32.328  1.00  0.00    -0.248 NA
ATOM     43  C   UNL A   1      37.855  32.263  32.044  1.00  0.00     0.031 C 
ATOM     44  C   UNL A   1      39.078  29.540  28.016  1.00  0.00     0.029 A 
ATOM     45  N   UNL A   1      40.258  29.161  29.881  1.00  0.00    -0.354 N 
ATOM     46  C   UNL A   1      39.358  31.398  33.522  1.00  0.00     0.074 A 
ATOM     47  C   UNL A   1      38.306  32.360  33.283  1.00  0.00     0.031 C 
ATOM     48  C   UNL A   1      40.000  28.606  27.728  1.00  0.00     0.029 A 
ATOM     49  C   UNL A   1      40.813  28.361  28.918  1.00  0.00     0.049 A 
ATOM     50  H   UNL A   1      40.562  29.174  30.816  1.00  0.00     0.167 HD
ATOM     51  C   UNL A   1      39.958  31.210  34.719  1.00  0.00     0.037 A 
ATOM     52  C   UNL A   1      41.876  27.541  28.998  1.00  0.00     0.037 A 
ATOM     53  C   UNL A   1      41.003  30.250  34.934  1.00  0.00     0.049 A 
ATOM     54  C   UNL A   1      42.563  27.377  30.326  1.00  0.00     0.074 A 
ATOM     55  C   UNL A   1      41.664  29.935  36.107  1.00  0.00     0.029 A 
ATOM     56  N   UNL A   1      41.551  29.455  33.936  1.00  0.00    -0.354 N 
ATOM     57  N   UNL A   1      42.303  27.966  31.470  1.00  0.00    -0.248 NA
ATOM     58  C   UNL A   1      43.678  26.424  30.381  1.00  0.00     0.031 C 
ATOM     59  C   UNL A   1      42.646  28.985  35.806  1.00  0.00     0.029 A 
ATOM     60  C   UNL A   1      42.565  28.671  34.457  1.00  0.00     0.049 A 
ATOM     61  H   UNL A   1      41.260  29.451  32.995  1.00  0.00     0.167 HD
ATOM     62  C   UNL A   1      43.207  27.445  32.385  1.00  0.00     0.074 A 
ATOM     63  C   UNL A   1      44.015  26.481  31.661  1.00  0.00     0.031 C 
ATOM     64  C   UNL A   1      43.355  27.730  33.703  1.00  0.00     0.037 A 
BRANCH  51  65
ATOM     65  C   UNL A   1      39.512  32.084  35.853  1.00  0.00     0.064 A 
ATOM     66  C   UNL A   1      40.130  33.314  36.127  1.00  0.00     0.173 A 
ATOM     67  C   UNL A   1      38.472  31.670  36.697  1.00  0.00     0.173 A 
ATOM     68  F   UNL A   1      41.147  33.743  35.365  1.00  0.00    -0.203 F 
ATOM     69  C   UNL A   1      39.746  34.080  37.225  1.00  0.00     0.198 A 
ATOM     70  C   UNL A   1      38.071  32.452  37.776  1.00  0.00     0.198 A 
ATOM     71  F   UNL A   1      37.852  30.500  36.483  1.00  0.00    -0.203 F 
ATOM     72  F   UNL A   1      40.392  35.221  37.504  1.00  0.00    -0.200 F 
ATOM     73  C   UNL A   1      38.715  33.650  38.046  1.00  0.00     0.200 A 
ATOM     74  F   UNL A   1      37.071  32.037  38.568  1.00  0.00    -0.200 F 
ATOM     75  F   UNL A   1      38.350  34.385  39.106  1.00  0.00    -0.200 F 
ENDBRANCH  51  65
BRANCH  52  76
ATOM     76  C   UNL A   1      42.336  26.833  27.779  1.00  0.00     0.064 A 
ATOM     77  C   UNL A   1      43.274  27.409  26.914  1.00  0.00     0.173 A 
ATOM     78  C   UNL A   1      41.883  25.538  27.487  1.00  0.00     0.173 A 
ATOM     79  F   UNL A   1      43.724  28.651  27.144  1.00  0.00    -0.203 F 
ATOM     80  C   UNL A   1      43.740  26.715  25.798  1.00  0.00     0.198 A 
ATOM     81  C   UNL A   1      42.367  24.838  26.385  1.00  0.00     0.198 A 
ATOM     82  F   UNL A   1      40.988  24.943  28.290  1.00  0.00    -0.203 F 
ATOM     83  F   UNL A   1      44.623  27.295  24.973  1.00  0.00    -0.200 F 
ATOM     84  C   UNL A   1      43.293  25.428  25.540  1.00  0.00     0.200 A 
ATOM     85  F   UNL A   1      41.943  23.588  26.149  1.00  0.00    -0.200 F 
ATOM     86  F   UNL A   1      43.756  24.755  24.478  1.00  0.00    -0.200 F 
ENDBRANCH  52  76
BRANCH  64  87
ATOM     87  C   UNL A   1      44.421  26.983  34.445  1.00  0.00     0.064 A 
ATOM     88  C   UNL A   1      45.711  27.508  34.597  1.00  0.00     0.173 A 
ATOM     89  C   UNL A   1      44.131  25.753  35.055  1.00  0.00     0.173 A 
ATOM     90  F   UNL A   1      46.038  28.675  34.021  1.00  0.00    -0.203 F 
ATOM     91  C   UNL A   1      46.682  26.818  35.317  1.00  0.00     0.198 A 
ATOM     92  C   UNL A   1      45.095  25.079  35.797  1.00  0.00     0.198 A 
ATOM     93  F   UNL A   1      42.907  25.214  34.944  1.00  0.00    -0.203 F 
ATOM     94  F   UNL A   1      47.921  27.318  35.418  1.00  0.00    -0.200 F 
ATOM     95  C   UNL A   1      46.371  25.609  35.923  1.00  0.00     0.200 A 
ATOM     96  F   UNL A   1      44.790  23.918  36.393  1.00  0.00    -0.200 F 
ATOM     97  F   UNL A   1      47.304  24.950  36.623  1.00  0.00    -0.200 F 
ENDBRANCH  64  87
ENDBRANCH  38  39
ENDBRANCH  31  33
ENDBRANCH  30  31
ENDBRANCH  29  30
ENDBRANCH  28  29
ENDBRANCH  27  28
ENDBRANCH   1  27
TORSDOF 18
ENDMDL
