MODEL 1
REMARK VINA RESULT:     -12.6      0.000      0.000
REMARK SMILES CC(C)(CC(=O)OCCOCCOC(=O)c1ccc(-c2c3nc(c(-c4c(F)c(F)c(F)c(F)c4F)c4ccc([nH]4)c(-c4c(F)c(F)c(F)c(F)c4F)c4nc(c(-c5c(F)c(F)c(F)c(F)c5F)c5ccc2[nH]5)C=C4)C=C3)cc1)Cc1nc([C@@]2(C)CCCO2)no1
REMARK SMILES IDX 9 1 8 2 7 3 5 4 6 5 4 6 2 7 1 8 3 9 79 10 80 11 81 12 90 13
REMARK SMILES IDX 82 14 89 15 83 16 84 17 85 18 88 19 86 20 87 21 10 22 11 23
REMARK SMILES IDX 12 24 13 25 14 26 15 27 16 28 17 29 78 30 18 31 77 32 19 33
REMARK SMILES IDX 20 34 21 35 71 36 22 37 76 38 70 39 72 40 23 41 75 42 69 43
REMARK SMILES IDX 68 44 24 46 56 47 36 48 55 49 37 50 40 51 54 52 73 53 38 54
REMARK SMILES IDX 39 55 53 57 74 58 41 59 25 60 26 61 34 62 27 63 28 64 32 65
REMARK SMILES IDX 35 66 29 67 30 68 33 69 31 70 57 71 58 72 66 73 59 74 60 75
REMARK SMILES IDX 64 76 67 77 61 78 62 79 65 80 63 81 42 82 43 83 51 84 44 85
REMARK SMILES IDX 45 86 49 87 52 88 46 89 47 90 50 91 48 92
REMARK H PARENT 72 45 40 56
REMARK Flexibility Score: inf
ROOT
ATOM      1  C   UNL A   1      39.236  21.418  25.903  1.00  0.00     0.202 C 
ENDROOT
BRANCH   1   2
ATOM      2  C   UNL A   1      37.804  21.875  25.586  1.00  0.00     0.261 C 
BRANCH   2   3
ATOM      3  O   UNL A   1      37.408  21.705  24.206  1.00  0.00    -0.463 OA
BRANCH   3   4
ATOM      4  C   UNL A   1      36.401  22.487  23.775  1.00  0.00     0.306 C 
ATOM      5  O   UNL A   1      36.435  23.119  22.721  1.00  0.00    -0.252 OA
BRANCH   4   6
ATOM      6  C   UNL A   1      35.118  22.469  24.604  1.00  0.00     0.129 C 
BRANCH   6   7
ATOM      7  C   UNL A   1      33.933  21.441  24.595  1.00  0.00    -0.016 C 
ATOM      8  C   UNL A   1      34.382  19.978  24.715  1.00  0.00     0.012 C 
ATOM      9  C   UNL A   1      33.170  21.767  25.927  1.00  0.00     0.012 C 
BRANCH   7  10
ATOM     10  C   UNL A   1      32.848  21.621  23.448  1.00  0.00     0.107 C 
BRANCH  10  11
ATOM     11  C   UNL A   1      32.544  23.011  22.960  1.00  0.00     0.227 A 
ATOM     12  N   UNL A   1      31.915  24.371  23.627  1.00  0.00    -0.193 NA
ATOM     13  O   UNL A   1      33.607  23.582  21.541  1.00  0.00    -0.339 OA
ATOM     14  C   UNL A   1      32.316  25.915  22.647  1.00  0.00     0.203 A 
ATOM     15  N   UNL A   1      33.343  25.530  21.365  1.00  0.00    -0.059 NA
BRANCH  14  16
ATOM     16  C   UNL A   1      32.156  27.377  22.982  1.00  0.00     0.128 C 
ATOM     17  C   UNL A   1      30.722  27.879  22.856  1.00  0.00     0.051 C 
ATOM     18  C   UNL A   1      32.665  27.631  24.435  1.00  0.00     0.046 C 
ATOM     19  O   UNL A   1      32.981  28.223  22.142  1.00  0.00    -0.367 OA
ATOM     20  C   UNL A   1      33.515  28.868  24.333  1.00  0.00     0.032 C 
ATOM     21  C   UNL A   1      34.051  28.755  22.927  1.00  0.00     0.161 C 
ENDBRANCH  14  16
ENDBRANCH  10  11
ENDBRANCH   7  10
ENDBRANCH   6   7
ENDBRANCH   4   6
ENDBRANCH   3   4
ENDBRANCH   2   3
ENDBRANCH   1   2
BRANCH   1  22
ATOM     22  O   UNL A   1      39.600  20.042  25.796  1.00  0.00    -0.374 OA
BRANCH  22  23
ATOM     23  C   UNL A   1      40.872  19.573  26.204  1.00  0.00     0.202 C 
BRANCH  23  24
ATOM     24  C   UNL A   1      42.186  20.428  26.810  1.00  0.00     0.261 C 
BRANCH  24  25
ATOM     25  O   UNL A   1      42.840  22.330  26.172  1.00  0.00    -0.460 OA
BRANCH  25  26
ATOM     26  C   UNL A   1      43.048  23.436  25.389  1.00  0.00     0.338 C 
ATOM     27  O   UNL A   1      43.549  23.507  24.277  1.00  0.00    -0.246 OA
BRANCH  26  28
ATOM     28  C   UNL A   1      42.327  24.593  25.953  1.00  0.00     0.060 A 
ATOM     29  C   UNL A   1      42.836  25.887  25.753  1.00  0.00     0.016 A 
ATOM     30  C   UNL A   1      41.338  24.353  26.902  1.00  0.00     0.016 A 
ATOM     31  C   UNL A   1      42.428  26.929  26.586  1.00  0.00     0.010 A 
ATOM     32  C   UNL A   1      40.917  25.399  27.718  1.00  0.00     0.010 A 
ATOM     33  C   UNL A   1      41.514  26.670  27.613  1.00  0.00    -0.014 A 
BRANCH  33  34
ATOM     34  C   UNL A   1      41.289  27.642  28.707  1.00  0.00     0.031 A 
ATOM     35  C   UNL A   1      42.135  27.538  29.948  1.00  0.00     0.074 A 
ATOM     36  C   UNL A   1      40.308  28.555  28.615  1.00  0.00     0.049 A 
ATOM     37  N   UNL A   1      41.978  28.110  31.114  1.00  0.00    -0.248 NA
ATOM     38  C   UNL A   1      43.313  26.655  29.865  1.00  0.00     0.031 C 
ATOM     39  C   UNL A   1      39.476  28.779  27.437  1.00  0.00     0.029 A 
ATOM     40  N   UNL A   1      39.826  29.437  29.548  1.00  0.00    -0.354 N 
ATOM     41  C   UNL A   1      43.019  27.641  31.907  1.00  0.00     0.074 A 
ATOM     42  C   UNL A   1      43.785  26.716  31.102  1.00  0.00     0.031 C 
ATOM     43  C   UNL A   1      38.560  29.719  27.725  1.00  0.00     0.029 A 
ATOM     44  C   UNL A   1      38.709  30.112  29.123  1.00  0.00     0.049 A 
ATOM     45  H   UNL A   1      40.239  29.572  30.431  1.00  0.00     0.167 HD
ATOM     46  C   UNL A   1      43.303  27.960  33.193  1.00  0.00     0.037 A 
ATOM     47  C   UNL A   1      37.875  30.918  29.809  1.00  0.00     0.037 A 
ATOM     48  C   UNL A   1      42.519  28.879  33.977  1.00  0.00     0.049 A 
ATOM     49  C   UNL A   1      38.154  31.177  31.268  1.00  0.00     0.074 A 
ATOM     50  C   UNL A   1      42.707  29.277  35.289  1.00  0.00     0.029 A 
ATOM     51  N   UNL A   1      41.390  29.541  33.515  1.00  0.00    -0.354 N 
ATOM     52  N   UNL A   1      39.130  30.729  32.020  1.00  0.00    -0.248 NA
ATOM     53  C   UNL A   1      37.212  32.057  31.975  1.00  0.00     0.031 C 
ATOM     54  C   UNL A   1      41.656  30.131  35.638  1.00  0.00     0.029 A 
ATOM     55  C   UNL A   1      40.860  30.331  34.521  1.00  0.00     0.049 A 
ATOM     56  H   UNL A   1      41.021  29.462  32.605  1.00  0.00     0.167 HD
ATOM     57  C   UNL A   1      38.954  31.315  33.267  1.00  0.00     0.074 A 
ATOM     58  C   UNL A   1      37.775  32.148  33.171  1.00  0.00     0.031 C 
ATOM     59  C   UNL A   1      39.704  31.181  34.388  1.00  0.00     0.037 A 
BRANCH  46  60
ATOM     60  C   UNL A   1      44.490  27.302  33.841  1.00  0.00     0.064 A 
ATOM     61  C   UNL A   1      45.760  27.900  33.841  1.00  0.00     0.173 A 
ATOM     62  C   UNL A   1      44.346  26.081  34.519  1.00  0.00     0.173 A 
ATOM     63  F   UNL A   1      45.958  29.065  33.205  1.00  0.00    -0.203 F 
ATOM     64  C   UNL A   1      46.842  27.291  34.473  1.00  0.00     0.198 A 
ATOM     65  C   UNL A   1      45.422  25.492  35.181  1.00  0.00     0.198 A 
ATOM     66  F   UNL A   1      43.154  25.466  34.562  1.00  0.00    -0.203 F 
ATOM     67  F   UNL A   1      48.053  27.863  34.424  1.00  0.00    -0.200 F 
ATOM     68  C   UNL A   1      46.671  26.094  35.150  1.00  0.00     0.200 A 
ATOM     69  F   UNL A   1      45.248  24.346  35.852  1.00  0.00    -0.200 F 
ATOM     70  F   UNL A   1      47.709  25.517  35.773  1.00  0.00    -0.200 F 
ENDBRANCH  46  60
BRANCH  47  71
ATOM     71  C   UNL A   1      36.696  31.523  29.136  1.00  0.00     0.064 A 
ATOM     72  C   UNL A   1      36.659  32.895  28.853  1.00  0.00     0.173 A 
ATOM     73  C   UNL A   1      35.574  30.756  28.786  1.00  0.00     0.173 A 
ATOM     74  F   UNL A   1      37.699  33.675  29.181  1.00  0.00    -0.203 F 
ATOM     75  C   UNL A   1      35.533  33.483  28.280  1.00  0.00     0.198 A 
ATOM     76  C   UNL A   1      34.464  31.338  28.177  1.00  0.00     0.198 A 
ATOM     77  F   UNL A   1      35.558  29.436  29.027  1.00  0.00    -0.203 F 
ATOM     78  F   UNL A   1      35.500  34.807  28.081  1.00  0.00    -0.200 F 
ATOM     79  C   UNL A   1      34.438  32.703  27.939  1.00  0.00     0.200 A 
ATOM     80  F   UNL A   1      33.418  30.577  27.829  1.00  0.00    -0.200 F 
ATOM     81  F   UNL A   1      33.355  33.269  27.390  1.00  0.00    -0.200 F 
ENDBRANCH  47  71
BRANCH  59  82
ATOM     82  C   UNL A   1      39.332  32.023  35.576  1.00  0.00     0.064 A 
ATOM     83  C   UNL A   1      39.812  33.329  35.749  1.00  0.00     0.173 A 
ATOM     84  C   UNL A   1      38.426  31.525  36.528  1.00  0.00     0.173 A 
ATOM     85  F   UNL A   1      40.690  33.846  34.877  1.00  0.00    -0.203 F 
ATOM     86  C   UNL A   1      39.418  34.096  36.842  1.00  0.00     0.198 A 
ATOM     87  C   UNL A   1      38.004  32.308  37.596  1.00  0.00     0.198 A 
ATOM     88  F   UNL A   1      37.932  30.283  36.405  1.00  0.00    -0.203 F 
ATOM     89  F   UNL A   1      39.928  35.323  37.015  1.00  0.00    -0.200 F 
ATOM     90  C   UNL A   1      38.506  33.590  37.757  1.00  0.00     0.200 A 
ATOM     91  F   UNL A   1      37.109  31.824  38.467  1.00  0.00    -0.200 F 
ATOM     92  F   UNL A   1      38.115  34.337  38.798  1.00  0.00    -0.200 F 
ENDBRANCH  59  82
ENDBRANCH  33  34
ENDBRANCH  26  28
ENDBRANCH  25  26
ENDBRANCH  24  25
ENDBRANCH  23  24
ENDBRANCH  22  23
ENDBRANCH   1  22
TORSDOF 18
ENDMDL
MODEL 2
REMARK VINA RESULT:     -12.5      1.181      2.203
REMARK SMILES CC(C)(CC(=O)OCCOCCOC(=O)c1ccc(-c2c3nc(c(-c4c(F)c(F)c(F)c(F)c4F)c4ccc([nH]4)c(-c4c(F)c(F)c(F)c(F)c4F)c4nc(c(-c5c(F)c(F)c(F)c(F)c5F)c5ccc2[nH]5)C=C4)C=C3)cc1)Cc1nc([C@@]2(C)CCCO2)no1
REMARK SMILES IDX 9 1 8 2 7 3 5 4 6 5 4 6 2 7 1 8 3 9 79 10 80 11 81 12 90 13
REMARK SMILES IDX 82 14 89 15 83 16 84 17 85 18 88 19 86 20 87 21 10 22 11 23
REMARK SMILES IDX 12 24 13 25 14 26 15 27 16 28 17 29 78 30 18 31 77 32 19 33
REMARK SMILES IDX 20 34 21 35 71 36 22 37 76 38 70 39 72 40 23 41 75 42 69 43
REMARK SMILES IDX 68 44 24 46 56 47 36 48 55 49 37 50 40 51 54 52 73 53 38 54
REMARK SMILES IDX 39 55 53 57 74 58 41 59 25 60 26 61 34 62 27 63 28 64 32 65
REMARK SMILES IDX 35 66 29 67 30 68 33 69 31 70 57 71 58 72 66 73 59 74 60 75
REMARK SMILES IDX 64 76 67 77 61 78 62 79 65 80 63 81 42 82 43 83 51 84 44 85
REMARK SMILES IDX 45 86 49 87 52 88 46 89 47 90 50 91 48 92
REMARK H PARENT 72 45 40 56
REMARK Flexibility Score: inf
ROOT
ATOM      1  C   UNL A   1      39.370  21.676  26.167  1.00  0.00     0.202 C 
ENDROOT
BRANCH   1   2
ATOM      2  C   UNL A   1      38.274  21.055  25.288  1.00  0.00     0.261 C 
BRANCH   2   3
ATOM      3  O   UNL A   1      37.382  22.010  24.669  1.00  0.00    -0.463 OA
BRANCH   3   4
ATOM      4  C   UNL A   1      36.199  22.203  25.281  1.00  0.00     0.306 C 
ATOM      5  O   UNL A   1      35.906  23.234  25.883  1.00  0.00    -0.252 OA
BRANCH   4   6
ATOM      6  C   UNL A   1      35.147  21.112  25.095  1.00  0.00     0.129 C 
BRANCH   6   7
ATOM      7  C   UNL A   1      33.611  21.240  24.805  1.00  0.00    -0.016 C 
ATOM      8  C   UNL A   1      33.272  22.241  23.693  1.00  0.00     0.012 C 
ATOM      9  C   UNL A   1      33.237  19.825  24.238  1.00  0.00     0.012 C 
BRANCH   7  10
ATOM     10  C   UNL A   1      32.665  21.435  26.068  1.00  0.00     0.107 C 
BRANCH  10  11
ATOM     11  C   UNL A   1      32.244  22.831  26.439  1.00  0.00     0.227 A 
ATOM     12  N   UNL A   1      32.982  24.295  26.505  1.00  0.00    -0.193 NA
ATOM     13  O   UNL A   1      30.432  23.183  26.191  1.00  0.00    -0.339 OA
ATOM     14  C   UNL A   1      31.770  25.722  26.506  1.00  0.00     0.203 A 
ATOM     15  N   UNL A   1      30.198  25.139  26.315  1.00  0.00    -0.059 NA
BRANCH  14  16
ATOM     16  C   UNL A   1      31.979  27.206  26.330  1.00  0.00     0.128 C 
ATOM     17  C   UNL A   1      31.604  28.025  27.559  1.00  0.00     0.051 C 
ATOM     18  C   UNL A   1      33.471  27.475  25.965  1.00  0.00     0.046 C 
ATOM     19  O   UNL A   1      31.218  27.734  25.215  1.00  0.00    -0.367 OA
ATOM     20  C   UNL A   1      33.416  28.451  24.822  1.00  0.00     0.032 C 
ATOM     21  C   UNL A   1      32.118  28.067  24.155  1.00  0.00     0.161 C 
ENDBRANCH  14  16
ENDBRANCH  10  11
ENDBRANCH   7  10
ENDBRANCH   6   7
ENDBRANCH   4   6
ENDBRANCH   3   4
ENDBRANCH   2   3
ENDBRANCH   1   2
BRANCH   1  22
ATOM     22  O   UNL A   1      40.040  20.893  27.155  1.00  0.00    -0.374 OA
BRANCH  22  23
ATOM     23  C   UNL A   1      41.297  20.294  26.904  1.00  0.00     0.202 C 
BRANCH  23  24
ATOM     24  C   UNL A   1      42.553  20.811  25.914  1.00  0.00     0.261 C 
BRANCH  24  25
ATOM     25  O   UNL A   1      42.896  22.788  25.262  1.00  0.00    -0.460 OA
BRANCH  25  26
ATOM     26  C   UNL A   1      43.453  24.035  25.134  1.00  0.00     0.338 C 
ATOM     27  O   UNL A   1      44.396  24.388  24.442  1.00  0.00    -0.246 OA
BRANCH  26  28
ATOM     28  C   UNL A   1      42.582  25.041  25.770  1.00  0.00     0.060 A 
ATOM     29  C   UNL A   1      42.815  26.405  25.530  1.00  0.00     0.016 A 
ATOM     30  C   UNL A   1      41.750  24.630  26.808  1.00  0.00     0.016 A 
ATOM     31  C   UNL A   1      42.297  27.362  26.403  1.00  0.00     0.010 A 
ATOM     32  C   UNL A   1      41.217  25.588  27.665  1.00  0.00     0.010 A 
ATOM     33  C   UNL A   1      41.550  26.947  27.511  1.00  0.00    -0.014 A 
BRANCH  33  34
ATOM     34  C   UNL A   1      41.248  27.873  28.627  1.00  0.00     0.031 A 
ATOM     35  C   UNL A   1      42.063  27.769  29.889  1.00  0.00     0.074 A 
ATOM     36  C   UNL A   1      40.230  28.743  28.533  1.00  0.00     0.049 A 
ATOM     37  N   UNL A   1      41.846  28.296  31.066  1.00  0.00    -0.248 NA
ATOM     38  C   UNL A   1      43.282  26.944  29.815  1.00  0.00     0.031 C 
ATOM     39  C   UNL A   1      39.421  28.967  27.338  1.00  0.00     0.029 A 
ATOM     40  N   UNL A   1      39.681  29.572  29.477  1.00  0.00    -0.354 N 
ATOM     41  C   UNL A   1      42.884  27.850  31.876  1.00  0.00     0.074 A 
ATOM     42  C   UNL A   1      43.715  26.987  31.067  1.00  0.00     0.031 C 
ATOM     43  C   UNL A   1      38.456  29.854  27.626  1.00  0.00     0.029 A 
ATOM     44  C   UNL A   1      38.546  30.210  29.040  1.00  0.00     0.049 A 
ATOM     45  H   UNL A   1      40.061  29.698  30.376  1.00  0.00     0.167 HD
ATOM     46  C   UNL A   1      43.117  28.141  33.178  1.00  0.00     0.037 A 
ATOM     47  C   UNL A   1      37.656  30.954  29.724  1.00  0.00     0.037 A 
ATOM     48  C   UNL A   1      42.269  28.998  33.967  1.00  0.00     0.049 A 
ATOM     49  C   UNL A   1      37.881  31.180  31.198  1.00  0.00     0.074 A 
ATOM     50  C   UNL A   1      42.400  29.363  35.294  1.00  0.00     0.029 A 
ATOM     51  N   UNL A   1      41.124  29.622  33.490  1.00  0.00    -0.354 N 
ATOM     52  N   UNL A   1      38.855  30.753  31.965  1.00  0.00    -0.248 NA
ATOM     53  C   UNL A   1      36.880  31.993  31.902  1.00  0.00     0.031 C 
ATOM     54  C   UNL A   1      41.301  30.157  35.637  1.00  0.00     0.029 A 
ATOM     55  C   UNL A   1      40.529  30.355  34.503  1.00  0.00     0.049 A 
ATOM     56  H   UNL A   1      40.785  29.555  32.568  1.00  0.00     0.167 HD
ATOM     57  C   UNL A   1      38.616  31.291  33.223  1.00  0.00     0.074 A 
ATOM     58  C   UNL A   1      37.403  32.072  33.117  1.00  0.00     0.031 C 
ATOM     59  C   UNL A   1      39.339  31.156  34.362  1.00  0.00     0.037 A 
BRANCH  46  60
ATOM     60  C   UNL A   1      44.314  27.517  33.841  1.00  0.00     0.064 A 
ATOM     61  C   UNL A   1      44.233  26.284  34.505  1.00  0.00     0.173 A 
ATOM     62  C   UNL A   1      45.574  28.133  33.764  1.00  0.00     0.173 A 
ATOM     63  F   UNL A   1      43.055  25.651  34.614  1.00  0.00    -0.203 F 
ATOM     64  C   UNL A   1      45.358  25.705  35.088  1.00  0.00     0.198 A 
ATOM     65  C   UNL A   1      46.704  27.534  34.316  1.00  0.00     0.198 A 
ATOM     66  F   UNL A   1      45.716  29.308  33.133  1.00  0.00    -0.203 F 
ATOM     67  F   UNL A   1      45.246  24.546  35.753  1.00  0.00    -0.200 F 
ATOM     68  C   UNL A   1      46.594  26.324  34.985  1.00  0.00     0.200 A 
ATOM     69  F   UNL A   1      47.900  28.125  34.196  1.00  0.00    -0.200 F 
ATOM     70  F   UNL A   1      47.679  25.757  35.530  1.00  0.00    -0.200 F 
ENDBRANCH  46  60
BRANCH  47  71
ATOM     71  C   UNL A   1      36.470  31.526  29.034  1.00  0.00     0.064 A 
ATOM     72  C   UNL A   1      36.384  32.901  28.777  1.00  0.00     0.173 A 
ATOM     73  C   UNL A   1      35.388  30.722  28.641  1.00  0.00     0.173 A 
ATOM     74  F   UNL A   1      37.385  33.715  29.146  1.00  0.00    -0.203 F 
ATOM     75  C   UNL A   1      35.250  33.455  28.189  1.00  0.00     0.198 A 
ATOM     76  C   UNL A   1      34.271  31.272  28.017  1.00  0.00     0.198 A 
ATOM     77  F   UNL A   1      35.420  29.398  28.856  1.00  0.00    -0.203 F 
ATOM     78  F   UNL A   1      35.168  34.781  28.016  1.00  0.00    -0.200 F 
ATOM     79  C   UNL A   1      34.196  32.640  27.806  1.00  0.00     0.200 A 
ATOM     80  F   UNL A   1      33.265  30.478  27.629  1.00  0.00    -0.200 F 
ATOM     81  F   UNL A   1      33.104  33.174  27.242  1.00  0.00    -0.200 F 
ENDBRANCH  47  71
BRANCH  59  82
ATOM     82  C   UNL A   1      38.895  31.941  35.563  1.00  0.00     0.064 A 
ATOM     83  C   UNL A   1      38.167  31.360  36.611  1.00  0.00     0.173 A 
ATOM     84  C   UNL A   1      39.262  33.292  35.689  1.00  0.00     0.173 A 
ATOM     85  F   UNL A   1      37.778  30.078  36.534  1.00  0.00    -0.203 F 
ATOM     86  C   UNL A   1      37.802  32.107  37.728  1.00  0.00     0.198 A 
ATOM     87  C   UNL A   1      38.931  34.023  36.824  1.00  0.00     0.198 A 
ATOM     88  F   UNL A   1      39.965  33.894  34.718  1.00  0.00    -0.203 F 
ATOM     89  F   UNL A   1      37.063  31.545  38.694  1.00  0.00    -0.200 F 
ATOM     90  C   UNL A   1      38.195  33.432  37.839  1.00  0.00     0.200 A 
ATOM     91  F   UNL A   1      39.328  35.297  36.938  1.00  0.00    -0.200 F 
ATOM     92  F   UNL A   1      37.858  34.144  38.924  1.00  0.00    -0.200 F 
ENDBRANCH  59  82
ENDBRANCH  33  34
ENDBRANCH  26  28
ENDBRANCH  25  26
ENDBRANCH  24  25
ENDBRANCH  23  24
ENDBRANCH  22  23
ENDBRANCH   1  22
TORSDOF 18
ENDMDL
MODEL 3
REMARK VINA RESULT:     -12.3      4.770      8.726
REMARK SMILES CC(C)(CC(=O)OCCOCCOC(=O)c1ccc(-c2c3nc(c(-c4c(F)c(F)c(F)c(F)c4F)c4ccc([nH]4)c(-c4c(F)c(F)c(F)c(F)c4F)c4nc(c(-c5c(F)c(F)c(F)c(F)c5F)c5ccc2[nH]5)C=C4)C=C3)cc1)Cc1nc([C@@]2(C)CCCO2)no1
REMARK SMILES IDX 9 1 8 2 7 3 5 4 6 5 4 6 2 7 1 8 3 9 79 10 80 11 81 12 90 13
REMARK SMILES IDX 82 14 89 15 83 16 84 17 85 18 88 19 86 20 87 21 10 22 11 23
REMARK SMILES IDX 12 24 13 25 14 26 15 27 16 28 17 29 78 30 18 31 77 32 19 33
REMARK SMILES IDX 20 34 21 35 71 36 22 37 76 38 70 39 72 40 23 41 75 42 69 43
REMARK SMILES IDX 68 44 24 46 56 47 36 48 55 49 37 50 40 51 54 52 73 53 38 54
REMARK SMILES IDX 39 55 53 57 74 58 41 59 25 60 26 61 34 62 27 63 28 64 32 65
REMARK SMILES IDX 35 66 29 67 30 68 33 69 31 70 57 71 58 72 66 73 59 74 60 75
REMARK SMILES IDX 64 76 67 77 61 78 62 79 65 80 63 81 42 82 43 83 51 84 44 85
REMARK SMILES IDX 45 86 49 87 52 88 46 89 47 90 50 91 48 92
REMARK H PARENT 72 45 40 56
REMARK Flexibility Score: inf
ROOT
ATOM      1  C   UNL A   1      33.191  20.781  24.804  1.00  0.00     0.202 C 
ENDROOT
BRANCH   1   2
ATOM      2  C   UNL A   1      32.789  21.953  25.713  1.00  0.00     0.261 C 
BRANCH   2   3
ATOM      3  O   UNL A   1      31.364  22.146  25.855  1.00  0.00    -0.463 OA
BRANCH   3   4
ATOM      4  C   UNL A   1      30.977  23.126  26.692  1.00  0.00     0.306 C 
ATOM      5  O   UNL A   1      29.988  23.048  27.419  1.00  0.00    -0.252 OA
BRANCH   4   6
ATOM      6  C   UNL A   1      31.906  24.333  26.809  1.00  0.00     0.129 C 
BRANCH   6   7
ATOM      7  C   UNL A   1      32.106  25.542  25.831  1.00  0.00    -0.016 C 
ATOM      8  C   UNL A   1      31.457  26.845  26.317  1.00  0.00     0.012 C 
ATOM      9  C   UNL A   1      33.655  25.789  25.883  1.00  0.00     0.012 C 
BRANCH   7  10
ATOM     10  C   UNL A   1      31.787  25.274  24.297  1.00  0.00     0.107 C 
BRANCH  10  11
ATOM     11  C   UNL A   1      31.080  26.346  23.513  1.00  0.00     0.227 A 
ATOM     12  N   UNL A   1      29.531  26.872  23.390  1.00  0.00    -0.193 NA
ATOM     13  O   UNL A   1      32.151  27.796  23.045  1.00  0.00    -0.339 OA
ATOM     14  C   UNL A   1      29.402  28.594  22.668  1.00  0.00     0.203 A 
ATOM     15  N   UNL A   1      30.945  29.233  22.431  1.00  0.00    -0.059 NA
BRANCH  14  16
ATOM     16  C   UNL A   1      28.241  29.553  22.581  1.00  0.00     0.128 C 
ATOM     17  C   UNL A   1      26.923  28.962  23.067  1.00  0.00     0.051 C 
ATOM     18  C   UNL A   1      28.568  30.834  23.409  1.00  0.00     0.046 C 
ATOM     19  O   UNL A   1      28.025  30.027  21.228  1.00  0.00    -0.367 OA
ATOM     20  C   UNL A   1      28.170  31.979  22.519  1.00  0.00     0.032 C 
ATOM     21  C   UNL A   1      28.416  31.400  21.148  1.00  0.00     0.161 C 
ENDBRANCH  14  16
ENDBRANCH  10  11
ENDBRANCH   7  10
ENDBRANCH   6   7
ENDBRANCH   4   6
ENDBRANCH   3   4
ENDBRANCH   2   3
ENDBRANCH   1   2
BRANCH   1  22
ATOM     22  O   UNL A   1      34.522  20.266  24.829  1.00  0.00    -0.374 OA
BRANCH  22  23
ATOM     23  C   UNL A   1      35.609  21.035  25.308  1.00  0.00     0.202 C 
BRANCH  23  24
ATOM     24  C   UNL A   1      37.180  21.152  24.722  1.00  0.00     0.261 C 
BRANCH  24  25
ATOM     25  O   UNL A   1      38.951  20.831  25.823  1.00  0.00    -0.460 OA
BRANCH  25  26
ATOM     26  C   UNL A   1      40.232  20.971  26.292  1.00  0.00     0.338 C 
ATOM     27  O   UNL A   1      41.227  20.317  26.018  1.00  0.00    -0.246 OA
BRANCH  26  28
ATOM     28  C   UNL A   1      40.361  22.243  27.027  1.00  0.00     0.060 A 
ATOM     29  C   UNL A   1      39.793  23.411  26.491  1.00  0.00     0.016 A 
ATOM     30  C   UNL A   1      41.280  22.311  28.070  1.00  0.00     0.016 A 
ATOM     31  C   UNL A   1      40.231  24.661  26.929  1.00  0.00     0.010 A 
ATOM     32  C   UNL A   1      41.700  23.558  28.522  1.00  0.00     0.010 A 
ATOM     33  C   UNL A   1      41.234  24.734  27.903  1.00  0.00    -0.014 A 
BRANCH  33  34
ATOM     34  C   UNL A   1      41.952  26.000  28.175  1.00  0.00     0.031 A 
ATOM     35  C   UNL A   1      41.222  27.102  28.895  1.00  0.00     0.074 A 
ATOM     36  C   UNL A   1      43.207  26.179  27.732  1.00  0.00     0.049 A 
ATOM     37  N   UNL A   1      41.548  28.360  29.042  1.00  0.00    -0.248 NA
ATOM     38  C   UNL A   1      39.940  26.735  29.524  1.00  0.00     0.031 C 
ATOM     39  C   UNL A   1      44.023  25.158  27.080  1.00  0.00     0.029 A 
ATOM     40  N   UNL A   1      43.997  27.299  27.731  1.00  0.00    -0.354 N 
ATOM     41  C   UNL A   1      40.505  28.939  29.757  1.00  0.00     0.074 A 
ATOM     42  C   UNL A   1      39.523  27.904  29.991  1.00  0.00     0.031 C 
ATOM     43  C   UNL A   1      45.193  25.706  26.713  1.00  0.00     0.029 A 
ATOM     44  C   UNL A   1      45.177  27.127  27.051  1.00  0.00     0.049 A 
ATOM     45  H   UNL A   1      43.745  28.142  28.174  1.00  0.00     0.167 HD
ATOM     46  C   UNL A   1      40.387  30.221  30.179  1.00  0.00     0.037 A 
ATOM     47  C   UNL A   1      46.112  28.032  26.700  1.00  0.00     0.037 A 
ATOM     48  C   UNL A   1      41.377  31.237  29.927  1.00  0.00     0.049 A 
ATOM     49  C   UNL A   1      45.908  29.474  27.092  1.00  0.00     0.074 A 
ATOM     50  C   UNL A   1      41.365  32.568  30.299  1.00  0.00     0.029 A 
ATOM     51  N   UNL A   1      42.558  31.025  29.228  1.00  0.00    -0.354 N 
ATOM     52  N   UNL A   1      44.921  30.022  27.759  1.00  0.00    -0.248 NA
ATOM     53  C   UNL A   1      46.951  30.424  26.681  1.00  0.00     0.031 C 
ATOM     54  C   UNL A   1      42.509  33.176  29.773  1.00  0.00     0.029 A 
ATOM     55  C   UNL A   1      43.275  32.207  29.145  1.00  0.00     0.049 A 
ATOM     56  H   UNL A   1      42.845  30.162  28.850  1.00  0.00     0.167 HD
ATOM     57  C   UNL A   1      45.251  31.364  27.897  1.00  0.00     0.074 A 
ATOM     58  C   UNL A   1      46.528  31.547  27.240  1.00  0.00     0.031 C 
ATOM     59  C   UNL A   1      44.563  32.355  28.516  1.00  0.00     0.037 A 
BRANCH  46  60
ATOM     60  C   UNL A   1      39.144  30.607  30.932  1.00  0.00     0.064 A 
ATOM     61  C   UNL A   1      37.997  31.079  30.276  1.00  0.00     0.173 A 
ATOM     62  C   UNL A   1      39.078  30.451  32.326  1.00  0.00     0.173 A 
ATOM     63  F   UNL A   1      38.004  31.252  28.945  1.00  0.00    -0.203 F 
ATOM     64  C   UNL A   1      36.843  31.403  30.986  1.00  0.00     0.198 A 
ATOM     65  C   UNL A   1      37.910  30.742  33.029  1.00  0.00     0.198 A 
ATOM     66  F   UNL A   1      40.139  29.994  33.008  1.00  0.00    -0.203 F 
ATOM     67  F   UNL A   1      35.775  31.892  30.339  1.00  0.00    -0.200 F 
ATOM     68  C   UNL A   1      36.797  31.226  32.360  1.00  0.00     0.200 A 
ATOM     69  F   UNL A   1      37.863  30.549  34.355  1.00  0.00    -0.200 F 
ATOM     70  F   UNL A   1      35.681  31.521  33.040  1.00  0.00    -0.200 F 
ENDBRANCH  46  60
BRANCH  47  71
ATOM     71  C   UNL A   1      47.310  27.610  25.928  1.00  0.00     0.064 A 
ATOM     72  C   UNL A   1      47.306  27.646  24.526  1.00  0.00     0.173 A 
ATOM     73  C   UNL A   1      48.468  27.138  26.563  1.00  0.00     0.173 A 
ATOM     74  F   UNL A   1      46.218  28.074  23.870  1.00  0.00    -0.203 F 
ATOM     75  C   UNL A   1      48.400  27.193  23.791  1.00  0.00     0.198 A 
ATOM     76  C   UNL A   1      49.576  26.722  25.828  1.00  0.00     0.198 A 
ATOM     77  F   UNL A   1      48.529  27.090  27.903  1.00  0.00    -0.203 F 
ATOM     78  F   UNL A   1      48.343  27.177  22.453  1.00  0.00    -0.200 F 
ATOM     79  C   UNL A   1      49.535  26.735  24.443  1.00  0.00     0.200 A 
ATOM     80  F   UNL A   1      50.678  26.303  26.462  1.00  0.00    -0.200 F 
ATOM     81  F   UNL A   1      50.586  26.298  23.735  1.00  0.00    -0.200 F 
ENDBRANCH  47  71
BRANCH  59  82
ATOM     82  C   UNL A   1      45.215  33.706  28.599  1.00  0.00     0.064 A 
ATOM     83  C   UNL A   1      46.085  34.056  29.641  1.00  0.00     0.173 A 
ATOM     84  C   UNL A   1      45.007  34.645  27.574  1.00  0.00     0.173 A 
ATOM     85  F   UNL A   1      46.305  33.201  30.652  1.00  0.00    -0.203 F 
ATOM     86  C   UNL A   1      46.702  35.303  29.669  1.00  0.00     0.198 A 
ATOM     87  C   UNL A   1      45.658  35.874  27.584  1.00  0.00     0.198 A 
ATOM     88  F   UNL A   1      44.191  34.357  26.549  1.00  0.00    -0.203 F 
ATOM     89  F   UNL A   1      47.489  35.635  30.701  1.00  0.00    -0.200 F 
ATOM     90  C   UNL A   1      46.498  36.205  28.635  1.00  0.00     0.200 A 
ATOM     91  F   UNL A   1      45.474  36.735  26.575  1.00  0.00    -0.200 F 
ATOM     92  F   UNL A   1      47.109  37.398  28.655  1.00  0.00    -0.200 F 
ENDBRANCH  59  82
ENDBRANCH  33  34
ENDBRANCH  26  28
ENDBRANCH  25  26
ENDBRANCH  24  25
ENDBRANCH  23  24
ENDBRANCH  22  23
ENDBRANCH   1  22
TORSDOF 18
ENDMDL
