MODEL 1
REMARK VINA RESULT:      -7.7      0.000      0.000
REMARK SMILES CC/C=C/C/C=C/C/C=C/C/C=C/CC/C=C/COCC(=O)OCCOCCOC(=O)c1ccc(-c2c3nc(c(-c4c(F)c(F)c(F)c(F)c4F)c4ccc([nH]4)c(-c4c(F)c(F)c(F)c(F)c4F)c4nc(c(-c5c(F)c(F)c(F)c(F)c5F)c5ccc2[nH]5)C=C4)C=C3)cc1
REMARK SMILES IDX 20 1 19 2 18 3 17 4 16 5 15 6 14 7 13 8 12 9 11 10 10 11
REMARK SMILES IDX 9 12 8 13 7 14 6 15 5 16 4 17 3 18 2 19 1 20 21 21 22 22
REMARK SMILES IDX 23 23 24 24 25 25 26 26 27 27 28 28 29 29 30 30 31 31 32 32
REMARK SMILES IDX 33 33 94 34 34 35 93 36 35 37 36 38 37 39 87 40 38 41 92 42
REMARK SMILES IDX 86 43 88 44 39 45 91 46 85 47 84 48 40 50 72 51 52 52 71 53
REMARK SMILES IDX 53 54 56 55 70 56 89 57 54 58 55 59 69 61 90 62 57 63 41 64
REMARK SMILES IDX 42 65 50 66 43 67 44 68 48 69 51 70 45 71 46 72 49 73 47 74
REMARK SMILES IDX 73 75 74 76 82 77 75 78 76 79 80 80 83 81 77 82 78 83 81 84
REMARK SMILES IDX 79 85 58 86 59 87 67 88 60 89 61 90 65 91 68 92 62 93 63 94
REMARK SMILES IDX 66 95 64 96
REMARK H PARENT 88 49 56 60
REMARK Flexibility Score: inf
ROOT
ATOM      1  C   UNL A   1      39.236  30.401  34.213  1.00  0.00     0.283 C 
ENDROOT
BRANCH   1   2
ATOM      2  O   UNL A   1      39.019  29.570  33.089  1.00  0.00    -0.366 OA
BRANCH   2   3
ATOM      3  C   UNL A   1      39.821  28.398  32.968  1.00  0.00     0.188 C 
BRANCH   3   4
ATOM      4  C   UNL A   1      41.086  28.434  33.779  1.00  0.00    -0.003 C 
ATOM      5  C   UNL A   1      42.259  27.913  33.380  1.00  0.00    -0.029 C 
BRANCH   5   6
ATOM      6  C   UNL A   1      43.526  27.898  34.194  1.00  0.00     0.031 C 
BRANCH   6   7
ATOM      7  C   UNL A   1      44.551  26.853  33.723  1.00  0.00     0.031 C 
BRANCH   7   8
ATOM      8  C   UNL A   1      44.065  25.427  33.754  1.00  0.00    -0.031 C 
ATOM      9  C   UNL A   1      43.575  24.810  34.844  1.00  0.00    -0.027 C 
BRANCH   9  10
ATOM     10  C   UNL A   1      43.036  23.405  34.849  1.00  0.00     0.054 C 
BRANCH  10  11
ATOM     11  C   UNL A   1      44.090  22.419  34.432  1.00  0.00    -0.027 C 
ATOM     12  C   UNL A   1      45.332  22.380  34.945  1.00  0.00    -0.027 C 
BRANCH  12  13
ATOM     13  C   UNL A   1      46.395  21.410  34.516  1.00  0.00     0.054 C 
BRANCH  13  14
ATOM     14  C   UNL A   1      46.303  20.137  35.308  1.00  0.00    -0.027 C 
ATOM     15  C   UNL A   1      45.833  20.058  36.564  1.00  0.00    -0.027 C 
BRANCH  15  16
ATOM     16  C   UNL A   1      45.762  18.785  37.359  1.00  0.00     0.054 C 
BRANCH  16  17
ATOM     17  C   UNL A   1      46.828  18.755  38.416  1.00  0.00    -0.027 C 
ATOM     18  C   UNL A   1      47.939  19.509  38.390  1.00  0.00    -0.031 C 
BRANCH  18  19
ATOM     19  C   UNL A   1      49.005  19.466  39.446  1.00  0.00     0.023 C 
ATOM     20  C   UNL A   1      48.788  18.301  40.401  1.00  0.00     0.008 C 
ENDBRANCH  18  19
ENDBRANCH  16  17
ENDBRANCH  15  16
ENDBRANCH  13  14
ENDBRANCH  12  13
ENDBRANCH  10  11
ENDBRANCH   9  10
ENDBRANCH   7   8
ENDBRANCH   6   7
ENDBRANCH   5   6
ENDBRANCH   3   4
ENDBRANCH   2   3
ENDBRANCH   1   2
BRANCH   1  21
ATOM     21  C   UNL A   1      38.206  31.398  34.756  1.00  0.00     0.332 C 
ATOM     22  O   UNL A   1      37.745  31.318  35.889  1.00  0.00    -0.250 OA
BRANCH  21  23
ATOM     23  O   UNL A   1      37.938  32.402  33.877  1.00  0.00    -0.462 OA
BRANCH  23  24
ATOM     24  C   UNL A   1      36.544  32.596  33.560  1.00  0.00     0.261 C 
BRANCH  24  25
ATOM     25  C   UNL A   1      36.147  31.937  32.237  1.00  0.00     0.202 C 
BRANCH  25  26
ATOM     26  O   UNL A   1      36.609  32.565  31.043  1.00  0.00    -0.374 OA
BRANCH  26  27
ATOM     27  C   UNL A   1      35.643  33.303  30.304  1.00  0.00     0.202 C 
BRANCH  27  28
ATOM     28  C   UNL A   1      34.515  32.497  29.648  1.00  0.00     0.261 C 
BRANCH  28  29
ATOM     29  O   UNL A   1      34.845  32.113  28.306  1.00  0.00    -0.460 OA
BRANCH  29  30
ATOM     30  C   UNL A   1      34.758  30.781  28.075  1.00  0.00     0.338 C 
ATOM     31  O   UNL A   1      33.808  30.160  27.635  1.00  0.00    -0.246 OA
BRANCH  30  32
ATOM     32  C   UNL A   1      36.089  30.172  28.238  1.00  0.00     0.060 A 
ATOM     33  C   UNL A   1      36.352  29.544  29.461  1.00  0.00     0.016 A 
ATOM     34  C   UNL A   1      37.066  30.241  27.243  1.00  0.00     0.016 A 
ATOM     35  C   UNL A   1      37.612  29.014  29.713  1.00  0.00     0.010 A 
ATOM     36  C   UNL A   1      38.336  29.719  27.503  1.00  0.00     0.010 A 
ATOM     37  C   UNL A   1      38.621  29.130  28.749  1.00  0.00    -0.014 A 
BRANCH  37  38
ATOM     38  C   UNL A   1      40.007  28.746  29.101  1.00  0.00     0.031 A 
ATOM     39  C   UNL A   1      40.844  29.698  29.906  1.00  0.00     0.074 A 
ATOM     40  C   UNL A   1      40.495  27.550  28.733  1.00  0.00     0.049 A 
ATOM     41  N   UNL A   1      42.092  29.591  30.282  1.00  0.00    -0.248 NA
ATOM     42  C   UNL A   1      40.184  30.936  30.351  1.00  0.00     0.031 C 
ATOM     43  C   UNL A   1      39.754  26.529  27.996  1.00  0.00     0.029 A 
ATOM     44  N   UNL A   1      41.736  26.996  28.923  1.00  0.00    -0.354 N 
ATOM     45  C   UNL A   1      42.370  30.749  30.997  1.00  0.00     0.074 A 
ATOM     46  C   UNL A   1      41.169  31.556  30.983  1.00  0.00     0.031 C 
ATOM     47  C   UNL A   1      40.560  25.476  27.781  1.00  0.00     0.029 A 
ATOM     48  C   UNL A   1      41.884  25.768  28.328  1.00  0.00     0.049 A 
ATOM     49  H   UNL A   1      42.450  27.436  29.437  1.00  0.00     0.167 HD
ATOM     50  C   UNL A   1      43.524  31.100  31.613  1.00  0.00     0.037 A 
ATOM     51  C   UNL A   1      42.976  24.989  28.207  1.00  0.00     0.037 A 
ATOM     52  C   UNL A   1      44.711  30.287  31.622  1.00  0.00     0.049 A 
ATOM     53  C   UNL A   1      44.274  25.446  28.821  1.00  0.00     0.074 A 
ATOM     54  C   UNL A   1      45.922  30.536  32.244  1.00  0.00     0.029 A 
ATOM     55  N   UNL A   1      44.840  29.071  30.966  1.00  0.00    -0.354 N 
ATOM     56  N   UNL A   1      44.523  26.526  29.523  1.00  0.00    -0.248 NA
ATOM     57  C   UNL A   1      45.444  24.580  28.623  1.00  0.00     0.031 C 
ATOM     58  C   UNL A   1      46.804  29.503  31.909  1.00  0.00     0.029 A 
ATOM     59  C   UNL A   1      46.125  28.579  31.132  1.00  0.00     0.049 A 
ATOM     60  H   UNL A   1      44.124  28.623  30.459  1.00  0.00     0.167 HD
ATOM     61  C   UNL A   1      45.867  26.460  29.865  1.00  0.00     0.074 A 
ATOM     62  C   UNL A   1      46.377  25.223  29.312  1.00  0.00     0.031 C 
ATOM     63  C   UNL A   1      46.614  27.345  30.570  1.00  0.00     0.037 A 
BRANCH  50  64
ATOM     64  C   UNL A   1      43.574  32.435  32.296  1.00  0.00     0.064 A 
ATOM     65  C   UNL A   1      43.210  32.593  33.642  1.00  0.00     0.173 A 
ATOM     66  C   UNL A   1      44.038  33.565  31.606  1.00  0.00     0.173 A 
ATOM     67  F   UNL A   1      42.747  31.547  34.344  1.00  0.00    -0.203 F 
ATOM     68  C   UNL A   1      43.288  33.837  34.264  1.00  0.00     0.198 A 
ATOM     69  C   UNL A   1      44.143  34.800  32.238  1.00  0.00     0.198 A 
ATOM     70  F   UNL A   1      44.402  33.468  30.318  1.00  0.00    -0.203 F 
ATOM     71  F   UNL A   1      42.894  33.974  35.538  1.00  0.00    -0.200 F 
ATOM     72  C   UNL A   1      43.762  34.937  33.564  1.00  0.00     0.200 A 
ATOM     73  F   UNL A   1      44.615  35.858  31.565  1.00  0.00    -0.200 F 
ATOM     74  F   UNL A   1      43.847  36.131  34.167  1.00  0.00    -0.200 F 
ENDBRANCH  50  64
BRANCH  51  75
ATOM     75  C   UNL A   1      42.900  23.717  27.442  1.00  0.00     0.064 A 
ATOM     76  C   UNL A   1      43.288  23.652  26.098  1.00  0.00     0.173 A 
ATOM     77  C   UNL A   1      42.419  22.540  28.038  1.00  0.00     0.173 A 
ATOM     78  F   UNL A   1      43.730  24.755  25.476  1.00  0.00    -0.203 F 
ATOM     79  C   UNL A   1      43.182  22.465  25.374  1.00  0.00     0.198 A 
ATOM     80  C   UNL A   1      42.344  21.347  27.323  1.00  0.00     0.198 A 
ATOM     81  F   UNL A   1      42.030  22.547  29.322  1.00  0.00    -0.203 F 
ATOM     82  F   UNL A   1      43.514  22.444  24.076  1.00  0.00    -0.200 F 
ATOM     83  C   UNL A   1      42.716  21.313  25.988  1.00  0.00     0.200 A 
ATOM     84  F   UNL A   1      41.907  20.233  27.926  1.00  0.00    -0.200 F 
ATOM     85  F   UNL A   1      42.619  20.172  25.293  1.00  0.00    -0.200 F 
ENDBRANCH  51  75
BRANCH  63  86
ATOM     86  C   UNL A   1      48.059  27.003  30.800  1.00  0.00     0.064 A 
ATOM     87  C   UNL A   1      48.455  26.166  31.854  1.00  0.00     0.173 A 
ATOM     88  C   UNL A   1      49.050  27.469  29.924  1.00  0.00     0.173 A 
ATOM     89  F   UNL A   1      47.548  25.706  32.729  1.00  0.00    -0.203 F 
ATOM     90  C   UNL A   1      49.793  25.823  32.031  1.00  0.00     0.198 A 
ATOM     91  C   UNL A   1      50.382  27.098  30.084  1.00  0.00     0.198 A 
ATOM     92  F   UNL A   1      48.723  28.267  28.896  1.00  0.00    -0.203 F 
ATOM     93  F   UNL A   1      50.155  25.056  33.068  1.00  0.00    -0.200 F 
ATOM     94  C   UNL A   1      50.754  26.281  31.141  1.00  0.00     0.200 A 
ATOM     95  F   UNL A   1      51.305  27.529  29.214  1.00  0.00    -0.200 F 
ATOM     96  F   UNL A   1      52.038  25.937  31.303  1.00  0.00    -0.200 F 
ENDBRANCH  63  86
ENDBRANCH  37  38
ENDBRANCH  30  32
ENDBRANCH  29  30
ENDBRANCH  28  29
ENDBRANCH  27  28
ENDBRANCH  26  27
ENDBRANCH  25  26
ENDBRANCH  24  25
ENDBRANCH  23  24
ENDBRANCH  21  23
ENDBRANCH   1  21
TORSDOF 27
ENDMDL
MODEL 2
REMARK VINA RESULT:      -7.4      1.373      2.247
REMARK SMILES CC/C=C/C/C=C/C/C=C/C/C=C/CC/C=C/COCC(=O)OCCOCCOC(=O)c1ccc(-c2c3nc(c(-c4c(F)c(F)c(F)c(F)c4F)c4ccc([nH]4)c(-c4c(F)c(F)c(F)c(F)c4F)c4nc(c(-c5c(F)c(F)c(F)c(F)c5F)c5ccc2[nH]5)C=C4)C=C3)cc1
REMARK SMILES IDX 20 1 19 2 18 3 17 4 16 5 15 6 14 7 13 8 12 9 11 10 10 11
REMARK SMILES IDX 9 12 8 13 7 14 6 15 5 16 4 17 3 18 2 19 1 20 21 21 22 22
REMARK SMILES IDX 23 23 24 24 25 25 26 26 27 27 28 28 29 29 30 30 31 31 32 32
REMARK SMILES IDX 33 33 94 34 34 35 93 36 35 37 36 38 37 39 87 40 38 41 92 42
REMARK SMILES IDX 86 43 88 44 39 45 91 46 85 47 84 48 40 50 72 51 52 52 71 53
REMARK SMILES IDX 53 54 56 55 70 56 89 57 54 58 55 59 69 61 90 62 57 63 41 64
REMARK SMILES IDX 42 65 50 66 43 67 44 68 48 69 51 70 45 71 46 72 49 73 47 74
REMARK SMILES IDX 73 75 74 76 82 77 75 78 76 79 80 80 83 81 77 82 78 83 81 84
REMARK SMILES IDX 79 85 58 86 59 87 67 88 60 89 61 90 65 91 68 92 62 93 63 94
REMARK SMILES IDX 66 95 64 96
REMARK H PARENT 88 49 56 60
REMARK Flexibility Score: inf
ROOT
ATOM      1  C   UNL A   1      39.576  30.276  34.437  1.00  0.00     0.283 C 
ENDROOT
BRANCH   1   2
ATOM      2  O   UNL A   1      39.465  29.552  33.228  1.00  0.00    -0.366 OA
BRANCH   2   3
ATOM      3  C   UNL A   1      40.214  28.345  33.108  1.00  0.00     0.188 C 
BRANCH   3   4
ATOM      4  C   UNL A   1      41.658  28.478  33.503  1.00  0.00    -0.003 C 
ATOM      5  C   UNL A   1      42.577  27.508  33.360  1.00  0.00    -0.029 C 
BRANCH   5   6
ATOM      6  C   UNL A   1      44.017  27.603  33.788  1.00  0.00     0.031 C 
BRANCH   6   7
ATOM      7  C   UNL A   1      44.880  26.416  33.327  1.00  0.00     0.031 C 
BRANCH   7   8
ATOM      8  C   UNL A   1      44.474  25.079  33.889  1.00  0.00    -0.031 C 
ATOM      9  C   UNL A   1      44.156  24.855  35.176  1.00  0.00    -0.027 C 
BRANCH   9  10
ATOM     10  C   UNL A   1      43.694  23.528  35.715  1.00  0.00     0.054 C 
BRANCH  10  11
ATOM     11  C   UNL A   1      44.816  22.529  35.729  1.00  0.00    -0.027 C 
ATOM     12  C   UNL A   1      44.828  21.400  35.000  1.00  0.00    -0.027 C 
BRANCH  12  13
ATOM     13  C   UNL A   1      45.938  20.387  35.028  1.00  0.00     0.054 C 
BRANCH  13  14
ATOM     14  C   UNL A   1      47.144  20.900  34.293  1.00  0.00    -0.027 C 
ATOM     15  C   UNL A   1      48.399  20.852  34.769  1.00  0.00    -0.027 C 
BRANCH  15  16
ATOM     16  C   UNL A   1      49.599  21.384  34.038  1.00  0.00     0.054 C 
BRANCH  16  17
ATOM     17  C   UNL A   1      50.773  20.462  34.195  1.00  0.00    -0.027 C 
ATOM     18  C   UNL A   1      51.905  20.552  33.478  1.00  0.00    -0.031 C 
BRANCH  18  19
ATOM     19  C   UNL A   1      53.072  19.620  33.634  1.00  0.00     0.023 C 
ATOM     20  C   UNL A   1      53.506  19.519  35.088  1.00  0.00     0.008 C 
ENDBRANCH  18  19
ENDBRANCH  16  17
ENDBRANCH  15  16
ENDBRANCH  13  14
ENDBRANCH  12  13
ENDBRANCH  10  11
ENDBRANCH   9  10
ENDBRANCH   7   8
ENDBRANCH   6   7
ENDBRANCH   5   6
ENDBRANCH   3   4
ENDBRANCH   2   3
ENDBRANCH   1   2
BRANCH   1  21
ATOM     21  C   UNL A   1      38.443  31.108  35.047  1.00  0.00     0.332 C 
ATOM     22  O   UNL A   1      37.873  30.787  36.084  1.00  0.00    -0.250 OA
BRANCH  21  23
ATOM     23  O   UNL A   1      38.211  32.260  34.359  1.00  0.00    -0.462 OA
BRANCH  23  24
ATOM     24  C   UNL A   1      36.846  32.471  33.940  1.00  0.00     0.261 C 
BRANCH  24  25
ATOM     25  C   UNL A   1      36.535  31.800  32.601  1.00  0.00     0.202 C 
BRANCH  25  26
ATOM     26  O   UNL A   1      36.930  32.500  31.424  1.00  0.00    -0.374 OA
BRANCH  26  27
ATOM     27  C   UNL A   1      35.911  33.231  30.753  1.00  0.00     0.202 C 
BRANCH  27  28
ATOM     28  C   UNL A   1      34.840  32.408  30.025  1.00  0.00     0.261 C 
BRANCH  28  29
ATOM     29  O   UNL A   1      35.215  32.126  28.669  1.00  0.00    -0.460 OA
BRANCH  29  30
ATOM     30  C   UNL A   1      35.108  30.819  28.327  1.00  0.00     0.338 C 
ATOM     31  O   UNL A   1      34.148  30.251  27.840  1.00  0.00    -0.246 OA
BRANCH  30  32
ATOM     32  C   UNL A   1      36.430  30.180  28.434  1.00  0.00     0.060 A 
ATOM     33  C   UNL A   1      36.725  29.534  29.640  1.00  0.00     0.016 A 
ATOM     34  C   UNL A   1      37.370  30.237  27.403  1.00  0.00     0.016 A 
ATOM     35  C   UNL A   1      37.982  28.974  29.840  1.00  0.00     0.010 A 
ATOM     36  C   UNL A   1      38.637  29.684  27.610  1.00  0.00     0.010 A 
ATOM     37  C   UNL A   1      38.956  29.078  28.839  1.00  0.00    -0.014 A 
BRANCH  37  38
ATOM     38  C   UNL A   1      40.345  28.659  29.135  1.00  0.00     0.031 A 
ATOM     39  C   UNL A   1      41.238  29.591  29.902  1.00  0.00     0.074 A 
ATOM     40  C   UNL A   1      40.788  27.451  28.750  1.00  0.00     0.049 A 
ATOM     41  N   UNL A   1      42.498  29.454  30.226  1.00  0.00    -0.248 NA
ATOM     42  C   UNL A   1      40.628  30.846  30.370  1.00  0.00     0.031 C 
ATOM     43  C   UNL A   1      39.992  26.447  28.047  1.00  0.00     0.029 A 
ATOM     44  N   UNL A   1      42.021  26.866  28.890  1.00  0.00    -0.354 N 
ATOM     45  C   UNL A   1      42.834  30.606  30.925  1.00  0.00     0.074 A 
ATOM     46  C   UNL A   1      41.654  31.442  30.959  1.00  0.00     0.031 C 
ATOM     47  C   UNL A   1      40.762  25.374  27.802  1.00  0.00     0.029 A 
ATOM     48  C   UNL A   1      42.114  25.634  28.293  1.00  0.00     0.049 A 
ATOM     49  H   UNL A   1      42.767  27.290  29.374  1.00  0.00     0.167 HD
ATOM     50  C   UNL A   1      44.020  30.929  31.492  1.00  0.00     0.037 A 
ATOM     51  C   UNL A   1      43.180  24.828  28.129  1.00  0.00     0.037 A 
ATOM     52  C   UNL A   1      45.186  30.087  31.455  1.00  0.00     0.049 A 
ATOM     53  C   UNL A   1      44.513  25.254  28.688  1.00  0.00     0.074 A 
ATOM     54  C   UNL A   1      46.427  30.306  32.025  1.00  0.00     0.029 A 
ATOM     55  N   UNL A   1      45.258  28.867  30.798  1.00  0.00    -0.354 N 
ATOM     56  N   UNL A   1      44.818  26.328  29.376  1.00  0.00    -0.248 NA
ATOM     57  C   UNL A   1      45.653  24.358  28.444  1.00  0.00     0.031 C 
ATOM     58  C   UNL A   1      47.269  29.252  31.657  1.00  0.00     0.029 A 
ATOM     59  C   UNL A   1      46.536  28.343  30.911  1.00  0.00     0.049 A 
ATOM     60  H   UNL A   1      44.511  28.436  30.321  1.00  0.00     0.167 HD
ATOM     61  C   UNL A   1      46.173  26.229  29.662  1.00  0.00     0.074 A 
ATOM     62  C   UNL A   1      46.629  24.979  29.092  1.00  0.00     0.031 C 
ATOM     63  C   UNL A   1      46.971  27.096  30.334  1.00  0.00     0.037 A 
BRANCH  50  64
ATOM     64  C   UNL A   1      44.132  32.264  32.170  1.00  0.00     0.064 A 
ATOM     65  C   UNL A   1      44.525  33.417  31.475  1.00  0.00     0.173 A 
ATOM     66  C   UNL A   1      43.795  32.398  33.526  1.00  0.00     0.173 A 
ATOM     67  F   UNL A   1      44.870  33.342  30.181  1.00  0.00    -0.203 F 
ATOM     68  C   UNL A   1      44.598  34.651  32.119  1.00  0.00     0.198 A 
ATOM     69  C   UNL A   1      43.841  33.637  34.158  1.00  0.00     0.198 A 
ATOM     70  F   UNL A   1      43.410  31.326  34.235  1.00  0.00    -0.203 F 
ATOM     71  F   UNL A   1      45.017  35.732  31.447  1.00  0.00    -0.200 F 
ATOM     72  C   UNL A   1      44.248  34.761  33.456  1.00  0.00     0.200 A 
ATOM     73  F   UNL A   1      43.488  33.743  35.447  1.00  0.00    -0.200 F 
ATOM     74  F   UNL A   1      44.307  35.950  34.071  1.00  0.00    -0.200 F 
ENDBRANCH  50  64
BRANCH  51  75
ATOM     75  C   UNL A   1      43.041  23.557  27.372  1.00  0.00     0.064 A 
ATOM     76  C   UNL A   1      43.436  23.462  26.031  1.00  0.00     0.173 A 
ATOM     77  C   UNL A   1      42.492  22.411  27.971  1.00  0.00     0.173 A 
ATOM     78  F   UNL A   1      43.942  24.535  25.406  1.00  0.00    -0.203 F 
ATOM     79  C   UNL A   1      43.271  22.278  25.314  1.00  0.00     0.198 A 
ATOM     80  C   UNL A   1      42.358  21.220  27.263  1.00  0.00     0.198 A 
ATOM     81  F   UNL A   1      42.094  22.449  29.252  1.00  0.00    -0.203 F 
ATOM     82  F   UNL A   1      43.612  22.230  24.019  1.00  0.00    -0.200 F 
ATOM     83  C   UNL A   1      42.738  21.157  25.931  1.00  0.00     0.200 A 
ATOM     84  F   UNL A   1      41.855  20.135  27.869  1.00  0.00    -0.200 F 
ATOM     85  F   UNL A   1      42.585  20.018  25.243  1.00  0.00    -0.200 F 
ENDBRANCH  51  75
BRANCH  63  86
ATOM     86  C   UNL A   1      48.414  26.719  30.505  1.00  0.00     0.064 A 
ATOM     87  C   UNL A   1      49.410  27.225  29.656  1.00  0.00     0.173 A 
ATOM     88  C   UNL A   1      48.814  25.890  31.564  1.00  0.00     0.173 A 
ATOM     89  F   UNL A   1      49.079  28.009  28.619  1.00  0.00    -0.203 F 
ATOM     90  C   UNL A   1      50.750  26.900  29.851  1.00  0.00     0.198 A 
ATOM     91  C   UNL A   1      50.157  25.595  31.777  1.00  0.00     0.198 A 
ATOM     92  F   UNL A   1      47.902  25.385  32.409  1.00  0.00    -0.203 F 
ATOM     93  F   UNL A   1      51.680  27.361  29.004  1.00  0.00    -0.200 F 
ATOM     94  C   UNL A   1      51.124  26.094  30.917  1.00  0.00     0.200 A 
ATOM     95  F   UNL A   1      50.517  24.829  32.816  1.00  0.00    -0.200 F 
ATOM     96  F   UNL A   1      52.415  25.796  31.113  1.00  0.00    -0.200 F 
ENDBRANCH  63  86
ENDBRANCH  37  38
ENDBRANCH  30  32
ENDBRANCH  29  30
ENDBRANCH  28  29
ENDBRANCH  27  28
ENDBRANCH  26  27
ENDBRANCH  25  26
ENDBRANCH  24  25
ENDBRANCH  23  24
ENDBRANCH  21  23
ENDBRANCH   1  21
TORSDOF 27
ENDMDL
MODEL 3
REMARK VINA RESULT:      -7.1      1.544      2.132
REMARK SMILES CC/C=C/C/C=C/C/C=C/C/C=C/CC/C=C/COCC(=O)OCCOCCOC(=O)c1ccc(-c2c3nc(c(-c4c(F)c(F)c(F)c(F)c4F)c4ccc([nH]4)c(-c4c(F)c(F)c(F)c(F)c4F)c4nc(c(-c5c(F)c(F)c(F)c(F)c5F)c5ccc2[nH]5)C=C4)C=C3)cc1
REMARK SMILES IDX 20 1 19 2 18 3 17 4 16 5 15 6 14 7 13 8 12 9 11 10 10 11
REMARK SMILES IDX 9 12 8 13 7 14 6 15 5 16 4 17 3 18 2 19 1 20 21 21 22 22
REMARK SMILES IDX 23 23 24 24 25 25 26 26 27 27 28 28 29 29 30 30 31 31 32 32
REMARK SMILES IDX 33 33 94 34 34 35 93 36 35 37 36 38 37 39 87 40 38 41 92 42
REMARK SMILES IDX 86 43 88 44 39 45 91 46 85 47 84 48 40 50 72 51 52 52 71 53
REMARK SMILES IDX 53 54 56 55 70 56 89 57 54 58 55 59 69 61 90 62 57 63 41 64
REMARK SMILES IDX 42 65 50 66 43 67 44 68 48 69 51 70 45 71 46 72 49 73 47 74
REMARK SMILES IDX 73 75 74 76 82 77 75 78 76 79 80 80 83 81 77 82 78 83 81 84
REMARK SMILES IDX 79 85 58 86 59 87 67 88 60 89 61 90 65 91 68 92 62 93 63 94
REMARK SMILES IDX 66 95 64 96
REMARK H PARENT 88 49 56 60
REMARK Flexibility Score: inf
ROOT
ATOM      1  C   UNL A   1      39.405  30.104  34.455  1.00  0.00     0.283 C 
ENDROOT
BRANCH   1   2
ATOM      2  O   UNL A   1      39.123  29.256  33.359  1.00  0.00    -0.366 OA
BRANCH   2   3
ATOM      3  C   UNL A   1      39.894  28.065  33.229  1.00  0.00     0.188 C 
BRANCH   3   4
ATOM      4  C   UNL A   1      41.366  28.258  33.458  1.00  0.00    -0.003 C 
ATOM      5  C   UNL A   1      42.165  27.365  34.067  1.00  0.00    -0.029 C 
BRANCH   5   6
ATOM      6  C   UNL A   1      43.631  27.557  34.346  1.00  0.00     0.031 C 
BRANCH   6   7
ATOM      7  C   UNL A   1      44.517  26.415  33.817  1.00  0.00     0.031 C 
BRANCH   7   8
ATOM      8  C   UNL A   1      44.979  25.433  34.862  1.00  0.00    -0.031 C 
ATOM      9  C   UNL A   1      44.480  25.350  36.107  1.00  0.00    -0.027 C 
BRANCH   9  10
ATOM     10  C   UNL A   1      44.908  24.326  37.123  1.00  0.00     0.054 C 
BRANCH  10  11
ATOM     11  C   UNL A   1      46.294  23.822  36.834  1.00  0.00    -0.027 C 
ATOM     12  C   UNL A   1      47.414  24.361  37.346  1.00  0.00    -0.027 C 
BRANCH  12  13
ATOM     13  C   UNL A   1      48.802  23.875  37.043  1.00  0.00     0.054 C 
BRANCH  13  14
ATOM     14  C   UNL A   1      48.839  23.162  35.721  1.00  0.00    -0.027 C 
ATOM     15  C   UNL A   1      49.038  21.842  35.577  1.00  0.00    -0.027 C 
BRANCH  15  16
ATOM     16  C   UNL A   1      49.093  21.137  34.251  1.00  0.00     0.054 C 
BRANCH  16  17
ATOM     17  C   UNL A   1      50.492  21.135  33.705  1.00  0.00    -0.027 C 
ATOM     18  C   UNL A   1      51.382  20.151  33.913  1.00  0.00    -0.031 C 
BRANCH  18  19
ATOM     19  C   UNL A   1      52.783  20.161  33.371  1.00  0.00     0.023 C 
ATOM     20  C   UNL A   1      53.668  19.174  34.116  1.00  0.00     0.008 C 
ENDBRANCH  18  19
ENDBRANCH  16  17
ENDBRANCH  15  16
ENDBRANCH  13  14
ENDBRANCH  12  13
ENDBRANCH  10  11
ENDBRANCH   9  10
ENDBRANCH   7   8
ENDBRANCH   6   7
ENDBRANCH   5   6
ENDBRANCH   3   4
ENDBRANCH   2   3
ENDBRANCH   1   2
BRANCH   1  21
ATOM     21  C   UNL A   1      38.399  31.088  35.062  1.00  0.00     0.332 C 
ATOM     22  O   UNL A   1      37.862  30.898  36.147  1.00  0.00    -0.250 OA
BRANCH  21  23
ATOM     23  O   UNL A   1      38.244  32.210  34.304  1.00  0.00    -0.462 OA
BRANCH  23  24
ATOM     24  C   UNL A   1      36.910  32.445  33.808  1.00  0.00     0.261 C 
BRANCH  24  25
ATOM     25  C   UNL A   1      36.694  31.860  32.410  1.00  0.00     0.202 C 
BRANCH  25  26
ATOM     26  O   UNL A   1      36.880  32.745  31.308  1.00  0.00    -0.374 OA
BRANCH  26  27
ATOM     27  C   UNL A   1      35.704  33.339  30.770  1.00  0.00     0.202 C 
BRANCH  27  28
ATOM     28  C   UNL A   1      34.698  32.392  30.103  1.00  0.00     0.261 C 
BRANCH  28  29
ATOM     29  O   UNL A   1      34.994  32.196  28.712  1.00  0.00    -0.460 OA
BRANCH  29  30
ATOM     30  C   UNL A   1      34.900  30.907  28.304  1.00  0.00     0.338 C 
ATOM     31  O   UNL A   1      33.964  30.367  27.745  1.00  0.00    -0.246 OA
BRANCH  30  32
ATOM     32  C   UNL A   1      36.214  30.257  28.446  1.00  0.00     0.060 A 
ATOM     33  C   UNL A   1      36.463  29.591  29.651  1.00  0.00     0.016 A 
ATOM     34  C   UNL A   1      37.188  30.323  27.448  1.00  0.00     0.016 A 
ATOM     35  C   UNL A   1      37.709  29.019  29.884  1.00  0.00     0.010 A 
ATOM     36  C   UNL A   1      38.444  29.759  27.689  1.00  0.00     0.010 A 
ATOM     37  C   UNL A   1      38.717  29.131  28.919  1.00  0.00    -0.014 A 
BRANCH  37  38
ATOM     38  C   UNL A   1      40.093  28.699  29.255  1.00  0.00     0.031 A 
ATOM     39  C   UNL A   1      40.963  29.610  30.072  1.00  0.00     0.074 A 
ATOM     40  C   UNL A   1      40.543  27.496  28.861  1.00  0.00     0.049 A 
ATOM     41  N   UNL A   1      42.210  29.459  30.437  1.00  0.00    -0.248 NA
ATOM     42  C   UNL A   1      40.343  30.858  30.544  1.00  0.00     0.031 C 
ATOM     43  C   UNL A   1      39.767  26.512  28.110  1.00  0.00     0.029 A 
ATOM     44  N   UNL A   1      41.767  26.901  29.032  1.00  0.00    -0.354 N 
ATOM     45  C   UNL A   1      42.527  30.594  31.171  1.00  0.00     0.074 A 
ATOM     46  C   UNL A   1      41.351  31.436  31.181  1.00  0.00     0.031 C 
ATOM     47  C   UNL A   1      40.540  25.439  27.869  1.00  0.00     0.029 A 
ATOM     48  C   UNL A   1      41.875  25.681  28.413  1.00  0.00     0.049 A 
ATOM     49  H   UNL A   1      42.498  27.311  29.550  1.00  0.00     0.167 HD
ATOM     50  C   UNL A   1      43.694  30.898  31.786  1.00  0.00     0.037 A 
ATOM     51  C   UNL A   1      42.942  24.872  28.271  1.00  0.00     0.037 A 
ATOM     52  C   UNL A   1      44.856  30.050  31.772  1.00  0.00     0.049 A 
ATOM     53  C   UNL A   1      44.257  25.279  28.885  1.00  0.00     0.074 A 
ATOM     54  C   UNL A   1      46.078  30.251  32.391  1.00  0.00     0.029 A 
ATOM     55  N   UNL A   1      44.945  28.843  31.094  1.00  0.00    -0.354 N 
ATOM     56  N   UNL A   1      44.542  26.337  29.605  1.00  0.00    -0.248 NA
ATOM     57  C   UNL A   1      45.399  24.382  28.663  1.00  0.00     0.031 C 
ATOM     58  C   UNL A   1      46.926  29.199  32.031  1.00  0.00     0.029 A 
ATOM     59  C   UNL A   1      46.215  28.310  31.241  1.00  0.00     0.049 A 
ATOM     60  H   UNL A   1      44.213  28.427  30.582  1.00  0.00     0.167 HD
ATOM     61  C   UNL A   1      45.886  26.224  29.937  1.00  0.00     0.074 A 
ATOM     62  C   UNL A   1      46.355  24.983  29.357  1.00  0.00     0.031 C 
ATOM     63  C   UNL A   1      46.664  27.072  30.654  1.00  0.00     0.037 A 
BRANCH  50  64
ATOM     64  C   UNL A   1      43.788  32.218  32.495  1.00  0.00     0.064 A 
ATOM     65  C   UNL A   1      43.466  32.355  33.853  1.00  0.00     0.173 A 
ATOM     66  C   UNL A   1      44.253  33.354  31.813  1.00  0.00     0.173 A 
ATOM     67  F   UNL A   1      43.005  31.304  34.548  1.00  0.00    -0.203 F 
ATOM     68  C   UNL A   1      43.585  33.585  34.497  1.00  0.00     0.198 A 
ATOM     69  C   UNL A   1      44.399  34.574  32.467  1.00  0.00     0.198 A 
ATOM     70  F   UNL A   1      44.577  33.276  30.514  1.00  0.00    -0.203 F 
ATOM     71  F   UNL A   1      43.232  33.703  35.784  1.00  0.00    -0.200 F 
ATOM     72  C   UNL A   1      44.059  34.690  33.806  1.00  0.00     0.200 A 
ATOM     73  F   UNL A   1      44.871  35.636  31.801  1.00  0.00    -0.200 F 
ATOM     74  F   UNL A   1      44.184  35.870  34.430  1.00  0.00    -0.200 F 
ENDBRANCH  50  64
BRANCH  51  75
ATOM     75  C   UNL A   1      42.823  23.617  27.483  1.00  0.00     0.064 A 
ATOM     76  C   UNL A   1      42.319  22.443  28.056  1.00  0.00     0.173 A 
ATOM     77  C   UNL A   1      43.229  23.563  26.140  1.00  0.00     0.173 A 
ATOM     78  F   UNL A   1      41.942  22.436  29.344  1.00  0.00    -0.203 F 
ATOM     79  C   UNL A   1      42.242  21.259  27.324  1.00  0.00     0.198 A 
ATOM     80  C   UNL A   1      43.122  22.388  25.400  1.00  0.00     0.198 A 
ATOM     81  F   UNL A   1      43.723  24.658  25.542  1.00  0.00    -0.203 F 
ATOM     82  F   UNL A   1      41.802  20.139  27.913  1.00  0.00    -0.200 F 
ATOM     83  C   UNL A   1      42.637  21.234  25.996  1.00  0.00     0.200 A 
ATOM     84  F   UNL A   1      43.492  22.374  24.112  1.00  0.00    -0.200 F 
ATOM     85  F   UNL A   1      42.559  20.098  25.291  1.00  0.00    -0.200 F 
ENDBRANCH  51  75
BRANCH  63  86
ATOM     86  C   UNL A   1      48.099  26.683  30.868  1.00  0.00     0.064 A 
ATOM     87  C   UNL A   1      48.483  25.862  31.938  1.00  0.00     0.173 A 
ATOM     88  C   UNL A   1      49.090  27.087  29.961  1.00  0.00     0.173 A 
ATOM     89  F   UNL A   1      47.577  25.461  32.842  1.00  0.00    -0.203 F 
ATOM     90  C   UNL A   1      49.811  25.475  32.101  1.00  0.00     0.198 A 
ATOM     91  C   UNL A   1      50.410  26.671  30.108  1.00  0.00     0.198 A 
ATOM     92  F   UNL A   1      48.774  27.868  28.916  1.00  0.00    -0.203 F 
ATOM     93  F   UNL A   1      50.164  24.723  33.153  1.00  0.00    -0.200 F 
ATOM     94  C   UNL A   1      50.771  25.870  31.181  1.00  0.00     0.200 A 
ATOM     95  F   UNL A   1      51.332  27.042  29.209  1.00  0.00    -0.200 F 
ATOM     96  F   UNL A   1      52.045  25.484  31.330  1.00  0.00    -0.200 F 
ENDBRANCH  63  86
ENDBRANCH  37  38
ENDBRANCH  30  32
ENDBRANCH  29  30
ENDBRANCH  28  29
ENDBRANCH  27  28
ENDBRANCH  26  27
ENDBRANCH  25  26
ENDBRANCH  24  25
ENDBRANCH  23  24
ENDBRANCH  21  23
ENDBRANCH   1  21
TORSDOF 27
ENDMDL
