MODEL 1
REMARK VINA RESULT:     -11.1      0.000      0.000
REMARK SMILES CC(C)C[C@H](NC(=O)[C@H](Cc1ccccc1)NC(=O)CNC(=O)C[NH3+])C(=O)OCCOCCOC(=O)c1ccc(-c2c3nc(c(-c4c(F)c(F)c(F)c(F)c4F)c4ccc([nH]4)c(-c4c(F)c(F)c(F)c(F)c4F)c4nc(c(-c5c(F)c(F)c(F)c(F)c5F)c5ccc2[nH]5)C=C4)C=C3)cc1
REMARK SMILES IDX 29 1 28 2 26 3 27 4 5 5 4 6 2 7 1 8 3 9 6 10 7 11 8 13 9 14
REMARK SMILES IDX 17 15 18 16 19 18 20 19 21 20 22 21 23 23 24 24 25 25 10 29
REMARK SMILES IDX 11 30 12 31 16 32 13 33 15 34 14 35 30 36 31 37 32 38 33 39
REMARK SMILES IDX 34 40 35 41 36 42 37 43 38 44 99 45 39 46 98 47 40 48 41 49
REMARK SMILES IDX 42 50 92 51 43 52 97 53 91 54 93 55 44 56 96 57 90 58 89 59
REMARK SMILES IDX 45 61 77 62 57 63 76 64 58 65 61 66 75 67 94 68 59 69 60 70
REMARK SMILES IDX 74 72 95 73 62 74 46 75 47 76 55 77 48 78 49 79 53 80 56 81
REMARK SMILES IDX 50 82 51 83 54 84 52 85 78 86 79 87 87 88 80 89 81 90 85 91
REMARK SMILES IDX 88 92 82 93 83 94 86 95 84 96 63 97 64 98 72 99 65 100
REMARK SMILES IDX 66 101 70 102 73 103 67 104 68 105 71 106 69 107
REMARK H PARENT 6 12 17 17 21 22 25 26 25 27 25 28 93 60 61 71
REMARK Flexibility Score: inf
ROOT
ATOM      1  C   UNL A   1      33.325  28.107  25.350  1.00  0.00     0.261 C 
ENDROOT
BRANCH   1   2
ATOM      2  O   UNL A   1      33.176  27.245  26.488  1.00  0.00    -0.462 OA
BRANCH   2   3
ATOM      3  C   UNL A   1      31.879  26.931  26.795  1.00  0.00     0.328 C 
ATOM      4  O   UNL A   1      31.216  27.470  27.672  1.00  0.00    -0.250 OA
BRANCH   3   5
ATOM      5  C   UNL A   1      31.416  25.690  26.029  1.00  0.00     0.192 C 
BRANCH   5   6
ATOM      6  C   UNL A   1      30.003  25.915  25.483  1.00  0.00     0.040 C 
BRANCH   6   7
ATOM      7  C   UNL A   1      29.668  26.039  23.986  1.00  0.00    -0.015 C 
ATOM      8  C   UNL A   1      30.025  27.400  23.391  1.00  0.00     0.007 C 
ATOM      9  C   UNL A   1      30.467  24.953  23.244  1.00  0.00     0.007 C 
ENDBRANCH   6   7
ENDBRANCH   5   6
BRANCH   5  10
ATOM     10  N   UNL A   1      31.513  24.488  26.897  1.00  0.00    -0.341 N 
ATOM     11  C   UNL A   1      32.380  23.439  26.966  1.00  0.00     0.243 C 
ATOM     12  H   UNL A   1      30.794  24.440  27.568  1.00  0.00     0.164 HD
ATOM     13  O   UNL A   1      32.447  22.889  28.076  1.00  0.00    -0.273 OA
BRANCH  11  14
ATOM     14  C   UNL A   1      33.139  22.806  25.762  1.00  0.00     0.175 C 
BRANCH  14  15
ATOM     15  N   UNL A   1      32.380  22.263  24.641  1.00  0.00    -0.342 N 
ATOM     16  C   UNL A   1      32.688  21.153  23.892  1.00  0.00     0.240 C 
ATOM     17  H   UNL A   1      31.557  22.743  24.395  1.00  0.00     0.164 HD
ATOM     18  O   UNL A   1      32.149  21.011  22.793  1.00  0.00    -0.273 OA
BRANCH  16  19
ATOM     19  C   UNL A   1      33.674  20.105  24.431  1.00  0.00     0.216 C 
BRANCH  19  20
ATOM     20  N   UNL A   1      33.004  19.041  25.148  1.00  0.00    -0.342 N 
ATOM     21  C   UNL A   1      32.549  17.857  24.642  1.00  0.00     0.275 C 
ATOM     22  H   UNL A   1      32.860  19.188  26.111  1.00  0.00     0.164 HD
ATOM     23  O   UNL A   1      31.839  17.143  25.350  1.00  0.00    -0.268 OA
BRANCH  21  24
ATOM     24  C   UNL A   1      32.930  17.446  23.214  1.00  0.00     0.360 C 
BRANCH  24  25
ATOM     25  N   UNL A   1      31.963  17.961  22.235  1.00  0.00    -0.350 N 
ATOM     26  H   UNL A   1      32.221  18.912  21.970  1.00  0.00     0.344 HD
ATOM     27  H   UNL A   1      31.031  17.965  22.649  1.00  0.00     0.344 HD
ATOM     28  H   UNL A   1      31.965  17.364  21.408  1.00  0.00     0.344 HD
ENDBRANCH  24  25
ENDBRANCH  21  24
ENDBRANCH  19  20
ENDBRANCH  16  19
ENDBRANCH  14  15
BRANCH  14  29
ATOM     29  C   UNL A   1      34.298  23.747  25.290  1.00  0.00     0.070 C 
BRANCH  29  30
ATOM     30  C   UNL A   1      35.691  23.242  25.619  1.00  0.00    -0.045 A 
ATOM     31  C   UNL A   1      36.051  21.910  25.368  1.00  0.00     0.004 A 
ATOM     32  C   UNL A   1      36.677  24.133  26.062  1.00  0.00     0.004 A 
ATOM     33  C   UNL A   1      37.388  21.516  25.409  1.00  0.00     0.000 A 
ATOM     34  C   UNL A   1      38.009  23.725  26.148  1.00  0.00     0.000 A 
ATOM     35  C   UNL A   1      38.370  22.428  25.785  1.00  0.00     0.000 A 
ENDBRANCH  29  30
ENDBRANCH  14  29
ENDBRANCH  11  14
ENDBRANCH   5  10
ENDBRANCH   3   5
ENDBRANCH   2   3
ENDBRANCH   1   2
BRANCH   1  36
ATOM     36  C   UNL A   1      33.392  29.593  25.694  1.00  0.00     0.202 C 
BRANCH  36  37
ATOM     37  O   UNL A   1      32.172  30.318  25.654  1.00  0.00    -0.374 OA
BRANCH  37  38
ATOM     38  C   UNL A   1      31.707  30.915  26.865  1.00  0.00     0.202 C 
BRANCH  38  39
ATOM     39  C   UNL A   1      31.727  32.446  26.926  1.00  0.00     0.261 C 
BRANCH  39  40
ATOM     40  O   UNL A   1      33.067  32.973  26.843  1.00  0.00    -0.460 OA
BRANCH  40  41
ATOM     41  C   UNL A   1      33.621  33.292  28.035  1.00  0.00     0.338 C 
ATOM     42  O   UNL A   1      33.114  33.945  28.939  1.00  0.00    -0.246 OA
BRANCH  41  43
ATOM     43  C   UNL A   1      34.908  32.602  28.216  1.00  0.00     0.060 A 
ATOM     44  C   UNL A   1      34.869  31.230  28.502  1.00  0.00     0.016 A 
ATOM     45  C   UNL A   1      36.113  33.304  28.262  1.00  0.00     0.016 A 
ATOM     46  C   UNL A   1      36.024  30.571  28.912  1.00  0.00     0.010 A 
ATOM     47  C   UNL A   1      37.272  32.642  28.683  1.00  0.00     0.010 A 
ATOM     48  C   UNL A   1      37.219  31.287  29.060  1.00  0.00    -0.014 A 
BRANCH  48  49
ATOM     49  C   UNL A   1      38.344  30.659  29.795  1.00  0.00     0.031 A 
ATOM     50  C   UNL A   1      38.567  31.036  31.235  1.00  0.00     0.074 A 
ATOM     51  C   UNL A   1      39.116  29.727  29.211  1.00  0.00     0.049 A 
ATOM     52  N   UNL A   1      39.480  30.615  32.074  1.00  0.00    -0.248 NA
ATOM     53  C   UNL A   1      37.632  32.019  31.807  1.00  0.00     0.031 C 
ATOM     54  C   UNL A   1      38.966  29.245  27.842  1.00  0.00     0.029 A 
ATOM     55  N   UNL A   1      40.180  29.017  29.706  1.00  0.00    -0.354 N 
ATOM     56  C   UNL A   1      39.230  31.281  33.268  1.00  0.00     0.074 A 
ATOM     57  C   UNL A   1      38.101  32.156  33.038  1.00  0.00     0.031 C 
ATOM     58  C   UNL A   1      39.911  28.320  27.600  1.00  0.00     0.029 A 
ATOM     59  C   UNL A   1      40.745  28.166  28.791  1.00  0.00     0.049 A 
ATOM     60  H   UNL A   1      40.508  29.110  30.631  1.00  0.00     0.167 HD
ATOM     61  C   UNL A   1      39.878  31.165  34.451  1.00  0.00     0.037 A 
ATOM     62  C   UNL A   1      41.823  27.365  28.901  1.00  0.00     0.037 A 
ATOM     63  C   UNL A   1      40.997  30.291  34.680  1.00  0.00     0.049 A 
ATOM     64  C   UNL A   1      42.568  27.302  30.210  1.00  0.00     0.074 A 
ATOM     65  C   UNL A   1      41.714  30.091  35.847  1.00  0.00     0.029 A 
ATOM     66  N   UNL A   1      41.565  29.471  33.716  1.00  0.00    -0.354 N 
ATOM     67  N   UNL A   1      42.314  27.922  31.337  1.00  0.00    -0.248 NA
ATOM     68  C   UNL A   1      43.746  26.426  30.260  1.00  0.00     0.031 C 
ATOM     69  C   UNL A   1      42.745  29.184  35.577  1.00  0.00     0.029 A 
ATOM     70  C   UNL A   1      42.639  28.782  34.255  1.00  0.00     0.049 A 
ATOM     71  H   UNL A   1      41.252  29.391  32.786  1.00  0.00     0.167 HD
ATOM     72  C   UNL A   1      43.280  27.490  32.237  1.00  0.00     0.074 A 
ATOM     73  C   UNL A   1      44.119  26.546  31.527  1.00  0.00     0.031 C 
ATOM     74  C   UNL A   1      43.457  27.841  33.534  1.00  0.00     0.037 A 
BRANCH  61  75
ATOM     75  C   UNL A   1      39.404  32.024  35.586  1.00  0.00     0.064 A 
ATOM     76  C   UNL A   1      39.859  33.342  35.753  1.00  0.00     0.173 A 
ATOM     77  C   UNL A   1      38.460  31.535  36.500  1.00  0.00     0.173 A 
ATOM     78  F   UNL A   1      40.774  33.851  34.915  1.00  0.00    -0.203 F 
ATOM     79  C   UNL A   1      39.402  34.128  36.808  1.00  0.00     0.198 A 
ATOM     80  C   UNL A   1      37.986  32.332  37.538  1.00  0.00     0.198 A 
ATOM     81  F   UNL A   1      37.992  30.283  36.383  1.00  0.00    -0.203 F 
ATOM     82  F   UNL A   1      39.882  35.368  36.974  1.00  0.00    -0.200 F 
ATOM     83  C   UNL A   1      38.462  33.625  37.695  1.00  0.00     0.200 A 
ATOM     84  F   UNL A   1      37.070  31.848  38.388  1.00  0.00    -0.200 F 
ATOM     85  F   UNL A   1      38.019  34.384  38.706  1.00  0.00    -0.200 F 
ENDBRANCH  61  75
BRANCH  62  86
ATOM     86  C   UNL A   1      42.271  26.562  27.734  1.00  0.00     0.064 A 
ATOM     87  C   UNL A   1      43.257  27.039  26.861  1.00  0.00     0.173 A 
ATOM     88  C   UNL A   1      41.709  25.307  27.462  1.00  0.00     0.173 A 
ATOM     89  F   UNL A   1      43.806  28.246  27.066  1.00  0.00    -0.203 F 
ATOM     90  C   UNL A   1      43.654  26.297  25.750  1.00  0.00     0.198 A 
ATOM     91  C   UNL A   1      42.126  24.554  26.366  1.00  0.00     0.198 A 
ATOM     92  F   UNL A   1      40.761  24.805  28.267  1.00  0.00    -0.203 F 
ATOM     93  F   UNL A   1      44.570  26.795  24.907  1.00  0.00    -0.200 F 
ATOM     94  C   UNL A   1      43.093  25.053  25.507  1.00  0.00     0.200 A 
ATOM     95  F   UNL A   1      41.589  23.346  26.143  1.00  0.00    -0.200 F 
ATOM     96  F   UNL A   1      43.478  24.337  24.441  1.00  0.00    -0.200 F 
ENDBRANCH  62  86
BRANCH  74  97
ATOM     97  C   UNL A   1      44.579  27.179  34.280  1.00  0.00     0.064 A 
ATOM     98  C   UNL A   1      44.402  25.951  34.936  1.00  0.00     0.173 A 
ATOM     99  C   UNL A   1      45.855  27.760  34.306  1.00  0.00     0.173 A 
ATOM    100  F   UNL A   1      43.197  25.363  34.953  1.00  0.00    -0.203 F 
ATOM    101  C   UNL A   1      45.457  25.343  35.611  1.00  0.00     0.198 A 
ATOM    102  C   UNL A   1      46.915  27.136  34.958  1.00  0.00     0.198 A 
ATOM    103  F   UNL A   1      46.078  28.930  33.687  1.00  0.00    -0.203 F 
ATOM    104  F   UNL A   1      45.254  24.194  36.270  1.00  0.00    -0.200 F 
ATOM    105  C   UNL A   1      46.713  25.932  35.616  1.00  0.00     0.200 A 
ATOM    106  F   UNL A   1      48.131  27.700  34.952  1.00  0.00    -0.200 F 
ATOM    107  F   UNL A   1      47.728  25.343  36.263  1.00  0.00    -0.200 F 
ENDBRANCH  74  97
ENDBRANCH  48  49
ENDBRANCH  41  43
ENDBRANCH  40  41
ENDBRANCH  39  40
ENDBRANCH  38  39
ENDBRANCH  37  38
ENDBRANCH  36  37
ENDBRANCH   1  36
TORSDOF 25
ENDMDL
MODEL 2
REMARK VINA RESULT:     -10.7      1.505      2.636
REMARK SMILES CC(C)C[C@H](NC(=O)[C@H](Cc1ccccc1)NC(=O)CNC(=O)C[NH3+])C(=O)OCCOCCOC(=O)c1ccc(-c2c3nc(c(-c4c(F)c(F)c(F)c(F)c4F)c4ccc([nH]4)c(-c4c(F)c(F)c(F)c(F)c4F)c4nc(c(-c5c(F)c(F)c(F)c(F)c5F)c5ccc2[nH]5)C=C4)C=C3)cc1
REMARK SMILES IDX 29 1 28 2 26 3 27 4 5 5 4 6 2 7 1 8 3 9 6 10 7 11 8 13 9 14
REMARK SMILES IDX 17 15 18 16 19 18 20 19 21 20 22 21 23 23 24 24 25 25 10 29
REMARK SMILES IDX 11 30 12 31 16 32 13 33 15 34 14 35 30 36 31 37 32 38 33 39
REMARK SMILES IDX 34 40 35 41 36 42 37 43 38 44 99 45 39 46 98 47 40 48 41 49
REMARK SMILES IDX 42 50 92 51 43 52 97 53 91 54 93 55 44 56 96 57 90 58 89 59
REMARK SMILES IDX 45 61 77 62 57 63 76 64 58 65 61 66 75 67 94 68 59 69 60 70
REMARK SMILES IDX 74 72 95 73 62 74 46 75 47 76 55 77 48 78 49 79 53 80 56 81
REMARK SMILES IDX 50 82 51 83 54 84 52 85 78 86 79 87 87 88 80 89 81 90 85 91
REMARK SMILES IDX 88 92 82 93 83 94 86 95 84 96 63 97 64 98 72 99 65 100
REMARK SMILES IDX 66 101 70 102 73 103 67 104 68 105 71 106 69 107
REMARK H PARENT 6 12 17 17 21 22 25 26 25 27 25 28 93 60 61 71
REMARK Flexibility Score: inf
ROOT
ATOM      1  C   UNL A   1      33.517  27.861  25.336  1.00  0.00     0.261 C 
ENDROOT
BRANCH   1   2
ATOM      2  O   UNL A   1      33.328  27.165  26.577  1.00  0.00    -0.462 OA
BRANCH   2   3
ATOM      3  C   UNL A   1      32.019  26.943  26.910  1.00  0.00     0.328 C 
ATOM      4  O   UNL A   1      31.436  27.468  27.851  1.00  0.00    -0.250 OA
BRANCH   3   5
ATOM      5  C   UNL A   1      31.420  25.813  26.071  1.00  0.00     0.192 C 
BRANCH   5   6
ATOM      6  C   UNL A   1      30.018  26.208  25.594  1.00  0.00     0.040 C 
BRANCH   6   7
ATOM      7  C   UNL A   1      29.683  26.612  24.147  1.00  0.00    -0.015 C 
ATOM      8  C   UNL A   1      28.199  26.487  23.806  1.00  0.00     0.007 C 
ATOM      9  C   UNL A   1      30.107  28.080  23.969  1.00  0.00     0.007 C 
ENDBRANCH   6   7
ENDBRANCH   5   6
BRANCH   5  10
ATOM     10  N   UNL A   1      31.428  24.543  26.843  1.00  0.00    -0.341 N 
ATOM     11  C   UNL A   1      32.253  23.459  26.871  1.00  0.00     0.243 C 
ATOM     12  H   UNL A   1      30.673  24.471  27.471  1.00  0.00     0.164 HD
ATOM     13  O   UNL A   1      32.241  22.821  27.935  1.00  0.00    -0.273 OA
BRANCH  11  14
ATOM     14  C   UNL A   1      33.053  22.895  25.660  1.00  0.00     0.175 C 
BRANCH  14  15
ATOM     15  N   UNL A   1      34.021  23.747  24.979  1.00  0.00    -0.342 N 
ATOM     16  C   UNL A   1      33.994  24.145  23.664  1.00  0.00     0.240 C 
ATOM     17  H   UNL A   1      34.775  24.074  25.520  1.00  0.00     0.164 HD
ATOM     18  O   UNL A   1      35.029  24.579  23.155  1.00  0.00    -0.273 OA
BRANCH  16  19
ATOM     19  C   UNL A   1      32.688  24.066  22.858  1.00  0.00     0.216 C 
BRANCH  19  20
ATOM     20  N   UNL A   1      32.893  24.350  21.454  1.00  0.00    -0.342 N 
ATOM     21  C   UNL A   1      32.719  25.544  20.814  1.00  0.00     0.275 C 
ATOM     22  H   UNL A   1      33.191  23.596  20.896  1.00  0.00     0.164 HD
ATOM     23  O   UNL A   1      32.759  25.570  19.584  1.00  0.00    -0.268 OA
BRANCH  21  24
ATOM     24  C   UNL A   1      32.481  26.817  21.636  1.00  0.00     0.360 C 
BRANCH  24  25
ATOM     25  N   UNL A   1      33.745  27.504  21.934  1.00  0.00    -0.350 N 
ATOM     26  H   UNL A   1      33.853  28.303  21.310  1.00  0.00     0.344 HD
ATOM     27  H   UNL A   1      34.522  26.858  21.797  1.00  0.00     0.344 HD
ATOM     28  H   UNL A   1      33.738  27.827  22.902  1.00  0.00     0.344 HD
ENDBRANCH  24  25
ENDBRANCH  21  24
ENDBRANCH  19  20
ENDBRANCH  16  19
ENDBRANCH  14  15
BRANCH  14  29
ATOM     29  C   UNL A   1      33.645  21.487  26.003  1.00  0.00     0.070 C 
BRANCH  29  30
ATOM     30  C   UNL A   1      33.434  20.436  24.928  1.00  0.00    -0.045 A 
ATOM     31  C   UNL A   1      34.053  19.181  25.018  1.00  0.00     0.004 A 
ATOM     32  C   UNL A   1      32.517  20.660  23.893  1.00  0.00     0.004 A 
ATOM     33  C   UNL A   1      33.653  18.130  24.192  1.00  0.00     0.000 A 
ATOM     34  C   UNL A   1      32.151  19.621  23.037  1.00  0.00     0.000 A 
ATOM     35  C   UNL A   1      32.690  18.347  23.211  1.00  0.00     0.000 A 
ENDBRANCH  29  30
ENDBRANCH  14  29
ENDBRANCH  11  14
ENDBRANCH   5  10
ENDBRANCH   3   5
ENDBRANCH   2   3
ENDBRANCH   1   2
BRANCH   1  36
ATOM     36  C   UNL A   1      33.638  29.376  25.481  1.00  0.00     0.202 C 
BRANCH  36  37
ATOM     37  O   UNL A   1      32.427  30.112  25.574  1.00  0.00    -0.374 OA
BRANCH  37  38
ATOM     38  C   UNL A   1      32.072  30.660  26.844  1.00  0.00     0.202 C 
BRANCH  38  39
ATOM     39  C   UNL A   1      31.858  32.176  26.900  1.00  0.00     0.261 C 
BRANCH  39  40
ATOM     40  O   UNL A   1      33.102  32.902  26.820  1.00  0.00    -0.460 OA
BRANCH  40  41
ATOM     41  C   UNL A   1      33.639  33.232  28.016  1.00  0.00     0.338 C 
ATOM     42  O   UNL A   1      33.114  33.883  28.912  1.00  0.00    -0.246 OA
BRANCH  41  43
ATOM     43  C   UNL A   1      34.932  32.558  28.215  1.00  0.00     0.060 A 
ATOM     44  C   UNL A   1      34.909  31.178  28.454  1.00  0.00     0.016 A 
ATOM     45  C   UNL A   1      36.123  33.280  28.320  1.00  0.00     0.016 A 
ATOM     46  C   UNL A   1      36.063  30.525  28.878  1.00  0.00     0.010 A 
ATOM     47  C   UNL A   1      37.280  32.623  28.755  1.00  0.00     0.010 A 
ATOM     48  C   UNL A   1      37.240  31.256  29.086  1.00  0.00    -0.014 A 
BRANCH  48  49
ATOM     49  C   UNL A   1      38.354  30.624  29.834  1.00  0.00     0.031 A 
ATOM     50  C   UNL A   1      38.544  30.979  31.285  1.00  0.00     0.074 A 
ATOM     51  C   UNL A   1      39.144  29.706  29.252  1.00  0.00     0.049 A 
ATOM     52  N   UNL A   1      39.441  30.550  32.136  1.00  0.00    -0.248 NA
ATOM     53  C   UNL A   1      37.591  31.946  31.853  1.00  0.00     0.031 C 
ATOM     54  C   UNL A   1      39.026  29.246  27.872  1.00  0.00     0.029 A 
ATOM     55  N   UNL A   1      40.202  28.995  29.759  1.00  0.00    -0.354 N 
ATOM     56  C   UNL A   1      39.162  31.195  33.335  1.00  0.00     0.074 A 
ATOM     57  C   UNL A   1      38.033  32.066  33.095  1.00  0.00     0.031 C 
ATOM     58  C   UNL A   1      39.983  28.330  27.636  1.00  0.00     0.029 A 
ATOM     59  C   UNL A   1      40.792  28.162  28.842  1.00  0.00     0.049 A 
ATOM     60  H   UNL A   1      40.510  29.075  30.691  1.00  0.00     0.167 HD
ATOM     61  C   UNL A   1      39.786  31.063  34.529  1.00  0.00     0.037 A 
ATOM     62  C   UNL A   1      41.873  27.367  28.962  1.00  0.00     0.037 A 
ATOM     63  C   UNL A   1      40.905  30.194  34.768  1.00  0.00     0.049 A 
ATOM     64  C   UNL A   1      42.590  27.288  30.285  1.00  0.00     0.074 A 
ATOM     65  C   UNL A   1      41.599  29.980  35.946  1.00  0.00     0.029 A 
ATOM     66  N   UNL A   1      41.499  29.393  33.804  1.00  0.00    -0.354 N 
ATOM     67  N   UNL A   1      42.308  27.887  31.417  1.00  0.00    -0.248 NA
ATOM     68  C   UNL A   1      43.773  26.418  30.346  1.00  0.00     0.031 C 
ATOM     69  C   UNL A   1      42.641  29.084  35.684  1.00  0.00     0.029 A 
ATOM     70  C   UNL A   1      42.566  28.702  34.354  1.00  0.00     0.049 A 
ATOM     71  H   UNL A   1      41.206  29.326  32.866  1.00  0.00     0.167 HD
ATOM     72  C   UNL A   1      43.259  27.447  32.329  1.00  0.00     0.074 A 
ATOM     73  C   UNL A   1      44.118  26.520  31.622  1.00  0.00     0.031 C 
ATOM     74  C   UNL A   1      43.406  27.778  33.636  1.00  0.00     0.037 A 
BRANCH  61  75
ATOM     75  C   UNL A   1      39.282  31.902  35.667  1.00  0.00     0.064 A 
ATOM     76  C   UNL A   1      39.670  33.241  35.826  1.00  0.00     0.173 A 
ATOM     77  C   UNL A   1      38.376  31.368  36.595  1.00  0.00     0.173 A 
ATOM     78  F   UNL A   1      40.548  33.794  34.974  1.00  0.00    -0.203 F 
ATOM     79  C   UNL A   1      39.187  34.007  36.884  1.00  0.00     0.198 A 
ATOM     80  C   UNL A   1      37.874  32.143  37.636  1.00  0.00     0.198 A 
ATOM     81  F   UNL A   1      37.971  30.093  36.487  1.00  0.00    -0.203 F 
ATOM     82  F   UNL A   1      39.604  35.270  37.040  1.00  0.00    -0.200 F 
ATOM     83  C   UNL A   1      38.285  33.459  37.784  1.00  0.00     0.200 A 
ATOM     84  F   UNL A   1      36.995  31.615  38.499  1.00  0.00    -0.200 F 
ATOM     85  F   UNL A   1      37.816  34.198  38.798  1.00  0.00    -0.200 F 
ENDBRANCH  61  75
BRANCH  62  86
ATOM     86  C   UNL A   1      42.351  26.586  27.792  1.00  0.00     0.064 A 
ATOM     87  C   UNL A   1      43.324  27.100  26.925  1.00  0.00     0.173 A 
ATOM     88  C   UNL A   1      41.831  25.315  27.510  1.00  0.00     0.173 A 
ATOM     89  F   UNL A   1      43.834  28.322  27.139  1.00  0.00    -0.203 F 
ATOM     90  C   UNL A   1      43.749  26.378  25.811  1.00  0.00     0.198 A 
ATOM     91  C   UNL A   1      42.276  24.582  26.412  1.00  0.00     0.198 A 
ATOM     92  F   UNL A   1      40.896  24.778  28.308  1.00  0.00    -0.203 F 
ATOM     93  F   UNL A   1      44.651  26.910  24.975  1.00  0.00    -0.200 F 
ATOM     94  C   UNL A   1      43.229  25.117  25.559  1.00  0.00     0.200 A 
ATOM     95  F   UNL A   1      41.779  23.359  26.179  1.00  0.00    -0.200 F 
ATOM     96  F   UNL A   1      43.641  24.421  24.490  1.00  0.00    -0.200 F 
ENDBRANCH  62  86
BRANCH  74  97
ATOM     97  C   UNL A   1      44.516  27.111  34.395  1.00  0.00     0.064 A 
ATOM     98  C   UNL A   1      44.336  25.867  35.018  1.00  0.00     0.173 A 
ATOM     99  C   UNL A   1      45.785  27.705  34.465  1.00  0.00     0.173 A 
ATOM    100  F   UNL A   1      43.138  25.266  34.992  1.00  0.00    -0.203 F 
ATOM    101  C   UNL A   1      45.381  25.255  35.706  1.00  0.00     0.198 A 
ATOM    102  C   UNL A   1      46.834  27.078  35.130  1.00  0.00     0.198 A 
ATOM    103  F   UNL A   1      46.010  28.891  33.879  1.00  0.00    -0.203 F 
ATOM    104  F   UNL A   1      45.175  24.089  36.333  1.00  0.00    -0.200 F 
ATOM    105  C   UNL A   1      46.630  25.857  35.755  1.00  0.00     0.200 A 
ATOM    106  F   UNL A   1      48.044  27.655  35.166  1.00  0.00    -0.200 F 
ATOM    107  F   UNL A   1      47.635  25.264  36.414  1.00  0.00    -0.200 F 
ENDBRANCH  74  97
ENDBRANCH  48  49
ENDBRANCH  41  43
ENDBRANCH  40  41
ENDBRANCH  39  40
ENDBRANCH  38  39
ENDBRANCH  37  38
ENDBRANCH  36  37
ENDBRANCH   1  36
TORSDOF 25
ENDMDL
MODEL 3
REMARK VINA RESULT:     -10.6      1.315      2.863
REMARK SMILES CC(C)C[C@H](NC(=O)[C@H](Cc1ccccc1)NC(=O)CNC(=O)C[NH3+])C(=O)OCCOCCOC(=O)c1ccc(-c2c3nc(c(-c4c(F)c(F)c(F)c(F)c4F)c4ccc([nH]4)c(-c4c(F)c(F)c(F)c(F)c4F)c4nc(c(-c5c(F)c(F)c(F)c(F)c5F)c5ccc2[nH]5)C=C4)C=C3)cc1
REMARK SMILES IDX 29 1 28 2 26 3 27 4 5 5 4 6 2 7 1 8 3 9 6 10 7 11 8 13 9 14
REMARK SMILES IDX 17 15 18 16 19 18 20 19 21 20 22 21 23 23 24 24 25 25 10 29
REMARK SMILES IDX 11 30 12 31 16 32 13 33 15 34 14 35 30 36 31 37 32 38 33 39
REMARK SMILES IDX 34 40 35 41 36 42 37 43 38 44 99 45 39 46 98 47 40 48 41 49
REMARK SMILES IDX 42 50 92 51 43 52 97 53 91 54 93 55 44 56 96 57 90 58 89 59
REMARK SMILES IDX 45 61 77 62 57 63 76 64 58 65 61 66 75 67 94 68 59 69 60 70
REMARK SMILES IDX 74 72 95 73 62 74 46 75 47 76 55 77 48 78 49 79 53 80 56 81
REMARK SMILES IDX 50 82 51 83 54 84 52 85 78 86 79 87 87 88 80 89 81 90 85 91
REMARK SMILES IDX 88 92 82 93 83 94 86 95 84 96 63 97 64 98 72 99 65 100
REMARK SMILES IDX 66 101 70 102 73 103 67 104 68 105 71 106 69 107
REMARK H PARENT 6 12 17 17 21 22 25 26 25 27 25 28 93 60 61 71
REMARK Flexibility Score: inf
ROOT
ATOM      1  C   UNL A   1      33.501  27.967  25.381  1.00  0.00     0.261 C 
ENDROOT
BRANCH   1   2
ATOM      2  O   UNL A   1      33.091  26.915  26.268  1.00  0.00    -0.462 OA
BRANCH   2   3
ATOM      3  C   UNL A   1      31.737  26.809  26.434  1.00  0.00     0.328 C 
ATOM      4  O   UNL A   1      31.094  27.352  27.323  1.00  0.00    -0.250 OA
BRANCH   3   5
ATOM      5  C   UNL A   1      31.144  25.773  25.476  1.00  0.00     0.192 C 
BRANCH   5   6
ATOM      6  C   UNL A   1      29.901  26.352  24.791  1.00  0.00     0.040 C 
BRANCH   6   7
ATOM      7  C   UNL A   1      29.914  27.018  23.404  1.00  0.00    -0.015 C 
ATOM      8  C   UNL A   1      29.667  28.525  23.448  1.00  0.00     0.007 C 
ATOM      9  C   UNL A   1      31.300  26.765  22.786  1.00  0.00     0.007 C 
ENDBRANCH   6   7
ENDBRANCH   5   6
BRANCH   5  10
ATOM     10  N   UNL A   1      30.864  24.507  26.202  1.00  0.00    -0.341 N 
ATOM     11  C   UNL A   1      31.648  23.512  26.704  1.00  0.00     0.243 C 
ATOM     12  H   UNL A   1      29.902  24.355  26.353  1.00  0.00     0.164 HD
ATOM     13  O   UNL A   1      31.143  22.871  27.639  1.00  0.00    -0.273 OA
BRANCH  11  14
ATOM     14  C   UNL A   1      33.006  23.037  26.109  1.00  0.00     0.175 C 
BRANCH  14  15
ATOM     15  N   UNL A   1      34.152  23.940  26.128  1.00  0.00    -0.342 N 
ATOM     16  C   UNL A   1      35.229  23.930  25.275  1.00  0.00     0.240 C 
ATOM     17  H   UNL A   1      34.154  24.632  26.828  1.00  0.00     0.164 HD
ATOM     18  O   UNL A   1      36.257  24.523  25.610  1.00  0.00    -0.273 OA
BRANCH  16  19
ATOM     19  C   UNL A   1      35.138  23.206  23.923  1.00  0.00     0.216 C 
BRANCH  19  20
ATOM     20  N   UNL A   1      34.567  24.045  22.890  1.00  0.00    -0.342 N 
ATOM     21  C   UNL A   1      33.447  23.800  22.147  1.00  0.00     0.275 C 
ATOM     22  H   UNL A   1      35.039  24.888  22.703  1.00  0.00     0.164 HD
ATOM     23  O   UNL A   1      33.204  24.529  21.185  1.00  0.00    -0.268 OA
BRANCH  21  24
ATOM     24  C   UNL A   1      32.526  22.633  22.525  1.00  0.00     0.360 C 
BRANCH  24  25
ATOM     25  N   UNL A   1      31.189  23.111  22.905  1.00  0.00    -0.350 N 
ATOM     26  H   UNL A   1      31.276  23.828  23.625  1.00  0.00     0.344 HD
ATOM     27  H   UNL A   1      30.641  22.331  23.267  1.00  0.00     0.344 HD
ATOM     28  H   UNL A   1      30.723  23.504  22.087  1.00  0.00     0.344 HD
ENDBRANCH  24  25
ENDBRANCH  21  24
ENDBRANCH  19  20
ENDBRANCH  16  19
ENDBRANCH  14  15
BRANCH  14  29
ATOM     29  C   UNL A   1      33.369  21.611  26.642  1.00  0.00     0.070 C 
BRANCH  29  30
ATOM     30  C   UNL A   1      33.447  20.540  25.569  1.00  0.00    -0.045 A 
ATOM     31  C   UNL A   1      34.645  19.852  25.326  1.00  0.00     0.004 A 
ATOM     32  C   UNL A   1      32.290  20.134  24.893  1.00  0.00     0.004 A 
ATOM     33  C   UNL A   1      34.655  18.695  24.547  1.00  0.00     0.000 A 
ATOM     34  C   UNL A   1      32.310  19.003  24.076  1.00  0.00     0.000 A 
ATOM     35  C   UNL A   1      33.482  18.262  23.933  1.00  0.00     0.000 A 
ENDBRANCH  29  30
ENDBRANCH  14  29
ENDBRANCH  11  14
ENDBRANCH   5  10
ENDBRANCH   3   5
ENDBRANCH   2   3
ENDBRANCH   1   2
BRANCH   1  36
ATOM     36  C   UNL A   1      33.534  29.350  26.024  1.00  0.00     0.202 C 
BRANCH  36  37
ATOM     37  O   UNL A   1      32.419  30.197  25.785  1.00  0.00    -0.374 OA
BRANCH  37  38
ATOM     38  C   UNL A   1      31.766  30.780  26.913  1.00  0.00     0.202 C 
BRANCH  38  39
ATOM     39  C   UNL A   1      31.747  32.311  26.976  1.00  0.00     0.261 C 
BRANCH  39  40
ATOM     40  O   UNL A   1      33.069  32.875  26.857  1.00  0.00    -0.460 OA
BRANCH  40  41
ATOM     41  C   UNL A   1      33.633  33.239  28.031  1.00  0.00     0.338 C 
ATOM     42  O   UNL A   1      33.130  33.918  28.918  1.00  0.00    -0.246 OA
BRANCH  41  43
ATOM     43  C   UNL A   1      34.929  32.569  28.220  1.00  0.00     0.060 A 
ATOM     44  C   UNL A   1      34.909  31.194  28.493  1.00  0.00     0.016 A 
ATOM     45  C   UNL A   1      36.122  33.290  28.286  1.00  0.00     0.016 A 
ATOM     46  C   UNL A   1      36.071  30.550  28.909  1.00  0.00     0.010 A 
ATOM     47  C   UNL A   1      37.287  32.643  28.714  1.00  0.00     0.010 A 
ATOM     48  C   UNL A   1      37.252  31.284  29.077  1.00  0.00    -0.014 A 
BRANCH  48  49
ATOM     49  C   UNL A   1      38.379  30.668  29.819  1.00  0.00     0.031 A 
ATOM     50  C   UNL A   1      38.578  31.032  31.266  1.00  0.00     0.074 A 
ATOM     51  C   UNL A   1      39.174  29.756  29.235  1.00  0.00     0.049 A 
ATOM     52  N   UNL A   1      39.487  30.617  32.111  1.00  0.00    -0.248 NA
ATOM     53  C   UNL A   1      37.619  31.991  31.838  1.00  0.00     0.031 C 
ATOM     54  C   UNL A   1      39.049  29.287  27.858  1.00  0.00     0.029 A 
ATOM     55  N   UNL A   1      40.245  29.058  29.735  1.00  0.00    -0.354 N 
ATOM     56  C   UNL A   1      39.212  31.265  33.309  1.00  0.00     0.074 A 
ATOM     57  C   UNL A   1      38.071  32.123  33.075  1.00  0.00     0.031 C 
ATOM     58  C   UNL A   1      40.014  28.381  27.618  1.00  0.00     0.029 A 
ATOM     59  C   UNL A   1      40.836  28.228  28.817  1.00  0.00     0.049 A 
ATOM     60  H   UNL A   1      40.559  29.147  30.664  1.00  0.00     0.167 HD
ATOM     61  C   UNL A   1      39.848  31.146  34.499  1.00  0.00     0.037 A 
ATOM     62  C   UNL A   1      41.926  27.445  28.931  1.00  0.00     0.037 A 
ATOM     63  C   UNL A   1      40.978  30.290  34.732  1.00  0.00     0.049 A 
ATOM     64  C   UNL A   1      42.656  27.380  30.249  1.00  0.00     0.074 A 
ATOM     65  C   UNL A   1      41.685  30.089  35.905  1.00  0.00     0.029 A 
ATOM     66  N   UNL A   1      41.572  29.490  33.766  1.00  0.00    -0.354 N 
ATOM     67  N   UNL A   1      42.377  27.982  31.379  1.00  0.00    -0.248 NA
ATOM     68  C   UNL A   1      43.849  26.524  30.303  1.00  0.00     0.031 C 
ATOM     69  C   UNL A   1      42.734  29.203  35.638  1.00  0.00     0.029 A 
ATOM     70  C   UNL A   1      42.652  28.814  34.310  1.00  0.00     0.049 A 
ATOM     71  H   UNL A   1      41.272  29.416  32.832  1.00  0.00     0.167 HD
ATOM     72  C   UNL A   1      43.340  27.557  32.286  1.00  0.00     0.074 A 
ATOM     73  C   UNL A   1      44.204  26.636  31.575  1.00  0.00     0.031 C 
ATOM     74  C   UNL A   1      43.495  27.896  33.589  1.00  0.00     0.037 A 
BRANCH  61  75
ATOM     75  C   UNL A   1      39.345  31.984  35.637  1.00  0.00     0.064 A 
ATOM     76  C   UNL A   1      38.433  31.480  36.578  1.00  0.00     0.173 A 
ATOM     77  C   UNL A   1      39.804  33.298  35.807  1.00  0.00     0.173 A 
ATOM     78  F   UNL A   1      37.952  30.234  36.451  1.00  0.00    -0.203 F 
ATOM     79  C   UNL A   1      37.983  32.270  37.634  1.00  0.00     0.198 A 
ATOM     80  C   UNL A   1      39.372  34.077  36.878  1.00  0.00     0.198 A 
ATOM     81  F   UNL A   1      40.677  33.827  34.937  1.00  0.00    -0.203 F 
ATOM     82  F   UNL A   1      37.080  31.784  38.495  1.00  0.00    -0.200 F 
ATOM     83  C   UNL A   1      38.457  33.565  37.785  1.00  0.00     0.200 A 
ATOM     84  F   UNL A   1      39.839  35.324  37.029  1.00  0.00    -0.200 F 
ATOM     85  F   UNL A   1      38.028  34.322  38.804  1.00  0.00    -0.200 F 
ENDBRANCH  61  75
BRANCH  62  86
ATOM     86  C   UNL A   1      42.402  26.663  27.761  1.00  0.00     0.064 A 
ATOM     87  C   UNL A   1      41.939  25.363  27.522  1.00  0.00     0.173 A 
ATOM     88  C   UNL A   1      43.341  27.197  26.867  1.00  0.00     0.173 A 
ATOM     89  F   UNL A   1      41.059  24.799  28.363  1.00  0.00    -0.203 F 
ATOM     90  C   UNL A   1      42.409  24.619  26.441  1.00  0.00     0.198 A 
ATOM     91  C   UNL A   1      43.790  26.463  25.771  1.00  0.00     0.198 A 
ATOM     92  F   UNL A   1      43.816  28.438  27.052  1.00  0.00    -0.203 F 
ATOM     93  F   UNL A   1      41.982  23.362  26.258  1.00  0.00    -0.200 F 
ATOM     94  C   UNL A   1      43.330  25.172  25.563  1.00  0.00     0.200 A 
ATOM     95  F   UNL A   1      44.669  27.007  24.919  1.00  0.00    -0.200 F 
ATOM     96  F   UNL A   1      43.778  24.459  24.521  1.00  0.00    -0.200 F 
ENDBRANCH  62  86
BRANCH  74  97
ATOM     97  C   UNL A   1      44.619  27.245  34.342  1.00  0.00     0.064 A 
ATOM     98  C   UNL A   1      45.881  27.850  34.447  1.00  0.00     0.173 A 
ATOM     99  C   UNL A   1      44.420  26.022  34.997  1.00  0.00     0.173 A 
ATOM    100  F   UNL A   1      46.126  29.013  33.826  1.00  0.00    -0.203 F 
ATOM    101  C   UNL A   1      46.909  27.239  35.161  1.00  0.00     0.198 A 
ATOM    102  C   UNL A   1      45.441  25.427  35.733  1.00  0.00     0.198 A 
ATOM    103  F   UNL A   1      43.229  25.406  34.933  1.00  0.00    -0.203 F 
ATOM    104  F   UNL A   1      48.119  27.812  35.210  1.00  0.00    -0.200 F 
ATOM    105  C   UNL A   1      46.686  26.032  35.809  1.00  0.00     0.200 A 
ATOM    106  F   UNL A   1      45.220  24.268  36.369  1.00  0.00    -0.200 F 
ATOM    107  F   UNL A   1      47.675  25.449  36.499  1.00  0.00    -0.200 F 
ENDBRANCH  74  97
ENDBRANCH  48  49
ENDBRANCH  41  43
ENDBRANCH  40  41
ENDBRANCH  39  40
ENDBRANCH  38  39
ENDBRANCH  37  38
ENDBRANCH  36  37
ENDBRANCH   1  36
TORSDOF 25
ENDMDL
