MODEL 1
REMARK VINA RESULT:     -12.1      0.000      0.000
REMARK SMILES Cc1ccc([C@H](C)NC(=O)[C@H]2[C@@H]3CC[C@@H](C3)[C@@H]2C(=O)OCCOCCOC(=O)c2ccc(-c3c4nc(c(-c5c(F)c(F)c(F)c(F)c5F)c5ccc([nH]5)c(-c5c(F)c(F)c(F)c(F)c5F)c5nc(c(-c6c(F)c(F)c(F)c(F)c6F)c6ccc3[nH]6)C=C5)C=C4)cc2)cc1
REMARK SMILES IDX 22 1 21 2 20 3 18 4 19 5 17 6 11 7 12 8 13 9 16 10 15 11
REMARK SMILES IDX 14 12 9 13 8 14 10 16 6 17 7 18 5 19 1 20 2 21 3 22 93 23
REMARK SMILES IDX 4 24 92 25 23 26 24 27 25 28 26 29 27 30 28 31 29 32 30 33
REMARK SMILES IDX 91 34 31 35 90 36 32 37 33 38 34 39 84 40 35 41 89 42 83 43
REMARK SMILES IDX 85 44 36 45 88 46 82 47 81 48 37 50 69 51 49 52 68 53 50 54
REMARK SMILES IDX 53 55 67 56 86 57 51 58 52 59 66 61 87 62 54 63 38 64 39 65
REMARK SMILES IDX 47 66 40 67 41 68 45 69 48 70 42 71 43 72 46 73 44 74 70 75
REMARK SMILES IDX 71 76 79 77 72 78 73 79 77 80 80 81 74 82 75 83 78 84 76 85
REMARK SMILES IDX 55 86 56 87 64 88 57 89 58 90 62 91 65 92 59 93 60 94 63 95
REMARK SMILES IDX 61 96
REMARK H PARENT 8 15 85 49 53 60
REMARK Flexibility Score: inf
ROOT
ATOM      1  C   UNL A   1      37.382  23.697  25.625  1.00  0.00     0.202 C 
ENDROOT
BRANCH   1   2
ATOM      2  C   UNL A   1      36.555  23.364  24.444  1.00  0.00     0.261 C 
BRANCH   2   3
ATOM      3  O   UNL A   1      35.204  23.817  24.565  1.00  0.00    -0.463 OA
BRANCH   3   4
ATOM      4  C   UNL A   1      34.280  23.509  23.615  1.00  0.00     0.310 C 
ATOM      5  O   UNL A   1      34.415  23.630  22.413  1.00  0.00    -0.252 OA
BRANCH   4   6
ATOM      6  C   UNL A   1      32.979  23.079  24.263  1.00  0.00     0.115 C 
ATOM      7  C   UNL A   1      32.974  23.134  25.803  1.00  0.00     0.096 C 
ATOM      8  C   UNL A   1      32.811  21.652  26.192  1.00  0.00     0.002 C 
ATOM      9  C   UNL A   1      34.105  20.900  25.777  1.00  0.00     0.005 C 
ATOM     10  C   UNL A   1      31.814  21.157  25.153  1.00  0.00     0.009 C 
ATOM     11  C   UNL A   1      32.689  21.581  23.970  1.00  0.00     0.004 C 
ATOM     12  C   UNL A   1      33.938  20.729  24.257  1.00  0.00     0.005 C 
BRANCH   7  13
ATOM     13  C   UNL A   1      32.031  24.081  26.534  1.00  0.00     0.224 C 
ATOM     14  N   UNL A   1      31.763  25.365  26.240  1.00  0.00    -0.349 N 
ATOM     15  H   UNL A   1      31.050  25.727  26.814  1.00  0.00     0.164 HD
ATOM     16  O   UNL A   1      31.375  23.624  27.483  1.00  0.00    -0.275 OA
BRANCH  14  17
ATOM     17  C   UNL A   1      32.248  26.364  25.295  1.00  0.00     0.109 C 
ATOM     18  C   UNL A   1      31.157  26.719  24.285  1.00  0.00     0.036 C 
BRANCH  17  19
ATOM     19  C   UNL A   1      32.684  27.626  26.019  1.00  0.00    -0.026 A 
ATOM     20  C   UNL A   1      33.874  31.352  27.878  1.00  0.00     0.044 C 
ATOM     21  C   UNL A   1      33.484  30.069  27.198  1.00  0.00    -0.051 A 
ATOM     22  C   UNL A   1      34.422  29.213  26.602  1.00  0.00     0.004 A 
ATOM     23  C   UNL A   1      32.146  29.684  27.212  1.00  0.00     0.004 A 
ATOM     24  C   UNL A   1      34.034  27.993  26.040  1.00  0.00     0.006 A 
ATOM     25  C   UNL A   1      31.748  28.492  26.609  1.00  0.00     0.006 A 
ENDBRANCH  17  19
ENDBRANCH  14  17
ENDBRANCH   7  13
ENDBRANCH   4   6
ENDBRANCH   3   4
ENDBRANCH   2   3
ENDBRANCH   1   2
BRANCH   1  26
ATOM     26  O   UNL A   1      37.689  22.411  26.133  1.00  0.00    -0.374 OA
BRANCH  26  27
ATOM     27  C   UNL A   1      38.928  21.894  25.719  1.00  0.00     0.202 C 
BRANCH  27  28
ATOM     28  C   UNL A   1      39.932  21.827  26.873  1.00  0.00     0.261 C 
BRANCH  28  29
ATOM     29  O   UNL A   1      39.981  23.097  27.566  1.00  0.00    -0.460 OA
BRANCH  29  30
ATOM     30  C   UNL A   1      40.723  24.089  26.992  1.00  0.00     0.338 C 
ATOM     31  O   UNL A   1      41.861  23.954  26.549  1.00  0.00    -0.246 OA
BRANCH  30  32
ATOM     32  C   UNL A   1      40.104  25.421  27.285  1.00  0.00     0.060 A 
ATOM     33  C   UNL A   1      40.479  26.572  26.559  1.00  0.00     0.016 A 
ATOM     34  C   UNL A   1      39.507  25.564  28.528  1.00  0.00     0.016 A 
ATOM     35  C   UNL A   1      40.404  27.848  27.155  1.00  0.00     0.010 A 
ATOM     36  C   UNL A   1      39.609  26.784  29.153  1.00  0.00     0.010 A 
ATOM     37  C   UNL A   1      40.039  27.944  28.500  1.00  0.00    -0.014 A 
BRANCH  37  38
ATOM     38  C   UNL A   1      40.134  29.138  29.364  1.00  0.00     0.031 A 
ATOM     39  C   UNL A   1      38.913  29.975  29.404  1.00  0.00     0.074 A 
ATOM     40  C   UNL A   1      41.201  29.398  30.154  1.00  0.00     0.049 A 
ATOM     41  N   UNL A   1      38.786  31.138  28.843  1.00  0.00    -0.248 NA
ATOM     42  C   UNL A   1      37.647  29.456  29.947  1.00  0.00     0.031 C 
ATOM     43  C   UNL A   1      41.376  30.392  31.208  1.00  0.00     0.029 A 
ATOM     44  N   UNL A   1      42.423  28.714  30.185  1.00  0.00    -0.354 N 
ATOM     45  C   UNL A   1      37.559  31.606  29.286  1.00  0.00     0.074 A 
ATOM     46  C   UNL A   1      36.797  30.430  29.625  1.00  0.00     0.031 C 
ATOM     47  C   UNL A   1      42.682  30.450  31.546  1.00  0.00     0.029 A 
ATOM     48  C   UNL A   1      43.422  29.522  30.706  1.00  0.00     0.049 A 
ATOM     49  H   UNL A   1      42.554  27.788  29.879  1.00  0.00     0.167 HD
ATOM     50  C   UNL A   1      37.459  32.803  29.941  1.00  0.00     0.037 A 
ATOM     51  C   UNL A   1      44.551  29.743  29.992  1.00  0.00     0.037 A 
ATOM     52  C   UNL A   1      38.800  33.274  30.309  1.00  0.00     0.049 A 
ATOM     53  C   UNL A   1      44.410  31.161  29.546  1.00  0.00     0.074 A 
ATOM     54  C   UNL A   1      39.356  33.371  31.566  1.00  0.00     0.029 A 
ATOM     55  N   UNL A   1      39.871  33.384  29.397  1.00  0.00    -0.354 N 
ATOM     56  N   UNL A   1      43.267  31.706  29.189  1.00  0.00    -0.248 NA
ATOM     57  C   UNL A   1      45.462  32.113  29.868  1.00  0.00     0.031 C 
ATOM     58  C   UNL A   1      40.711  33.667  31.397  1.00  0.00     0.029 A 
ATOM     59  C   UNL A   1      41.070  33.584  30.065  1.00  0.00     0.049 A 
ATOM     60  H   UNL A   1      39.779  33.328  28.418  1.00  0.00     0.167 HD
ATOM     61  C   UNL A   1      43.367  33.053  29.424  1.00  0.00     0.074 A 
ATOM     62  C   UNL A   1      44.757  33.251  29.843  1.00  0.00     0.031 C 
ATOM     63  C   UNL A   1      42.340  33.962  29.446  1.00  0.00     0.037 A 
BRANCH  50  64
ATOM     64  C   UNL A   1      36.188  33.230  30.708  1.00  0.00     0.064 A 
ATOM     65  C   UNL A   1      35.184  34.035  30.120  1.00  0.00     0.173 A 
ATOM     66  C   UNL A   1      35.908  32.865  32.044  1.00  0.00     0.173 A 
ATOM     67  F   UNL A   1      35.171  34.297  28.808  1.00  0.00    -0.203 F 
ATOM     68  C   UNL A   1      34.115  34.577  30.844  1.00  0.00     0.198 A 
ATOM     69  C   UNL A   1      34.843  33.415  32.777  1.00  0.00     0.198 A 
ATOM     70  F   UNL A   1      36.638  31.932  32.673  1.00  0.00    -0.203 F 
ATOM     71  F   UNL A   1      33.235  35.379  30.227  1.00  0.00    -0.200 F 
ATOM     72  C   UNL A   1      33.961  34.291  32.182  1.00  0.00     0.200 A 
ATOM     73  F   UNL A   1      34.679  33.086  34.067  1.00  0.00    -0.200 F 
ATOM     74  F   UNL A   1      32.943  34.820  32.877  1.00  0.00    -0.200 F 
ENDBRANCH  50  64
BRANCH  51  75
ATOM     75  C   UNL A   1      45.131  28.528  29.342  1.00  0.00     0.064 A 
ATOM     76  C   UNL A   1      45.902  27.680  30.177  1.00  0.00     0.173 A 
ATOM     77  C   UNL A   1      44.665  27.964  28.147  1.00  0.00     0.173 A 
ATOM     78  F   UNL A   1      46.378  28.153  31.339  1.00  0.00    -0.203 F 
ATOM     79  C   UNL A   1      46.078  26.318  29.904  1.00  0.00     0.198 A 
ATOM     80  C   UNL A   1      44.842  26.594  27.874  1.00  0.00     0.198 A 
ATOM     81  F   UNL A   1      43.936  28.694  27.293  1.00  0.00    -0.203 F 
ATOM     82  F   UNL A   1      46.649  25.515  30.816  1.00  0.00    -0.200 F 
ATOM     83  C   UNL A   1      45.514  25.768  28.767  1.00  0.00     0.200 A 
ATOM     84  F   UNL A   1      44.247  26.045  26.804  1.00  0.00    -0.200 F 
ATOM     85  F   UNL A   1      45.504  24.436  28.602  1.00  0.00    -0.200 F 
ENDBRANCH  51  75
BRANCH  63  86
ATOM     86  C   UNL A   1      42.608  35.431  29.230  1.00  0.00     0.064 A 
ATOM     87  C   UNL A   1      43.161  36.255  30.225  1.00  0.00     0.173 A 
ATOM     88  C   UNL A   1      42.444  36.032  27.962  1.00  0.00     0.173 A 
ATOM     89  F   UNL A   1      43.528  35.773  31.421  1.00  0.00    -0.203 F 
ATOM     90  C   UNL A   1      43.400  37.607  30.013  1.00  0.00     0.198 A 
ATOM     91  C   UNL A   1      42.752  37.369  27.734  1.00  0.00     0.198 A 
ATOM     92  F   UNL A   1      42.025  35.347  26.890  1.00  0.00    -0.203 F 
ATOM     93  F   UNL A   1      43.845  38.362  31.026  1.00  0.00    -0.200 F 
ATOM     94  C   UNL A   1      43.203  38.163  28.766  1.00  0.00     0.200 A 
ATOM     95  F   UNL A   1      42.624  37.874  26.499  1.00  0.00    -0.200 F 
ATOM     96  F   UNL A   1      43.482  39.452  28.552  1.00  0.00    -0.200 F 
ENDBRANCH  63  86
ENDBRANCH  37  38
ENDBRANCH  30  32
ENDBRANCH  29  30
ENDBRANCH  28  29
ENDBRANCH  27  28
ENDBRANCH  26  27
ENDBRANCH   1  26
TORSDOF 17
ENDMDL
MODEL 2
REMARK VINA RESULT:     -12.1      0.885      1.623
REMARK SMILES Cc1ccc([C@H](C)NC(=O)[C@H]2[C@@H]3CC[C@@H](C3)[C@@H]2C(=O)OCCOCCOC(=O)c2ccc(-c3c4nc(c(-c5c(F)c(F)c(F)c(F)c5F)c5ccc([nH]5)c(-c5c(F)c(F)c(F)c(F)c5F)c5nc(c(-c6c(F)c(F)c(F)c(F)c6F)c6ccc3[nH]6)C=C5)C=C4)cc2)cc1
REMARK SMILES IDX 22 1 21 2 20 3 18 4 19 5 17 6 11 7 12 8 13 9 16 10 15 11
REMARK SMILES IDX 14 12 9 13 8 14 10 16 6 17 7 18 5 19 1 20 2 21 3 22 93 23
REMARK SMILES IDX 4 24 92 25 23 26 24 27 25 28 26 29 27 30 28 31 29 32 30 33
REMARK SMILES IDX 91 34 31 35 90 36 32 37 33 38 34 39 84 40 35 41 89 42 83 43
REMARK SMILES IDX 85 44 36 45 88 46 82 47 81 48 37 50 69 51 49 52 68 53 50 54
REMARK SMILES IDX 53 55 67 56 86 57 51 58 52 59 66 61 87 62 54 63 38 64 39 65
REMARK SMILES IDX 47 66 40 67 41 68 45 69 48 70 42 71 43 72 46 73 44 74 70 75
REMARK SMILES IDX 71 76 79 77 72 78 73 79 77 80 80 81 74 82 75 83 78 84 76 85
REMARK SMILES IDX 55 86 56 87 64 88 57 89 58 90 62 91 65 92 59 93 60 94 63 95
REMARK SMILES IDX 61 96
REMARK H PARENT 8 15 85 49 53 60
REMARK Flexibility Score: inf
ROOT
ATOM      1  C   UNL A   1      36.910  22.046  25.611  1.00  0.00     0.202 C 
ENDROOT
BRANCH   1   2
ATOM      2  C   UNL A   1      36.667  23.482  25.868  1.00  0.00     0.261 C 
BRANCH   2   3
ATOM      3  O   UNL A   1      35.322  23.878  25.591  1.00  0.00    -0.463 OA
BRANCH   3   4
ATOM      4  C   UNL A   1      34.289  23.398  26.336  1.00  0.00     0.310 C 
ATOM      5  O   UNL A   1      34.369  22.904  27.443  1.00  0.00    -0.252 OA
BRANCH   4   6
ATOM      6  C   UNL A   1      32.995  23.461  25.548  1.00  0.00     0.115 C 
ATOM      7  C   UNL A   1      31.789  22.786  26.230  1.00  0.00     0.096 C 
ATOM      8  C   UNL A   1      31.466  21.626  25.268  1.00  0.00     0.002 C 
ATOM      9  C   UNL A   1      32.640  20.610  25.329  1.00  0.00     0.005 C 
ATOM     10  C   UNL A   1      31.681  22.271  23.906  1.00  0.00     0.009 C 
ATOM     11  C   UNL A   1      33.125  22.673  24.215  1.00  0.00     0.004 C 
ATOM     12  C   UNL A   1      33.729  21.282  24.475  1.00  0.00     0.005 C 
BRANCH   7  13
ATOM     13  C   UNL A   1      30.578  23.613  26.642  1.00  0.00     0.224 C 
ATOM     14  N   UNL A   1      30.131  24.752  26.084  1.00  0.00    -0.349 N 
ATOM     15  H   UNL A   1      29.277  25.038  26.482  1.00  0.00     0.164 HD
ATOM     16  O   UNL A   1      29.869  23.179  27.562  1.00  0.00    -0.275 OA
BRANCH  14  17
ATOM     17  C   UNL A   1      30.574  25.674  25.046  1.00  0.00     0.109 C 
ATOM     18  C   UNL A   1      29.382  26.427  24.455  1.00  0.00     0.036 C 
BRANCH  17  19
ATOM     19  C   UNL A   1      31.569  26.677  25.603  1.00  0.00    -0.026 A 
ATOM     20  C   UNL A   1      34.533  29.348  27.287  1.00  0.00     0.044 C 
ATOM     21  C   UNL A   1      33.502  28.400  26.741  1.00  0.00    -0.051 A 
ATOM     22  C   UNL A   1      32.297  28.127  27.405  1.00  0.00     0.004 A 
ATOM     23  C   UNL A   1      33.723  27.816  25.496  1.00  0.00     0.004 A 
ATOM     24  C   UNL A   1      31.328  27.295  26.835  1.00  0.00     0.006 A 
ATOM     25  C   UNL A   1      32.782  26.946  24.947  1.00  0.00     0.006 A 
ENDBRANCH  17  19
ENDBRANCH  14  17
ENDBRANCH   7  13
ENDBRANCH   4   6
ENDBRANCH   3   4
ENDBRANCH   2   3
ENDBRANCH   1   2
BRANCH   1  26
ATOM     26  O   UNL A   1      38.262  22.053  25.188  1.00  0.00    -0.374 OA
BRANCH  26  27
ATOM     27  C   UNL A   1      39.156  21.408  26.057  1.00  0.00     0.202 C 
BRANCH  27  28
ATOM     28  C   UNL A   1      40.355  22.295  26.405  1.00  0.00     0.261 C 
BRANCH  28  29
ATOM     29  O   UNL A   1      39.909  23.640  26.703  1.00  0.00    -0.460 OA
BRANCH  29  30
ATOM     30  C   UNL A   1      40.628  24.341  27.628  1.00  0.00     0.338 C 
ATOM     31  O   UNL A   1      41.479  23.862  28.373  1.00  0.00    -0.246 OA
BRANCH  30  32
ATOM     32  C   UNL A   1      40.001  25.683  27.848  1.00  0.00     0.060 A 
ATOM     33  C   UNL A   1      40.352  26.790  27.044  1.00  0.00     0.016 A 
ATOM     34  C   UNL A   1      39.422  25.899  29.088  1.00  0.00     0.016 A 
ATOM     35  C   UNL A   1      40.275  28.100  27.561  1.00  0.00     0.010 A 
ATOM     36  C   UNL A   1      39.522  27.157  29.634  1.00  0.00     0.010 A 
ATOM     37  C   UNL A   1      39.931  28.277  28.903  1.00  0.00    -0.014 A 
BRANCH  37  38
ATOM     38  C   UNL A   1      40.028  29.524  29.688  1.00  0.00     0.031 A 
ATOM     39  C   UNL A   1      38.808  30.363  29.676  1.00  0.00     0.074 A 
ATOM     40  C   UNL A   1      41.096  29.833  30.459  1.00  0.00     0.049 A 
ATOM     41  N   UNL A   1      38.681  31.488  29.043  1.00  0.00    -0.248 NA
ATOM     42  C   UNL A   1      37.542  29.881  30.253  1.00  0.00     0.031 C 
ATOM     43  C   UNL A   1      41.274  30.892  31.447  1.00  0.00     0.029 A 
ATOM     44  N   UNL A   1      42.317  29.151  30.532  1.00  0.00    -0.354 N 
ATOM     45  C   UNL A   1      37.455  31.984  29.456  1.00  0.00     0.074 A 
ATOM     46  C   UNL A   1      36.692  30.833  29.871  1.00  0.00     0.031 C 
ATOM     47  C   UNL A   1      42.580  30.971  31.779  1.00  0.00     0.029 A 
ATOM     48  C   UNL A   1      43.318  29.990  30.999  1.00  0.00     0.049 A 
ATOM     49  H   UNL A   1      42.447  28.207  30.286  1.00  0.00     0.167 HD
ATOM     50  C   UNL A   1      37.357  33.221  30.034  1.00  0.00     0.037 A 
ATOM     51  C   UNL A   1      44.446  30.163  30.270  1.00  0.00     0.037 A 
ATOM     52  C   UNL A   1      38.699  33.713  30.369  1.00  0.00     0.049 A 
ATOM     53  C   UNL A   1      44.306  31.550  29.735  1.00  0.00     0.074 A 
ATOM     54  C   UNL A   1      39.257  33.890  31.617  1.00  0.00     0.029 A 
ATOM     55  N   UNL A   1      39.768  33.764  29.450  1.00  0.00    -0.354 N 
ATOM     56  N   UNL A   1      43.163  32.072  29.345  1.00  0.00    -0.248 NA
ATOM     57  C   UNL A   1      45.359  32.520  29.994  1.00  0.00     0.031 C 
ATOM     58  C   UNL A   1      40.611  34.173  31.427  1.00  0.00     0.029 A 
ATOM     59  C   UNL A   1      40.968  34.005  30.102  1.00  0.00     0.049 A 
ATOM     60  H   UNL A   1      39.675  33.645  28.477  1.00  0.00     0.167 HD
ATOM     61  C   UNL A   1      43.264  33.432  29.494  1.00  0.00     0.074 A 
ATOM     62  C   UNL A   1      44.655  33.655  29.898  1.00  0.00     0.031 C 
ATOM     63  C   UNL A   1      42.238  34.341  29.459  1.00  0.00     0.037 A 
BRANCH  50  64
ATOM     64  C   UNL A   1      36.088  33.697  30.773  1.00  0.00     0.064 A 
ATOM     65  C   UNL A   1      35.024  34.352  30.108  1.00  0.00     0.173 A 
ATOM     66  C   UNL A   1      35.866  33.528  32.159  1.00  0.00     0.173 A 
ATOM     67  F   UNL A   1      34.959  34.409  28.773  1.00  0.00    -0.203 F 
ATOM     68  C   UNL A   1      33.949  34.945  30.780  1.00  0.00     0.198 A 
ATOM     69  C   UNL A   1      34.795  34.131  32.838  1.00  0.00     0.198 A 
ATOM     70  F   UNL A   1      36.664  32.740  32.895  1.00  0.00    -0.203 F 
ATOM     71  F   UNL A   1      33.009  35.598  30.082  1.00  0.00    -0.200 F 
ATOM     72  C   UNL A   1      33.849  34.861  32.150  1.00  0.00     0.200 A 
ATOM     73  F   UNL A   1      34.687  33.996  34.169  1.00  0.00    -0.200 F 
ATOM     74  F   UNL A   1      32.825  35.439  32.795  1.00  0.00    -0.200 F 
ENDBRANCH  50  64
BRANCH  51  75
ATOM     75  C   UNL A   1      45.024  28.908  29.699  1.00  0.00     0.064 A 
ATOM     76  C   UNL A   1      45.817  28.128  30.577  1.00  0.00     0.173 A 
ATOM     77  C   UNL A   1      44.541  28.257  28.556  1.00  0.00     0.173 A 
ATOM     78  F   UNL A   1      46.311  28.687  31.693  1.00  0.00    -0.203 F 
ATOM     79  C   UNL A   1      46.000  26.751  30.401  1.00  0.00     0.198 A 
ATOM     80  C   UNL A   1      44.724  26.872  28.379  1.00  0.00     0.198 A 
ATOM     81  F   UNL A   1      43.791  28.919  27.666  1.00  0.00    -0.203 F 
ATOM     82  F   UNL A   1      46.595  26.021  31.357  1.00  0.00    -0.200 F 
ATOM     83  C   UNL A   1      45.419  26.117  29.316  1.00  0.00     0.200 A 
ATOM     84  F   UNL A   1      44.114  26.243  27.363  1.00  0.00    -0.200 F 
ATOM     85  F   UNL A   1      45.417  24.777  29.249  1.00  0.00    -0.200 F 
ENDBRANCH  51  75
BRANCH  63  86
ATOM     86  C   UNL A   1      42.507  35.793  29.149  1.00  0.00     0.064 A 
ATOM     87  C   UNL A   1      41.999  36.430  28.003  1.00  0.00     0.173 A 
ATOM     88  C   UNL A   1      43.173  36.633  30.068  1.00  0.00     0.173 A 
ATOM     89  F   UNL A   1      41.203  35.792  27.133  1.00  0.00    -0.203 F 
ATOM     90  C   UNL A   1      42.256  37.766  27.727  1.00  0.00     0.198 A 
ATOM     91  C   UNL A   1      43.366  37.988  29.822  1.00  0.00     0.198 A 
ATOM     92  F   UNL A   1      43.621  36.193  31.251  1.00  0.00    -0.203 F 
ATOM     93  F   UNL A   1      41.821  38.296  26.577  1.00  0.00    -0.200 F 
ATOM     94  C   UNL A   1      42.933  38.548  28.640  1.00  0.00     0.200 A 
ATOM     95  F   UNL A   1      43.962  38.749  30.751  1.00  0.00    -0.200 F 
ATOM     96  F   UNL A   1      43.135  39.847  28.396  1.00  0.00    -0.200 F 
ENDBRANCH  63  86
ENDBRANCH  37  38
ENDBRANCH  30  32
ENDBRANCH  29  30
ENDBRANCH  28  29
ENDBRANCH  27  28
ENDBRANCH  26  27
ENDBRANCH   1  26
TORSDOF 17
ENDMDL
MODEL 3
REMARK VINA RESULT:     -11.8      4.142      9.556
REMARK SMILES Cc1ccc([C@H](C)NC(=O)[C@H]2[C@@H]3CC[C@@H](C3)[C@@H]2C(=O)OCCOCCOC(=O)c2ccc(-c3c4nc(c(-c5c(F)c(F)c(F)c(F)c5F)c5ccc([nH]5)c(-c5c(F)c(F)c(F)c(F)c5F)c5nc(c(-c6c(F)c(F)c(F)c(F)c6F)c6ccc3[nH]6)C=C5)C=C4)cc2)cc1
REMARK SMILES IDX 22 1 21 2 20 3 18 4 19 5 17 6 11 7 12 8 13 9 16 10 15 11
REMARK SMILES IDX 14 12 9 13 8 14 10 16 6 17 7 18 5 19 1 20 2 21 3 22 93 23
REMARK SMILES IDX 4 24 92 25 23 26 24 27 25 28 26 29 27 30 28 31 29 32 30 33
REMARK SMILES IDX 91 34 31 35 90 36 32 37 33 38 34 39 84 40 35 41 89 42 83 43
REMARK SMILES IDX 85 44 36 45 88 46 82 47 81 48 37 50 69 51 49 52 68 53 50 54
REMARK SMILES IDX 53 55 67 56 86 57 51 58 52 59 66 61 87 62 54 63 38 64 39 65
REMARK SMILES IDX 47 66 40 67 41 68 45 69 48 70 42 71 43 72 46 73 44 74 70 75
REMARK SMILES IDX 71 76 79 77 72 78 73 79 77 80 80 81 74 82 75 83 78 84 76 85
REMARK SMILES IDX 55 86 56 87 64 88 57 89 58 90 62 91 65 92 59 93 60 94 63 95
REMARK SMILES IDX 61 96
REMARK H PARENT 8 15 85 49 53 60
REMARK Flexibility Score: inf
ROOT
ATOM      1  C   UNL A   1      34.931  30.511  27.713  1.00  0.00     0.202 C 
ENDROOT
BRANCH   1   2
ATOM      2  C   UNL A   1      33.797  29.795  27.088  1.00  0.00     0.261 C 
BRANCH   2   3
ATOM      3  O   UNL A   1      34.208  28.648  26.341  1.00  0.00    -0.463 OA
BRANCH   3   4
ATOM      4  C   UNL A   1      33.638  28.360  25.139  1.00  0.00     0.310 C 
ATOM      5  O   UNL A   1      33.259  29.165  24.310  1.00  0.00    -0.252 OA
BRANCH   4   6
ATOM      6  C   UNL A   1      33.428  26.866  24.998  1.00  0.00     0.115 C 
ATOM      7  C   UNL A   1      32.689  26.434  23.716  1.00  0.00     0.096 C 
ATOM      8  C   UNL A   1      31.384  25.828  24.269  1.00  0.00     0.002 C 
ATOM      9  C   UNL A   1      30.550  26.976  24.901  1.00  0.00     0.005 C 
ATOM     10  C   UNL A   1      31.876  25.083  25.502  1.00  0.00     0.009 C 
ATOM     11  C   UNL A   1      32.503  26.332  26.127  1.00  0.00     0.004 C 
ATOM     12  C   UNL A   1      31.249  27.215  26.250  1.00  0.00     0.005 C 
BRANCH   7  13
ATOM     13  C   UNL A   1      33.391  25.567  22.679  1.00  0.00     0.224 C 
ATOM     14  N   UNL A   1      33.666  24.253  22.754  1.00  0.00    -0.349 N 
ATOM     15  H   UNL A   1      34.047  23.915  21.912  1.00  0.00     0.164 HD
ATOM     16  O   UNL A   1      33.709  26.097  21.603  1.00  0.00    -0.275 OA
BRANCH  14  17
ATOM     17  C   UNL A   1      33.547  23.197  23.752  1.00  0.00     0.109 C 
ATOM     18  C   UNL A   1      32.792  21.999  23.175  1.00  0.00     0.036 C 
BRANCH  17  19
ATOM     19  C   UNL A   1      34.917  22.742  24.222  1.00  0.00    -0.026 A 
ATOM     20  C   UNL A   1      38.752  21.485  25.796  1.00  0.00     0.044 C 
ATOM     21  C   UNL A   1      37.422  21.957  25.275  1.00  0.00    -0.051 A 
ATOM     22  C   UNL A   1      37.215  23.261  24.800  1.00  0.00     0.004 A 
ATOM     23  C   UNL A   1      36.371  21.047  25.203  1.00  0.00     0.004 A 
ATOM     24  C   UNL A   1      35.985  23.646  24.257  1.00  0.00     0.006 A 
ATOM     25  C   UNL A   1      35.129  21.440  24.708  1.00  0.00     0.006 A 
ENDBRANCH  17  19
ENDBRANCH  14  17
ENDBRANCH   7  13
ENDBRANCH   4   6
ENDBRANCH   3   4
ENDBRANCH   2   3
ENDBRANCH   1   2
BRANCH   1  26
ATOM     26  O   UNL A   1      34.609  31.862  27.431  1.00  0.00    -0.374 OA
BRANCH  26  27
ATOM     27  C   UNL A   1      35.021  32.782  28.408  1.00  0.00     0.202 C 
BRANCH  27  28
ATOM     28  C   UNL A   1      33.844  33.591  28.961  1.00  0.00     0.261 C 
BRANCH  28  29
ATOM     29  O   UNL A   1      34.315  34.558  29.930  1.00  0.00    -0.460 OA
BRANCH  29  30
ATOM     30  C   UNL A   1      34.007  34.327  31.239  1.00  0.00     0.338 C 
ATOM     31  O   UNL A   1      32.993  34.726  31.807  1.00  0.00    -0.246 OA
BRANCH  30  32
ATOM     32  C   UNL A   1      35.216  33.825  31.966  1.00  0.00     0.060 A 
ATOM     33  C   UNL A   1      36.347  34.650  32.151  1.00  0.00     0.016 A 
ATOM     34  C   UNL A   1      35.355  32.449  32.057  1.00  0.00     0.016 A 
ATOM     35  C   UNL A   1      37.634  34.082  32.260  1.00  0.00     0.010 A 
ATOM     36  C   UNL A   1      36.623  31.924  31.985  1.00  0.00     0.010 A 
ATOM     37  C   UNL A   1      37.779  32.703  32.093  1.00  0.00    -0.014 A 
BRANCH  37  38
ATOM     38  C   UNL A   1      39.043  31.956  31.931  1.00  0.00     0.031 A 
ATOM     39  C   UNL A   1      38.987  30.843  30.955  1.00  0.00     0.074 A 
ATOM     40  C   UNL A   1      40.201  32.319  32.530  1.00  0.00     0.049 A 
ATOM     41  N   UNL A   1      38.988  29.582  31.259  1.00  0.00    -0.248 NA
ATOM     42  C   UNL A   1      38.736  31.091  29.526  1.00  0.00     0.031 C 
ATOM     43  C   UNL A   1      41.562  31.839  32.323  1.00  0.00     0.029 A 
ATOM     44  N   UNL A   1      40.381  33.319  33.494  1.00  0.00    -0.354 N 
ATOM     45  C   UNL A   1      39.099  28.931  30.041  1.00  0.00     0.074 A 
ATOM     46  C   UNL A   1      38.582  29.853  29.061  1.00  0.00     0.031 C 
ATOM     47  C   UNL A   1      42.350  32.307  33.316  1.00  0.00     0.029 A 
ATOM     48  C   UNL A   1      41.532  33.084  34.232  1.00  0.00     0.049 A 
ATOM     49  H   UNL A   1      39.775  34.083  33.629  1.00  0.00     0.167 HD
ATOM     50  C   UNL A   1      40.121  28.051  29.807  1.00  0.00     0.037 A 
ATOM     51  C   UNL A   1      41.461  33.003  35.582  1.00  0.00     0.037 A 
ATOM     52  C   UNL A   1      41.126  28.172  30.871  1.00  0.00     0.049 A 
ATOM     53  C   UNL A   1      41.662  31.549  35.854  1.00  0.00     0.074 A 
ATOM     54  C   UNL A   1      42.405  28.677  30.784  1.00  0.00     0.029 A 
ATOM     55  N   UNL A   1      40.823  28.105  32.247  1.00  0.00    -0.354 N 
ATOM     56  N   UNL A   1      41.182  30.588  35.092  1.00  0.00    -0.248 NA
ATOM     57  C   UNL A   1      42.731  31.136  36.749  1.00  0.00     0.031 C 
ATOM     58  C   UNL A   1      42.898  28.779  32.086  1.00  0.00     0.029 A 
ATOM     59  C   UNL A   1      41.903  28.522  33.010  1.00  0.00     0.049 A 
ATOM     60  H   UNL A   1      39.962  27.801  32.615  1.00  0.00     0.167 HD
ATOM     61  C   UNL A   1      42.000  29.498  35.248  1.00  0.00     0.074 A 
ATOM     62  C   UNL A   1      42.945  29.894  36.295  1.00  0.00     0.031 C 
ATOM     63  C   UNL A   1      42.032  28.377  34.460  1.00  0.00     0.037 A 
BRANCH  50  64
ATOM     64  C   UNL A   1      40.464  27.530  28.394  1.00  0.00     0.064 A 
ATOM     65  C   UNL A   1      40.037  26.263  27.930  1.00  0.00     0.173 A 
ATOM     66  C   UNL A   1      41.222  28.252  27.444  1.00  0.00     0.173 A 
ATOM     67  F   UNL A   1      39.138  25.534  28.603  1.00  0.00    -0.203 F 
ATOM     68  C   UNL A   1      40.479  25.698  26.728  1.00  0.00     0.198 A 
ATOM     69  C   UNL A   1      41.676  27.685  26.242  1.00  0.00     0.198 A 
ATOM     70  F   UNL A   1      41.515  29.547  27.635  1.00  0.00    -0.203 F 
ATOM     71  F   UNL A   1      40.073  24.467  26.385  1.00  0.00    -0.200 F 
ATOM     72  C   UNL A   1      41.324  26.398  25.896  1.00  0.00     0.200 A 
ATOM     73  F   UNL A   1      42.458  28.401  25.420  1.00  0.00    -0.200 F 
ATOM     74  F   UNL A   1      41.756  25.852  24.750  1.00  0.00    -0.200 F 
ENDBRANCH  50  64
BRANCH  51  75
ATOM     75  C   UNL A   1      40.614  34.049  36.231  1.00  0.00     0.064 A 
ATOM     76  C   UNL A   1      39.397  33.601  36.805  1.00  0.00     0.173 A 
ATOM     77  C   UNL A   1      41.080  35.297  36.664  1.00  0.00     0.173 A 
ATOM     78  F   UNL A   1      38.893  32.412  36.438  1.00  0.00    -0.203 F 
ATOM     79  C   UNL A   1      38.760  34.288  37.846  1.00  0.00     0.198 A 
ATOM     80  C   UNL A   1      40.440  35.987  37.712  1.00  0.00     0.198 A 
ATOM     81  F   UNL A   1      42.217  35.804  36.169  1.00  0.00    -0.203 F 
ATOM     82  F   UNL A   1      37.721  33.730  38.486  1.00  0.00    -0.200 F 
ATOM     83  C   UNL A   1      39.306  35.466  38.323  1.00  0.00     0.200 A 
ATOM     84  F   UNL A   1      40.998  37.098  38.217  1.00  0.00    -0.200 F 
ATOM     85  F   UNL A   1      38.822  36.020  39.445  1.00  0.00    -0.200 F 
ENDBRANCH  51  75
BRANCH  63  86
ATOM     86  C   UNL A   1      42.594  27.080  34.990  1.00  0.00     0.064 A 
ATOM     87  C   UNL A   1      41.783  25.980  35.319  1.00  0.00     0.173 A 
ATOM     88  C   UNL A   1      43.987  26.851  35.054  1.00  0.00     0.173 A 
ATOM     89  F   UNL A   1      40.455  26.002  35.139  1.00  0.00    -0.203 F 
ATOM     90  C   UNL A   1      42.313  24.794  35.808  1.00  0.00     0.198 A 
ATOM     91  C   UNL A   1      44.516  25.636  35.476  1.00  0.00     0.198 A 
ATOM     92  F   UNL A   1      44.885  27.769  34.673  1.00  0.00    -0.203 F 
ATOM     93  F   UNL A   1      41.486  23.812  36.188  1.00  0.00    -0.200 F 
ATOM     94  C   UNL A   1      43.679  24.618  35.880  1.00  0.00     0.200 A 
ATOM     95  F   UNL A   1      45.844  25.458  35.471  1.00  0.00    -0.200 F 
ATOM     96  F   UNL A   1      44.188  23.456  36.302  1.00  0.00    -0.200 F 
ENDBRANCH  63  86
ENDBRANCH  37  38
ENDBRANCH  30  32
ENDBRANCH  29  30
ENDBRANCH  28  29
ENDBRANCH  27  28
ENDBRANCH  26  27
ENDBRANCH   1  26
TORSDOF 17
ENDMDL
