MODEL 1
REMARK VINA RESULT:      -8.9      0.000      0.000
REMARK SMILES CC(C)[C@@H](Sc1cc(F)ccc1N)C(=O)OCCOCCOC(=O)c1ccc(-c2c3nc(c(-c4c(F)c(F)c(F)c(F)c4F)c4ccc([nH]4)c(-c4c(F)c(F)c(F)c(F)c4F)c4nc(c(-c5c(F)c(F)c(F)c(F)c5F)c5ccc2[nH]5)C=C4)C=C3)cc1
REMARK SMILES IDX 18 1 17 2 16 3 14 4 15 5 4 6 2 7 1 8 3 9 5 10 6 11 7 12
REMARK SMILES IDX 12 13 8 14 11 15 9 16 10 17 13 18 19 21 20 22 21 23 22 24
REMARK SMILES IDX 23 25 24 26 25 27 26 28 87 29 27 30 86 31 28 32 29 33 30 34
REMARK SMILES IDX 80 35 31 36 85 37 79 38 81 39 32 40 84 41 78 42 77 43 33 45
REMARK SMILES IDX 65 46 45 47 64 48 46 49 49 50 63 51 82 52 47 53 48 54 62 56
REMARK SMILES IDX 83 57 50 58 34 59 35 60 43 61 36 62 37 63 41 64 44 65 38 66
REMARK SMILES IDX 39 67 42 68 40 69 66 70 67 71 75 72 68 73 69 74 73 75 76 76
REMARK SMILES IDX 70 77 71 78 74 79 72 80 51 81 52 82 60 83 53 84 54 85 58 86
REMARK SMILES IDX 61 87 55 88 56 89 59 90 57 91
REMARK H PARENT 13 19 13 20 81 44 49 55
REMARK Flexibility Score: inf
ROOT
ATOM      1  C   UNL A   1      33.029  35.364  29.373  1.00  0.00     0.202 C 
ENDROOT
BRANCH   1   2
ATOM      2  C   UNL A   1      33.261  35.227  30.883  1.00  0.00     0.261 C 
BRANCH   2   3
ATOM      3  O   UNL A   1      34.630  34.997  31.268  1.00  0.00    -0.462 OA
BRANCH   3   4
ATOM      4  C   UNL A   1      34.910  33.712  31.623  1.00  0.00     0.319 C 
ATOM      5  O   UNL A   1      34.076  32.919  32.056  1.00  0.00    -0.251 OA
BRANCH   4   6
ATOM      6  C   UNL A   1      36.396  33.344  31.528  1.00  0.00     0.164 C 
BRANCH   6   7
ATOM      7  C   UNL A   1      37.252  34.048  30.437  1.00  0.00     0.007 C 
ATOM      8  C   UNL A   1      38.592  34.569  30.977  1.00  0.00     0.009 C 
ATOM      9  C   UNL A   1      37.604  33.099  29.286  1.00  0.00     0.009 C 
ENDBRANCH   6   7
BRANCH   6  10
ATOM     10  S   UNL A   1      37.007  33.565  33.278  1.00  0.00    -0.108 SA
BRANCH  10  11
ATOM     11  C   UNL A   1      38.105  32.168  33.477  1.00  0.00     0.034 A 
ATOM     12  C   UNL A   1      37.613  30.936  33.024  1.00  0.00     0.056 A 
ATOM     13  C   UNL A   1      39.378  32.240  34.085  1.00  0.00     0.045 A 
ATOM     14  C   UNL A   1      38.322  29.773  33.286  1.00  0.00     0.124 A 
ATOM     15  C   UNL A   1      40.048  31.044  34.375  1.00  0.00     0.029 A 
ATOM     16  F   UNL A   1      37.814  28.594  32.907  1.00  0.00    -0.207 F 
ATOM     17  C   UNL A   1      39.524  29.813  33.976  1.00  0.00     0.041 A 
BRANCH  13  18
ATOM     18  N   UNL A   1      39.921  33.440  34.540  1.00  0.00    -0.398 N 
ATOM     19  H   UNL A   1      40.897  33.562  34.563  1.00  0.00     0.156 HD
ATOM     20  H   UNL A   1      39.328  34.167  34.840  1.00  0.00     0.156 HD
ENDBRANCH  13  18
ENDBRANCH  10  11
ENDBRANCH   6  10
ENDBRANCH   4   6
ENDBRANCH   3   4
ENDBRANCH   2   3
ENDBRANCH   1   2
BRANCH   1  21
ATOM     21  O   UNL A   1      33.914  34.686  28.491  1.00  0.00    -0.374 OA
BRANCH  21  22
ATOM     22  C   UNL A   1      33.499  33.425  27.970  1.00  0.00     0.202 C 
BRANCH  22  23
ATOM     23  C   UNL A   1      34.339  32.198  28.358  1.00  0.00     0.261 C 
BRANCH  23  24
ATOM     24  O   UNL A   1      34.404  31.220  27.297  1.00  0.00    -0.460 OA
BRANCH  24  25
ATOM     25  C   UNL A   1      34.617  29.943  27.695  1.00  0.00     0.338 C 
ATOM     26  O   UNL A   1      33.875  28.986  27.532  1.00  0.00    -0.246 OA
BRANCH  25  27
ATOM     27  C   UNL A   1      36.005  29.789  28.183  1.00  0.00     0.060 A 
ATOM     28  C   UNL A   1      36.299  29.357  29.477  1.00  0.00     0.016 A 
ATOM     29  C   UNL A   1      37.039  30.038  27.271  1.00  0.00     0.016 A 
ATOM     30  C   UNL A   1      37.636  29.139  29.840  1.00  0.00     0.010 A 
ATOM     31  C   UNL A   1      38.367  29.819  27.634  1.00  0.00     0.010 A 
ATOM     32  C   UNL A   1      38.680  29.345  28.917  1.00  0.00    -0.014 A 
BRANCH  32  33
ATOM     33  C   UNL A   1      40.083  28.969  29.244  1.00  0.00     0.031 A 
ATOM     34  C   UNL A   1      40.973  29.875  30.045  1.00  0.00     0.074 A 
ATOM     35  C   UNL A   1      40.579  27.813  28.760  1.00  0.00     0.049 A 
ATOM     36  N   UNL A   1      42.208  29.681  30.441  1.00  0.00    -0.248 NA
ATOM     37  C   UNL A   1      40.414  31.175  30.445  1.00  0.00     0.031 C 
ATOM     38  C   UNL A   1      39.841  26.874  27.917  1.00  0.00     0.029 A 
ATOM     39  N   UNL A   1      41.816  27.231  28.904  1.00  0.00    -0.354 N 
ATOM     40  C   UNL A   1      42.565  30.817  31.152  1.00  0.00     0.074 A 
ATOM     41  C   UNL A   1      41.439  31.726  31.082  1.00  0.00     0.031 C 
ATOM     42  C   UNL A   1      40.625  25.819  27.646  1.00  0.00     0.029 A 
ATOM     43  C   UNL A   1      41.931  26.018  28.269  1.00  0.00     0.049 A 
ATOM     44  H   UNL A   1      42.549  27.645  29.414  1.00  0.00     0.167 HD
ATOM     45  C   UNL A   1      43.714  31.067  31.825  1.00  0.00     0.037 A 
ATOM     46  C   UNL A   1      42.968  25.160  28.199  1.00  0.00     0.037 A 
ATOM     47  C   UNL A   1      44.838  30.166  31.889  1.00  0.00     0.049 A 
ATOM     48  C   UNL A   1      44.253  25.486  28.913  1.00  0.00     0.074 A 
ATOM     49  C   UNL A   1      46.019  30.313  32.597  1.00  0.00     0.029 A 
ATOM     50  N   UNL A   1      44.928  28.960  31.210  1.00  0.00    -0.354 N 
ATOM     51  N   UNL A   1      44.538  26.514  29.673  1.00  0.00    -0.248 NA
ATOM     52  C   UNL A   1      45.360  24.529  28.761  1.00  0.00     0.031 C 
ATOM     53  C   UNL A   1      46.848  29.228  32.299  1.00  0.00     0.029 A 
ATOM     54  C   UNL A   1      46.163  28.374  31.450  1.00  0.00     0.049 A 
ATOM     55  H   UNL A   1      44.222  28.577  30.641  1.00  0.00     0.167 HD
ATOM     56  C   UNL A   1      45.845  26.322  30.101  1.00  0.00     0.074 A 
ATOM     57  C   UNL A   1      46.292  25.066  29.537  1.00  0.00     0.031 C 
ATOM     58  C   UNL A   1      46.606  27.125  30.886  1.00  0.00     0.037 A 
BRANCH  45  59
ATOM     59  C   UNL A   1      43.819  32.360  32.583  1.00  0.00     0.064 A 
ATOM     60  C   UNL A   1      44.132  33.561  31.930  1.00  0.00     0.173 A 
ATOM     61  C   UNL A   1      43.510  32.418  33.952  1.00  0.00     0.173 A 
ATOM     62  F   UNL A   1      44.434  33.559  30.623  1.00  0.00    -0.203 F 
ATOM     63  C   UNL A   1      44.150  34.770  32.620  1.00  0.00     0.198 A 
ATOM     64  C   UNL A   1      43.500  33.634  34.631  1.00  0.00     0.198 A 
ATOM     65  F   UNL A   1      43.189  31.302  34.622  1.00  0.00    -0.203 F 
ATOM     66  F   UNL A   1      44.482  35.900  31.980  1.00  0.00    -0.200 F 
ATOM     67  C   UNL A   1      43.824  34.807  33.967  1.00  0.00     0.200 A 
ATOM     68  F   UNL A   1      43.164  33.671  35.929  1.00  0.00    -0.200 F 
ATOM     69  F   UNL A   1      43.821  35.975  34.625  1.00  0.00    -0.200 F 
ENDBRANCH  45  59
BRANCH  46  70
ATOM     70  C   UNL A   1      42.817  23.884  27.451  1.00  0.00     0.064 A 
ATOM     71  C   UNL A   1      43.156  23.805  26.093  1.00  0.00     0.173 A 
ATOM     72  C   UNL A   1      42.349  22.718  28.075  1.00  0.00     0.173 A 
ATOM     73  F   UNL A   1      43.586  24.899  25.447  1.00  0.00    -0.203 F 
ATOM     74  C   UNL A   1      43.022  22.613  25.385  1.00  0.00     0.198 A 
ATOM     75  C   UNL A   1      42.245  21.519  27.373  1.00  0.00     0.198 A 
ATOM     76  F   UNL A   1      42.014  22.740  29.373  1.00  0.00    -0.203 F 
ATOM     77  F   UNL A   1      43.316  22.576  24.078  1.00  0.00    -0.200 F 
ATOM     78  C   UNL A   1      42.576  21.469  26.028  1.00  0.00     0.200 A 
ATOM     79  F   UNL A   1      41.827  20.411  28.002  1.00  0.00    -0.200 F 
ATOM     80  F   UNL A   1      42.460  20.319  25.350  1.00  0.00    -0.200 F 
ENDBRANCH  46  70
BRANCH  58  81
ATOM     81  C   UNL A   1      48.012  26.687  31.187  1.00  0.00     0.064 A 
ATOM     82  C   UNL A   1      48.290  25.807  32.244  1.00  0.00     0.173 A 
ATOM     83  C   UNL A   1      49.076  27.069  30.355  1.00  0.00     0.173 A 
ATOM     84  F   UNL A   1      47.312  25.424  33.078  1.00  0.00    -0.203 F 
ATOM     85  C   UNL A   1      49.580  25.328  32.456  1.00  0.00     0.198 A 
ATOM     86  C   UNL A   1      50.358  26.564  30.552  1.00  0.00     0.198 A 
ATOM     87  F   UNL A   1      48.863  27.904  29.326  1.00  0.00    -0.203 F 
ATOM     88  F   UNL A   1      49.825  24.507  33.487  1.00  0.00    -0.200 F 
ATOM     89  C   UNL A   1      50.610  25.694  31.603  1.00  0.00     0.200 A 
ATOM     90  F   UNL A   1      51.348  26.906  29.715  1.00  0.00    -0.200 F 
ATOM     91  F   UNL A   1      51.844  25.210  31.793  1.00  0.00    -0.200 F 
ENDBRANCH  58  81
ENDBRANCH  32  33
ENDBRANCH  25  27
ENDBRANCH  24  25
ENDBRANCH  23  24
ENDBRANCH  22  23
ENDBRANCH  21  22
ENDBRANCH   1  21
TORSDOF 18
ENDMDL
MODEL 2
REMARK VINA RESULT:      -8.9      4.493      7.331
REMARK SMILES CC(C)[C@@H](Sc1cc(F)ccc1N)C(=O)OCCOCCOC(=O)c1ccc(-c2c3nc(c(-c4c(F)c(F)c(F)c(F)c4F)c4ccc([nH]4)c(-c4c(F)c(F)c(F)c(F)c4F)c4nc(c(-c5c(F)c(F)c(F)c(F)c5F)c5ccc2[nH]5)C=C4)C=C3)cc1
REMARK SMILES IDX 18 1 17 2 16 3 14 4 15 5 4 6 2 7 1 8 3 9 5 10 6 11 7 12
REMARK SMILES IDX 12 13 8 14 11 15 9 16 10 17 13 18 19 21 20 22 21 23 22 24
REMARK SMILES IDX 23 25 24 26 25 27 26 28 87 29 27 30 86 31 28 32 29 33 30 34
REMARK SMILES IDX 80 35 31 36 85 37 79 38 81 39 32 40 84 41 78 42 77 43 33 45
REMARK SMILES IDX 65 46 45 47 64 48 46 49 49 50 63 51 82 52 47 53 48 54 62 56
REMARK SMILES IDX 83 57 50 58 34 59 35 60 43 61 36 62 37 63 41 64 44 65 38 66
REMARK SMILES IDX 39 67 42 68 40 69 66 70 67 71 75 72 68 73 69 74 73 75 76 76
REMARK SMILES IDX 70 77 71 78 74 79 72 80 51 81 52 82 60 83 53 84 54 85 58 86
REMARK SMILES IDX 61 87 55 88 56 89 59 90 57 91
REMARK H PARENT 13 19 13 20 81 44 49 55
REMARK Flexibility Score: inf
ROOT
ATOM      1  C   UNL A   1      32.747  30.336  27.214  1.00  0.00     0.202 C 
ENDROOT
BRANCH   1   2
ATOM      2  C   UNL A   1      32.669  28.806  27.298  1.00  0.00     0.261 C 
BRANCH   2   3
ATOM      3  O   UNL A   1      31.567  28.214  26.585  1.00  0.00    -0.462 OA
BRANCH   3   4
ATOM      4  C   UNL A   1      31.901  27.134  25.823  1.00  0.00     0.319 C 
ATOM      5  O   UNL A   1      32.125  26.014  26.276  1.00  0.00    -0.251 OA
BRANCH   4   6
ATOM      6  C   UNL A   1      32.072  27.447  24.331  1.00  0.00     0.164 C 
BRANCH   6   7
ATOM      7  C   UNL A   1      33.494  27.315  23.716  1.00  0.00     0.007 C 
ATOM      8  C   UNL A   1      33.521  26.426  22.465  1.00  0.00     0.009 C 
ATOM      9  C   UNL A   1      34.057  28.672  23.280  1.00  0.00     0.009 C 
ENDBRANCH   6   7
BRANCH   6  10
ATOM     10  S   UNL A   1      30.758  26.401  23.518  1.00  0.00    -0.108 SA
BRANCH  10  11
ATOM     11  C   UNL A   1      29.505  27.610  23.110  1.00  0.00     0.034 A 
ATOM     12  C   UNL A   1      29.960  28.762  22.454  1.00  0.00     0.056 A 
ATOM     13  C   UNL A   1      28.139  27.480  23.445  1.00  0.00     0.045 A 
ATOM     14  C   UNL A   1      29.093  29.823  22.246  1.00  0.00     0.124 A 
ATOM     15  C   UNL A   1      27.299  28.587  23.263  1.00  0.00     0.029 A 
ATOM     16  F   UNL A   1      29.551  30.945  21.677  1.00  0.00    -0.207 F 
ATOM     17  C   UNL A   1      27.772  29.755  22.665  1.00  0.00     0.041 A 
BRANCH  13  18
ATOM     18  N   UNL A   1      27.632  26.350  24.084  1.00  0.00    -0.398 N 
ATOM     19  H   UNL A   1      26.752  25.992  23.826  1.00  0.00     0.156 HD
ATOM     20  H   UNL A   1      28.152  25.911  24.795  1.00  0.00     0.156 HD
ENDBRANCH  13  18
ENDBRANCH  10  11
ENDBRANCH   6  10
ENDBRANCH   4   6
ENDBRANCH   3   4
ENDBRANCH   2   3
ENDBRANCH   1   2
BRANCH   1  21
ATOM     21  O   UNL A   1      31.795  31.015  26.405  1.00  0.00    -0.374 OA
BRANCH  21  22
ATOM     22  C   UNL A   1      31.469  32.360  26.748  1.00  0.00     0.202 C 
BRANCH  22  23
ATOM     23  C   UNL A   1      32.624  33.262  27.211  1.00  0.00     0.261 C 
BRANCH  23  24
ATOM     24  O   UNL A   1      32.210  34.209  28.221  1.00  0.00    -0.460 OA
BRANCH  24  25
ATOM     25  C   UNL A   1      33.186  35.020  28.693  1.00  0.00     0.338 C 
ATOM     26  O   UNL A   1      33.097  36.214  28.939  1.00  0.00    -0.246 OA
BRANCH  25  27
ATOM     27  C   UNL A   1      34.361  34.219  29.095  1.00  0.00     0.060 A 
ATOM     28  C   UNL A   1      35.648  34.490  28.628  1.00  0.00     0.016 A 
ATOM     29  C   UNL A   1      34.152  33.192  30.026  1.00  0.00     0.016 A 
ATOM     30  C   UNL A   1      36.731  33.752  29.128  1.00  0.00     0.010 A 
ATOM     31  C   UNL A   1      35.231  32.461  30.523  1.00  0.00     0.010 A 
ATOM     32  C   UNL A   1      36.536  32.747  30.095  1.00  0.00    -0.014 A 
BRANCH  32  33
ATOM     33  C   UNL A   1      37.692  32.068  30.743  1.00  0.00     0.031 A 
ATOM     34  C   UNL A   1      38.168  32.459  32.111  1.00  0.00     0.074 A 
ATOM     35  C   UNL A   1      38.359  31.118  30.056  1.00  0.00     0.049 A 
ATOM     36  N   UNL A   1      39.140  31.945  32.826  1.00  0.00    -0.248 NA
ATOM     37  C   UNL A   1      37.475  33.580  32.762  1.00  0.00     0.031 C 
ATOM     38  C   UNL A   1      38.040  30.689  28.695  1.00  0.00     0.029 A 
ATOM     39  N   UNL A   1      39.440  30.345  30.405  1.00  0.00    -0.354 N 
ATOM     40  C   UNL A   1      39.161  32.661  34.014  1.00  0.00     0.074 A 
ATOM     41  C   UNL A   1      38.146  33.689  33.901  1.00  0.00     0.031 C 
ATOM     42  C   UNL A   1      38.883  29.708  28.335  1.00  0.00     0.029 A 
ATOM     43  C   UNL A   1      39.821  29.458  29.426  1.00  0.00     0.049 A 
ATOM     44  H   UNL A   1      39.899  30.419  31.273  1.00  0.00     0.167 HD
ATOM     45  C   UNL A   1      39.936  32.462  35.108  1.00  0.00     0.037 A 
ATOM     46  C   UNL A   1      40.811  28.544  29.408  1.00  0.00     0.037 A 
ATOM     47  C   UNL A   1      40.951  31.444  35.217  1.00  0.00     0.049 A 
ATOM     48  C   UNL A   1      41.692  28.377  30.619  1.00  0.00     0.074 A 
ATOM     49  C   UNL A   1      41.743  31.133  36.310  1.00  0.00     0.029 A 
ATOM     50  N   UNL A   1      41.327  30.585  34.196  1.00  0.00    -0.354 N 
ATOM     51  N   UNL A   1      41.629  28.988  31.776  1.00  0.00    -0.248 NA
ATOM     52  C   UNL A   1      42.781  27.393  30.520  1.00  0.00     0.031 C 
ATOM     53  C   UNL A   1      42.638  30.128  35.933  1.00  0.00     0.029 A 
ATOM     54  C   UNL A   1      42.368  29.772  34.622  1.00  0.00     0.049 A 
ATOM     55  H   UNL A   1      40.918  30.556  33.301  1.00  0.00     0.167 HD
ATOM     56  C   UNL A   1      42.655  28.453  32.546  1.00  0.00     0.074 A 
ATOM     57  C   UNL A   1      43.310  27.450  31.734  1.00  0.00     0.031 C 
ATOM     58  C   UNL A   1      43.021  28.776  33.811  1.00  0.00     0.037 A 
BRANCH  45  59
ATOM     59  C   UNL A   1      39.705  33.342  36.303  1.00  0.00     0.064 A 
ATOM     60  C   UNL A   1      40.370  34.569  36.440  1.00  0.00     0.173 A 
ATOM     61  C   UNL A   1      38.743  33.005  37.269  1.00  0.00     0.173 A 
ATOM     62  F   UNL A   1      41.297  34.938  35.544  1.00  0.00    -0.203 F 
ATOM     63  C   UNL A   1      40.095  35.419  37.507  1.00  0.00     0.198 A 
ATOM     64  C   UNL A   1      38.450  33.872  38.319  1.00  0.00     0.198 A 
ATOM     65  F   UNL A   1      38.068  31.850  37.179  1.00  0.00    -0.203 F 
ATOM     66  F   UNL A   1      40.765  36.573  37.633  1.00  0.00    -0.200 F 
ATOM     67  C   UNL A   1      39.129  35.075  38.440  1.00  0.00     0.200 A 
ATOM     68  F   UNL A   1      37.501  33.547  39.209  1.00  0.00    -0.200 F 
ATOM     69  F   UNL A   1      38.850  35.904  39.456  1.00  0.00    -0.200 F 
ENDBRANCH  45  59
BRANCH  46  70
ATOM     70  C   UNL A   1      40.996  27.682  28.211  1.00  0.00     0.064 A 
ATOM     71  C   UNL A   1      41.774  28.116  27.129  1.00  0.00     0.173 A 
ATOM     72  C   UNL A   1      40.414  26.408  28.127  1.00  0.00     0.173 A 
ATOM     73  F   UNL A   1      42.330  29.336  27.153  1.00  0.00    -0.203 F 
ATOM     74  C   UNL A   1      41.956  27.315  26.005  1.00  0.00     0.198 A 
ATOM     75  C   UNL A   1      40.623  25.595  27.015  1.00  0.00     0.198 A 
ATOM     76  F   UNL A   1      39.663  25.945  29.135  1.00  0.00    -0.203 F 
ATOM     77  F   UNL A   1      42.673  27.770  24.968  1.00  0.00    -0.200 F 
ATOM     78  C   UNL A   1      41.388  26.051  25.953  1.00  0.00     0.200 A 
ATOM     79  F   UNL A   1      40.084  24.368  26.974  1.00  0.00    -0.200 F 
ATOM     80  F   UNL A   1      41.574  25.275  24.876  1.00  0.00    -0.200 F 
ENDBRANCH  46  70
BRANCH  58  81
ATOM     81  C   UNL A   1      44.191  28.050  34.412  1.00  0.00     0.064 A 
ATOM     82  C   UNL A   1      44.024  26.828  35.082  1.00  0.00     0.173 A 
ATOM     83  C   UNL A   1      45.499  28.524  34.232  1.00  0.00     0.173 A 
ATOM     84  F   UNL A   1      42.793  26.338  35.295  1.00  0.00    -0.203 F 
ATOM     85  C   UNL A   1      45.122  26.112  35.550  1.00  0.00     0.198 A 
ATOM     86  C   UNL A   1      46.597  27.791  34.674  1.00  0.00     0.198 A 
ATOM     87  F   UNL A   1      45.715  29.684  33.592  1.00  0.00    -0.203 F 
ATOM     88  F   UNL A   1      44.936  24.960  36.209  1.00  0.00    -0.200 F 
ATOM     89  C   UNL A   1      46.407  26.585  35.334  1.00  0.00     0.200 A 
ATOM     90  F   UNL A   1      47.839  28.241  34.448  1.00  0.00    -0.200 F 
ATOM     91  F   UNL A   1      47.464  25.880  35.761  1.00  0.00    -0.200 F 
ENDBRANCH  58  81
ENDBRANCH  32  33
ENDBRANCH  25  27
ENDBRANCH  24  25
ENDBRANCH  23  24
ENDBRANCH  22  23
ENDBRANCH  21  22
ENDBRANCH   1  21
TORSDOF 18
ENDMDL
MODEL 3
REMARK VINA RESULT:      -8.9      4.755      7.505
REMARK SMILES CC(C)[C@@H](Sc1cc(F)ccc1N)C(=O)OCCOCCOC(=O)c1ccc(-c2c3nc(c(-c4c(F)c(F)c(F)c(F)c4F)c4ccc([nH]4)c(-c4c(F)c(F)c(F)c(F)c4F)c4nc(c(-c5c(F)c(F)c(F)c(F)c5F)c5ccc2[nH]5)C=C4)C=C3)cc1
REMARK SMILES IDX 18 1 17 2 16 3 14 4 15 5 4 6 2 7 1 8 3 9 5 10 6 11 7 12
REMARK SMILES IDX 12 13 8 14 11 15 9 16 10 17 13 18 19 21 20 22 21 23 22 24
REMARK SMILES IDX 23 25 24 26 25 27 26 28 87 29 27 30 86 31 28 32 29 33 30 34
REMARK SMILES IDX 80 35 31 36 85 37 79 38 81 39 32 40 84 41 78 42 77 43 33 45
REMARK SMILES IDX 65 46 45 47 64 48 46 49 49 50 63 51 82 52 47 53 48 54 62 56
REMARK SMILES IDX 83 57 50 58 34 59 35 60 43 61 36 62 37 63 41 64 44 65 38 66
REMARK SMILES IDX 39 67 42 68 40 69 66 70 67 71 75 72 68 73 69 74 73 75 76 76
REMARK SMILES IDX 70 77 71 78 74 79 72 80 51 81 52 82 60 83 53 84 54 85 58 86
REMARK SMILES IDX 61 87 55 88 56 89 59 90 57 91
REMARK H PARENT 13 19 13 20 81 44 49 55
REMARK Flexibility Score: inf
ROOT
ATOM      1  C   UNL A   1      31.592  27.557  25.794  1.00  0.00     0.202 C 
ENDROOT
BRANCH   1   2
ATOM      2  C   UNL A   1      32.020  26.166  25.307  1.00  0.00     0.261 C 
BRANCH   2   3
ATOM      3  O   UNL A   1      32.596  25.319  26.319  1.00  0.00    -0.462 OA
BRANCH   3   4
ATOM      4  C   UNL A   1      32.236  24.007  26.231  1.00  0.00     0.319 C 
ATOM      5  O   UNL A   1      31.251  23.525  26.788  1.00  0.00    -0.251 OA
BRANCH   4   6
ATOM      6  C   UNL A   1      33.223  23.137  25.445  1.00  0.00     0.164 C 
BRANCH   6   7
ATOM      7  C   UNL A   1      34.647  23.704  25.183  1.00  0.00     0.007 C 
ATOM      8  C   UNL A   1      35.725  23.018  26.035  1.00  0.00     0.009 C 
ATOM      9  C   UNL A   1      35.080  23.516  23.725  1.00  0.00     0.009 C 
ENDBRANCH   6   7
BRANCH   6  10
ATOM     10  S   UNL A   1      33.174  21.505  26.349  1.00  0.00    -0.108 SA
BRANCH  10  11
ATOM     11  C   UNL A   1      32.873  20.343  25.024  1.00  0.00     0.034 A 
ATOM     12  C   UNL A   1      32.672  20.904  23.755  1.00  0.00     0.056 A 
ATOM     13  C   UNL A   1      32.789  18.944  25.199  1.00  0.00     0.045 A 
ATOM     14  C   UNL A   1      32.269  20.097  22.702  1.00  0.00     0.124 A 
ATOM     15  C   UNL A   1      32.337  18.163  24.127  1.00  0.00     0.029 A 
ATOM     16  F   UNL A   1      32.017  20.650  21.508  1.00  0.00    -0.207 F 
ATOM     17  C   UNL A   1      32.078  18.736  22.882  1.00  0.00     0.041 A 
BRANCH  13  18
ATOM     18  N   UNL A   1      32.994  18.334  26.435  1.00  0.00    -0.398 N 
ATOM     19  H   UNL A   1      33.873  17.949  26.655  1.00  0.00     0.156 HD
ATOM     20  H   UNL A   1      32.259  18.286  27.089  1.00  0.00     0.156 HD
ENDBRANCH  13  18
ENDBRANCH  10  11
ENDBRANCH   6  10
ENDBRANCH   4   6
ENDBRANCH   3   4
ENDBRANCH   2   3
ENDBRANCH   1   2
BRANCH   1  21
ATOM     21  O   UNL A   1      32.062  28.694  25.081  1.00  0.00    -0.374 OA
BRANCH  21  22
ATOM     22  C   UNL A   1      31.225  29.847  25.042  1.00  0.00     0.202 C 
BRANCH  22  23
ATOM     23  C   UNL A   1      31.530  30.967  26.048  1.00  0.00     0.261 C 
BRANCH  23  24
ATOM     24  O   UNL A   1      32.703  30.686  26.844  1.00  0.00    -0.460 OA
BRANCH  24  25
ATOM     25  C   UNL A   1      33.364  31.771  27.310  1.00  0.00     0.338 C 
ATOM     26  O   UNL A   1      32.914  32.896  27.471  1.00  0.00    -0.246 OA
BRANCH  25  27
ATOM     27  C   UNL A   1      34.692  31.374  27.825  1.00  0.00     0.060 A 
ATOM     28  C   UNL A   1      35.719  32.296  28.036  1.00  0.00     0.016 A 
ATOM     29  C   UNL A   1      34.878  30.025  28.156  1.00  0.00     0.016 A 
ATOM     30  C   UNL A   1      36.919  31.865  28.619  1.00  0.00     0.010 A 
ATOM     31  C   UNL A   1      36.072  29.600  28.737  1.00  0.00     0.010 A 
ATOM     32  C   UNL A   1      37.099  30.519  28.995  1.00  0.00    -0.014 A 
BRANCH  32  33
ATOM     33  C   UNL A   1      38.306  30.086  29.752  1.00  0.00     0.031 A 
ATOM     34  C   UNL A   1      38.608  30.620  31.122  1.00  0.00     0.074 A 
ATOM     35  C   UNL A   1      39.174  29.237  29.166  1.00  0.00     0.049 A 
ATOM     36  N   UNL A   1      39.600  30.320  31.925  1.00  0.00    -0.248 NA
ATOM     37  C   UNL A   1      37.686  31.631  31.661  1.00  0.00     0.031 C 
ATOM     38  C   UNL A   1      39.032  28.695  27.816  1.00  0.00     0.029 A 
ATOM     39  N   UNL A   1      40.346  28.685  29.627  1.00  0.00    -0.354 N 
ATOM     40  C   UNL A   1      39.412  31.085  33.068  1.00  0.00     0.074 A 
ATOM     41  C   UNL A   1      38.245  31.911  32.831  1.00  0.00     0.031 C 
ATOM     42  C   UNL A   1      40.056  27.862  27.569  1.00  0.00     0.029 A 
ATOM     43  C   UNL A   1      40.943  27.834  28.729  1.00  0.00     0.049 A 
ATOM     44  H   UNL A   1      40.721  28.881  30.516  1.00  0.00     0.167 HD
ATOM     45  C   UNL A   1      40.129  31.078  34.217  1.00  0.00     0.037 A 
ATOM     46  C   UNL A   1      42.075  27.109  28.827  1.00  0.00     0.037 A 
ATOM     47  C   UNL A   1      41.295  30.263  34.450  1.00  0.00     0.049 A 
ATOM     48  C   UNL A   1      42.883  27.158  30.097  1.00  0.00     0.074 A 
ATOM     49  C   UNL A   1      42.048  30.148  35.606  1.00  0.00     0.029 A 
ATOM     50  N   UNL A   1      41.886  29.435  33.507  1.00  0.00    -0.354 N 
ATOM     51  N   UNL A   1      42.632  27.803  31.210  1.00  0.00    -0.248 NA
ATOM     52  C   UNL A   1      44.129  26.378  30.125  1.00  0.00     0.031 C 
ATOM     53  C   UNL A   1      43.128  29.300  35.346  1.00  0.00     0.029 A 
ATOM     54  C   UNL A   1      43.018  28.840  34.044  1.00  0.00     0.049 A 
ATOM     55  H   UNL A   1      41.553  29.292  32.592  1.00  0.00     0.167 HD
ATOM     56  C   UNL A   1      43.677  27.495  32.073  1.00  0.00     0.074 A 
ATOM     57  C   UNL A   1      44.552  26.586  31.364  1.00  0.00     0.031 C 
ATOM     58  C   UNL A   1      43.890  27.937  33.336  1.00  0.00     0.037 A 
BRANCH  45  59
ATOM     59  C   UNL A   1      39.664  31.960  35.341  1.00  0.00     0.064 A 
ATOM     60  C   UNL A   1      40.103  33.287  35.452  1.00  0.00     0.173 A 
ATOM     61  C   UNL A   1      38.702  31.509  36.259  1.00  0.00     0.173 A 
ATOM     62  F   UNL A   1      41.021  33.768  34.600  1.00  0.00    -0.203 F 
ATOM     63  C   UNL A   1      39.610  34.126  36.447  1.00  0.00     0.198 A 
ATOM     64  C   UNL A   1      38.189  32.360  37.235  1.00  0.00     0.198 A 
ATOM     65  F   UNL A   1      38.237  30.252  36.190  1.00  0.00    -0.203 F 
ATOM     66  F   UNL A   1      40.067  35.382  36.550  1.00  0.00    -0.200 F 
ATOM     67  C   UNL A   1      38.646  33.666  37.331  1.00  0.00     0.200 A 
ATOM     68  F   UNL A   1      37.243  31.919  38.076  1.00  0.00    -0.200 F 
ATOM     69  F   UNL A   1      38.157  34.480  38.276  1.00  0.00    -0.200 F 
ENDBRANCH  45  59
BRANCH  46  70
ATOM     70  C   UNL A   1      42.491  26.237  27.697  1.00  0.00     0.064 A 
ATOM     71  C   UNL A   1      41.923  24.967  27.525  1.00  0.00     0.173 A 
ATOM     72  C   UNL A   1      43.448  26.656  26.761  1.00  0.00     0.173 A 
ATOM     73  F   UNL A   1      41.021  24.513  28.407  1.00  0.00    -0.203 F 
ATOM     74  C   UNL A   1      42.304  24.145  26.467  1.00  0.00     0.198 A 
ATOM     75  C   UNL A   1      43.805  25.845  25.685  1.00  0.00     0.198 A 
ATOM     76  F   UNL A   1      44.020  27.863  26.879  1.00  0.00    -0.203 F 
ATOM     77  F   UNL A   1      41.774  22.920  26.348  1.00  0.00    -0.200 F 
ATOM     78  C   UNL A   1      43.238  24.588  25.543  1.00  0.00     0.200 A 
ATOM     79  F   UNL A   1      44.698  26.283  24.786  1.00  0.00    -0.200 F 
ATOM     80  F   UNL A   1      43.594  23.802  24.518  1.00  0.00    -0.200 F 
ENDBRANCH  46  70
BRANCH  58  81
ATOM     81  C   UNL A   1      45.122  27.459  34.052  1.00  0.00     0.064 A 
ATOM     82  C   UNL A   1      46.282  28.245  34.111  1.00  0.00     0.173 A 
ATOM     83  C   UNL A   1      45.112  26.251  34.768  1.00  0.00     0.173 A 
ATOM     84  F   UNL A   1      46.349  29.400  33.431  1.00  0.00    -0.203 F 
ATOM     85  C   UNL A   1      47.385  27.841  34.858  1.00  0.00     0.198 A 
ATOM     86  C   UNL A   1      46.205  25.865  35.539  1.00  0.00     0.198 A 
ATOM     87  F   UNL A   1      44.025  25.464  34.751  1.00  0.00    -0.203 F 
ATOM     88  F   UNL A   1      48.490  28.599  34.879  1.00  0.00    -0.200 F 
ATOM     89  C   UNL A   1      47.341  26.659  35.583  1.00  0.00     0.200 A 
ATOM     90  F   UNL A   1      46.154  24.731  36.252  1.00  0.00    -0.200 F 
ATOM     91  F   UNL A   1      48.394  26.286  36.323  1.00  0.00    -0.200 F 
ENDBRANCH  58  81
ENDBRANCH  32  33
ENDBRANCH  25  27
ENDBRANCH  24  25
ENDBRANCH  23  24
ENDBRANCH  22  23
ENDBRANCH  21  22
ENDBRANCH   1  21
TORSDOF 18
ENDMDL
