MODEL 1
REMARK VINA RESULT:     -11.2      0.000      0.000
REMARK SMILES CS(=O)(=O)CC[C@@H](C(=O)OCCOCCOC(=O)c1ccc(-c2c3nc(c(-c4c(F)c(F)c(F)c(F)c4F)c4ccc([nH]4)c(-c4c(F)c(F)c(F)c(F)c4F)c4nc(c(-c5c(F)c(F)c(F)c(F)c5F)c5ccc2[nH]5)C=C4)C=C3)cc1)N1C(=O)c2ccccc2C1=O
REMARK SMILES IDX 12 1 11 2 10 3 8 4 9 5 7 6 6 7 5 8 2 9 1 10 3 11 4 12 82 13
REMARK SMILES IDX 83 14 91 15 84 16 85 17 90 18 92 19 86 20 89 21 87 22 88 23
REMARK SMILES IDX 13 24 14 25 15 26 16 27 17 28 18 29 19 30 20 31 81 32 21 33
REMARK SMILES IDX 80 34 22 35 23 36 24 37 74 38 25 39 79 40 73 41 75 42 26 43
REMARK SMILES IDX 78 44 72 45 71 46 27 48 59 49 39 50 58 51 40 52 43 53 57 54
REMARK SMILES IDX 76 55 41 56 42 57 56 59 77 60 44 61 28 62 29 63 37 64 30 65
REMARK SMILES IDX 31 66 35 67 38 68 32 69 33 70 36 71 34 72 60 73 61 74 69 75
REMARK SMILES IDX 62 76 63 77 67 78 70 79 64 80 65 81 68 82 66 83 45 84 46 85
REMARK SMILES IDX 54 86 47 87 48 88 52 89 55 90 49 91 50 92 53 93 51 94
REMARK H PARENT 75 47 43 58
REMARK Flexibility Score: inf
ROOT
ATOM      1  C   UNL A   1      34.754  29.908  27.290  1.00  0.00     0.202 C 
ENDROOT
BRANCH   1   2
ATOM      2  C   UNL A   1      33.769  29.075  26.463  1.00  0.00     0.261 C 
BRANCH   2   3
ATOM      3  O   UNL A   1      33.244  27.966  27.217  1.00  0.00    -0.462 OA
BRANCH   3   4
ATOM      4  C   UNL A   1      31.975  27.595  26.912  1.00  0.00     0.329 C 
ATOM      5  O   UNL A   1      31.026  27.772  27.668  1.00  0.00    -0.250 OA
BRANCH   4   6
ATOM      6  C   UNL A   1      31.861  26.918  25.524  1.00  0.00     0.205 C 
BRANCH   6   7
ATOM      7  C   UNL A   1      30.465  26.830  24.854  1.00  0.00     0.054 C 
BRANCH   7   8
ATOM      8  C   UNL A   1      29.907  27.930  23.955  1.00  0.00     0.139 C 
BRANCH   8   9
ATOM      9  S   UNL A   1      30.707  28.213  22.403  1.00  0.00     0.147 S 
ATOM     10  C   UNL A   1      32.256  28.979  22.800  1.00  0.00     0.158 C 
ATOM     11  O   UNL A   1      29.915  29.210  21.707  1.00  0.00    -0.229 OA
ATOM     12  O   UNL A   1      30.981  26.926  21.798  1.00  0.00    -0.229 OA
ENDBRANCH   8   9
ENDBRANCH   7   8
ENDBRANCH   6   7
BRANCH   6  13
ATOM     13  N   UNL A   1      32.464  25.571  25.728  1.00  0.00    -0.260 N 
ATOM     14  C   UNL A   1      31.994  24.571  26.538  1.00  0.00     0.262 C 
ATOM     15  C   UNL A   1      33.724  25.256  25.264  1.00  0.00     0.262 C 
ATOM     16  O   UNL A   1      30.961  24.492  27.181  1.00  0.00    -0.269 OA
ATOM     17  C   UNL A   1      33.008  23.532  26.594  1.00  0.00     0.053 A 
ATOM     18  C   UNL A   1      34.091  23.969  25.861  1.00  0.00     0.053 A 
ATOM     19  O   UNL A   1      34.434  25.892  24.513  1.00  0.00    -0.269 OA
ATOM     20  C   UNL A   1      33.002  22.329  27.275  1.00  0.00     0.015 A 
ATOM     21  C   UNL A   1      35.263  23.240  25.814  1.00  0.00     0.015 A 
ATOM     22  C   UNL A   1      34.165  21.561  27.218  1.00  0.00     0.001 A 
ATOM     23  C   UNL A   1      35.292  22.020  26.506  1.00  0.00     0.001 A 
ENDBRANCH   6  13
ENDBRANCH   4   6
ENDBRANCH   3   4
ENDBRANCH   2   3
ENDBRANCH   1   2
BRANCH   1  24
ATOM     24  O   UNL A   1      34.224  31.009  28.024  1.00  0.00    -0.374 OA
BRANCH  24  25
ATOM     25  C   UNL A   1      33.030  31.616  27.533  1.00  0.00     0.202 C 
BRANCH  25  26
ATOM     26  C   UNL A   1      33.054  33.119  27.237  1.00  0.00     0.261 C 
BRANCH  26  27
ATOM     27  O   UNL A   1      32.289  33.875  28.193  1.00  0.00    -0.460 OA
BRANCH  27  28
ATOM     28  C   UNL A   1      32.953  34.930  28.723  1.00  0.00     0.338 C 
ATOM     29  O   UNL A   1      32.595  36.094  28.756  1.00  0.00    -0.246 OA
BRANCH  28  30
ATOM     30  C   UNL A   1      34.130  34.446  29.465  1.00  0.00     0.060 A 
ATOM     31  C   UNL A   1      35.390  34.681  28.900  1.00  0.00     0.016 A 
ATOM     32  C   UNL A   1      34.006  33.738  30.661  1.00  0.00     0.016 A 
ATOM     33  C   UNL A   1      36.534  34.184  29.516  1.00  0.00     0.010 A 
ATOM     34  C   UNL A   1      35.155  33.230  31.273  1.00  0.00     0.010 A 
ATOM     35  C   UNL A   1      36.422  33.432  30.693  1.00  0.00    -0.014 A 
BRANCH  35  36
ATOM     36  C   UNL A   1      37.623  32.795  31.282  1.00  0.00     0.031 A 
ATOM     37  C   UNL A   1      38.262  31.631  30.579  1.00  0.00     0.074 A 
ATOM     38  C   UNL A   1      38.128  33.254  32.441  1.00  0.00     0.049 A 
ATOM     39  N   UNL A   1      39.251  30.870  30.970  1.00  0.00    -0.248 NA
ATOM     40  C   UNL A   1      37.713  31.275  29.261  1.00  0.00     0.031 C 
ATOM     41  C   UNL A   1      37.611  34.398  33.191  1.00  0.00     0.029 A 
ATOM     42  N   UNL A   1      39.176  32.799  33.202  1.00  0.00    -0.354 N 
ATOM     43  C   UNL A   1      39.430  29.935  29.959  1.00  0.00     0.074 A 
ATOM     44  C   UNL A   1      38.443  30.215  28.940  1.00  0.00     0.031 C 
ATOM     45  C   UNL A   1      38.323  34.538  34.320  1.00  0.00     0.029 A 
ATOM     46  C   UNL A   1      39.315  33.467  34.394  1.00  0.00     0.049 A 
ATOM     47  H   UNL A   1      39.769  32.065  32.921  1.00  0.00     0.167 HD
ATOM     48  C   UNL A   1      40.339  28.934  29.896  1.00  0.00     0.037 A 
ATOM     49  C   UNL A   1      40.118  33.210  35.446  1.00  0.00     0.037 A 
ATOM     50  C   UNL A   1      41.327  28.672  30.911  1.00  0.00     0.049 A 
ATOM     51  C   UNL A   1      41.067  32.041  35.375  1.00  0.00     0.074 A 
ATOM     52  C   UNL A   1      42.329  27.719  30.910  1.00  0.00     0.029 A 
ATOM     53  N   UNL A   1      41.426  29.357  32.112  1.00  0.00    -0.354 N 
ATOM     54  N   UNL A   1      41.272  31.198  34.392  1.00  0.00    -0.248 NA
ATOM     55  C   UNL A   1      41.895  31.783  36.562  1.00  0.00     0.031 C 
ATOM     56  C   UNL A   1      42.987  27.776  32.142  1.00  0.00     0.029 A 
ATOM     57  C   UNL A   1      42.440  28.811  32.882  1.00  0.00     0.049 A 
ATOM     58  H   UNL A   1      40.860  30.117  32.380  1.00  0.00     0.167 HD
ATOM     59  C   UNL A   1      42.261  30.328  34.833  1.00  0.00     0.074 A 
ATOM     60  C   UNL A   1      42.637  30.763  36.161  1.00  0.00     0.031 C 
ATOM     61  C   UNL A   1      42.806  29.260  34.201  1.00  0.00     0.037 A 
BRANCH  48  62
ATOM     62  C   UNL A   1      40.304  28.013  28.711  1.00  0.00     0.064 A 
ATOM     63  C   UNL A   1      41.018  28.287  27.537  1.00  0.00     0.173 A 
ATOM     64  C   UNL A   1      39.626  26.787  28.797  1.00  0.00     0.173 A 
ATOM     65  F   UNL A   1      41.675  29.449  27.402  1.00  0.00    -0.203 F 
ATOM     66  C   UNL A   1      41.051  27.369  26.490  1.00  0.00     0.198 A 
ATOM     67  C   UNL A   1      39.684  25.859  27.761  1.00  0.00     0.198 A 
ATOM     68  F   UNL A   1      38.932  26.474  29.902  1.00  0.00    -0.203 F 
ATOM     69  F   UNL A   1      41.724  27.659  25.367  1.00  0.00    -0.200 F 
ATOM     70  C   UNL A   1      40.395  26.152  26.608  1.00  0.00     0.200 A 
ATOM     71  F   UNL A   1      39.064  24.678  27.885  1.00  0.00    -0.200 F 
ATOM     72  F   UNL A   1      40.452  25.259  25.610  1.00  0.00    -0.200 F 
ENDBRANCH  48  62
BRANCH  49  73
ATOM     73  C   UNL A   1      40.023  34.032  36.684  1.00  0.00     0.064 A 
ATOM     74  C   UNL A   1      39.152  33.681  37.725  1.00  0.00     0.173 A 
ATOM     75  C   UNL A   1      40.760  35.218  36.826  1.00  0.00     0.173 A 
ATOM     76  F   UNL A   1      38.407  32.570  37.629  1.00  0.00    -0.203 F 
ATOM     77  C   UNL A   1      38.993  34.503  38.839  1.00  0.00     0.198 A 
ATOM     78  C   UNL A   1      40.631  36.018  37.959  1.00  0.00     0.198 A 
ATOM     79  F   UNL A   1      41.607  35.604  35.861  1.00  0.00    -0.203 F 
ATOM     80  F   UNL A   1      38.100  34.180  39.784  1.00  0.00    -0.200 F 
ATOM     81  C   UNL A   1      39.736  35.668  38.958  1.00  0.00     0.200 A 
ATOM     82  F   UNL A   1      41.362  37.134  38.077  1.00  0.00    -0.200 F 
ATOM     83  F   UNL A   1      39.578  36.460  40.027  1.00  0.00    -0.200 F 
ENDBRANCH  49  73
BRANCH  61  84
ATOM     84  C   UNL A   1      43.880  28.500  34.925  1.00  0.00     0.064 A 
ATOM     85  C   UNL A   1      45.231  28.865  34.829  1.00  0.00     0.173 A 
ATOM     86  C   UNL A   1      43.548  27.426  35.766  1.00  0.00     0.173 A 
ATOM     87  F   UNL A   1      45.602  29.875  34.027  1.00  0.00    -0.203 F 
ATOM     88  C   UNL A   1      46.212  28.168  35.530  1.00  0.00     0.198 A 
ATOM     89  C   UNL A   1      44.527  26.755  36.492  1.00  0.00     0.198 A 
ATOM     90  F   UNL A   1      42.271  27.041  35.900  1.00  0.00    -0.203 F 
ATOM     91  F   UNL A   1      47.501  28.504  35.384  1.00  0.00    -0.200 F 
ATOM     92  C   UNL A   1      45.859  27.121  36.367  1.00  0.00     0.200 A 
ATOM     93  F   UNL A   1      44.182  25.755  37.315  1.00  0.00    -0.200 F 
ATOM     94  F   UNL A   1      46.804  26.462  37.052  1.00  0.00    -0.200 F 
ENDBRANCH  61  84
ENDBRANCH  35  36
ENDBRANCH  28  30
ENDBRANCH  27  28
ENDBRANCH  26  27
ENDBRANCH  25  26
ENDBRANCH  24  25
ENDBRANCH   1  24
TORSDOF 18
ENDMDL
MODEL 2
REMARK VINA RESULT:     -11.1      0.525      1.667
REMARK SMILES CS(=O)(=O)CC[C@@H](C(=O)OCCOCCOC(=O)c1ccc(-c2c3nc(c(-c4c(F)c(F)c(F)c(F)c4F)c4ccc([nH]4)c(-c4c(F)c(F)c(F)c(F)c4F)c4nc(c(-c5c(F)c(F)c(F)c(F)c5F)c5ccc2[nH]5)C=C4)C=C3)cc1)N1C(=O)c2ccccc2C1=O
REMARK SMILES IDX 12 1 11 2 10 3 8 4 9 5 7 6 6 7 5 8 2 9 1 10 3 11 4 12 82 13
REMARK SMILES IDX 83 14 91 15 84 16 85 17 90 18 92 19 86 20 89 21 87 22 88 23
REMARK SMILES IDX 13 24 14 25 15 26 16 27 17 28 18 29 19 30 20 31 81 32 21 33
REMARK SMILES IDX 80 34 22 35 23 36 24 37 74 38 25 39 79 40 73 41 75 42 26 43
REMARK SMILES IDX 78 44 72 45 71 46 27 48 59 49 39 50 58 51 40 52 43 53 57 54
REMARK SMILES IDX 76 55 41 56 42 57 56 59 77 60 44 61 28 62 29 63 37 64 30 65
REMARK SMILES IDX 31 66 35 67 38 68 32 69 33 70 36 71 34 72 60 73 61 74 69 75
REMARK SMILES IDX 62 76 63 77 67 78 70 79 64 80 65 81 68 82 66 83 45 84 46 85
REMARK SMILES IDX 54 86 47 87 48 88 52 89 55 90 49 91 50 92 53 93 51 94
REMARK H PARENT 75 47 43 58
REMARK Flexibility Score: inf
ROOT
ATOM      1  C   UNL A   1      34.894  29.905  27.373  1.00  0.00     0.202 C 
ENDROOT
BRANCH   1   2
ATOM      2  C   UNL A   1      34.024  29.038  26.458  1.00  0.00     0.261 C 
BRANCH   2   3
ATOM      3  O   UNL A   1      33.499  27.890  27.151  1.00  0.00    -0.462 OA
BRANCH   3   4
ATOM      4  C   UNL A   1      32.193  27.605  26.913  1.00  0.00     0.329 C 
ATOM      5  O   UNL A   1      31.297  27.861  27.709  1.00  0.00    -0.250 OA
BRANCH   4   6
ATOM      6  C   UNL A   1      31.966  26.914  25.546  1.00  0.00     0.205 C 
BRANCH   6   7
ATOM      7  C   UNL A   1      30.524  26.852  24.978  1.00  0.00     0.054 C 
BRANCH   7   8
ATOM      8  C   UNL A   1      29.946  27.932  24.067  1.00  0.00     0.139 C 
BRANCH   8   9
ATOM      9  S   UNL A   1      30.834  28.329  22.589  1.00  0.00     0.147 S 
ATOM     10  C   UNL A   1      31.391  26.777  21.939  1.00  0.00     0.158 C 
ATOM     11  O   UNL A   1      32.019  29.057  23.004  1.00  0.00    -0.229 OA
ATOM     12  O   UNL A   1      29.899  28.905  21.645  1.00  0.00    -0.229 OA
ENDBRANCH   8   9
ENDBRANCH   7   8
ENDBRANCH   6   7
BRANCH   6  13
ATOM     13  N   UNL A   1      32.550  25.556  25.725  1.00  0.00    -0.260 N 
ATOM     14  C   UNL A   1      32.095  24.565  26.554  1.00  0.00     0.262 C 
ATOM     15  C   UNL A   1      33.784  25.217  25.210  1.00  0.00     0.262 C 
ATOM     16  O   UNL A   1      31.088  24.506  27.239  1.00  0.00    -0.269 OA
ATOM     17  C   UNL A   1      33.090  23.507  26.568  1.00  0.00     0.053 A 
ATOM     18  C   UNL A   1      34.150  23.922  25.791  1.00  0.00     0.053 A 
ATOM     19  O   UNL A   1      34.474  25.839  24.429  1.00  0.00    -0.269 OA
ATOM     20  C   UNL A   1      33.089  22.304  27.250  1.00  0.00     0.015 A 
ATOM     21  C   UNL A   1      35.304  23.171  25.696  1.00  0.00     0.015 A 
ATOM     22  C   UNL A   1      34.233  21.513  27.144  1.00  0.00     0.001 A 
ATOM     23  C   UNL A   1      35.338  21.951  26.387  1.00  0.00     0.001 A 
ENDBRANCH   6  13
ENDBRANCH   4   6
ENDBRANCH   3   4
ENDBRANCH   2   3
ENDBRANCH   1   2
BRANCH   1  24
ATOM     24  O   UNL A   1      34.239  30.922  28.127  1.00  0.00    -0.374 OA
BRANCH  24  25
ATOM     25  C   UNL A   1      33.101  31.550  27.539  1.00  0.00     0.202 C 
BRANCH  25  26
ATOM     26  C   UNL A   1      33.173  33.055  27.258  1.00  0.00     0.261 C 
BRANCH  26  27
ATOM     27  O   UNL A   1      32.367  33.819  28.171  1.00  0.00    -0.460 OA
BRANCH  27  28
ATOM     28  C   UNL A   1      33.001  34.891  28.706  1.00  0.00     0.338 C 
ATOM     29  O   UNL A   1      32.630  36.051  28.705  1.00  0.00    -0.246 OA
BRANCH  28  30
ATOM     30  C   UNL A   1      34.155  34.432  29.499  1.00  0.00     0.060 A 
ATOM     31  C   UNL A   1      35.429  34.613  28.946  1.00  0.00     0.016 A 
ATOM     32  C   UNL A   1      33.995  33.798  30.731  1.00  0.00     0.016 A 
ATOM     33  C   UNL A   1      36.553  34.135  29.613  1.00  0.00     0.010 A 
ATOM     34  C   UNL A   1      35.124  33.308  31.395  1.00  0.00     0.010 A 
ATOM     35  C   UNL A   1      36.405  33.456  30.830  1.00  0.00    -0.014 A 
BRANCH  35  36
ATOM     36  C   UNL A   1      37.583  32.835  31.479  1.00  0.00     0.031 A 
ATOM     37  C   UNL A   1      38.245  31.651  30.833  1.00  0.00     0.074 A 
ATOM     38  C   UNL A   1      38.047  33.327  32.642  1.00  0.00     0.049 A 
ATOM     39  N   UNL A   1      39.219  30.901  31.280  1.00  0.00    -0.248 NA
ATOM     40  C   UNL A   1      37.743  31.258  29.507  1.00  0.00     0.031 C 
ATOM     41  C   UNL A   1      37.505  34.492  33.340  1.00  0.00     0.029 A 
ATOM     42  N   UNL A   1      39.066  32.893  33.453  1.00  0.00    -0.354 N 
ATOM     43  C   UNL A   1      39.432  29.937  30.304  1.00  0.00     0.074 A 
ATOM     44  C   UNL A   1      38.482  30.189  29.243  1.00  0.00     0.031 C 
ATOM     45  C   UNL A   1      38.177  34.664  34.490  1.00  0.00     0.029 A 
ATOM     46  C   UNL A   1      39.164  33.595  34.630  1.00  0.00     0.049 A 
ATOM     47  H   UNL A   1      39.669  32.151  33.214  1.00  0.00     0.167 HD
ATOM     48  C   UNL A   1      40.341  28.934  30.302  1.00  0.00     0.037 A 
ATOM     49  C   UNL A   1      39.928  33.368  35.717  1.00  0.00     0.037 A 
ATOM     50  C   UNL A   1      41.292  28.701  31.358  1.00  0.00     0.049 A 
ATOM     51  C   UNL A   1      40.877  32.196  35.713  1.00  0.00     0.074 A 
ATOM     52  C   UNL A   1      42.292  27.748  31.420  1.00  0.00     0.029 A 
ATOM     53  N   UNL A   1      41.348  29.420  32.542  1.00  0.00    -0.354 N 
ATOM     54  N   UNL A   1      41.116  31.325  34.762  1.00  0.00    -0.248 NA
ATOM     55  C   UNL A   1      41.662  31.972  36.935  1.00  0.00     0.031 C 
ATOM     56  C   UNL A   1      42.906  27.840  32.673  1.00  0.00     0.029 A 
ATOM     57  C   UNL A   1      42.334  28.896  33.363  1.00  0.00     0.049 A 
ATOM     58  H   UNL A   1      40.775  30.187  32.768  1.00  0.00     0.167 HD
ATOM     59  C   UNL A   1      42.088  30.468  35.263  1.00  0.00     0.074 A 
ATOM     60  C   UNL A   1      42.417  30.940  36.590  1.00  0.00     0.031 C 
ATOM     61  C   UNL A   1      42.653  29.382  34.681  1.00  0.00     0.037 A 
BRANCH  48  62
ATOM     62  C   UNL A   1      40.347  27.980  29.143  1.00  0.00     0.064 A 
ATOM     63  C   UNL A   1      39.566  26.816  29.137  1.00  0.00     0.173 A 
ATOM     64  C   UNL A   1      41.068  28.294  27.981  1.00  0.00     0.173 A 
ATOM     65  F   UNL A   1      38.866  26.466  30.227  1.00  0.00    -0.203 F 
ATOM     66  C   UNL A   1      39.511  25.999  28.010  1.00  0.00     0.198 A 
ATOM     67  C   UNL A   1      40.988  27.491  26.847  1.00  0.00     0.198 A 
ATOM     68  F   UNL A   1      41.825  29.400  27.934  1.00  0.00    -0.203 F 
ATOM     69  F   UNL A   1      38.774  24.879  28.032  1.00  0.00    -0.200 F 
ATOM     70  C   UNL A   1      40.211  26.344  26.863  1.00  0.00     0.200 A 
ATOM     71  F   UNL A   1      41.651  27.836  25.735  1.00  0.00    -0.200 F 
ATOM     72  F   UNL A   1      40.134  25.570  25.771  1.00  0.00    -0.200 F 
ENDBRANCH  48  62
BRANCH  49  73
ATOM     73  C   UNL A   1      39.791  34.224  36.926  1.00  0.00     0.064 A 
ATOM     74  C   UNL A   1      40.541  35.399  37.074  1.00  0.00     0.173 A 
ATOM     75  C   UNL A   1      38.949  33.853  37.986  1.00  0.00     0.173 A 
ATOM     76  F   UNL A   1      41.380  35.785  36.101  1.00  0.00    -0.203 F 
ATOM     77  C   UNL A   1      40.485  36.147  38.249  1.00  0.00     0.198 A 
ATOM     78  C   UNL A   1      38.862  34.624  39.143  1.00  0.00     0.198 A 
ATOM     79  F   UNL A   1      38.209  32.738  37.900  1.00  0.00    -0.203 F 
ATOM     80  F   UNL A   1      41.267  37.225  38.392  1.00  0.00    -0.200 F 
ATOM     81  C   UNL A   1      39.641  35.762  39.281  1.00  0.00     0.200 A 
ATOM     82  F   UNL A   1      38.034  34.257  40.130  1.00  0.00    -0.200 F 
ATOM     83  F   UNL A   1      39.591  36.479  40.411  1.00  0.00    -0.200 F 
ENDBRANCH  49  73
BRANCH  61  84
ATOM     84  C   UNL A   1      43.700  28.642  35.464  1.00  0.00     0.064 A 
ATOM     85  C   UNL A   1      45.064  28.934  35.326  1.00  0.00     0.173 A 
ATOM     86  C   UNL A   1      43.329  27.666  36.402  1.00  0.00     0.173 A 
ATOM     87  F   UNL A   1      45.472  29.849  34.433  1.00  0.00    -0.203 F 
ATOM     88  C   UNL A   1      46.021  28.260  36.081  1.00  0.00     0.198 A 
ATOM     89  C   UNL A   1      44.285  27.020  37.180  1.00  0.00     0.198 A 
ATOM     90  F   UNL A   1      42.037  27.354  36.580  1.00  0.00    -0.203 F 
ATOM     91  F   UNL A   1      47.322  28.521  35.896  1.00  0.00    -0.200 F 
ATOM     92  C   UNL A   1      45.631  27.311  37.013  1.00  0.00     0.200 A 
ATOM     93  F   UNL A   1      43.904  26.116  38.094  1.00  0.00    -0.200 F 
ATOM     94  F   UNL A   1      46.551  26.674  37.749  1.00  0.00    -0.200 F 
ENDBRANCH  61  84
ENDBRANCH  35  36
ENDBRANCH  28  30
ENDBRANCH  27  28
ENDBRANCH  26  27
ENDBRANCH  25  26
ENDBRANCH  24  25
ENDBRANCH   1  24
TORSDOF 18
ENDMDL
MODEL 3
REMARK VINA RESULT:     -11.0      2.093      3.343
REMARK SMILES CS(=O)(=O)CC[C@@H](C(=O)OCCOCCOC(=O)c1ccc(-c2c3nc(c(-c4c(F)c(F)c(F)c(F)c4F)c4ccc([nH]4)c(-c4c(F)c(F)c(F)c(F)c4F)c4nc(c(-c5c(F)c(F)c(F)c(F)c5F)c5ccc2[nH]5)C=C4)C=C3)cc1)N1C(=O)c2ccccc2C1=O
REMARK SMILES IDX 12 1 11 2 10 3 8 4 9 5 7 6 6 7 5 8 2 9 1 10 3 11 4 12 82 13
REMARK SMILES IDX 83 14 91 15 84 16 85 17 90 18 92 19 86 20 89 21 87 22 88 23
REMARK SMILES IDX 13 24 14 25 15 26 16 27 17 28 18 29 19 30 20 31 81 32 21 33
REMARK SMILES IDX 80 34 22 35 23 36 24 37 74 38 25 39 79 40 73 41 75 42 26 43
REMARK SMILES IDX 78 44 72 45 71 46 27 48 59 49 39 50 58 51 40 52 43 53 57 54
REMARK SMILES IDX 76 55 41 56 42 57 56 59 77 60 44 61 28 62 29 63 37 64 30 65
REMARK SMILES IDX 31 66 35 67 38 68 32 69 33 70 36 71 34 72 60 73 61 74 69 75
REMARK SMILES IDX 62 76 63 77 67 78 70 79 64 80 65 81 68 82 66 83 45 84 46 85
REMARK SMILES IDX 54 86 47 87 48 88 52 89 55 90 49 91 50 92 53 93 51 94
REMARK H PARENT 75 47 43 58
REMARK Flexibility Score: inf
ROOT
ATOM      1  C   UNL A   1      33.075  27.144  26.191  1.00  0.00     0.202 C 
ENDROOT
BRANCH   1   2
ATOM      2  C   UNL A   1      33.622  27.668  24.859  1.00  0.00     0.261 C 
BRANCH   2   3
ATOM      3  O   UNL A   1      32.586  28.262  24.054  1.00  0.00    -0.462 OA
BRANCH   3   4
ATOM      4  C   UNL A   1      32.684  28.047  22.718  1.00  0.00     0.329 C 
ATOM      5  O   UNL A   1      33.662  28.375  22.057  1.00  0.00    -0.250 OA
BRANCH   4   6
ATOM      6  C   UNL A   1      31.429  27.360  22.124  1.00  0.00     0.205 C 
BRANCH   6   7
ATOM      7  C   UNL A   1      30.040  27.996  22.393  1.00  0.00     0.054 C 
BRANCH   7   8
ATOM      8  C   UNL A   1      29.861  29.460  22.786  1.00  0.00     0.139 C 
BRANCH   8   9
ATOM      9  S   UNL A   1      28.353  30.262  22.321  1.00  0.00     0.147 S 
ATOM     10  C   UNL A   1      28.592  31.978  22.699  1.00  0.00     0.158 C 
ATOM     11  O   UNL A   1      27.330  29.773  23.227  1.00  0.00    -0.229 OA
ATOM     12  O   UNL A   1      28.201  30.133  20.887  1.00  0.00    -0.229 OA
ENDBRANCH   8   9
ENDBRANCH   7   8
ENDBRANCH   6   7
BRANCH   6  13
ATOM     13  N   UNL A   1      31.505  25.962  22.632  1.00  0.00    -0.260 N 
ATOM     14  C   UNL A   1      30.896  25.456  23.749  1.00  0.00     0.262 C 
ATOM     15  C   UNL A   1      32.406  25.049  22.126  1.00  0.00     0.262 C 
ATOM     16  O   UNL A   1      30.091  25.964  24.511  1.00  0.00    -0.269 OA
ATOM     17  C   UNL A   1      31.423  24.122  23.976  1.00  0.00     0.053 A 
ATOM     18  C   UNL A   1      32.387  23.887  23.019  1.00  0.00     0.053 A 
ATOM     19  O   UNL A   1      33.107  25.145  21.139  1.00  0.00    -0.269 OA
ATOM     20  C   UNL A   1      31.121  23.212  24.972  1.00  0.00     0.015 A 
ATOM     21  C   UNL A   1      33.149  22.736  23.039  1.00  0.00     0.015 A 
ATOM     22  C   UNL A   1      31.858  22.027  24.995  1.00  0.00     0.001 A 
ATOM     23  C   UNL A   1      32.875  21.799  24.045  1.00  0.00     0.001 A 
ENDBRANCH   6  13
ENDBRANCH   4   6
ENDBRANCH   3   4
ENDBRANCH   2   3
ENDBRANCH   1   2
BRANCH   1  24
ATOM     24  O   UNL A   1      32.922  28.086  27.251  1.00  0.00    -0.374 OA
BRANCH  24  25
ATOM     25  C   UNL A   1      31.723  28.858  27.280  1.00  0.00     0.202 C 
BRANCH  25  26
ATOM     26  C   UNL A   1      31.790  30.312  26.802  1.00  0.00     0.261 C 
BRANCH  26  27
ATOM     27  O   UNL A   1      33.133  30.725  26.499  1.00  0.00    -0.460 OA
BRANCH  27  28
ATOM     28  C   UNL A   1      33.581  31.757  27.255  1.00  0.00     0.338 C 
ATOM     29  O   UNL A   1      32.980  32.772  27.560  1.00  0.00    -0.246 OA
BRANCH  28  30
ATOM     30  C   UNL A   1      34.876  31.396  27.857  1.00  0.00     0.060 A 
ATOM     31  C   UNL A   1      35.031  30.082  28.316  1.00  0.00     0.016 A 
ATOM     32  C   UNL A   1      35.900  32.332  28.013  1.00  0.00     0.016 A 
ATOM     33  C   UNL A   1      36.205  29.702  28.959  1.00  0.00     0.010 A 
ATOM     34  C   UNL A   1      37.074  31.951  28.670  1.00  0.00     0.010 A 
ATOM     35  C   UNL A   1      37.224  30.641  29.164  1.00  0.00    -0.014 A 
BRANCH  35  36
ATOM     36  C   UNL A   1      38.419  30.276  29.959  1.00  0.00     0.031 A 
ATOM     37  C   UNL A   1      39.421  29.314  29.387  1.00  0.00     0.074 A 
ATOM     38  C   UNL A   1      38.597  30.798  31.186  1.00  0.00     0.049 A 
ATOM     39  N   UNL A   1      40.478  28.786  29.951  1.00  0.00    -0.248 NA
ATOM     40  C   UNL A   1      39.206  28.888  27.995  1.00  0.00     0.031 C 
ATOM     41  C   UNL A   1      37.707  31.766  31.826  1.00  0.00     0.029 A 
ATOM     42  N   UNL A   1      39.574  30.569  32.123  1.00  0.00    -0.354 N 
ATOM     43  C   UNL A   1      41.039  27.952  28.993  1.00  0.00     0.074 A 
ATOM     44  C   UNL A   1      40.205  28.035  27.815  1.00  0.00     0.031 C 
ATOM     45  C   UNL A   1      38.162  32.027  33.062  1.00  0.00     0.029 A 
ATOM     46  C   UNL A   1      39.346  31.209  33.316  1.00  0.00     0.049 A 
ATOM     47  H   UNL A   1      40.360  30.000  31.955  1.00  0.00     0.167 HD
ATOM     48  C   UNL A   1      42.152  27.188  29.097  1.00  0.00     0.037 A 
ATOM     49  C   UNL A   1      39.993  31.107  34.495  1.00  0.00     0.037 A 
ATOM     50  C   UNL A   1      42.984  27.125  30.272  1.00  0.00     0.049 A 
ATOM     51  C   UNL A   1      41.184  30.189  34.599  1.00  0.00     0.074 A 
ATOM     52  C   UNL A   1      44.164  26.427  30.454  1.00  0.00     0.029 A 
ATOM     53  N   UNL A   1      42.712  27.772  31.467  1.00  0.00    -0.354 N 
ATOM     54  N   UNL A   1      41.746  29.449  33.673  1.00  0.00    -0.248 NA
ATOM     55  C   UNL A   1      41.832  30.087  35.915  1.00  0.00     0.031 C 
ATOM     56  C   UNL A   1      44.568  26.591  31.781  1.00  0.00     0.029 A 
ATOM     57  C   UNL A   1      43.677  27.447  32.407  1.00  0.00     0.049 A 
ATOM     58  H   UNL A   1      41.948  28.373  31.626  1.00  0.00     0.167 HD
ATOM     59  C   UNL A   1      42.818  28.814  34.287  1.00  0.00     0.074 A 
ATOM     60  C   UNL A   1      42.848  29.278  35.657  1.00  0.00     0.031 C 
ATOM     61  C   UNL A   1      43.696  27.922  33.767  1.00  0.00     0.037 A 
BRANCH  48  62
ATOM     62  C   UNL A   1      42.536  26.325  27.931  1.00  0.00     0.064 A 
ATOM     63  C   UNL A   1      43.456  26.751  26.964  1.00  0.00     0.173 A 
ATOM     64  C   UNL A   1      42.049  25.012  27.842  1.00  0.00     0.173 A 
ATOM     65  F   UNL A   1      43.944  28.000  27.000  1.00  0.00    -0.203 F 
ATOM     66  C   UNL A   1      43.873  25.895  25.948  1.00  0.00     0.198 A 
ATOM     67  C   UNL A   1      42.488  24.149  26.841  1.00  0.00     0.198 A 
ATOM     68  F   UNL A   1      41.170  24.554  28.746  1.00  0.00    -0.203 F 
ATOM     69  F   UNL A   1      44.739  26.329  25.021  1.00  0.00    -0.200 F 
ATOM     70  C   UNL A   1      43.399  24.592  25.895  1.00  0.00     0.200 A 
ATOM     71  F   UNL A   1      42.042  22.886  26.803  1.00  0.00    -0.200 F 
ATOM     72  F   UNL A   1      43.822  23.761  24.932  1.00  0.00    -0.200 F 
ENDBRANCH  48  62
BRANCH  49  73
ATOM     73  C   UNL A   1      39.499  31.842  35.691  1.00  0.00     0.064 A 
ATOM     74  C   UNL A   1      40.054  33.072  36.069  1.00  0.00     0.173 A 
ATOM     75  C   UNL A   1      38.501  31.299  36.515  1.00  0.00     0.173 A 
ATOM     76  F   UNL A   1      41.028  33.624  35.329  1.00  0.00    -0.203 F 
ATOM     77  C   UNL A   1      39.659  33.711  37.243  1.00  0.00     0.198 A 
ATOM     78  C   UNL A   1      38.078  31.958  37.667  1.00  0.00     0.198 A 
ATOM     79  F   UNL A   1      37.937  30.123  36.204  1.00  0.00    -0.203 F 
ATOM     80  F   UNL A   1      40.257  34.850  37.617  1.00  0.00    -0.200 F 
ATOM     81  C   UNL A   1      38.667  33.156  38.039  1.00  0.00     0.200 A 
ATOM     82  F   UNL A   1      37.108  31.426  38.424  1.00  0.00    -0.200 F 
ATOM     83  F   UNL A   1      38.292  33.769  39.169  1.00  0.00    -0.200 F 
ENDBRANCH  49  73
BRANCH  61  84
ATOM     84  C   UNL A   1      44.775  27.403  34.673  1.00  0.00     0.064 A 
ATOM     85  C   UNL A   1      44.612  26.219  35.407  1.00  0.00     0.173 A 
ATOM     86  C   UNL A   1      46.007  28.069  34.767  1.00  0.00     0.173 A 
ATOM     87  F   UNL A   1      43.448  25.552  35.363  1.00  0.00    -0.203 F 
ATOM     88  C   UNL A   1      45.633  25.734  36.221  1.00  0.00     0.198 A 
ATOM     89  C   UNL A   1      47.037  27.563  35.553  1.00  0.00     0.198 A 
ATOM     90  F   UNL A   1      46.219  29.201  34.080  1.00  0.00    -0.203 F 
ATOM     91  F   UNL A   1      45.436  24.628  36.950  1.00  0.00    -0.200 F 
ATOM     92  C   UNL A   1      46.847  26.401  36.286  1.00  0.00     0.200 A 
ATOM     93  F   UNL A   1      48.217  28.198  35.600  1.00  0.00    -0.200 F 
ATOM     94  F   UNL A   1      47.833  25.925  37.058  1.00  0.00    -0.200 F 
ENDBRANCH  61  84
ENDBRANCH  35  36
ENDBRANCH  28  30
ENDBRANCH  27  28
ENDBRANCH  26  27
ENDBRANCH  25  26
ENDBRANCH  24  25
ENDBRANCH   1  24
TORSDOF 18
ENDMDL
