MODEL 1
REMARK VINA RESULT:     -11.0      0.000      0.000
REMARK SMILES Cc1ccccc1OCC(=O)NCCC(=O)OCCOCCOC(=O)c1ccc(-c2c3nc(c(-c4c(F)c(F)c(F)c(F)c4F)c4ccc([nH]4)c(-c4c(F)c(F)c(F)c(F)c4F)c4nc(c(-c5c(F)c(F)c(F)c(F)c5F)c5ccc2[nH]5)C=C4)C=C3)cc1
REMARK SMILES IDX 18 1 17 2 15 3 16 4 14 5 13 6 12 7 10 8 11 9 9 11 8 12 7 13
REMARK SMILES IDX 1 14 2 15 3 16 4 17 6 18 5 19 19 20 20 21 21 22 22 23 23 24
REMARK SMILES IDX 24 25 25 26 26 27 27 28 88 29 28 30 87 31 29 32 30 33 31 34
REMARK SMILES IDX 81 35 32 36 86 37 80 38 82 39 33 40 85 41 79 42 78 43 34 45
REMARK SMILES IDX 66 46 46 47 65 48 47 49 50 50 64 51 83 52 48 53 49 54 63 56
REMARK SMILES IDX 84 57 51 58 35 59 36 60 44 61 37 62 38 63 42 64 45 65 39 66
REMARK SMILES IDX 40 67 43 68 41 69 67 70 68 71 76 72 69 73 70 74 74 75 77 76
REMARK SMILES IDX 71 77 72 78 75 79 73 80 52 81 53 82 61 83 54 84 55 85 59 86
REMARK SMILES IDX 62 87 56 88 57 89 60 90 58 91
REMARK H PARENT 12 10 82 44 50 55
REMARK Flexibility Score: inf
ROOT
ATOM      1  C   UNL A   1      34.567  33.291  28.034  1.00  0.00     0.261 C 
ENDROOT
BRANCH   1   2
ATOM      2  O   UNL A   1      34.256  31.948  28.426  1.00  0.00    -0.463 OA
BRANCH   2   3
ATOM      3  C   UNL A   1      33.822  31.076  27.471  1.00  0.00     0.307 C 
ATOM      4  O   UNL A   1      32.758  31.136  26.873  1.00  0.00    -0.252 OA
BRANCH   3   5
ATOM      5  C   UNL A   1      34.858  30.005  27.240  1.00  0.00     0.144 C 
BRANCH   5   6
ATOM      6  C   UNL A   1      34.250  28.618  27.019  1.00  0.00     0.127 C 
BRANCH   6   7
ATOM      7  N   UNL A   1      32.917  28.432  27.567  1.00  0.00    -0.353 N 
ATOM      8  C   UNL A   1      31.923  27.543  27.341  1.00  0.00     0.257 C 
ATOM      9  O   UNL A   1      30.842  27.737  27.902  1.00  0.00    -0.271 OA
ATOM     10  H   UNL A   1      32.686  29.101  28.251  1.00  0.00     0.163 HD
BRANCH   8  11
ATOM     11  C   UNL A   1      32.194  26.324  26.490  1.00  0.00     0.329 C 
BRANCH  11  12
ATOM     12  O   UNL A   1      32.163  26.520  25.098  1.00  0.00    -0.484 OA
BRANCH  12  13
ATOM     13  C   UNL A   1      31.111  27.068  24.428  1.00  0.00     0.122 A 
ATOM     14  C   UNL A   1      32.043  29.270  23.379  1.00  0.00     0.048 C 
ATOM     15  C   UNL A   1      30.982  28.252  23.687  1.00  0.00    -0.009 A 
ATOM     16  C   UNL A   1      29.721  28.538  23.105  1.00  0.00     0.007 A 
ATOM     17  C   UNL A   1      28.621  27.696  23.256  1.00  0.00     0.001 A 
ATOM     18  C   UNL A   1      29.983  26.233  24.570  1.00  0.00     0.047 A 
ATOM     19  C   UNL A   1      28.754  26.530  23.987  1.00  0.00     0.004 A 
ENDBRANCH  12  13
ENDBRANCH  11  12
ENDBRANCH   8  11
ENDBRANCH   6   7
ENDBRANCH   5   6
ENDBRANCH   3   5
ENDBRANCH   2   3
ENDBRANCH   1   2
BRANCH   1  20
ATOM     20  C   UNL A   1      33.411  34.248  28.192  1.00  0.00     0.202 C 
BRANCH  20  21
ATOM     21  O   UNL A   1      33.950  35.473  28.663  1.00  0.00    -0.374 OA
BRANCH  21  22
ATOM     22  C   UNL A   1      33.037  36.417  29.200  1.00  0.00     0.202 C 
BRANCH  22  23
ATOM     23  C   UNL A   1      33.306  36.846  30.652  1.00  0.00     0.261 C 
BRANCH  23  24
ATOM     24  O   UNL A   1      33.125  35.728  31.551  1.00  0.00    -0.460 OA
BRANCH  24  25
ATOM     25  C   UNL A   1      34.075  35.555  32.509  1.00  0.00     0.338 C 
ATOM     26  O   UNL A   1      34.461  36.424  33.283  1.00  0.00    -0.246 OA
BRANCH  25  27
ATOM     27  C   UNL A   1      34.786  34.260  32.283  1.00  0.00     0.060 A 
ATOM     28  C   UNL A   1      34.842  33.279  33.293  1.00  0.00     0.016 A 
ATOM     29  C   UNL A   1      35.682  34.205  31.223  1.00  0.00     0.016 A 
ATOM     30  C   UNL A   1      35.891  32.341  33.312  1.00  0.00     0.010 A 
ATOM     31  C   UNL A   1      36.793  33.404  31.348  1.00  0.00     0.010 A 
ATOM     32  C   UNL A   1      36.920  32.464  32.386  1.00  0.00    -0.014 A 
BRANCH  32  33
ATOM     33  C   UNL A   1      38.200  31.742  32.360  1.00  0.00     0.031 A 
ATOM     34  C   UNL A   1      38.259  30.530  31.492  1.00  0.00     0.074 A 
ATOM     35  C   UNL A   1      39.362  32.289  32.813  1.00  0.00     0.049 A 
ATOM     36  N   UNL A   1      39.279  29.753  31.409  1.00  0.00    -0.248 NA
ATOM     37  C   UNL A   1      37.159  30.074  30.643  1.00  0.00     0.031 C 
ATOM     38  C   UNL A   1      40.719  31.979  32.348  1.00  0.00     0.029 A 
ATOM     39  N   UNL A   1      39.608  33.256  33.811  1.00  0.00    -0.354 N 
ATOM     40  C   UNL A   1      39.124  28.942  30.308  1.00  0.00     0.074 A 
ATOM     41  C   UNL A   1      37.753  29.127  29.913  1.00  0.00     0.031 C 
ATOM     42  C   UNL A   1      41.618  32.437  33.233  1.00  0.00     0.029 A 
ATOM     43  C   UNL A   1      40.872  32.950  34.360  1.00  0.00     0.049 A 
ATOM     44  H   UNL A   1      39.016  33.998  34.071  1.00  0.00     0.167 HD
ATOM     45  C   UNL A   1      40.233  28.305  29.834  1.00  0.00     0.037 A 
ATOM     46  C   UNL A   1      41.029  32.629  35.672  1.00  0.00     0.037 A 
ATOM     47  C   UNL A   1      41.369  28.549  30.734  1.00  0.00     0.049 A 
ATOM     48  C   UNL A   1      41.618  31.257  35.791  1.00  0.00     0.074 A 
ATOM     49  C   UNL A   1      42.493  29.356  30.667  1.00  0.00     0.029 A 
ATOM     50  N   UNL A   1      41.260  28.146  32.064  1.00  0.00    -0.354 N 
ATOM     51  N   UNL A   1      41.526  30.378  34.830  1.00  0.00    -0.248 NA
ATOM     52  C   UNL A   1      42.420  30.780  36.909  1.00  0.00     0.031 C 
ATOM     53  C   UNL A   1      43.058  29.429  31.971  1.00  0.00     0.029 A 
ATOM     54  C   UNL A   1      42.289  28.655  32.827  1.00  0.00     0.049 A 
ATOM     55  H   UNL A   1      40.542  27.571  32.413  1.00  0.00     0.167 HD
ATOM     56  C   UNL A   1      42.290  29.290  35.125  1.00  0.00     0.074 A 
ATOM     57  C   UNL A   1      42.803  29.571  36.453  1.00  0.00     0.031 C 
ATOM     58  C   UNL A   1      42.437  28.272  34.227  1.00  0.00     0.037 A 
BRANCH  45  59
ATOM     59  C   UNL A   1      40.387  27.592  28.501  1.00  0.00     0.064 A 
ATOM     60  C   UNL A   1      39.848  26.295  28.323  1.00  0.00     0.173 A 
ATOM     61  C   UNL A   1      41.060  28.089  27.367  1.00  0.00     0.173 A 
ATOM     62  F   UNL A   1      39.136  25.692  29.283  1.00  0.00    -0.203 F 
ATOM     63  C   UNL A   1      40.013  25.556  27.146  1.00  0.00     0.198 A 
ATOM     64  C   UNL A   1      41.241  27.344  26.196  1.00  0.00     0.198 A 
ATOM     65  F   UNL A   1      41.544  29.329  27.310  1.00  0.00    -0.203 F 
ATOM     66  F   UNL A   1      39.480  24.329  27.052  1.00  0.00    -0.200 F 
ATOM     67  C   UNL A   1      40.720  26.075  26.085  1.00  0.00     0.200 A 
ATOM     68  F   UNL A   1      41.919  27.880  25.171  1.00  0.00    -0.200 F 
ATOM     69  F   UNL A   1      40.884  25.370  24.959  1.00  0.00    -0.200 F 
ENDBRANCH  45  59
BRANCH  46  70
ATOM     70  C   UNL A   1      40.038  33.337  36.530  1.00  0.00     0.064 A 
ATOM     71  C   UNL A   1      38.963  32.545  36.991  1.00  0.00     0.173 A 
ATOM     72  C   UNL A   1      40.430  34.419  37.333  1.00  0.00     0.173 A 
ATOM     73  F   UNL A   1      38.535  31.508  36.254  1.00  0.00    -0.203 F 
ATOM     74  C   UNL A   1      38.453  32.696  38.281  1.00  0.00     0.198 A 
ATOM     75  C   UNL A   1      39.898  34.577  38.619  1.00  0.00     0.198 A 
ATOM     76  F   UNL A   1      41.443  35.211  36.954  1.00  0.00    -0.203 F 
ATOM     77  F   UNL A   1      37.558  31.817  38.754  1.00  0.00    -0.200 F 
ATOM     78  C   UNL A   1      38.958  33.681  39.111  1.00  0.00     0.200 A 
ATOM     79  F   UNL A   1      40.378  35.531  39.429  1.00  0.00    -0.200 F 
ATOM     80  F   UNL A   1      38.588  33.730  40.398  1.00  0.00    -0.200 F 
ENDBRANCH  46  70
BRANCH  58  81
ATOM     81  C   UNL A   1      42.795  26.839  34.553  1.00  0.00     0.064 A 
ATOM     82  C   UNL A   1      42.032  26.008  35.388  1.00  0.00     0.173 A 
ATOM     83  C   UNL A   1      43.848  26.185  33.860  1.00  0.00     0.173 A 
ATOM     84  F   UNL A   1      40.936  26.448  36.017  1.00  0.00    -0.203 F 
ATOM     85  C   UNL A   1      42.328  24.654  35.560  1.00  0.00     0.198 A 
ATOM     86  C   UNL A   1      44.088  24.818  33.971  1.00  0.00     0.198 A 
ATOM     87  F   UNL A   1      44.662  26.833  33.017  1.00  0.00    -0.203 F 
ATOM     88  F   UNL A   1      41.593  23.922  36.407  1.00  0.00    -0.200 F 
ATOM     89  C   UNL A   1      43.341  24.055  34.838  1.00  0.00     0.200 A 
ATOM     90  F   UNL A   1      45.032  24.247  33.210  1.00  0.00    -0.200 F 
ATOM     91  F   UNL A   1      43.580  22.743  34.959  1.00  0.00    -0.200 F 
ENDBRANCH  58  81
ENDBRANCH  32  33
ENDBRANCH  25  27
ENDBRANCH  24  25
ENDBRANCH  23  24
ENDBRANCH  22  23
ENDBRANCH  21  22
ENDBRANCH  20  21
ENDBRANCH   1  20
TORSDOF 19
ENDMDL
MODEL 2
REMARK VINA RESULT:     -10.7      3.186      5.397
REMARK SMILES Cc1ccccc1OCC(=O)NCCC(=O)OCCOCCOC(=O)c1ccc(-c2c3nc(c(-c4c(F)c(F)c(F)c(F)c4F)c4ccc([nH]4)c(-c4c(F)c(F)c(F)c(F)c4F)c4nc(c(-c5c(F)c(F)c(F)c(F)c5F)c5ccc2[nH]5)C=C4)C=C3)cc1
REMARK SMILES IDX 18 1 17 2 15 3 16 4 14 5 13 6 12 7 10 8 11 9 9 11 8 12 7 13
REMARK SMILES IDX 1 14 2 15 3 16 4 17 6 18 5 19 19 20 20 21 21 22 22 23 23 24
REMARK SMILES IDX 24 25 25 26 26 27 27 28 88 29 28 30 87 31 29 32 30 33 31 34
REMARK SMILES IDX 81 35 32 36 86 37 80 38 82 39 33 40 85 41 79 42 78 43 34 45
REMARK SMILES IDX 66 46 46 47 65 48 47 49 50 50 64 51 83 52 48 53 49 54 63 56
REMARK SMILES IDX 84 57 51 58 35 59 36 60 44 61 37 62 38 63 42 64 45 65 39 66
REMARK SMILES IDX 40 67 43 68 41 69 67 70 68 71 76 72 69 73 70 74 74 75 77 76
REMARK SMILES IDX 71 77 72 78 75 79 73 80 52 81 53 82 61 83 54 84 55 85 59 86
REMARK SMILES IDX 62 87 56 88 57 89 60 90 58 91
REMARK H PARENT 12 10 82 44 50 55
REMARK Flexibility Score: inf
ROOT
ATOM      1  C   UNL A   1      32.554  29.089  23.764  1.00  0.00     0.261 C 
ENDROOT
BRANCH   1   2
ATOM      2  O   UNL A   1      31.130  28.927  23.801  1.00  0.00    -0.463 OA
BRANCH   2   3
ATOM      3  C   UNL A   1      30.509  28.376  22.719  1.00  0.00     0.307 C 
ATOM      4  O   UNL A   1      29.695  28.933  21.997  1.00  0.00    -0.252 OA
BRANCH   3   5
ATOM      5  C   UNL A   1      30.978  26.957  22.522  1.00  0.00     0.144 C 
BRANCH   5   6
ATOM      6  C   UNL A   1      30.290  25.961  23.460  1.00  0.00     0.127 C 
BRANCH   6   7
ATOM      7  N   UNL A   1      30.774  25.969  24.831  1.00  0.00    -0.353 N 
ATOM      8  C   UNL A   1      31.082  25.001  25.724  1.00  0.00     0.257 C 
ATOM      9  O   UNL A   1      31.357  25.350  26.874  1.00  0.00    -0.271 OA
ATOM     10  H   UNL A   1      30.903  26.877  25.187  1.00  0.00     0.163 HD
BRANCH   8  11
ATOM     11  C   UNL A   1      31.154  23.562  25.267  1.00  0.00     0.329 C 
BRANCH  11  12
ATOM     12  O   UNL A   1      32.235  23.230  24.431  1.00  0.00    -0.484 OA
BRANCH  12  13
ATOM     13  C   UNL A   1      32.989  22.104  24.568  1.00  0.00     0.122 A 
ATOM     14  C   UNL A   1      35.333  22.945  25.353  1.00  0.00     0.048 C 
ATOM     15  C   UNL A   1      34.327  21.908  24.939  1.00  0.00    -0.009 A 
ATOM     16  C   UNL A   1      34.817  20.578  24.984  1.00  0.00     0.007 A 
ATOM     17  C   UNL A   1      34.023  19.479  24.662  1.00  0.00     0.001 A 
ATOM     18  C   UNL A   1      32.206  20.977  24.243  1.00  0.00     0.047 A 
ATOM     19  C   UNL A   1      32.704  19.679  24.296  1.00  0.00     0.004 A 
ENDBRANCH  12  13
ENDBRANCH  11  12
ENDBRANCH   8  11
ENDBRANCH   6   7
ENDBRANCH   5   6
ENDBRANCH   3   5
ENDBRANCH   2   3
ENDBRANCH   1   2
BRANCH   1  20
ATOM     20  C   UNL A   1      33.256  28.521  24.974  1.00  0.00     0.202 C 
BRANCH  20  21
ATOM     21  O   UNL A   1      32.306  28.493  26.027  1.00  0.00    -0.374 OA
BRANCH  21  22
ATOM     22  C   UNL A   1      32.692  29.079  27.261  1.00  0.00     0.202 C 
BRANCH  22  23
ATOM     23  C   UNL A   1      32.932  30.596  27.226  1.00  0.00     0.261 C 
BRANCH  23  24
ATOM     24  O   UNL A   1      34.327  30.882  26.975  1.00  0.00    -0.460 OA
BRANCH  24  25
ATOM     25  C   UNL A   1      35.088  31.208  28.054  1.00  0.00     0.338 C 
ATOM     26  O   UNL A   1      35.173  32.329  28.543  1.00  0.00    -0.246 OA
BRANCH  25  27
ATOM     27  C   UNL A   1      36.026  30.087  28.364  1.00  0.00     0.060 A 
ATOM     28  C   UNL A   1      36.172  29.608  29.681  1.00  0.00     0.016 A 
ATOM     29  C   UNL A   1      36.997  29.792  27.415  1.00  0.00     0.016 A 
ATOM     30  C   UNL A   1      37.363  28.969  30.074  1.00  0.00     0.010 A 
ATOM     31  C   UNL A   1      38.217  29.329  27.851  1.00  0.00     0.010 A 
ATOM     32  C   UNL A   1      38.424  28.911  29.177  1.00  0.00    -0.014 A 
BRANCH  32  33
ATOM     33  C   UNL A   1      39.807  28.492  29.443  1.00  0.00     0.031 A 
ATOM     34  C   UNL A   1      40.193  27.136  28.957  1.00  0.00     0.074 A 
ATOM     35  C   UNL A   1      40.784  29.368  29.804  1.00  0.00     0.049 A 
ATOM     36  N   UNL A   1      41.339  26.595  29.165  1.00  0.00    -0.248 NA
ATOM     37  C   UNL A   1      39.308  26.254  28.196  1.00  0.00     0.031 C 
ATOM     38  C   UNL A   1      42.222  29.238  29.540  1.00  0.00     0.029 A 
ATOM     39  N   UNL A   1      40.725  30.592  30.505  1.00  0.00    -0.354 N 
ATOM     40  C   UNL A   1      41.472  25.511  28.328  1.00  0.00     0.074 A 
ATOM     41  C   UNL A   1      40.150  25.295  27.804  1.00  0.00     0.031 C 
ATOM     42  C   UNL A   1      42.906  30.089  30.320  1.00  0.00     0.029 A 
ATOM     43  C   UNL A   1      41.946  30.712  31.204  1.00  0.00     0.049 A 
ATOM     44  H   UNL A   1      39.980  31.235  30.505  1.00  0.00     0.167 HD
ATOM     45  C   UNL A   1      42.729  25.018  28.131  1.00  0.00     0.037 A 
ATOM     46  C   UNL A   1      41.996  30.785  32.560  1.00  0.00     0.037 A 
ATOM     47  C   UNL A   1      43.681  25.721  29.002  1.00  0.00     0.049 A 
ATOM     48  C   UNL A   1      42.805  29.646  33.100  1.00  0.00     0.074 A 
ATOM     49  C   UNL A   1      44.639  26.699  28.788  1.00  0.00     0.029 A 
ATOM     50  N   UNL A   1      43.484  25.665  30.380  1.00  0.00    -0.354 N 
ATOM     51  N   UNL A   1      42.994  28.547  32.420  1.00  0.00    -0.248 NA
ATOM     52  C   UNL A   1      43.536  29.656  34.359  1.00  0.00     0.031 C 
ATOM     53  C   UNL A   1      45.015  27.227  30.055  1.00  0.00     0.029 A 
ATOM     54  C   UNL A   1      44.300  26.560  31.039  1.00  0.00     0.049 A 
ATOM     55  H   UNL A   1      42.845  25.065  30.826  1.00  0.00     0.167 HD
ATOM     56  C   UNL A   1      43.901  27.759  33.061  1.00  0.00     0.074 A 
ATOM     57  C   UNL A   1      44.186  28.478  34.289  1.00  0.00     0.031 C 
ATOM     58  C   UNL A   1      44.341  26.595  32.497  1.00  0.00     0.037 A 
BRANCH  45  59
ATOM     59  C   UNL A   1      43.174  24.030  27.065  1.00  0.00     0.064 A 
ATOM     60  C   UNL A   1      42.760  22.679  27.132  1.00  0.00     0.173 A 
ATOM     61  C   UNL A   1      44.015  24.314  25.970  1.00  0.00     0.173 A 
ATOM     62  F   UNL A   1      41.919  22.247  28.082  1.00  0.00    -0.203 F 
ATOM     63  C   UNL A   1      43.188  21.703  26.224  1.00  0.00     0.198 A 
ATOM     64  C   UNL A   1      44.458  23.335  25.071  1.00  0.00     0.198 A 
ATOM     65  F   UNL A   1      44.423  25.549  25.683  1.00  0.00    -0.203 F 
ATOM     66  F   UNL A   1      42.759  20.440  26.355  1.00  0.00    -0.200 F 
ATOM     67  C   UNL A   1      44.047  22.029  25.199  1.00  0.00     0.200 A 
ATOM     68  F   UNL A   1      45.282  23.682  24.072  1.00  0.00    -0.200 F 
ATOM     69  F   UNL A   1      44.463  21.098  24.331  1.00  0.00    -0.200 F 
ENDBRANCH  45  59
BRANCH  46  70
ATOM     70  C   UNL A   1      40.794  31.468  33.115  1.00  0.00     0.064 A 
ATOM     71  C   UNL A   1      40.732  32.862  32.891  1.00  0.00     0.173 A 
ATOM     72  C   UNL A   1      39.575  30.783  33.240  1.00  0.00     0.173 A 
ATOM     73  F   UNL A   1      41.868  33.569  32.781  1.00  0.00    -0.203 F 
ATOM     74  C   UNL A   1      39.526  33.496  32.595  1.00  0.00     0.198 A 
ATOM     75  C   UNL A   1      38.366  31.432  32.962  1.00  0.00     0.198 A 
ATOM     76  F   UNL A   1      39.561  29.460  33.455  1.00  0.00    -0.203 F 
ATOM     77  F   UNL A   1      39.521  34.781  32.211  1.00  0.00    -0.200 F 
ATOM     78  C   UNL A   1      38.350  32.767  32.581  1.00  0.00     0.200 A 
ATOM     79  F   UNL A   1      37.220  30.735  32.951  1.00  0.00    -0.200 F 
ATOM     80  F   UNL A   1      37.215  33.331  32.144  1.00  0.00    -0.200 F 
ENDBRANCH  46  70
BRANCH  58  81
ATOM     81  C   UNL A   1      44.911  25.405  33.236  1.00  0.00     0.064 A 
ATOM     82  C   UNL A   1      46.273  25.065  33.249  1.00  0.00     0.173 A 
ATOM     83  C   UNL A   1      44.100  24.659  34.132  1.00  0.00     0.173 A 
ATOM     84  F   UNL A   1      47.182  25.753  32.548  1.00  0.00    -0.203 F 
ATOM     85  C   UNL A   1      46.774  24.034  34.046  1.00  0.00     0.198 A 
ATOM     86  C   UNL A   1      44.617  23.688  34.984  1.00  0.00     0.198 A 
ATOM     87  F   UNL A   1      42.782  24.866  34.247  1.00  0.00    -0.203 F 
ATOM     88  F   UNL A   1      48.075  23.724  33.981  1.00  0.00    -0.200 F 
ATOM     89  C   UNL A   1      45.952  23.360  34.927  1.00  0.00     0.200 A 
ATOM     90  F   UNL A   1      43.813  23.094  35.878  1.00  0.00    -0.200 F 
ATOM     91  F   UNL A   1      46.450  22.414  35.735  1.00  0.00    -0.200 F 
ENDBRANCH  58  81
ENDBRANCH  32  33
ENDBRANCH  25  27
ENDBRANCH  24  25
ENDBRANCH  23  24
ENDBRANCH  22  23
ENDBRANCH  21  22
ENDBRANCH  20  21
ENDBRANCH   1  20
TORSDOF 19
ENDMDL
MODEL 3
REMARK VINA RESULT:     -10.4      2.566      4.255
REMARK SMILES Cc1ccccc1OCC(=O)NCCC(=O)OCCOCCOC(=O)c1ccc(-c2c3nc(c(-c4c(F)c(F)c(F)c(F)c4F)c4ccc([nH]4)c(-c4c(F)c(F)c(F)c(F)c4F)c4nc(c(-c5c(F)c(F)c(F)c(F)c5F)c5ccc2[nH]5)C=C4)C=C3)cc1
REMARK SMILES IDX 18 1 17 2 15 3 16 4 14 5 13 6 12 7 10 8 11 9 9 11 8 12 7 13
REMARK SMILES IDX 1 14 2 15 3 16 4 17 6 18 5 19 19 20 20 21 21 22 22 23 23 24
REMARK SMILES IDX 24 25 25 26 26 27 27 28 88 29 28 30 87 31 29 32 30 33 31 34
REMARK SMILES IDX 81 35 32 36 86 37 80 38 82 39 33 40 85 41 79 42 78 43 34 45
REMARK SMILES IDX 66 46 46 47 65 48 47 49 50 50 64 51 83 52 48 53 49 54 63 56
REMARK SMILES IDX 84 57 51 58 35 59 36 60 44 61 37 62 38 63 42 64 45 65 39 66
REMARK SMILES IDX 40 67 43 68 41 69 67 70 68 71 76 72 69 73 70 74 74 75 77 76
REMARK SMILES IDX 71 77 72 78 75 79 73 80 52 81 53 82 61 83 54 84 55 85 59 86
REMARK SMILES IDX 62 87 56 88 57 89 60 90 58 91
REMARK H PARENT 12 10 82 44 50 55
REMARK Flexibility Score: inf
ROOT
ATOM      1  C   UNL A   1      31.560  27.534  26.526  1.00  0.00     0.261 C 
ENDROOT
BRANCH   1   2
ATOM      2  O   UNL A   1      31.488  26.191  27.020  1.00  0.00    -0.463 OA
BRANCH   2   3
ATOM      3  C   UNL A   1      32.197  25.221  26.372  1.00  0.00     0.307 C 
ATOM      4  O   UNL A   1      33.289  25.363  25.843  1.00  0.00    -0.252 OA
BRANCH   3   5
ATOM      5  C   UNL A   1      31.438  23.919  26.403  1.00  0.00     0.144 C 
BRANCH   5   6
ATOM      6  C   UNL A   1      31.549  23.127  25.098  1.00  0.00     0.127 C 
BRANCH   6   7
ATOM      7  N   UNL A   1      31.470  21.682  25.243  1.00  0.00    -0.353 N 
ATOM      8  C   UNL A   1      32.318  20.663  24.973  1.00  0.00     0.257 C 
ATOM      9  O   UNL A   1      31.891  19.514  25.103  1.00  0.00    -0.271 OA
ATOM     10  H   UNL A   1      30.612  21.381  25.617  1.00  0.00     0.163 HD
BRANCH   8  11
ATOM     11  C   UNL A   1      33.753  20.965  24.606  1.00  0.00     0.329 C 
BRANCH  11  12
ATOM     12  O   UNL A   1      34.679  20.953  25.664  1.00  0.00    -0.484 OA
BRANCH  12  13
ATOM     13  C   UNL A   1      35.853  21.643  25.659  1.00  0.00     0.122 A 
ATOM     14  C   UNL A   1      37.656  19.917  24.894  1.00  0.00     0.048 C 
ATOM     15  C   UNL A   1      37.168  21.259  25.360  1.00  0.00    -0.009 A 
ATOM     16  C   UNL A   1      38.186  22.242  25.456  1.00  0.00     0.007 A 
ATOM     17  C   UNL A   1      37.923  23.554  25.845  1.00  0.00     0.001 A 
ATOM     18  C   UNL A   1      35.611  22.976  26.054  1.00  0.00     0.047 A 
ATOM     19  C   UNL A   1      36.624  23.927  26.139  1.00  0.00     0.004 A 
ENDBRANCH  12  13
ENDBRANCH  11  12
ENDBRANCH   8  11
ENDBRANCH   6   7
ENDBRANCH   5   6
ENDBRANCH   3   5
ENDBRANCH   2   3
ENDBRANCH   1   2
BRANCH   1  20
ATOM     20  C   UNL A   1      32.446  28.434  27.353  1.00  0.00     0.202 C 
BRANCH  20  21
ATOM     21  O   UNL A   1      33.058  29.347  26.457  1.00  0.00    -0.374 OA
BRANCH  21  22
ATOM     22  C   UNL A   1      33.037  30.719  26.818  1.00  0.00     0.202 C 
BRANCH  22  23
ATOM     23  C   UNL A   1      34.062  31.140  27.883  1.00  0.00     0.261 C 
BRANCH  23  24
ATOM     24  O   UNL A   1      34.299  32.564  27.821  1.00  0.00    -0.460 OA
BRANCH  24  25
ATOM     25  C   UNL A   1      34.302  33.235  29.005  1.00  0.00     0.338 C 
ATOM     26  O   UNL A   1      33.384  33.933  29.421  1.00  0.00    -0.246 OA
BRANCH  25  27
ATOM     27  C   UNL A   1      35.683  33.246  29.573  1.00  0.00     0.060 A 
ATOM     28  C   UNL A   1      36.785  33.644  28.791  1.00  0.00     0.016 A 
ATOM     29  C   UNL A   1      35.896  32.518  30.737  1.00  0.00     0.016 A 
ATOM     30  C   UNL A   1      38.077  33.179  29.099  1.00  0.00     0.010 A 
ATOM     31  C   UNL A   1      37.126  31.930  30.925  1.00  0.00     0.010 A 
ATOM     32  C   UNL A   1      38.232  32.246  30.117  1.00  0.00    -0.014 A 
BRANCH  32  33
ATOM     33  C   UNL A   1      39.437  31.477  30.459  1.00  0.00     0.031 A 
ATOM     34  C   UNL A   1      39.581  30.145  29.803  1.00  0.00     0.074 A 
ATOM     35  C   UNL A   1      40.521  32.038  31.061  1.00  0.00     0.049 A 
ATOM     36  N   UNL A   1      40.539  29.323  30.043  1.00  0.00    -0.248 NA
ATOM     37  C   UNL A   1      38.642  29.609  28.818  1.00  0.00     0.031 C 
ATOM     38  C   UNL A   1      41.918  31.606  30.936  1.00  0.00     0.029 A 
ATOM     39  N   UNL A   1      40.633  33.136  31.942  1.00  0.00    -0.354 N 
ATOM     40  C   UNL A   1      40.549  28.361  29.060  1.00  0.00     0.074 A 
ATOM     41  C   UNL A   1      39.301  28.538  28.368  1.00  0.00     0.031 C 
ATOM     42  C   UNL A   1      42.654  32.157  31.914  1.00  0.00     0.029 A 
ATOM     43  C   UNL A   1      41.737  32.866  32.778  1.00  0.00     0.049 A 
ATOM     44  H   UNL A   1      40.055  33.933  31.966  1.00  0.00     0.167 HD
ATOM     45  C   UNL A   1      41.682  27.614  28.921  1.00  0.00     0.037 A 
ATOM     46  C   UNL A   1      41.608  32.744  34.126  1.00  0.00     0.037 A 
ATOM     47  C   UNL A   1      42.631  27.946  29.993  1.00  0.00     0.049 A 
ATOM     48  C   UNL A   1      42.062  31.383  34.557  1.00  0.00     0.074 A 
ATOM     49  C   UNL A   1      43.800  28.687  30.046  1.00  0.00     0.029 A 
ATOM     50  N   UNL A   1      42.231  27.755  31.315  1.00  0.00    -0.354 N 
ATOM     51  N   UNL A   1      42.100  30.372  33.732  1.00  0.00    -0.248 NA
ATOM     52  C   UNL A   1      42.590  31.050  35.873  1.00  0.00     0.031 C 
ATOM     53  C   UNL A   1      44.099  28.935  31.415  1.00  0.00     0.029 A 
ATOM     54  C   UNL A   1      43.121  28.334  32.194  1.00  0.00     0.049 A 
ATOM     55  H   UNL A   1      41.419  27.271  31.585  1.00  0.00     0.167 HD
ATOM     56  C   UNL A   1      42.711  29.312  34.330  1.00  0.00     0.074 A 
ATOM     57  C   UNL A   1      42.969  29.772  35.682  1.00  0.00     0.031 C 
ATOM     58  C   UNL A   1      42.961  28.163  33.635  1.00  0.00     0.037 A 
BRANCH  45  59
ATOM     59  C   UNL A   1      42.046  26.700  27.763  1.00  0.00     0.064 A 
ATOM     60  C   UNL A   1      41.414  25.441  27.626  1.00  0.00     0.173 A 
ATOM     61  C   UNL A   1      43.009  26.964  26.769  1.00  0.00     0.173 A 
ATOM     62  F   UNL A   1      40.440  25.049  28.458  1.00  0.00    -0.203 F 
ATOM     63  C   UNL A   1      41.751  24.523  26.624  1.00  0.00     0.198 A 
ATOM     64  C   UNL A   1      43.360  26.040  25.777  1.00  0.00     0.198 A 
ATOM     65  F   UNL A   1      43.635  28.136  26.673  1.00  0.00    -0.203 F 
ATOM     66  F   UNL A   1      41.114  23.345  26.561  1.00  0.00    -0.200 F 
ATOM     67  C   UNL A   1      42.734  24.817  25.706  1.00  0.00     0.200 A 
ATOM     68  F   UNL A   1      44.308  26.358  24.884  1.00  0.00    -0.200 F 
ATOM     69  F   UNL A   1      43.062  23.941  24.749  1.00  0.00    -0.200 F 
ENDBRANCH  45  59
BRANCH  46  70
ATOM     70  C   UNL A   1      40.519  33.614  34.652  1.00  0.00     0.064 A 
ATOM     71  C   UNL A   1      39.344  32.938  35.052  1.00  0.00     0.173 A 
ATOM     72  C   UNL A   1      40.818  34.822  35.301  1.00  0.00     0.173 A 
ATOM     73  F   UNL A   1      39.000  31.787  34.452  1.00  0.00    -0.203 F 
ATOM     74  C   UNL A   1      38.628  33.336  36.181  1.00  0.00     0.198 A 
ATOM     75  C   UNL A   1      40.082  35.226  36.421  1.00  0.00     0.198 A 
ATOM     76  F   UNL A   1      41.917  35.514  34.969  1.00  0.00    -0.203 F 
ATOM     77  F   UNL A   1      37.625  32.574  36.641  1.00  0.00    -0.200 F 
ATOM     78  C   UNL A   1      39.030  34.452  36.893  1.00  0.00     0.200 A 
ATOM     79  F   UNL A   1      40.460  36.308  37.116  1.00  0.00    -0.200 F 
ATOM     80  F   UNL A   1      38.447  34.747  38.064  1.00  0.00    -0.200 F 
ENDBRANCH  46  70
BRANCH  58  81
ATOM     81  C   UNL A   1      43.144  26.783  34.227  1.00  0.00     0.064 A 
ATOM     82  C   UNL A   1      42.102  26.016  34.772  1.00  0.00     0.173 A 
ATOM     83  C   UNL A   1      44.380  26.098  34.085  1.00  0.00     0.173 A 
ATOM     84  F   UNL A   1      40.851  26.482  34.861  1.00  0.00    -0.203 F 
ATOM     85  C   UNL A   1      42.291  24.697  35.190  1.00  0.00     0.198 A 
ATOM     86  C   UNL A   1      44.542  24.758  34.428  1.00  0.00     0.198 A 
ATOM     87  F   UNL A   1      45.470  26.684  33.573  1.00  0.00    -0.203 F 
ATOM     88  F   UNL A   1      41.271  24.031  35.747  1.00  0.00    -0.200 F 
ATOM     89  C   UNL A   1      43.502  24.063  35.000  1.00  0.00     0.200 A 
ATOM     90  F   UNL A   1      45.706  24.145  34.172  1.00  0.00    -0.200 F 
ATOM     91  F   UNL A   1      43.659  22.778  35.346  1.00  0.00    -0.200 F 
ENDBRANCH  58  81
ENDBRANCH  32  33
ENDBRANCH  25  27
ENDBRANCH  24  25
ENDBRANCH  23  24
ENDBRANCH  22  23
ENDBRANCH  21  22
ENDBRANCH  20  21
ENDBRANCH   1  20
TORSDOF 19
ENDMDL
