MODEL 1
REMARK VINA RESULT:     -11.5      0.000      0.000
REMARK SMILES CCOc1cc(C[NH+]2CCC3(CC2)[C@H](C(=O)OCCOCCOC(=O)c2ccc(-c4c5nc(c(-c6c(F)c(F)c(F)c(F)c6F)c6ccc([nH]6)c(-c6c(F)c(F)c(F)c(F)c6F)c6nc(c(-c7c(F)c(F)c(F)c(F)c7F)c7ccc4[nH]7)C=C6)C=C5)cc2)CC(=O)N3C)ccc1OC
REMARK SMILES IDX 19 1 18 2 17 3 15 4 16 5 14 6 8 7 9 8 13 9 10 11 12 12 11 13
REMARK SMILES IDX 92 14 89 15 90 16 93 17 91 18 7 19 6 20 4 21 5 22 96 23
REMARK SMILES IDX 95 24 94 25 3 26 2 27 1 28 97 29 98 30 20 31 21 32 22 33
REMARK SMILES IDX 23 34 24 35 25 36 26 37 27 38 88 39 28 40 87 41 29 42 30 43
REMARK SMILES IDX 31 44 81 45 32 46 86 47 80 48 82 49 33 50 85 51 79 52 78 53
REMARK SMILES IDX 34 55 66 56 46 57 65 58 47 59 50 60 64 61 83 62 48 63 49 64
REMARK SMILES IDX 63 66 84 67 51 68 35 69 36 70 44 71 37 72 38 73 42 74 45 75
REMARK SMILES IDX 39 76 40 77 43 78 41 79 67 80 68 81 76 82 69 83 70 84 74 85
REMARK SMILES IDX 77 86 71 87 72 88 75 89 73 90 52 91 53 92 61 93 54 94 55 95
REMARK SMILES IDX 59 96 62 97 56 98 57 99 60 100 58 101
REMARK H PARENT 8 10 82 54 50 65
REMARK Flexibility Score: inf
ROOT
ATOM      1  C   UNL A   1      38.642  23.464  26.729  1.00  0.00     0.202 C 
ENDROOT
BRANCH   1   2
ATOM      2  C   UNL A   1      37.866  24.072  25.563  1.00  0.00     0.261 C 
BRANCH   2   3
ATOM      3  O   UNL A   1      36.457  24.225  25.864  1.00  0.00    -0.463 OA
BRANCH   3   4
ATOM      4  C   UNL A   1      35.631  23.558  25.028  1.00  0.00     0.311 C 
ATOM      5  O   UNL A   1      35.779  23.549  23.805  1.00  0.00    -0.252 OA
BRANCH   4   6
ATOM      6  C   UNL A   1      34.498  22.754  25.653  1.00  0.00     0.134 C 
ATOM      7  N   UNL A   1      30.434  23.886  25.197  1.00  0.00    -0.331 N 
ATOM      8  C   UNL A   1      31.122  23.824  23.927  1.00  0.00     0.265 C 
ATOM      9  C   UNL A   1      30.609  22.695  25.998  1.00  0.00     0.265 C 
ATOM     10  H   UNL A   1      29.446  23.870  24.947  1.00  0.00     0.348 HD
ATOM     11  C   UNL A   1      32.622  23.554  24.061  1.00  0.00     0.091 C 
ATOM     12  C   UNL A   1      32.076  22.313  26.252  1.00  0.00     0.091 C 
ATOM     13  C   UNL A   1      33.071  22.468  25.060  1.00  0.00     0.067 C 
ATOM     14  N   UNL A   1      33.271  21.144  24.448  1.00  0.00    -0.339 N 
ATOM     15  C   UNL A   1      35.073  21.368  25.944  1.00  0.00     0.118 C 
ATOM     16  C   UNL A   1      34.393  20.484  24.942  1.00  0.00     0.223 C 
ATOM     17  C   UNL A   1      32.215  20.346  23.858  1.00  0.00     0.147 C 
ATOM     18  O   UNL A   1      34.723  19.335  24.697  1.00  0.00    -0.275 OA
BRANCH   7  19
ATOM     19  C   UNL A   1      30.045  25.171  25.800  1.00  0.00     0.299 C 
BRANCH  19  20
ATOM     20  C   UNL A   1      30.983  26.354  25.617  1.00  0.00     0.010 A 
ATOM     21  C   UNL A   1      31.279  28.587  24.730  1.00  0.00     0.161 A 
ATOM     22  C   UNL A   1      30.745  27.306  24.631  1.00  0.00     0.060 A 
ATOM     23  C   UNL A   1      32.257  28.854  25.680  1.00  0.00     0.160 A 
ATOM     24  C   UNL A   1      32.767  27.798  26.436  1.00  0.00     0.051 A 
ATOM     25  C   UNL A   1      32.107  26.558  26.430  1.00  0.00     0.013 A 
BRANCH  21  26
ATOM     26  O   UNL A   1      30.572  29.564  24.088  1.00  0.00    -0.490 OA
BRANCH  26  27
ATOM     27  C   UNL A   1      29.748  29.110  23.021  1.00  0.00     0.226 C 
ATOM     28  C   UNL A   1      28.473  29.936  23.033  1.00  0.00     0.049 C 
ENDBRANCH  26  27
ENDBRANCH  21  26
BRANCH  23  29
ATOM     29  O   UNL A   1      32.734  30.111  25.932  1.00  0.00    -0.493 OA
ATOM     30  C   UNL A   1      33.744  30.117  26.951  1.00  0.00     0.278 C 
ENDBRANCH  23  29
ENDBRANCH  19  20
ENDBRANCH   7  19
ENDBRANCH   4   6
ENDBRANCH   3   4
ENDBRANCH   2   3
ENDBRANCH   1   2
BRANCH   1  31
ATOM     31  O   UNL A   1      39.413  22.295  26.467  1.00  0.00    -0.374 OA
BRANCH  31  32
ATOM     32  C   UNL A   1      38.809  21.278  25.679  1.00  0.00     0.202 C 
BRANCH  32  33
ATOM     33  C   UNL A   1      39.534  19.929  25.595  1.00  0.00     0.261 C 
BRANCH  33  34
ATOM     34  O   UNL A   1      40.475  19.738  26.646  1.00  0.00    -0.460 OA
BRANCH  34  35
ATOM     35  C   UNL A   1      41.752  19.602  26.232  1.00  0.00     0.338 C 
ATOM     36  O   UNL A   1      42.257  18.687  25.605  1.00  0.00    -0.246 OA
BRANCH  35  37
ATOM     37  C   UNL A   1      42.396  20.896  26.460  1.00  0.00     0.060 A 
ATOM     38  C   UNL A   1      42.461  21.342  27.784  1.00  0.00     0.016 A 
ATOM     39  C   UNL A   1      42.995  21.602  25.414  1.00  0.00     0.016 A 
ATOM     40  C   UNL A   1      43.120  22.526  28.071  1.00  0.00     0.010 A 
ATOM     41  C   UNL A   1      43.632  22.804  25.700  1.00  0.00     0.010 A 
ATOM     42  C   UNL A   1      43.670  23.275  27.024  1.00  0.00    -0.014 A 
BRANCH  42  43
ATOM     43  C   UNL A   1      44.107  24.653  27.302  1.00  0.00     0.031 A 
ATOM     44  C   UNL A   1      43.064  25.643  27.718  1.00  0.00     0.074 A 
ATOM     45  C   UNL A   1      45.407  24.979  27.226  1.00  0.00     0.049 A 
ATOM     46  N   UNL A   1      43.188  26.913  27.990  1.00  0.00    -0.248 NA
ATOM     47  C   UNL A   1      41.689  25.129  27.845  1.00  0.00     0.031 C 
ATOM     48  C   UNL A   1      46.489  24.060  26.881  1.00  0.00     0.029 A 
ATOM     49  N   UNL A   1      46.033  26.179  27.434  1.00  0.00    -0.354 N 
ATOM     50  C   UNL A   1      41.911  27.349  28.316  1.00  0.00     0.074 A 
ATOM     51  C   UNL A   1      41.020  26.221  28.178  1.00  0.00     0.031 C 
ATOM     52  C   UNL A   1      47.652  24.735  26.888  1.00  0.00     0.029 A 
ATOM     53  C   UNL A   1      47.384  26.137  27.201  1.00  0.00     0.049 A 
ATOM     54  H   UNL A   1      45.560  26.992  27.723  1.00  0.00     0.167 HD
ATOM     55  C   UNL A   1      41.526  28.586  28.704  1.00  0.00     0.037 A 
ATOM     56  C   UNL A   1      48.287  27.135  27.214  1.00  0.00     0.037 A 
ATOM     57  C   UNL A   1      42.434  29.695  28.823  1.00  0.00     0.049 A 
ATOM     58  C   UNL A   1      47.816  28.524  27.560  1.00  0.00     0.074 A 
ATOM     59  C   UNL A   1      42.166  30.993  29.213  1.00  0.00     0.029 A 
ATOM     60  N   UNL A   1      43.792  29.631  28.536  1.00  0.00    -0.354 N 
ATOM     61  N   UNL A   1      46.613  28.932  27.893  1.00  0.00    -0.248 NA
ATOM     62  C   UNL A   1      48.823  29.592  27.531  1.00  0.00     0.031 C 
ATOM     63  C   UNL A   1      43.348  31.730  29.099  1.00  0.00     0.029 A 
ATOM     64  C   UNL A   1      44.369  30.878  28.704  1.00  0.00     0.049 A 
ATOM     65  H   UNL A   1      44.272  28.819  28.254  1.00  0.00     0.167 HD
ATOM     66  C   UNL A   1      46.722  30.295  28.134  1.00  0.00     0.074 A 
ATOM     67  C   UNL A   1      48.114  30.639  27.928  1.00  0.00     0.031 C 
ATOM     68  C   UNL A   1      45.762  31.184  28.492  1.00  0.00     0.037 A 
BRANCH  55  69
ATOM     69  C   UNL A   1      40.068  28.805  28.980  1.00  0.00     0.064 A 
ATOM     70  C   UNL A   1      39.516  28.619  30.257  1.00  0.00     0.173 A 
ATOM     71  C   UNL A   1      39.209  29.219  27.950  1.00  0.00     0.173 A 
ATOM     72  F   UNL A   1      40.289  28.202  31.272  1.00  0.00    -0.203 F 
ATOM     73  C   UNL A   1      38.157  28.812  30.487  1.00  0.00     0.198 A 
ATOM     74  C   UNL A   1      37.856  29.444  28.191  1.00  0.00     0.198 A 
ATOM     75  F   UNL A   1      39.682  29.408  26.710  1.00  0.00    -0.203 F 
ATOM     76  F   UNL A   1      37.643  28.575  31.701  1.00  0.00    -0.200 F 
ATOM     77  C   UNL A   1      37.329  29.232  29.456  1.00  0.00     0.200 A 
ATOM     78  F   UNL A   1      37.061  29.858  27.195  1.00  0.00    -0.200 F 
ATOM     79  F   UNL A   1      36.023  29.424  29.679  1.00  0.00    -0.200 F 
ENDBRANCH  55  69
BRANCH  56  80
ATOM     80  C   UNL A   1      49.706  26.862  26.867  1.00  0.00     0.064 A 
ATOM     81  C   UNL A   1      50.156  26.926  25.541  1.00  0.00     0.173 A 
ATOM     82  C   UNL A   1      50.644  26.522  27.855  1.00  0.00     0.173 A 
ATOM     83  F   UNL A   1      49.295  27.226  24.557  1.00  0.00    -0.203 F 
ATOM     84  C   UNL A   1      51.481  26.643  25.215  1.00  0.00     0.198 A 
ATOM     85  C   UNL A   1      51.976  26.269  27.531  1.00  0.00     0.198 A 
ATOM     86  F   UNL A   1      50.267  26.445  29.140  1.00  0.00    -0.203 F 
ATOM     87  F   UNL A   1      51.871  26.664  23.933  1.00  0.00    -0.200 F 
ATOM     88  C   UNL A   1      52.391  26.321  26.210  1.00  0.00     0.200 A 
ATOM     89  F   UNL A   1      52.853  25.973  28.499  1.00  0.00    -0.200 F 
ATOM     90  F   UNL A   1      53.665  26.052  25.895  1.00  0.00    -0.200 F 
ENDBRANCH  56  80
BRANCH  68  91
ATOM     91  C   UNL A   1      46.191  32.606  28.707  1.00  0.00     0.064 A 
ATOM     92  C   UNL A   1      46.673  33.049  29.947  1.00  0.00     0.173 A 
ATOM     93  C   UNL A   1      46.177  33.518  27.640  1.00  0.00     0.173 A 
ATOM     94  F   UNL A   1      46.693  32.218  31.000  1.00  0.00    -0.203 F 
ATOM     95  C   UNL A   1      47.106  34.361  30.117  1.00  0.00     0.198 A 
ATOM     96  C   UNL A   1      46.644  34.818  27.805  1.00  0.00     0.198 A 
ATOM     97  F   UNL A   1      45.734  33.141  26.432  1.00  0.00    -0.203 F 
ATOM     98  F   UNL A   1      47.518  34.777  31.322  1.00  0.00    -0.200 F 
ATOM     99  C   UNL A   1      47.100  35.241  29.045  1.00  0.00     0.200 A 
ATOM    100  F   UNL A   1      46.656  35.662  26.764  1.00  0.00    -0.200 F 
ATOM    101  F   UNL A   1      47.531  36.499  29.207  1.00  0.00    -0.200 F 
ENDBRANCH  68  91
ENDBRANCH  42  43
ENDBRANCH  35  37
ENDBRANCH  34  35
ENDBRANCH  33  34
ENDBRANCH  32  33
ENDBRANCH  31  32
ENDBRANCH   1  31
TORSDOF 19
ENDMDL
MODEL 2
REMARK VINA RESULT:     -11.4      0.742      7.017
REMARK SMILES CCOc1cc(C[NH+]2CCC3(CC2)[C@H](C(=O)OCCOCCOC(=O)c2ccc(-c4c5nc(c(-c6c(F)c(F)c(F)c(F)c6F)c6ccc([nH]6)c(-c6c(F)c(F)c(F)c(F)c6F)c6nc(c(-c7c(F)c(F)c(F)c(F)c7F)c7ccc4[nH]7)C=C6)C=C5)cc2)CC(=O)N3C)ccc1OC
REMARK SMILES IDX 19 1 18 2 17 3 15 4 16 5 14 6 8 7 9 8 13 9 10 11 12 12 11 13
REMARK SMILES IDX 92 14 89 15 90 16 93 17 91 18 7 19 6 20 4 21 5 22 96 23
REMARK SMILES IDX 95 24 94 25 3 26 2 27 1 28 97 29 98 30 20 31 21 32 22 33
REMARK SMILES IDX 23 34 24 35 25 36 26 37 27 38 88 39 28 40 87 41 29 42 30 43
REMARK SMILES IDX 31 44 81 45 32 46 86 47 80 48 82 49 33 50 85 51 79 52 78 53
REMARK SMILES IDX 34 55 66 56 46 57 65 58 47 59 50 60 64 61 83 62 48 63 49 64
REMARK SMILES IDX 63 66 84 67 51 68 35 69 36 70 44 71 37 72 38 73 42 74 45 75
REMARK SMILES IDX 39 76 40 77 43 78 41 79 67 80 68 81 76 82 69 83 70 84 74 85
REMARK SMILES IDX 77 86 71 87 72 88 75 89 73 90 52 91 53 92 61 93 54 94 55 95
REMARK SMILES IDX 59 96 62 97 56 98 57 99 60 100 58 101
REMARK H PARENT 8 10 82 54 50 65
REMARK Flexibility Score: inf
ROOT
ATOM      1  C   UNL A   1      38.665  22.671  26.459  1.00  0.00     0.202 C 
ENDROOT
BRANCH   1   2
ATOM      2  C   UNL A   1      38.009  24.008  26.124  1.00  0.00     0.261 C 
BRANCH   2   3
ATOM      3  O   UNL A   1      36.589  24.010  26.413  1.00  0.00    -0.463 OA
BRANCH   3   4
ATOM      4  C   UNL A   1      35.819  23.481  25.437  1.00  0.00     0.311 C 
ATOM      5  O   UNL A   1      36.085  23.592  24.239  1.00  0.00    -0.252 OA
BRANCH   4   6
ATOM      6  C   UNL A   1      34.595  22.681  25.862  1.00  0.00     0.134 C 
ATOM      7  N   UNL A   1      30.651  24.043  25.089  1.00  0.00    -0.331 N 
ATOM      8  C   UNL A   1      31.470  24.058  23.898  1.00  0.00     0.265 C 
ATOM      9  C   UNL A   1      30.692  22.780  25.791  1.00  0.00     0.265 C 
ATOM     10  H   UNL A   1      29.696  24.096  24.736  1.00  0.00     0.348 HD
ATOM     11  C   UNL A   1      32.935  23.706  24.163  1.00  0.00     0.091 C 
ATOM     12  C   UNL A   1      32.107  22.306  26.162  1.00  0.00     0.091 C 
ATOM     13  C   UNL A   1      33.231  22.517  25.100  1.00  0.00     0.067 C 
ATOM     14  N   UNL A   1      33.445  21.243  24.393  1.00  0.00    -0.339 N 
ATOM     15  C   UNL A   1      35.080  21.249  26.084  1.00  0.00     0.118 C 
ATOM     16  C   UNL A   1      34.480  20.489  24.940  1.00  0.00     0.223 C 
ATOM     17  C   UNL A   1      32.429  20.551  23.625  1.00  0.00     0.147 C 
ATOM     18  O   UNL A   1      34.791  19.352  24.626  1.00  0.00    -0.275 OA
BRANCH   7  19
ATOM     19  C   UNL A   1      30.249  25.288  25.763  1.00  0.00     0.299 C 
BRANCH  19  20
ATOM     20  C   UNL A   1      31.125  26.515  25.570  1.00  0.00     0.010 A 
ATOM     21  C   UNL A   1      31.300  28.761  24.684  1.00  0.00     0.161 A 
ATOM     22  C   UNL A   1      30.828  27.456  24.589  1.00  0.00     0.060 A 
ATOM     23  C   UNL A   1      32.277  29.074  25.621  1.00  0.00     0.160 A 
ATOM     24  C   UNL A   1      32.848  28.042  26.368  1.00  0.00     0.051 A 
ATOM     25  C   UNL A   1      32.249  26.772  26.368  1.00  0.00     0.013 A 
BRANCH  21  26
ATOM     26  O   UNL A   1      30.538  29.703  24.055  1.00  0.00    -0.490 OA
BRANCH  26  27
ATOM     27  C   UNL A   1      29.699  29.207  23.020  1.00  0.00     0.226 C 
ATOM     28  C   UNL A   1      28.556  30.192  22.833  1.00  0.00     0.049 C 
ENDBRANCH  26  27
ENDBRANCH  21  26
BRANCH  23  29
ATOM     29  O   UNL A   1      32.696  30.352  25.870  1.00  0.00    -0.493 OA
ATOM     30  C   UNL A   1      33.015  30.563  27.253  1.00  0.00     0.278 C 
ENDBRANCH  23  29
ENDBRANCH  19  20
ENDBRANCH   7  19
ENDBRANCH   4   6
ENDBRANCH   3   4
ENDBRANCH   2   3
ENDBRANCH   1   2
BRANCH   1  31
ATOM     31  O   UNL A   1      38.974  21.800  25.376  1.00  0.00    -0.374 OA
BRANCH  31  32
ATOM     32  C   UNL A   1      38.395  20.501  25.397  1.00  0.00     0.202 C 
BRANCH  32  33
ATOM     33  C   UNL A   1      39.336  19.315  25.638  1.00  0.00     0.261 C 
BRANCH  33  34
ATOM     34  O   UNL A   1      40.287  19.562  26.668  1.00  0.00    -0.460 OA
BRANCH  34  35
ATOM     35  C   UNL A   1      41.571  19.559  26.252  1.00  0.00     0.338 C 
ATOM     36  O   UNL A   1      42.172  18.693  25.640  1.00  0.00    -0.246 OA
BRANCH  35  37
ATOM     37  C   UNL A   1      42.071  20.918  26.457  1.00  0.00     0.060 A 
ATOM     38  C   UNL A   1      42.299  21.313  27.779  1.00  0.00     0.016 A 
ATOM     39  C   UNL A   1      42.389  21.744  25.376  1.00  0.00     0.016 A 
ATOM     40  C   UNL A   1      42.838  22.564  28.032  1.00  0.00     0.010 A 
ATOM     41  C   UNL A   1      42.904  23.009  25.632  1.00  0.00     0.010 A 
ATOM     42  C   UNL A   1      43.102  23.425  26.961  1.00  0.00    -0.014 A 
BRANCH  42  43
ATOM     43  C   UNL A   1      43.397  24.838  27.252  1.00  0.00     0.031 A 
ATOM     44  C   UNL A   1      44.787  25.328  26.982  1.00  0.00     0.074 A 
ATOM     45  C   UNL A   1      42.430  25.654  27.696  1.00  0.00     0.049 A 
ATOM     46  N   UNL A   1      45.302  26.510  27.178  1.00  0.00    -0.248 NA
ATOM     47  C   UNL A   1      45.726  24.345  26.414  1.00  0.00     0.031 C 
ATOM     48  C   UNL A   1      41.040  25.267  27.931  1.00  0.00     0.029 A 
ATOM     49  N   UNL A   1      42.474  26.981  28.030  1.00  0.00    -0.354 N 
ATOM     50  C   UNL A   1      46.622  26.413  26.760  1.00  0.00     0.074 A 
ATOM     51  C   UNL A   1      46.842  25.052  26.331  1.00  0.00     0.031 C 
ATOM     52  C   UNL A   1      40.363  26.335  28.386  1.00  0.00     0.029 A 
ATOM     53  C   UNL A   1      41.282  27.464  28.507  1.00  0.00     0.049 A 
ATOM     54  H   UNL A   1      43.283  27.535  27.937  1.00  0.00     0.167 HD
ATOM     55  C   UNL A   1      47.561  27.386  26.734  1.00  0.00     0.037 A 
ATOM     56  C   UNL A   1      40.990  28.678  29.012  1.00  0.00     0.037 A 
ATOM     57  C   UNL A   1      47.317  28.732  27.178  1.00  0.00     0.049 A 
ATOM     58  C   UNL A   1      42.080  29.717  29.057  1.00  0.00     0.074 A 
ATOM     59  C   UNL A   1      48.185  29.807  27.194  1.00  0.00     0.029 A 
ATOM     60  N   UNL A   1      46.110  29.179  27.700  1.00  0.00    -0.354 N 
ATOM     61  N   UNL A   1      43.322  29.635  28.639  1.00  0.00    -0.248 NA
ATOM     62  C   UNL A   1      41.732  31.017  29.643  1.00  0.00     0.031 C 
ATOM     63  C   UNL A   1      47.523  30.887  27.785  1.00  0.00     0.029 A 
ATOM     64  C   UNL A   1      46.221  30.506  28.076  1.00  0.00     0.049 A 
ATOM     65  H   UNL A   1      45.296  28.632  27.788  1.00  0.00     0.167 HD
ATOM     66  C   UNL A   1      43.896  30.873  28.891  1.00  0.00     0.074 A 
ATOM     67  C   UNL A   1      42.859  31.696  29.480  1.00  0.00     0.031 C 
ATOM     68  C   UNL A   1      45.165  31.296  28.659  1.00  0.00     0.037 A 
BRANCH  55  69
ATOM     69  C   UNL A   1      48.933  27.014  26.254  1.00  0.00     0.064 A 
ATOM     70  C   UNL A   1      49.289  27.080  24.898  1.00  0.00     0.173 A 
ATOM     71  C   UNL A   1      49.912  26.595  27.168  1.00  0.00     0.173 A 
ATOM     72  F   UNL A   1      48.385  27.452  23.979  1.00  0.00    -0.203 F 
ATOM     73  C   UNL A   1      50.564  26.714  24.472  1.00  0.00     0.198 A 
ATOM     74  C   UNL A   1      51.195  26.262  26.743  1.00  0.00     0.198 A 
ATOM     75  F   UNL A   1      49.624  26.510  28.475  1.00  0.00    -0.203 F 
ATOM     76  F   UNL A   1      50.864  26.732  23.167  1.00  0.00    -0.200 F 
ATOM     77  C   UNL A   1      51.518  26.314  25.395  1.00  0.00     0.200 A 
ATOM     78  F   UNL A   1      52.117  25.884  27.638  1.00  0.00    -0.200 F 
ATOM     79  F   UNL A   1      52.745  25.968  24.986  1.00  0.00    -0.200 F 
ENDBRANCH  55  69
BRANCH  56  80
ATOM     80  C   UNL A   1      39.627  28.961  29.532  1.00  0.00     0.064 A 
ATOM     81  C   UNL A   1      38.618  29.458  28.696  1.00  0.00     0.173 A 
ATOM     82  C   UNL A   1      39.305  28.748  30.882  1.00  0.00     0.173 A 
ATOM     83  F   UNL A   1      38.880  29.698  27.403  1.00  0.00    -0.203 F 
ATOM     84  C   UNL A   1      37.348  29.748  29.192  1.00  0.00     0.198 A 
ATOM     85  C   UNL A   1      38.026  29.010  31.370  1.00  0.00     0.198 A 
ATOM     86  F   UNL A   1      40.233  28.275  31.726  1.00  0.00    -0.203 F 
ATOM     87  F   UNL A   1      36.418  30.268  28.380  1.00  0.00    -0.200 F 
ATOM     88  C   UNL A   1      37.052  29.518  30.527  1.00  0.00     0.200 A 
ATOM     89  F   UNL A   1      37.742  28.772  32.658  1.00  0.00    -0.200 F 
ATOM     90  F   UNL A   1      35.830  29.795  31.002  1.00  0.00    -0.200 F 
ENDBRANCH  56  80
BRANCH  68  91
ATOM     91  C   UNL A   1      45.490  32.716  29.020  1.00  0.00     0.064 A 
ATOM     92  C   UNL A   1      46.056  33.048  30.259  1.00  0.00     0.173 A 
ATOM     93  C   UNL A   1      45.291  33.746  28.089  1.00  0.00     0.173 A 
ATOM     94  F   UNL A   1      46.254  32.100  31.188  1.00  0.00    -0.203 F 
ATOM     95  C   UNL A   1      46.390  34.364  30.562  1.00  0.00     0.198 A 
ATOM     96  C   UNL A   1      45.658  35.055  28.381  1.00  0.00     0.198 A 
ATOM     97  F   UNL A   1      44.761  33.479  26.885  1.00  0.00    -0.203 F 
ATOM     98  F   UNL A   1      46.885  34.667  31.769  1.00  0.00    -0.200 F 
ATOM     99  C   UNL A   1      46.200  35.365  29.620  1.00  0.00     0.200 A 
ATOM    100  F   UNL A   1      45.493  36.017  27.463  1.00  0.00    -0.200 F 
ATOM    101  F   UNL A   1      46.536  36.630  29.907  1.00  0.00    -0.200 F 
ENDBRANCH  68  91
ENDBRANCH  42  43
ENDBRANCH  35  37
ENDBRANCH  34  35
ENDBRANCH  33  34
ENDBRANCH  32  33
ENDBRANCH  31  32
ENDBRANCH   1  31
TORSDOF 19
ENDMDL
MODEL 3
REMARK VINA RESULT:     -11.4      4.535      9.094
REMARK SMILES CCOc1cc(C[NH+]2CCC3(CC2)[C@H](C(=O)OCCOCCOC(=O)c2ccc(-c4c5nc(c(-c6c(F)c(F)c(F)c(F)c6F)c6ccc([nH]6)c(-c6c(F)c(F)c(F)c(F)c6F)c6nc(c(-c7c(F)c(F)c(F)c(F)c7F)c7ccc4[nH]7)C=C6)C=C5)cc2)CC(=O)N3C)ccc1OC
REMARK SMILES IDX 19 1 18 2 17 3 15 4 16 5 14 6 8 7 9 8 13 9 10 11 12 12 11 13
REMARK SMILES IDX 92 14 89 15 90 16 93 17 91 18 7 19 6 20 4 21 5 22 96 23
REMARK SMILES IDX 95 24 94 25 3 26 2 27 1 28 97 29 98 30 20 31 21 32 22 33
REMARK SMILES IDX 23 34 24 35 25 36 26 37 27 38 88 39 28 40 87 41 29 42 30 43
REMARK SMILES IDX 31 44 81 45 32 46 86 47 80 48 82 49 33 50 85 51 79 52 78 53
REMARK SMILES IDX 34 55 66 56 46 57 65 58 47 59 50 60 64 61 83 62 48 63 49 64
REMARK SMILES IDX 63 66 84 67 51 68 35 69 36 70 44 71 37 72 38 73 42 74 45 75
REMARK SMILES IDX 39 76 40 77 43 78 41 79 67 80 68 81 76 82 69 83 70 84 74 85
REMARK SMILES IDX 77 86 71 87 72 88 75 89 73 90 52 91 53 92 61 93 54 94 55 95
REMARK SMILES IDX 59 96 62 97 56 98 57 99 60 100 58 101
REMARK H PARENT 8 10 82 54 50 65
REMARK Flexibility Score: inf
ROOT
ATOM      1  C   UNL A   1      39.300  21.844  26.070  1.00  0.00     0.202 C 
ENDROOT
BRANCH   1   2
ATOM      2  C   UNL A   1      38.125  22.813  26.176  1.00  0.00     0.261 C 
BRANCH   2   3
ATOM      3  O   UNL A   1      37.040  22.457  25.284  1.00  0.00    -0.463 OA
BRANCH   3   4
ATOM      4  C   UNL A   1      35.926  23.206  25.433  1.00  0.00     0.311 C 
ATOM      5  O   UNL A   1      35.903  24.421  25.234  1.00  0.00    -0.252 OA
BRANCH   4   6
ATOM      6  C   UNL A   1      34.642  22.486  25.824  1.00  0.00     0.134 C 
ATOM      7  N   UNL A   1      30.816  24.142  25.035  1.00  0.00    -0.331 N 
ATOM      8  C   UNL A   1      31.650  24.126  23.854  1.00  0.00     0.265 C 
ATOM      9  C   UNL A   1      30.757  22.864  25.708  1.00  0.00     0.265 C 
ATOM     10  H   UNL A   1      29.872  24.272  24.671  1.00  0.00     0.348 HD
ATOM     11  C   UNL A   1      33.083  23.664  24.129  1.00  0.00     0.091 C 
ATOM     12  C   UNL A   1      32.129  22.283  26.084  1.00  0.00     0.091 C 
ATOM     13  C   UNL A   1      33.280  22.437  25.041  1.00  0.00     0.067 C 
ATOM     14  N   UNL A   1      33.413  21.167  24.308  1.00  0.00    -0.339 N 
ATOM     15  C   UNL A   1      35.021  21.018  26.019  1.00  0.00     0.118 C 
ATOM     16  C   UNL A   1      34.384  20.329  24.850  1.00  0.00     0.223 C 
ATOM     17  C   UNL A   1      32.361  20.566  23.511  1.00  0.00     0.147 C 
ATOM     18  O   UNL A   1      34.618  19.180  24.513  1.00  0.00    -0.275 OA
BRANCH   7  19
ATOM     19  C   UNL A   1      30.494  25.398  25.733  1.00  0.00     0.299 C 
BRANCH  19  20
ATOM     20  C   UNL A   1      30.055  26.586  24.892  1.00  0.00     0.010 A 
ATOM     21  C   UNL A   1      30.730  28.561  23.666  1.00  0.00     0.161 A 
ATOM     22  C   UNL A   1      30.876  27.700  24.750  1.00  0.00     0.060 A 
ATOM     23  C   UNL A   1      29.608  28.463  22.854  1.00  0.00     0.160 A 
ATOM     24  C   UNL A   1      28.591  27.577  23.215  1.00  0.00     0.051 A 
ATOM     25  C   UNL A   1      28.830  26.615  24.211  1.00  0.00     0.013 A 
BRANCH  21  26
ATOM     26  O   UNL A   1      31.861  29.234  23.302  1.00  0.00    -0.490 OA
BRANCH  26  27
ATOM     27  C   UNL A   1      33.036  28.873  24.018  1.00  0.00     0.226 C 
ATOM     28  C   UNL A   1      34.104  28.499  23.005  1.00  0.00     0.049 C 
ENDBRANCH  26  27
ENDBRANCH  21  26
BRANCH  23  29
ATOM     29  O   UNL A   1      29.453  29.176  21.698  1.00  0.00    -0.493 OA
ATOM     30  C   UNL A   1      28.232  29.928  21.678  1.00  0.00     0.278 C 
ENDBRANCH  23  29
ENDBRANCH  19  20
ENDBRANCH   7  19
ENDBRANCH   4   6
ENDBRANCH   3   4
ENDBRANCH   2   3
ENDBRANCH   1   2
BRANCH   1  31
ATOM     31  O   UNL A   1      40.596  22.344  26.387  1.00  0.00    -0.374 OA
BRANCH  31  32
ATOM     32  C   UNL A   1      41.714  21.587  25.942  1.00  0.00     0.202 C 
BRANCH  32  33
ATOM     33  C   UNL A   1      42.917  22.366  25.395  1.00  0.00     0.261 C 
BRANCH  33  34
ATOM     34  O   UNL A   1      42.584  23.688  24.988  1.00  0.00    -0.460 OA
BRANCH  34  35
ATOM     35  C   UNL A   1      43.509  24.618  25.308  1.00  0.00     0.338 C 
ATOM     36  O   UNL A   1      44.564  24.867  24.750  1.00  0.00    -0.246 OA
BRANCH  35  37
ATOM     37  C   UNL A   1      42.897  25.470  26.328  1.00  0.00     0.060 A 
ATOM     38  C   UNL A   1      43.416  26.762  26.464  1.00  0.00     0.016 A 
ATOM     39  C   UNL A   1      41.790  25.039  27.063  1.00  0.00     0.016 A 
ATOM     40  C   UNL A   1      42.833  27.638  27.364  1.00  0.00     0.010 A 
ATOM     41  C   UNL A   1      41.223  25.910  27.987  1.00  0.00     0.010 A 
ATOM     42  C   UNL A   1      41.763  27.198  28.152  1.00  0.00    -0.014 A 
BRANCH  42  43
ATOM     43  C   UNL A   1      41.344  28.028  29.294  1.00  0.00     0.031 A 
ATOM     44  C   UNL A   1      42.129  27.912  30.564  1.00  0.00     0.074 A 
ATOM     45  C   UNL A   1      40.323  28.889  29.166  1.00  0.00     0.049 A 
ATOM     46  N   UNL A   1      41.948  28.510  31.709  1.00  0.00    -0.248 NA
ATOM     47  C   UNL A   1      43.280  26.992  30.538  1.00  0.00     0.031 C 
ATOM     48  C   UNL A   1      39.544  29.100  27.948  1.00  0.00     0.029 A 
ATOM     49  N   UNL A   1      39.766  29.745  30.078  1.00  0.00    -0.354 N 
ATOM     50  C   UNL A   1      42.956  28.038  32.538  1.00  0.00     0.074 A 
ATOM     51  C   UNL A   1      43.727  27.081  31.780  1.00  0.00     0.031 C 
ATOM     52  C   UNL A   1      38.597  30.022  28.192  1.00  0.00     0.029 A 
ATOM     53  C   UNL A   1      38.683  30.432  29.591  1.00  0.00     0.049 A 
ATOM     54  H   UNL A   1      40.110  29.857  30.994  1.00  0.00     0.167 HD
ATOM     55  C   UNL A   1      43.211  28.385  33.820  1.00  0.00     0.037 A 
ATOM     56  C   UNL A   1      37.846  31.273  30.227  1.00  0.00     0.037 A 
ATOM     57  C   UNL A   1      42.419  29.335  34.554  1.00  0.00     0.049 A 
ATOM     58  C   UNL A   1      38.099  31.573  31.682  1.00  0.00     0.074 A 
ATOM     59  C   UNL A   1      42.583  29.774  35.854  1.00  0.00     0.029 A 
ATOM     60  N   UNL A   1      41.299  29.981  34.047  1.00  0.00    -0.354 N 
ATOM     61  N   UNL A   1      39.067  31.147  32.461  1.00  0.00    -0.248 NA
ATOM     62  C   UNL A   1      37.146  32.468  32.349  1.00  0.00     0.031 C 
ATOM     63  C   UNL A   1      41.524  30.636  36.154  1.00  0.00     0.029 A 
ATOM     64  C   UNL A   1      40.738  30.788  35.021  1.00  0.00     0.049 A 
ATOM     65  H   UNL A   1      40.956  29.879  33.129  1.00  0.00     0.167 HD
ATOM     66  C   UNL A   1      38.853  31.736  33.698  1.00  0.00     0.074 A 
ATOM     67  C   UNL A   1      37.674  32.567  33.561  1.00  0.00     0.031 C 
ATOM     68  C   UNL A   1      39.563  31.605  34.847  1.00  0.00     0.037 A 
BRANCH  55  69
ATOM     69  C   UNL A   1      44.358  27.706  34.508  1.00  0.00     0.064 A 
ATOM     70  C   UNL A   1      44.196  26.500  35.208  1.00  0.00     0.173 A 
ATOM     71  C   UNL A   1      45.644  28.265  34.457  1.00  0.00     0.173 A 
ATOM     72  F   UNL A   1      42.983  25.934  35.307  1.00  0.00    -0.203 F 
ATOM     73  C   UNL A   1      45.272  25.894  35.853  1.00  0.00     0.198 A 
ATOM     74  C   UNL A   1      46.724  27.640  35.075  1.00  0.00     0.198 A 
ATOM     75  F   UNL A   1      45.855  29.418  33.806  1.00  0.00    -0.203 F 
ATOM     76  F   UNL A   1      45.082  24.773  36.561  1.00  0.00    -0.200 F 
ATOM     77  C   UNL A   1      46.536  26.460  35.780  1.00  0.00     0.200 A 
ATOM     78  F   UNL A   1      47.945  28.184  34.995  1.00  0.00    -0.200 F 
ATOM     79  F   UNL A   1      47.571  25.875  36.395  1.00  0.00    -0.200 F 
ENDBRANCH  55  69
BRANCH  56  80
ATOM     80  C   UNL A   1      36.689  31.862  29.504  1.00  0.00     0.064 A 
ATOM     81  C   UNL A   1      36.639  33.230  29.204  1.00  0.00     0.173 A 
ATOM     82  C   UNL A   1      35.601  31.070  29.104  1.00  0.00     0.173 A 
ATOM     83  F   UNL A   1      37.643  34.035  29.582  1.00  0.00    -0.203 F 
ATOM     84  C   UNL A   1      35.540  33.785  28.549  1.00  0.00     0.198 A 
ATOM     85  C   UNL A   1      34.517  31.620  28.422  1.00  0.00     0.198 A 
ATOM     86  F   UNL A   1      35.597  29.754  29.366  1.00  0.00    -0.203 F 
ATOM     87  F   UNL A   1      35.498  35.105  28.319  1.00  0.00    -0.200 F 
ATOM     88  C   UNL A   1      34.484  32.979  28.154  1.00  0.00     0.200 A 
ATOM     89  F   UNL A   1      33.506  30.833  28.030  1.00  0.00    -0.200 F 
ATOM     90  F   UNL A   1      33.430  33.513  27.522  1.00  0.00    -0.200 F 
ENDBRANCH  56  80
BRANCH  68  91
ATOM     91  C   UNL A   1      39.097  32.396  36.035  1.00  0.00     0.064 A 
ATOM     92  C   UNL A   1      38.266  31.832  37.014  1.00  0.00     0.173 A 
ATOM     93  C   UNL A   1      39.540  33.714  36.225  1.00  0.00     0.173 A 
ATOM     94  F   UNL A   1      37.806  30.580  36.870  1.00  0.00    -0.203 F 
ATOM     95  C   UNL A   1      37.877  32.567  38.130  1.00  0.00     0.198 A 
ATOM     96  C   UNL A   1      39.178  34.433  37.359  1.00  0.00     0.198 A 
ATOM     97  F   UNL A   1      40.344  34.295  35.322  1.00  0.00    -0.203 F 
ATOM     98  F   UNL A   1      37.045  32.026  39.029  1.00  0.00    -0.200 F 
ATOM     99  C   UNL A   1      38.341  33.862  38.307  1.00  0.00     0.200 A 
ATOM    100  F   UNL A   1      39.643  35.677  37.539  1.00  0.00    -0.200 F 
ATOM    101  F   UNL A   1      37.978  34.564  39.389  1.00  0.00    -0.200 F 
ENDBRANCH  68  91
ENDBRANCH  42  43
ENDBRANCH  35  37
ENDBRANCH  34  35
ENDBRANCH  33  34
ENDBRANCH  32  33
ENDBRANCH  31  32
ENDBRANCH   1  31
TORSDOF 19
ENDMDL
