MODEL 1
REMARK VINA RESULT:     -10.0      0.000      0.000
REMARK SMILES Cc1nc([C@H](C)[NH2+]CC(=O)OCCOCCOC(=O)c2ccc(-c3c4nc(c(-c5c(F)c(F)c(F)c(F)c5F)c5ccc([nH]5)c(-c5c(F)c(F)c(F)c(F)c5F)c5nc(c(-c6c(F)c(F)c(F)c(F)c6F)c6ccc3[nH]6)C=C5)C=C4)cc2)cs1
REMARK SMILES IDX 13 1 12 2 11 3 9 4 10 5 8 6 7 7 5 10 6 11 4 12 1 13 2 14
REMARK SMILES IDX 3 15 84 16 83 17 14 18 15 19 16 20 17 21 18 22 19 23 20 24
REMARK SMILES IDX 21 25 82 26 22 27 81 28 23 29 24 30 25 31 75 32 26 33 80 34
REMARK SMILES IDX 74 35 76 36 27 37 79 38 73 39 72 40 28 42 60 43 40 44 59 45
REMARK SMILES IDX 41 46 44 47 58 48 77 49 42 50 43 51 57 53 78 54 45 55 29 56
REMARK SMILES IDX 30 57 38 58 31 59 32 60 36 61 39 62 33 63 34 64 37 65 35 66
REMARK SMILES IDX 61 67 62 68 70 69 63 70 64 71 68 72 71 73 65 74 66 75 69 76
REMARK SMILES IDX 67 77 46 78 47 79 55 80 48 81 49 82 53 83 56 84 50 85 51 86
REMARK SMILES IDX 54 87 52 88
REMARK H PARENT 7 8 7 9 76 41 44 52
REMARK Flexibility Score: inf
ROOT
ATOM      1  C   UNL A   1      33.267  36.126  28.862  1.00  0.00     0.202 C 
ENDROOT
BRANCH   1   2
ATOM      2  C   UNL A   1      33.239  37.043  30.095  1.00  0.00     0.261 C 
BRANCH   2   3
ATOM      3  O   UNL A   1      32.215  36.645  31.015  1.00  0.00    -0.459 OA
BRANCH   3   4
ATOM      4  C   UNL A   1      32.531  36.618  32.335  1.00  0.00     0.361 C 
ATOM      5  O   UNL A   1      31.794  36.983  33.244  1.00  0.00    -0.245 OA
BRANCH   4   6
ATOM      6  C   UNL A   1      33.960  36.124  32.563  1.00  0.00     0.385 C 
BRANCH   6   7
ATOM      7  N   UNL A   1      34.045  35.122  33.641  1.00  0.00    -0.330 N 
ATOM      8  H   UNL A   1      34.654  35.492  34.370  1.00  0.00     0.347 HD
ATOM      9  H   UNL A   1      33.088  34.961  33.957  1.00  0.00     0.347 HD
BRANCH   7  10
ATOM     10  C   UNL A   1      34.570  33.809  33.230  1.00  0.00     0.230 C 
ATOM     11  C   UNL A   1      34.952  33.894  31.751  1.00  0.00     0.082 C 
BRANCH  10  12
ATOM     12  C   UNL A   1      35.738  33.342  34.080  1.00  0.00     0.108 A 
ATOM     13  C   UNL A   1      38.513  30.969  34.497  1.00  0.00     0.079 C 
ATOM     14  C   UNL A   1      37.466  32.026  34.602  1.00  0.00     0.090 A 
ATOM     15  N   UNL A   1      36.465  32.195  33.761  1.00  0.00    -0.240 NA
ATOM     16  S   UNL A   1      37.549  33.171  35.874  1.00  0.00    -0.127 S 
ATOM     17  C   UNL A   1      36.171  33.960  35.240  1.00  0.00     0.096 A 
ENDBRANCH  10  12
ENDBRANCH   7  10
ENDBRANCH   6   7
ENDBRANCH   4   6
ENDBRANCH   3   4
ENDBRANCH   2   3
ENDBRANCH   1   2
BRANCH   1  18
ATOM     18  O   UNL A   1      32.838  34.786  29.117  1.00  0.00    -0.374 OA
BRANCH  18  19
ATOM     19  C   UNL A   1      33.110  33.879  28.037  1.00  0.00     0.202 C 
BRANCH  19  20
ATOM     20  C   UNL A   1      34.509  33.250  28.094  1.00  0.00     0.261 C 
BRANCH  20  21
ATOM     21  O   UNL A   1      34.485  32.081  28.947  1.00  0.00    -0.460 OA
BRANCH  21  22
ATOM     22  C   UNL A   1      34.476  30.890  28.310  1.00  0.00     0.338 C 
ATOM     23  O   UNL A   1      33.584  30.446  27.603  1.00  0.00    -0.246 OA
BRANCH  22  24
ATOM     24  C   UNL A   1      35.803  30.241  28.423  1.00  0.00     0.060 A 
ATOM     25  C   UNL A   1      36.150  29.716  29.672  1.00  0.00     0.016 A 
ATOM     26  C   UNL A   1      36.715  30.175  27.366  1.00  0.00     0.016 A 
ATOM     27  C   UNL A   1      37.381  29.084  29.856  1.00  0.00     0.010 A 
ATOM     28  C   UNL A   1      37.977  29.581  27.564  1.00  0.00     0.010 A 
ATOM     29  C   UNL A   1      38.321  29.038  28.815  1.00  0.00    -0.014 A 
BRANCH  29  30
ATOM     30  C   UNL A   1      39.713  28.623  29.145  1.00  0.00     0.031 A 
ATOM     31  C   UNL A   1      40.488  29.473  30.116  1.00  0.00     0.074 A 
ATOM     32  C   UNL A   1      40.254  27.472  28.700  1.00  0.00     0.049 A 
ATOM     33  N   UNL A   1      41.673  29.277  30.637  1.00  0.00    -0.248 NA
ATOM     34  C   UNL A   1      39.816  30.694  30.587  1.00  0.00     0.031 C 
ATOM     35  C   UNL A   1      39.589  26.507  27.832  1.00  0.00     0.029 A 
ATOM     36  N   UNL A   1      41.486  26.909  28.945  1.00  0.00    -0.354 N 
ATOM     37  C   UNL A   1      41.874  30.334  31.514  1.00  0.00     0.074 A 
ATOM     38  C   UNL A   1      40.696  31.172  31.451  1.00  0.00     0.031 C 
ATOM     39  C   UNL A   1      40.415  25.465  27.621  1.00  0.00     0.029 A 
ATOM     40  C   UNL A   1      41.684  25.705  28.310  1.00  0.00     0.049 A 
ATOM     41  H   UNL A   1      42.164  27.329  29.522  1.00  0.00     0.167 HD
ATOM     42  C   UNL A   1      42.946  30.595  32.298  1.00  0.00     0.037 A 
ATOM     43  C   UNL A   1      42.769  24.902  28.277  1.00  0.00     0.037 A 
ATOM     44  C   UNL A   1      44.151  29.812  32.322  1.00  0.00     0.049 A 
ATOM     45  C   UNL A   1      44.010  25.295  29.048  1.00  0.00     0.074 A 
ATOM     46  C   UNL A   1      45.318  30.045  33.027  1.00  0.00     0.029 A 
ATOM     47  N   UNL A   1      44.350  28.655  31.585  1.00  0.00    -0.354 N 
ATOM     48  N   UNL A   1      44.194  26.300  29.869  1.00  0.00    -0.248 NA
ATOM     49  C   UNL A   1      45.198  24.442  28.877  1.00  0.00     0.031 C 
ATOM     50  C   UNL A   1      46.244  29.057  32.676  1.00  0.00     0.029 A 
ATOM     51  C   UNL A   1      45.633  28.178  31.795  1.00  0.00     0.049 A 
ATOM     52  H   UNL A   1      43.679  28.234  31.001  1.00  0.00     0.167 HD
ATOM     53  C   UNL A   1      45.502  26.188  30.328  1.00  0.00     0.074 A 
ATOM     54  C   UNL A   1      46.063  25.008  29.708  1.00  0.00     0.031 C 
ATOM     55  C   UNL A   1      46.178  26.994  31.182  1.00  0.00     0.037 A 
BRANCH  42  56
ATOM     56  C   UNL A   1      42.879  31.833  33.138  1.00  0.00     0.064 A 
ATOM     57  C   UNL A   1      43.345  33.068  32.666  1.00  0.00     0.173 A 
ATOM     58  C   UNL A   1      42.362  31.775  34.441  1.00  0.00     0.173 A 
ATOM     59  F   UNL A   1      43.870  33.167  31.435  1.00  0.00    -0.203 F 
ATOM     60  C   UNL A   1      43.320  34.198  33.481  1.00  0.00     0.198 A 
ATOM     61  C   UNL A   1      42.317  32.911  35.243  1.00  0.00     0.198 A 
ATOM     62  F   UNL A   1      41.911  30.613  34.936  1.00  0.00    -0.203 F 
ATOM     63  F   UNL A   1      43.818  35.359  33.030  1.00  0.00    -0.200 F 
ATOM     64  C   UNL A   1      42.804  34.118  34.765  1.00  0.00     0.200 A 
ATOM     65  F   UNL A   1      41.816  32.832  36.483  1.00  0.00    -0.200 F 
ATOM     66  F   UNL A   1      42.788  35.204  35.551  1.00  0.00    -0.200 F 
ENDBRANCH  42  56
BRANCH  43  67
ATOM     67  C   UNL A   1      42.772  23.662  27.450  1.00  0.00     0.064 A 
ATOM     68  C   UNL A   1      42.364  22.428  27.979  1.00  0.00     0.173 A 
ATOM     69  C   UNL A   1      43.254  23.673  26.132  1.00  0.00     0.173 A 
ATOM     70  F   UNL A   1      41.931  22.353  29.246  1.00  0.00    -0.203 F 
ATOM     71  C   UNL A   1      42.463  21.254  27.233  1.00  0.00     0.198 A 
ATOM     72  C   UNL A   1      43.322  22.503  25.377  1.00  0.00     0.198 A 
ATOM     73  F   UNL A   1      43.673  24.820  25.579  1.00  0.00    -0.203 F 
ATOM     74  F   UNL A   1      42.127  20.079  27.786  1.00  0.00    -0.200 F 
ATOM     75  C   UNL A   1      42.937  21.292  25.931  1.00  0.00     0.200 A 
ATOM     76  F   UNL A   1      43.777  22.548  24.117  1.00  0.00    -0.200 F 
ATOM     77  F   UNL A   1      43.038  20.163  25.216  1.00  0.00    -0.200 F 
ENDBRANCH  43  67
BRANCH  55  78
ATOM     78  C   UNL A   1      47.591  26.621  31.528  1.00  0.00     0.064 A 
ATOM     79  C   UNL A   1      47.885  25.739  32.578  1.00  0.00     0.173 A 
ATOM     80  C   UNL A   1      48.660  27.099  30.754  1.00  0.00     0.173 A 
ATOM     81  F   UNL A   1      46.901  25.264  33.355  1.00  0.00    -0.203 F 
ATOM     82  C   UNL A   1      49.199  25.364  32.852  1.00  0.00     0.198 A 
ATOM     83  C   UNL A   1      49.970  26.700  31.013  1.00  0.00     0.198 A 
ATOM     84  F   UNL A   1      48.433  27.939  29.733  1.00  0.00    -0.203 F 
ATOM     85  F   UNL A   1      49.459  24.548  33.883  1.00  0.00    -0.200 F 
ATOM     86  C   UNL A   1      50.237  25.837  32.064  1.00  0.00     0.200 A 
ATOM     87  F   UNL A   1      50.970  27.147  30.241  1.00  0.00    -0.200 F 
ATOM     88  F   UNL A   1      51.499  25.464  32.321  1.00  0.00    -0.200 F 
ENDBRANCH  55  78
ENDBRANCH  29  30
ENDBRANCH  22  24
ENDBRANCH  21  22
ENDBRANCH  20  21
ENDBRANCH  19  20
ENDBRANCH  18  19
ENDBRANCH   1  18
TORSDOF 17
ENDMDL
MODEL 2
REMARK VINA RESULT:      -9.9      4.353      6.955
REMARK SMILES Cc1nc([C@H](C)[NH2+]CC(=O)OCCOCCOC(=O)c2ccc(-c3c4nc(c(-c5c(F)c(F)c(F)c(F)c5F)c5ccc([nH]5)c(-c5c(F)c(F)c(F)c(F)c5F)c5nc(c(-c6c(F)c(F)c(F)c(F)c6F)c6ccc3[nH]6)C=C5)C=C4)cc2)cs1
REMARK SMILES IDX 13 1 12 2 11 3 9 4 10 5 8 6 7 7 5 10 6 11 4 12 1 13 2 14
REMARK SMILES IDX 3 15 84 16 83 17 14 18 15 19 16 20 17 21 18 22 19 23 20 24
REMARK SMILES IDX 21 25 82 26 22 27 81 28 23 29 24 30 25 31 75 32 26 33 80 34
REMARK SMILES IDX 74 35 76 36 27 37 79 38 73 39 72 40 28 42 60 43 40 44 59 45
REMARK SMILES IDX 41 46 44 47 58 48 77 49 42 50 43 51 57 53 78 54 45 55 29 56
REMARK SMILES IDX 30 57 38 58 31 59 32 60 36 61 39 62 33 63 34 64 37 65 35 66
REMARK SMILES IDX 61 67 62 68 70 69 63 70 64 71 68 72 71 73 65 74 66 75 69 76
REMARK SMILES IDX 67 77 46 78 47 79 55 80 48 81 49 82 53 83 56 84 50 85 51 86
REMARK SMILES IDX 54 87 52 88
REMARK H PARENT 7 8 7 9 76 41 44 52
REMARK Flexibility Score: inf
ROOT
ATOM      1  C   UNL A   1      32.648  30.447  26.699  1.00  0.00     0.202 C 
ENDROOT
BRANCH   1   2
ATOM      2  C   UNL A   1      32.769  28.995  26.209  1.00  0.00     0.261 C 
BRANCH   2   3
ATOM      3  O   UNL A   1      33.835  28.853  25.261  1.00  0.00    -0.459 OA
BRANCH   3   4
ATOM      4  C   UNL A   1      33.500  28.661  23.960  1.00  0.00     0.361 C 
ATOM      5  O   UNL A   1      34.191  28.980  22.999  1.00  0.00    -0.245 OA
BRANCH   4   6
ATOM      6  C   UNL A   1      32.110  28.039  23.821  1.00  0.00     0.385 C 
BRANCH   6   7
ATOM      7  N   UNL A   1      31.556  28.192  22.464  1.00  0.00    -0.330 N 
ATOM      8  H   UNL A   1      31.893  29.075  22.082  1.00  0.00     0.347 HD
ATOM      9  H   UNL A   1      31.870  27.378  21.935  1.00  0.00     0.347 HD
BRANCH   7  10
ATOM     10  C   UNL A   1      30.086  28.192  22.388  1.00  0.00     0.230 C 
ATOM     11  C   UNL A   1      29.552  27.371  23.564  1.00  0.00     0.082 C 
BRANCH  10  12
ATOM     12  C   UNL A   1      29.491  29.588  22.370  1.00  0.00     0.108 A 
ATOM     13  C   UNL A   1      27.923  32.263  20.395  1.00  0.00     0.079 C 
ATOM     14  C   UNL A   1      28.554  31.380  21.418  1.00  0.00     0.090 A 
ATOM     15  N   UNL A   1      29.098  30.203  21.181  1.00  0.00    -0.240 NA
ATOM     16  S   UNL A   1      28.558  31.864  23.062  1.00  0.00    -0.127 S 
ATOM     17  C   UNL A   1      29.312  30.389  23.484  1.00  0.00     0.096 A 
ENDBRANCH  10  12
ENDBRANCH   7  10
ENDBRANCH   6   7
ENDBRANCH   4   6
ENDBRANCH   3   4
ENDBRANCH   2   3
ENDBRANCH   1   2
BRANCH   1  18
ATOM     18  O   UNL A   1      31.376  31.047  26.446  1.00  0.00    -0.374 OA
BRANCH  18  19
ATOM     19  C   UNL A   1      31.375  32.476  26.593  1.00  0.00     0.202 C 
BRANCH  19  20
ATOM     20  C   UNL A   1      32.670  33.038  27.197  1.00  0.00     0.261 C 
BRANCH  20  21
ATOM     21  O   UNL A   1      32.365  33.783  28.399  1.00  0.00    -0.460 OA
BRANCH  21  22
ATOM     22  C   UNL A   1      33.347  34.592  28.852  1.00  0.00     0.338 C 
ATOM     23  O   UNL A   1      33.241  35.769  29.160  1.00  0.00    -0.246 OA
BRANCH  22  24
ATOM     24  C   UNL A   1      34.574  33.805  29.120  1.00  0.00     0.060 A 
ATOM     25  C   UNL A   1      34.427  32.630  29.864  1.00  0.00     0.016 A 
ATOM     26  C   UNL A   1      35.847  34.207  28.704  1.00  0.00     0.016 A 
ATOM     27  C   UNL A   1      35.536  31.832  30.152  1.00  0.00     0.010 A 
ATOM     28  C   UNL A   1      36.972  33.427  29.036  1.00  0.00     0.010 A 
ATOM     29  C   UNL A   1      36.823  32.237  29.771  1.00  0.00    -0.014 A 
BRANCH  29  30
ATOM     30  C   UNL A   1      37.987  31.512  30.352  1.00  0.00     0.031 A 
ATOM     31  C   UNL A   1      38.329  31.774  31.795  1.00  0.00     0.074 A 
ATOM     32  C   UNL A   1      38.664  30.562  29.678  1.00  0.00     0.049 A 
ATOM     33  N   UNL A   1      39.228  31.204  32.557  1.00  0.00    -0.248 NA
ATOM     34  C   UNL A   1      37.521  32.798  32.476  1.00  0.00     0.031 C 
ATOM     35  C   UNL A   1      38.385  30.138  28.311  1.00  0.00     0.029 A 
ATOM     36  N   UNL A   1      39.713  29.761  30.070  1.00  0.00    -0.354 N 
ATOM     37  C   UNL A   1      39.074  31.781  33.811  1.00  0.00     0.074 A 
ATOM     38  C   UNL A   1      38.003  32.749  33.707  1.00  0.00     0.031 C 
ATOM     39  C   UNL A   1      39.235  29.149  27.977  1.00  0.00     0.029 A 
ATOM     40  C   UNL A   1      40.145  28.893  29.095  1.00  0.00     0.049 A 
ATOM     41  H   UNL A   1      40.118  29.807  30.966  1.00  0.00     0.167 HD
ATOM     42  C   UNL A   1      39.765  31.537  34.949  1.00  0.00     0.037 A 
ATOM     43  C   UNL A   1      41.165  28.009  29.101  1.00  0.00     0.037 A 
ATOM     44  C   UNL A   1      40.874  30.630  35.052  1.00  0.00     0.049 A 
ATOM     45  C   UNL A   1      42.017  27.864  30.342  1.00  0.00     0.074 A 
ATOM     46  C   UNL A   1      41.684  30.378  36.145  1.00  0.00     0.029 A 
ATOM     47  N   UNL A   1      41.346  29.844  34.012  1.00  0.00    -0.354 N 
ATOM     48  N   UNL A   1      41.868  28.418  31.521  1.00  0.00    -0.248 NA
ATOM     49  C   UNL A   1      43.186  26.973  30.249  1.00  0.00     0.031 C 
ATOM     50  C   UNL A   1      42.679  29.477  35.752  1.00  0.00     0.029 A 
ATOM     51  C   UNL A   1      42.455  29.128  34.430  1.00  0.00     0.049 A 
ATOM     52  H   UNL A   1      40.950  29.801  33.112  1.00  0.00     0.167 HD
ATOM     53  C   UNL A   1      42.904  27.929  32.310  1.00  0.00     0.074 A 
ATOM     54  C   UNL A   1      43.666  27.019  31.483  1.00  0.00     0.031 C 
ATOM     55  C   UNL A   1      43.199  28.214  33.602  1.00  0.00     0.037 A 
BRANCH  42  56
ATOM     56  C   UNL A   1      39.376  32.335  36.155  1.00  0.00     0.064 A 
ATOM     57  C   UNL A   1      38.417  31.870  37.067  1.00  0.00     0.173 A 
ATOM     58  C   UNL A   1      39.955  33.591  36.387  1.00  0.00     0.173 A 
ATOM     59  F   UNL A   1      37.819  30.685  36.873  1.00  0.00    -0.203 F 
ATOM     60  C   UNL A   1      38.033  32.648  38.156  1.00  0.00     0.198 A 
ATOM     61  C   UNL A   1      39.585  34.355  37.489  1.00  0.00     0.198 A 
ATOM     62  F   UNL A   1      40.872  34.079  35.538  1.00  0.00    -0.203 F 
ATOM     63  F   UNL A   1      37.077  32.209  38.988  1.00  0.00    -0.200 F 
ATOM     64  C   UNL A   1      38.619  33.887  38.367  1.00  0.00     0.200 A 
ATOM     65  F   UNL A   1      40.154  35.552  37.693  1.00  0.00    -0.200 F 
ATOM     66  F   UNL A   1      38.242  34.639  39.410  1.00  0.00    -0.200 F 
ENDBRANCH  42  56
BRANCH  43  67
ATOM     67  C   UNL A   1      41.490  27.215  27.882  1.00  0.00     0.064 A 
ATOM     68  C   UNL A   1      40.990  25.916  27.700  1.00  0.00     0.173 A 
ATOM     69  C   UNL A   1      42.370  27.712  26.908  1.00  0.00     0.173 A 
ATOM     70  F   UNL A   1      40.176  25.377  28.619  1.00  0.00    -0.203 F 
ATOM     71  C   UNL A   1      41.377  25.140  26.607  1.00  0.00     0.198 A 
ATOM     72  C   UNL A   1      42.730  26.946  25.800  1.00  0.00     0.198 A 
ATOM     73  F   UNL A   1      42.892  28.940  27.038  1.00  0.00    -0.203 F 
ATOM     74  F   UNL A   1      40.935  23.880  26.492  1.00  0.00    -0.200 F 
ATOM     75  C   UNL A   1      42.242  25.657  25.656  1.00  0.00     0.200 A 
ATOM     76  F   UNL A   1      43.563  27.454  24.881  1.00  0.00    -0.200 F 
ATOM     77  F   UNL A   1      42.619  24.909  24.609  1.00  0.00    -0.200 F 
ENDBRANCH  43  67
BRANCH  55  78
ATOM     78  C   UNL A   1      44.377  27.517  34.222  1.00  0.00     0.064 A 
ATOM     79  C   UNL A   1      45.646  28.113  34.266  1.00  0.00     0.173 A 
ATOM     80  C   UNL A   1      44.217  26.267  34.839  1.00  0.00     0.173 A 
ATOM     81  F   UNL A   1      45.855  29.301  33.679  1.00  0.00    -0.203 F 
ATOM     82  C   UNL A   1      46.715  27.474  34.891  1.00  0.00     0.198 A 
ATOM     83  C   UNL A   1      45.281  25.644  35.487  1.00  0.00     0.198 A 
ATOM     84  F   UNL A   1      43.022  25.658  34.833  1.00  0.00    -0.203 F 
ATOM     85  F   UNL A   1      47.928  28.046  34.889  1.00  0.00    -0.200 F 
ATOM     86  C   UNL A   1      46.530  26.247  35.508  1.00  0.00     0.200 A 
ATOM     87  F   UNL A   1      45.096  24.465  36.096  1.00  0.00    -0.200 F 
ATOM     88  F   UNL A   1      47.557  25.641  36.120  1.00  0.00    -0.200 F 
ENDBRANCH  55  78
ENDBRANCH  29  30
ENDBRANCH  22  24
ENDBRANCH  21  22
ENDBRANCH  20  21
ENDBRANCH  19  20
ENDBRANCH  18  19
ENDBRANCH   1  18
TORSDOF 17
ENDMDL
MODEL 3
REMARK VINA RESULT:      -9.5      1.372      2.319
REMARK SMILES Cc1nc([C@H](C)[NH2+]CC(=O)OCCOCCOC(=O)c2ccc(-c3c4nc(c(-c5c(F)c(F)c(F)c(F)c5F)c5ccc([nH]5)c(-c5c(F)c(F)c(F)c(F)c5F)c5nc(c(-c6c(F)c(F)c(F)c(F)c6F)c6ccc3[nH]6)C=C5)C=C4)cc2)cs1
REMARK SMILES IDX 13 1 12 2 11 3 9 4 10 5 8 6 7 7 5 10 6 11 4 12 1 13 2 14
REMARK SMILES IDX 3 15 84 16 83 17 14 18 15 19 16 20 17 21 18 22 19 23 20 24
REMARK SMILES IDX 21 25 82 26 22 27 81 28 23 29 24 30 25 31 75 32 26 33 80 34
REMARK SMILES IDX 74 35 76 36 27 37 79 38 73 39 72 40 28 42 60 43 40 44 59 45
REMARK SMILES IDX 41 46 44 47 58 48 77 49 42 50 43 51 57 53 78 54 45 55 29 56
REMARK SMILES IDX 30 57 38 58 31 59 32 60 36 61 39 62 33 63 34 64 37 65 35 66
REMARK SMILES IDX 61 67 62 68 70 69 63 70 64 71 68 72 71 73 65 74 66 75 69 76
REMARK SMILES IDX 67 77 46 78 47 79 55 80 48 81 49 82 53 83 56 84 50 85 51 86
REMARK SMILES IDX 54 87 52 88
REMARK H PARENT 7 8 7 9 76 41 44 52
REMARK Flexibility Score: inf
ROOT
ATOM      1  C   UNL A   1      33.148  35.951  29.121  1.00  0.00     0.202 C 
ENDROOT
BRANCH   1   2
ATOM      2  C   UNL A   1      33.237  37.245  29.946  1.00  0.00     0.261 C 
BRANCH   2   3
ATOM      3  O   UNL A   1      32.692  37.062  31.260  1.00  0.00    -0.459 OA
BRANCH   3   4
ATOM      4  C   UNL A   1      33.541  37.166  32.314  1.00  0.00     0.361 C 
ATOM      5  O   UNL A   1      34.001  38.217  32.748  1.00  0.00    -0.245 OA
BRANCH   4   6
ATOM      6  C   UNL A   1      33.914  35.794  32.876  1.00  0.00     0.385 C 
BRANCH   6   7
ATOM      7  N   UNL A   1      35.168  35.272  32.304  1.00  0.00    -0.330 N 
ATOM      8  H   UNL A   1      35.059  35.223  31.292  1.00  0.00     0.347 HD
ATOM      9  H   UNL A   1      35.905  35.912  32.600  1.00  0.00     0.347 HD
BRANCH   7  10
ATOM     10  C   UNL A   1      35.563  33.938  32.786  1.00  0.00     0.230 C 
ATOM     11  C   UNL A   1      36.020  33.115  31.581  1.00  0.00     0.082 C 
BRANCH  10  12
ATOM     12  C   UNL A   1      36.631  33.987  33.864  1.00  0.00     0.108 A 
ATOM     13  C   UNL A   1      37.637  33.057  37.275  1.00  0.00     0.079 C 
ATOM     14  C   UNL A   1      37.488  33.586  35.888  1.00  0.00     0.090 A 
ATOM     15  N   UNL A   1      36.401  33.495  35.149  1.00  0.00    -0.240 NA
ATOM     16  S   UNL A   1      38.824  34.341  35.126  1.00  0.00    -0.127 S 
ATOM     17  C   UNL A   1      37.892  34.534  33.706  1.00  0.00     0.096 A 
ENDBRANCH  10  12
ENDBRANCH   7  10
ENDBRANCH   6   7
ENDBRANCH   4   6
ENDBRANCH   3   4
ENDBRANCH   2   3
ENDBRANCH   1   2
BRANCH   1  18
ATOM     18  O   UNL A   1      34.134  34.973  29.457  1.00  0.00    -0.374 OA
BRANCH  18  19
ATOM     19  C   UNL A   1      34.655  34.267  28.320  1.00  0.00     0.202 C 
BRANCH  19  20
ATOM     20  C   UNL A   1      33.781  33.088  27.868  1.00  0.00     0.261 C 
BRANCH  20  21
ATOM     21  O   UNL A   1      34.056  31.932  28.692  1.00  0.00    -0.460 OA
BRANCH  21  22
ATOM     22  C   UNL A   1      34.642  30.890  28.064  1.00  0.00     0.338 C 
ATOM     23  O   UNL A   1      34.297  30.385  27.006  1.00  0.00    -0.246 OA
BRANCH  22  24
ATOM     24  C   UNL A   1      35.912  30.534  28.741  1.00  0.00     0.060 A 
ATOM     25  C   UNL A   1      37.086  31.093  28.225  1.00  0.00     0.016 A 
ATOM     26  C   UNL A   1      35.982  29.649  29.821  1.00  0.00     0.016 A 
ATOM     27  C   UNL A   1      38.320  30.810  28.811  1.00  0.00     0.010 A 
ATOM     28  C   UNL A   1      37.233  29.325  30.382  1.00  0.00     0.010 A 
ATOM     29  C   UNL A   1      38.412  29.899  29.874  1.00  0.00    -0.014 A 
BRANCH  29  30
ATOM     30  C   UNL A   1      39.764  29.411  30.264  1.00  0.00     0.031 A 
ATOM     31  C   UNL A   1      40.444  30.080  31.429  1.00  0.00     0.074 A 
ATOM     32  C   UNL A   1      40.342  28.336  29.693  1.00  0.00     0.049 A 
ATOM     33  N   UNL A   1      41.573  29.781  32.022  1.00  0.00    -0.248 NA
ATOM     34  C   UNL A   1      39.733  31.223  32.025  1.00  0.00     0.031 C 
ATOM     35  C   UNL A   1      39.762  27.535  28.622  1.00  0.00     0.029 A 
ATOM     36  N   UNL A   1      41.543  27.718  29.961  1.00  0.00    -0.354 N 
ATOM     37  C   UNL A   1      41.691  30.681  33.073  1.00  0.00     0.074 A 
ATOM     38  C   UNL A   1      40.527  31.539  33.034  1.00  0.00     0.031 C 
ATOM     39  C   UNL A   1      40.601  26.525  28.326  1.00  0.00     0.029 A 
ATOM     40  C   UNL A   1      41.798  26.628  29.162  1.00  0.00     0.049 A 
ATOM     41  H   UNL A   1      42.164  28.028  30.660  1.00  0.00     0.167 HD
ATOM     42  C   UNL A   1      42.683  30.792  33.987  1.00  0.00     0.037 A 
ATOM     43  C   UNL A   1      42.878  25.821  29.103  1.00  0.00     0.037 A 
ATOM     44  C   UNL A   1      43.877  29.993  33.998  1.00  0.00     0.049 A 
ATOM     45  C   UNL A   1      44.040  26.062  30.041  1.00  0.00     0.074 A 
ATOM     46  C   UNL A   1      44.972  30.089  34.839  1.00  0.00     0.029 A 
ATOM     47  N   UNL A   1      44.143  28.966  33.107  1.00  0.00    -0.354 N 
ATOM     48  N   UNL A   1      44.147  26.919  31.028  1.00  0.00    -0.248 NA
ATOM     49  C   UNL A   1      45.237  25.226  29.849  1.00  0.00     0.031 C 
ATOM     50  C   UNL A   1      45.924  29.152  34.424  1.00  0.00     0.029 A 
ATOM     51  C   UNL A   1      45.399  28.438  33.359  1.00  0.00     0.049 A 
ATOM     52  H   UNL A   1      43.531  28.656  32.402  1.00  0.00     0.167 HD
ATOM     53  C   UNL A   1      45.404  26.711  31.585  1.00  0.00     0.074 A 
ATOM     54  C   UNL A   1      46.019  25.635  30.839  1.00  0.00     0.031 C 
ATOM     55  C   UNL A   1      45.997  27.357  32.618  1.00  0.00     0.037 A 
BRANCH  42  56
ATOM     56  C   UNL A   1      42.539  31.881  35.005  1.00  0.00     0.064 A 
ATOM     57  C   UNL A   1      41.914  31.655  36.240  1.00  0.00     0.173 A 
ATOM     58  C   UNL A   1      43.013  33.171  34.731  1.00  0.00     0.173 A 
ATOM     59  F   UNL A   1      41.423  30.442  36.537  1.00  0.00    -0.203 F 
ATOM     60  C   UNL A   1      41.745  32.693  37.154  1.00  0.00     0.198 A 
ATOM     61  C   UNL A   1      42.864  34.200  35.656  1.00  0.00     0.198 A 
ATOM     62  F   UNL A   1      43.613  33.435  33.560  1.00  0.00    -0.203 F 
ATOM     63  F   UNL A   1      41.098  32.470  38.307  1.00  0.00    -0.200 F 
ATOM     64  C   UNL A   1      42.222  33.961  36.862  1.00  0.00     0.200 A 
ATOM     65  F   UNL A   1      43.328  35.425  35.373  1.00  0.00    -0.200 F 
ATOM     66  F   UNL A   1      42.052  34.961  37.738  1.00  0.00    -0.200 F 
ENDBRANCH  42  56
BRANCH  43  67
ATOM     67  C   UNL A   1      42.958  24.729  28.091  1.00  0.00     0.064 A 
ATOM     68  C   UNL A   1      43.243  25.000  26.744  1.00  0.00     0.173 A 
ATOM     69  C   UNL A   1      42.675  23.399  28.438  1.00  0.00     0.173 A 
ATOM     70  F   UNL A   1      43.482  26.259  26.349  1.00  0.00    -0.203 F 
ATOM     71  C   UNL A   1      43.218  23.988  25.783  1.00  0.00     0.198 A 
ATOM     72  C   UNL A   1      42.681  22.385  27.481  1.00  0.00     0.198 A 
ATOM     73  F   UNL A   1      42.378  23.084  29.707  1.00  0.00    -0.203 F 
ATOM     74  F   UNL A   1      43.430  24.286  24.493  1.00  0.00    -0.200 F 
ATOM     75  C   UNL A   1      42.942  22.682  26.153  1.00  0.00     0.200 A 
ATOM     76  F   UNL A   1      42.418  21.122  27.847  1.00  0.00    -0.200 F 
ATOM     77  F   UNL A   1      42.911  21.711  25.229  1.00  0.00    -0.200 F 
ENDBRANCH  43  67
BRANCH  55  78
ATOM     78  C   UNL A   1      47.369  26.908  33.032  1.00  0.00     0.064 A 
ATOM     79  C   UNL A   1      47.558  25.848  33.931  1.00  0.00     0.173 A 
ATOM     80  C   UNL A   1      48.510  27.500  32.468  1.00  0.00     0.173 A 
ATOM     81  F   UNL A   1      46.501  25.256  34.508  1.00  0.00    -0.203 F 
ATOM     82  C   UNL A   1      48.838  25.410  34.264  1.00  0.00     0.198 A 
ATOM     83  C   UNL A   1      49.787  27.042  32.781  1.00  0.00     0.198 A 
ATOM     84  F   UNL A   1      48.385  28.511  31.595  1.00  0.00    -0.203 F 
ATOM     85  F   UNL A   1      48.995  24.420  35.154  1.00  0.00    -0.200 F 
ATOM     86  C   UNL A   1      49.949  26.001  33.682  1.00  0.00     0.200 A 
ATOM     87  F   UNL A   1      50.859  27.604  32.207  1.00  0.00    -0.200 F 
ATOM     88  F   UNL A   1      51.180  25.569  33.994  1.00  0.00    -0.200 F 
ENDBRANCH  55  78
ENDBRANCH  29  30
ENDBRANCH  22  24
ENDBRANCH  21  22
ENDBRANCH  20  21
ENDBRANCH  19  20
ENDBRANCH  18  19
ENDBRANCH   1  18
TORSDOF 17
ENDMDL
