MODEL 1
REMARK VINA RESULT:     -10.1      0.000      0.000
REMARK SMILES O=C(OCCOCCOC(=O)c1[nH]c2ccc(Cl)cc2c1-c1ccccc1)c1ccc(-c2c3nc(c(-c4c(F)c(F)c(F)c(F)c4F)c4ccc([nH]4)c(-c4c(F)c(F)c(F)c(F)c4F)c4nc(c(-c5c(F)c(F)c(F)c(F)c5F)c5ccc2[nH]5)C=C4)C=C3)cc1
REMARK SMILES IDX 5 1 4 2 3 3 2 4 1 5 28 6 29 7 90 8 30 9 89 10 31 11 32 12
REMARK SMILES IDX 33 13 83 14 34 15 88 16 82 17 84 18 35 19 87 20 81 21 80 22
REMARK SMILES IDX 36 24 68 25 48 26 67 27 49 28 52 29 66 30 85 31 50 32 51 33
REMARK SMILES IDX 65 35 86 36 53 37 37 38 38 39 46 40 39 41 40 42 44 43 47 44
REMARK SMILES IDX 41 45 42 46 45 47 43 48 69 49 70 50 78 51 71 52 72 53 76 54
REMARK SMILES IDX 79 55 73 56 74 57 77 58 75 59 54 60 55 61 63 62 56 63 57 64
REMARK SMILES IDX 61 65 64 66 58 67 59 68 62 69 60 70 6 71 7 72 8 73 9 74
REMARK SMILES IDX 10 75 11 76 12 77 13 78 21 79 14 80 20 82 15 83 19 84 16 85
REMARK SMILES IDX 17 86 18 87 22 88 23 89 27 90 24 91 26 92 25 93
REMARK H PARENT 84 23 52 34 13 81
REMARK Flexibility Score: inf
ROOT
ATOM      1  C   UNL A   1      31.471  31.722  26.884  1.00  0.00     0.202 C 
ENDROOT
BRANCH   1   2
ATOM      2  C   UNL A   1      32.280  33.001  26.661  1.00  0.00     0.261 C 
BRANCH   2   3
ATOM      3  O   UNL A   1      32.151  33.875  27.797  1.00  0.00    -0.460 OA
BRANCH   3   4
ATOM      4  C   UNL A   1      33.107  34.489  28.531  1.00  0.00     0.338 C 
ATOM      5  O   UNL A   1      33.005  35.704  28.702  1.00  0.00    -0.246 OA
BRANCH   4   6
ATOM      6  C   UNL A   1      34.294  33.808  29.144  1.00  0.00     0.060 A 
ATOM      7  C   UNL A   1      34.275  32.603  29.849  1.00  0.00     0.016 A 
ATOM      8  C   UNL A   1      35.553  34.396  28.903  1.00  0.00     0.016 A 
ATOM      9  C   UNL A   1      35.445  32.018  30.323  1.00  0.00     0.010 A 
ATOM     10  C   UNL A   1      36.739  33.802  29.353  1.00  0.00     0.010 A 
ATOM     11  C   UNL A   1      36.682  32.611  30.077  1.00  0.00    -0.014 A 
BRANCH  11  12
ATOM     12  C   UNL A   1      37.875  31.975  30.664  1.00  0.00     0.031 A 
ATOM     13  C   UNL A   1      38.206  32.247  32.098  1.00  0.00     0.074 A 
ATOM     14  C   UNL A   1      38.536  31.040  29.959  1.00  0.00     0.049 A 
ATOM     15  N   UNL A   1      39.134  31.716  32.849  1.00  0.00    -0.248 NA
ATOM     16  C   UNL A   1      37.358  33.234  32.788  1.00  0.00     0.031 C 
ATOM     17  C   UNL A   1      38.222  30.647  28.584  1.00  0.00     0.029 A 
ATOM     18  N   UNL A   1      39.573  30.217  30.312  1.00  0.00    -0.354 N 
ATOM     19  C   UNL A   1      38.975  32.293  34.100  1.00  0.00     0.074 A 
ATOM     20  C   UNL A   1      37.877  33.231  34.006  1.00  0.00     0.031 C 
ATOM     21  C   UNL A   1      39.027  29.636  28.222  1.00  0.00     0.029 A 
ATOM     22  C   UNL A   1      39.938  29.336  29.323  1.00  0.00     0.049 A 
ATOM     23  H   UNL A   1      40.016  30.254  31.191  1.00  0.00     0.167 HD
ATOM     24  C   UNL A   1      39.684  32.053  35.227  1.00  0.00     0.037 A 
ATOM     25  C   UNL A   1      40.903  28.399  29.315  1.00  0.00     0.037 A 
ATOM     26  C   UNL A   1      40.795  31.145  35.294  1.00  0.00     0.049 A 
ATOM     27  C   UNL A   1      41.730  28.215  30.560  1.00  0.00     0.074 A 
ATOM     28  C   UNL A   1      41.663  30.908  36.343  1.00  0.00     0.029 A 
ATOM     29  N   UNL A   1      41.189  30.318  34.249  1.00  0.00    -0.354 N 
ATOM     30  N   UNL A   1      41.615  28.809  31.724  1.00  0.00    -0.248 NA
ATOM     31  C   UNL A   1      42.823  27.236  30.490  1.00  0.00     0.031 C 
ATOM     32  C   UNL A   1      42.600  29.955  35.924  1.00  0.00     0.029 A 
ATOM     33  C   UNL A   1      42.293  29.573  34.627  1.00  0.00     0.049 A 
ATOM     34  H   UNL A   1      40.748  30.269  33.371  1.00  0.00     0.167 HD
ATOM     35  C   UNL A   1      42.619  28.282  32.523  1.00  0.00     0.074 A 
ATOM     36  C   UNL A   1      43.309  27.291  31.723  1.00  0.00     0.031 C 
ATOM     37  C   UNL A   1      42.955  28.599  33.798  1.00  0.00     0.037 A 
BRANCH  24  38
ATOM     38  C   UNL A   1      39.296  32.830  36.447  1.00  0.00     0.064 A 
ATOM     39  C   UNL A   1      39.857  34.086  36.723  1.00  0.00     0.173 A 
ATOM     40  C   UNL A   1      38.382  32.300  37.368  1.00  0.00     0.173 A 
ATOM     41  F   UNL A   1      40.760  34.621  35.887  1.00  0.00    -0.203 F 
ATOM     42  C   UNL A   1      39.532  34.773  37.890  1.00  0.00     0.198 A 
ATOM     43  C   UNL A   1      38.044  32.998  38.524  1.00  0.00     0.198 A 
ATOM     44  F   UNL A   1      37.827  31.097  37.154  1.00  0.00    -0.203 F 
ATOM     45  F   UNL A   1      40.117  35.948  38.160  1.00  0.00    -0.200 F 
ATOM     46  C   UNL A   1      38.625  34.230  38.789  1.00  0.00     0.200 A 
ATOM     47  F   UNL A   1      37.171  32.471  39.393  1.00  0.00    -0.200 F 
ATOM     48  F   UNL A   1      38.322  34.886  39.917  1.00  0.00    -0.200 F 
ENDBRANCH  24  38
BRANCH  25  49
ATOM     49  C   UNL A   1      41.158  27.594  28.092  1.00  0.00     0.064 A 
ATOM     50  C   UNL A   1      40.551  26.347  27.896  1.00  0.00     0.173 A 
ATOM     51  C   UNL A   1      42.034  28.052  27.095  1.00  0.00     0.173 A 
ATOM     52  F   UNL A   1      39.725  25.850  28.828  1.00  0.00    -0.203 F 
ATOM     53  C   UNL A   1      40.823  25.582  26.762  1.00  0.00     0.198 A 
ATOM     54  C   UNL A   1      42.282  27.302  25.948  1.00  0.00     0.198 A 
ATOM     55  F   UNL A   1      42.646  29.238  27.232  1.00  0.00    -0.203 F 
ATOM     56  F   UNL A   1      40.265  24.371  26.623  1.00  0.00    -0.200 F 
ATOM     57  C   UNL A   1      41.683  26.063  25.786  1.00  0.00     0.200 A 
ATOM     58  F   UNL A   1      43.105  27.777  25.003  1.00  0.00    -0.200 F 
ATOM     59  F   UNL A   1      41.943  25.328  24.696  1.00  0.00    -0.200 F 
ENDBRANCH  25  49
BRANCH  37  60
ATOM     60  C   UNL A   1      44.120  27.868  34.389  1.00  0.00     0.064 A 
ATOM     61  C   UNL A   1      43.950  26.637  35.041  1.00  0.00     0.173 A 
ATOM     62  C   UNL A   1      45.419  28.383  34.276  1.00  0.00     0.173 A 
ATOM     63  F   UNL A   1      42.723  26.114  35.185  1.00  0.00    -0.203 F 
ATOM     64  C   UNL A   1      45.038  25.960  35.579  1.00  0.00     0.198 A 
ATOM     65  C   UNL A   1      46.507  27.691  34.795  1.00  0.00     0.198 A 
ATOM     66  F   UNL A   1      45.629  29.555  33.657  1.00  0.00    -0.203 F 
ATOM     67  F   UNL A   1      44.849  24.805  36.234  1.00  0.00    -0.200 F 
ATOM     68  C   UNL A   1      46.316  26.484  35.452  1.00  0.00     0.200 A 
ATOM     69  F   UNL A   1      47.743  28.194  34.665  1.00  0.00    -0.200 F 
ATOM     70  F   UNL A   1      47.363  25.829  35.969  1.00  0.00    -0.200 F 
ENDBRANCH  37  60
ENDBRANCH  11  12
ENDBRANCH   4   6
ENDBRANCH   3   4
ENDBRANCH   2   3
ENDBRANCH   1   2
BRANCH   1  71
ATOM     71  O   UNL A   1      32.296  30.568  27.035  1.00  0.00    -0.374 OA
BRANCH  71  72
ATOM     72  C   UNL A   1      31.788  29.365  26.446  1.00  0.00     0.202 C 
BRANCH  72  73
ATOM     73  C   UNL A   1      32.002  28.210  27.426  1.00  0.00     0.261 C 
BRANCH  73  74
ATOM     74  O   UNL A   1      30.942  27.266  27.242  1.00  0.00    -0.459 OA
BRANCH  74  75
ATOM     75  C   UNL A   1      30.976  26.529  26.101  1.00  0.00     0.355 C 
ATOM     76  O   UNL A   1      30.343  26.756  25.078  1.00  0.00    -0.244 OA
BRANCH  75  77
ATOM     77  C   UNL A   1      32.028  25.548  26.205  1.00  0.00     0.134 A 
ATOM     78  N   UNL A   1      32.002  24.580  27.180  1.00  0.00    -0.349 N 
ATOM     79  C   UNL A   1      33.148  25.299  25.418  1.00  0.00     0.022 A 
ATOM     80  C   UNL A   1      32.924  23.597  26.913  1.00  0.00     0.047 A 
ATOM     81  H   UNL A   1      31.405  24.589  27.963  1.00  0.00     0.167 HD
ATOM     82  C   UNL A   1      33.693  24.042  25.835  1.00  0.00     0.010 A 
ATOM     83  C   UNL A   1      33.125  22.362  27.540  1.00  0.00     0.028 A 
ATOM     84  C   UNL A   1      34.751  23.224  25.386  1.00  0.00     0.031 A 
ATOM     85  C   UNL A   1      34.159  21.556  27.057  1.00  0.00     0.022 A 
ATOM     86  C   UNL A   1      34.964  21.987  26.005  1.00  0.00     0.041 A 
ATOM     87  Cl  UNL A   1      36.239  20.971  25.448  1.00  0.00    -0.084 Cl
BRANCH  79  88
ATOM     88  C   UNL A   1      33.507  26.162  24.301  1.00  0.00    -0.015 A 
ATOM     89  C   UNL A   1      33.869  27.497  24.540  1.00  0.00     0.009 A 
ATOM     90  C   UNL A   1      33.334  25.721  22.985  1.00  0.00     0.009 A 
ATOM     91  C   UNL A   1      33.991  28.396  23.479  1.00  0.00     0.001 A 
ATOM     92  C   UNL A   1      33.469  26.622  21.924  1.00  0.00     0.001 A 
ATOM     93  C   UNL A   1      33.780  27.959  22.173  1.00  0.00     0.000 A 
ENDBRANCH  79  88
ENDBRANCH  75  77
ENDBRANCH  74  75
ENDBRANCH  73  74
ENDBRANCH  72  73
ENDBRANCH  71  72
ENDBRANCH   1  71
TORSDOF 15
ENDMDL
MODEL 2
REMARK VINA RESULT:     -10.1      4.041      7.738
REMARK SMILES O=C(OCCOCCOC(=O)c1[nH]c2ccc(Cl)cc2c1-c1ccccc1)c1ccc(-c2c3nc(c(-c4c(F)c(F)c(F)c(F)c4F)c4ccc([nH]4)c(-c4c(F)c(F)c(F)c(F)c4F)c4nc(c(-c5c(F)c(F)c(F)c(F)c5F)c5ccc2[nH]5)C=C4)C=C3)cc1
REMARK SMILES IDX 5 1 4 2 3 3 2 4 1 5 28 6 29 7 90 8 30 9 89 10 31 11 32 12
REMARK SMILES IDX 33 13 83 14 34 15 88 16 82 17 84 18 35 19 87 20 81 21 80 22
REMARK SMILES IDX 36 24 68 25 48 26 67 27 49 28 52 29 66 30 85 31 50 32 51 33
REMARK SMILES IDX 65 35 86 36 53 37 37 38 38 39 46 40 39 41 40 42 44 43 47 44
REMARK SMILES IDX 41 45 42 46 45 47 43 48 69 49 70 50 78 51 71 52 72 53 76 54
REMARK SMILES IDX 79 55 73 56 74 57 77 58 75 59 54 60 55 61 63 62 56 63 57 64
REMARK SMILES IDX 61 65 64 66 58 67 59 68 62 69 60 70 6 71 7 72 8 73 9 74
REMARK SMILES IDX 10 75 11 76 12 77 13 78 21 79 14 80 20 82 15 83 19 84 16 85
REMARK SMILES IDX 17 86 18 87 22 88 23 89 27 90 24 91 26 92 25 93
REMARK H PARENT 84 23 52 34 13 81
REMARK Flexibility Score: inf
ROOT
ATOM      1  C   UNL A   1      34.458  33.782  29.284  1.00  0.00     0.202 C 
ENDROOT
BRANCH   1   2
ATOM      2  C   UNL A   1      35.065  33.096  28.059  1.00  0.00     0.261 C 
BRANCH   2   3
ATOM      3  O   UNL A   1      34.328  31.903  27.740  1.00  0.00    -0.460 OA
BRANCH   3   4
ATOM      4  C   UNL A   1      34.728  30.611  27.739  1.00  0.00     0.338 C 
ATOM      5  O   UNL A   1      33.945  29.770  27.297  1.00  0.00    -0.246 OA
BRANCH   4   6
ATOM      6  C   UNL A   1      36.050  30.117  28.247  1.00  0.00     0.060 A 
ATOM      7  C   UNL A   1      36.274  29.495  29.477  1.00  0.00     0.016 A 
ATOM      8  C   UNL A   1      37.141  30.210  27.360  1.00  0.00     0.016 A 
ATOM      9  C   UNL A   1      37.531  29.012  29.830  1.00  0.00     0.010 A 
ATOM     10  C   UNL A   1      38.403  29.703  27.694  1.00  0.00     0.010 A 
ATOM     11  C   UNL A   1      38.601  29.110  28.942  1.00  0.00    -0.014 A 
BRANCH  11  12
ATOM     12  C   UNL A   1      39.919  28.639  29.404  1.00  0.00     0.031 A 
ATOM     13  C   UNL A   1      40.575  29.341  30.551  1.00  0.00     0.074 A 
ATOM     14  C   UNL A   1      40.420  27.495  28.904  1.00  0.00     0.049 A 
ATOM     15  N   UNL A   1      41.671  29.035  31.191  1.00  0.00    -0.248 NA
ATOM     16  C   UNL A   1      39.886  30.537  31.064  1.00  0.00     0.031 C 
ATOM     17  C   UNL A   1      39.798  26.698  27.846  1.00  0.00     0.029 A 
ATOM     18  N   UNL A   1      41.537  26.780  29.249  1.00  0.00    -0.354 N 
ATOM     19  C   UNL A   1      41.799  29.990  32.189  1.00  0.00     0.074 A 
ATOM     20  C   UNL A   1      40.682  30.901  32.058  1.00  0.00     0.031 C 
ATOM     21  C   UNL A   1      40.524  25.585  27.651  1.00  0.00     0.029 A 
ATOM     22  C   UNL A   1      41.680  25.611  28.542  1.00  0.00     0.049 A 
ATOM     23  H   UNL A   1      42.176  27.075  29.938  1.00  0.00     0.167 HD
ATOM     24  C   UNL A   1      42.764  30.091  33.132  1.00  0.00     0.037 A 
ATOM     25  C   UNL A   1      42.645  24.674  28.610  1.00  0.00     0.037 A 
ATOM     26  C   UNL A   1      43.887  29.199  33.223  1.00  0.00     0.049 A 
ATOM     27  C   UNL A   1      43.751  24.860  29.614  1.00  0.00     0.074 A 
ATOM     28  C   UNL A   1      44.987  29.269  34.056  1.00  0.00     0.029 A 
ATOM     29  N   UNL A   1      44.044  28.062  32.441  1.00  0.00    -0.354 N 
ATOM     30  N   UNL A   1      43.900  25.802  30.515  1.00  0.00    -0.248 NA
ATOM     31  C   UNL A   1      44.825  23.858  29.609  1.00  0.00     0.031 C 
ATOM     32  C   UNL A   1      45.826  28.187  33.760  1.00  0.00     0.029 A 
ATOM     33  C   UNL A   1      45.229  27.425  32.768  1.00  0.00     0.049 A 
ATOM     34  H   UNL A   1      43.407  27.754  31.757  1.00  0.00     0.167 HD
ATOM     35  C   UNL A   1      45.081  25.511  31.181  1.00  0.00     0.074 A 
ATOM     36  C   UNL A   1      45.590  24.282  30.606  1.00  0.00     0.031 C 
ATOM     37  C   UNL A   1      45.703  26.204  32.167  1.00  0.00     0.037 A 
BRANCH  24  38
ATOM     38  C   UNL A   1      42.656  31.236  34.089  1.00  0.00     0.064 A 
ATOM     39  C   UNL A   1      43.173  32.503  33.776  1.00  0.00     0.173 A 
ATOM     40  C   UNL A   1      42.063  31.060  35.347  1.00  0.00     0.173 A 
ATOM     41  F   UNL A   1      43.777  32.712  32.597  1.00  0.00    -0.203 F 
ATOM     42  C   UNL A   1      43.118  33.545  34.698  1.00  0.00     0.198 A 
ATOM     43  C   UNL A   1      41.992  32.110  36.259  1.00  0.00     0.198 A 
ATOM     44  F   UNL A   1      41.565  29.865  35.697  1.00  0.00    -0.203 F 
ATOM     45  F   UNL A   1      43.662  34.733  34.398  1.00  0.00    -0.200 F 
ATOM     46  C   UNL A   1      42.526  33.349  35.937  1.00  0.00     0.200 A 
ATOM     47  F   UNL A   1      41.423  31.917  37.457  1.00  0.00    -0.200 F 
ATOM     48  F   UNL A   1      42.484  34.349  36.828  1.00  0.00    -0.200 F 
ENDBRANCH  24  38
BRANCH  25  49
ATOM     49  C   UNL A   1      42.624  23.507  27.690  1.00  0.00     0.064 A 
ATOM     50  C   UNL A   1      43.187  23.574  26.409  1.00  0.00     0.173 A 
ATOM     51  C   UNL A   1      42.020  22.298  28.070  1.00  0.00     0.173 A 
ATOM     52  F   UNL A   1      43.754  24.713  25.985  1.00  0.00    -0.203 F 
ATOM     53  C   UNL A   1      43.132  22.486  25.538  1.00  0.00     0.198 A 
ATOM     54  C   UNL A   1      41.992  21.201  27.212  1.00  0.00     0.198 A 
ATOM     55  F   UNL A   1      41.462  22.179  29.284  1.00  0.00    -0.203 F 
ATOM     56  F   UNL A   1      43.636  22.593  24.301  1.00  0.00    -0.200 F 
ATOM     57  C   UNL A   1      42.540  21.298  25.943  1.00  0.00     0.200 A 
ATOM     58  F   UNL A   1      41.429  20.053  27.614  1.00  0.00    -0.200 F 
ATOM     59  F   UNL A   1      42.488  20.252  25.107  1.00  0.00    -0.200 F 
ENDBRANCH  25  49
BRANCH  37  60
ATOM     60  C   UNL A   1      46.998  25.645  32.669  1.00  0.00     0.064 A 
ATOM     61  C   UNL A   1      48.216  25.971  32.055  1.00  0.00     0.173 A 
ATOM     62  C   UNL A   1      47.025  24.802  33.789  1.00  0.00     0.173 A 
ATOM     63  F   UNL A   1      48.235  26.762  30.972  1.00  0.00    -0.203 F 
ATOM     64  C   UNL A   1      49.415  25.454  32.533  1.00  0.00     0.198 A 
ATOM     65  C   UNL A   1      48.229  24.306  34.278  1.00  0.00     0.198 A 
ATOM     66  F   UNL A   1      45.885  24.466  34.410  1.00  0.00    -0.203 F 
ATOM     67  F   UNL A   1      50.565  25.747  31.907  1.00  0.00    -0.200 F 
ATOM     68  C   UNL A   1      49.422  24.627  33.646  1.00  0.00     0.200 A 
ATOM     69  F   UNL A   1      48.236  23.513  35.358  1.00  0.00    -0.200 F 
ATOM     70  F   UNL A   1      50.579  24.133  34.106  1.00  0.00    -0.200 F 
ENDBRANCH  37  60
ENDBRANCH  11  12
ENDBRANCH   4   6
ENDBRANCH   3   4
ENDBRANCH   2   3
ENDBRANCH   1   2
BRANCH   1  71
ATOM     71  O   UNL A   1      33.940  32.854  30.236  1.00  0.00    -0.374 OA
BRANCH  71  72
ATOM     72  C   UNL A   1      34.870  32.403  31.228  1.00  0.00     0.202 C 
BRANCH  72  73
ATOM     73  C   UNL A   1      34.478  33.006  32.578  1.00  0.00     0.261 C 
BRANCH  73  74
ATOM     74  O   UNL A   1      35.675  33.408  33.252  1.00  0.00    -0.459 OA
BRANCH  74  75
ATOM     75  C   UNL A   1      36.182  34.624  32.917  1.00  0.00     0.355 C 
ATOM     76  O   UNL A   1      35.709  35.710  33.222  1.00  0.00    -0.244 OA
BRANCH  75  77
ATOM     77  C   UNL A   1      37.480  34.443  32.313  1.00  0.00     0.134 A 
ATOM     78  N   UNL A   1      37.640  34.483  30.948  1.00  0.00    -0.349 N 
ATOM     79  C   UNL A   1      38.747  34.282  32.864  1.00  0.00     0.022 A 
ATOM     80  C   UNL A   1      38.970  34.584  30.619  1.00  0.00     0.047 A 
ATOM     81  H   UNL A   1      36.904  34.446  30.297  1.00  0.00     0.167 HD
ATOM     82  C   UNL A   1      39.696  34.414  31.800  1.00  0.00     0.010 A 
ATOM     83  C   UNL A   1      39.571  34.812  29.376  1.00  0.00     0.028 A 
ATOM     84  C   UNL A   1      41.105  34.432  31.727  1.00  0.00     0.031 A 
ATOM     85  C   UNL A   1      40.967  34.856  29.334  1.00  0.00     0.022 A 
ATOM     86  C   UNL A   1      41.719  34.658  30.489  1.00  0.00     0.041 A 
ATOM     87  Cl  UNL A   1      43.438  34.704  30.394  1.00  0.00    -0.084 Cl
BRANCH  79  88
ATOM     88  C   UNL A   1      38.948  34.162  34.301  1.00  0.00    -0.015 A 
ATOM     89  C   UNL A   1      38.576  32.980  34.961  1.00  0.00     0.009 A 
ATOM     90  C   UNL A   1      39.352  35.270  35.053  1.00  0.00     0.009 A 
ATOM     91  C   UNL A   1      38.544  32.930  36.355  1.00  0.00     0.001 A 
ATOM     92  C   UNL A   1      39.331  35.212  36.449  1.00  0.00     0.001 A 
ATOM     93  C   UNL A   1      38.911  34.050  37.098  1.00  0.00     0.000 A 
ENDBRANCH  79  88
ENDBRANCH  75  77
ENDBRANCH  74  75
ENDBRANCH  73  74
ENDBRANCH  72  73
ENDBRANCH  71  72
ENDBRANCH   1  71
TORSDOF 15
ENDMDL
MODEL 3
REMARK VINA RESULT:     -10.0      4.730      9.838
REMARK SMILES O=C(OCCOCCOC(=O)c1[nH]c2ccc(Cl)cc2c1-c1ccccc1)c1ccc(-c2c3nc(c(-c4c(F)c(F)c(F)c(F)c4F)c4ccc([nH]4)c(-c4c(F)c(F)c(F)c(F)c4F)c4nc(c(-c5c(F)c(F)c(F)c(F)c5F)c5ccc2[nH]5)C=C4)C=C3)cc1
REMARK SMILES IDX 5 1 4 2 3 3 2 4 1 5 28 6 29 7 90 8 30 9 89 10 31 11 32 12
REMARK SMILES IDX 33 13 83 14 34 15 88 16 82 17 84 18 35 19 87 20 81 21 80 22
REMARK SMILES IDX 36 24 68 25 48 26 67 27 49 28 52 29 66 30 85 31 50 32 51 33
REMARK SMILES IDX 65 35 86 36 53 37 37 38 38 39 46 40 39 41 40 42 44 43 47 44
REMARK SMILES IDX 41 45 42 46 45 47 43 48 69 49 70 50 78 51 71 52 72 53 76 54
REMARK SMILES IDX 79 55 73 56 74 57 77 58 75 59 54 60 55 61 63 62 56 63 57 64
REMARK SMILES IDX 61 65 64 66 58 67 59 68 62 69 60 70 6 71 7 72 8 73 9 74
REMARK SMILES IDX 10 75 11 76 12 77 13 78 21 79 14 80 20 82 15 83 19 84 16 85
REMARK SMILES IDX 17 86 18 87 22 88 23 89 27 90 24 91 26 92 25 93
REMARK H PARENT 84 23 52 34 13 81
REMARK Flexibility Score: inf
ROOT
ATOM      1  C   UNL A   1      35.358  20.351  25.125  1.00  0.00     0.202 C 
ENDROOT
BRANCH   1   2
ATOM      2  C   UNL A   1      36.872  20.168  24.997  1.00  0.00     0.261 C 
BRANCH   2   3
ATOM      3  O   UNL A   1      37.560  21.133  25.812  1.00  0.00    -0.460 OA
BRANCH   3   4
ATOM      4  C   UNL A   1      38.874  21.230  26.116  1.00  0.00     0.338 C 
ATOM      5  O   UNL A   1      39.573  20.229  25.960  1.00  0.00    -0.246 OA
BRANCH   4   6
ATOM      6  C   UNL A   1      39.548  22.461  26.646  1.00  0.00     0.060 A 
ATOM      7  C   UNL A   1      40.624  22.488  27.536  1.00  0.00     0.016 A 
ATOM      8  C   UNL A   1      39.110  23.694  26.123  1.00  0.00     0.016 A 
ATOM      9  C   UNL A   1      41.223  23.685  27.917  1.00  0.00     0.010 A 
ATOM     10  C   UNL A   1      39.723  24.902  26.480  1.00  0.00     0.010 A 
ATOM     11  C   UNL A   1      40.779  24.897  27.392  1.00  0.00    -0.014 A 
BRANCH  11  12
ATOM     12  C   UNL A   1      41.413  26.132  27.888  1.00  0.00     0.031 A 
ATOM     13  C   UNL A   1      42.840  26.404  27.528  1.00  0.00     0.074 A 
ATOM     14  C   UNL A   1      40.657  27.059  28.500  1.00  0.00     0.049 A 
ATOM     15  N   UNL A   1      43.563  27.468  27.757  1.00  0.00    -0.248 NA
ATOM     16  C   UNL A   1      43.541  25.343  26.785  1.00  0.00     0.031 C 
ATOM     17  C   UNL A   1      39.233  26.911  28.809  1.00  0.00     0.029 A 
ATOM     18  N   UNL A   1      40.961  28.324  28.929  1.00  0.00    -0.354 N 
ATOM     19  C   UNL A   1      44.797  27.211  27.178  1.00  0.00     0.074 A 
ATOM     20  C   UNL A   1      44.737  25.884  26.605  1.00  0.00     0.031 C 
ATOM     21  C   UNL A   1      38.780  28.055  29.347  1.00  0.00     0.029 A 
ATOM     22  C   UNL A   1      39.888  28.999  29.456  1.00  0.00     0.049 A 
ATOM     23  H   UNL A   1      41.864  28.713  28.866  1.00  0.00     0.167 HD
ATOM     24  C   UNL A   1      45.881  28.019  27.127  1.00  0.00     0.037 A 
ATOM     25  C   UNL A   1      39.817  30.241  29.972  1.00  0.00     0.037 A 
ATOM     26  C   UNL A   1      45.936  29.320  27.734  1.00  0.00     0.049 A 
ATOM     27  C   UNL A   1      41.065  31.084  29.976  1.00  0.00     0.074 A 
ATOM     28  C   UNL A   1      47.012  30.179  27.852  1.00  0.00     0.029 A 
ATOM     29  N   UNL A   1      44.850  29.949  28.328  1.00  0.00    -0.354 N 
ATOM     30  N   UNL A   1      42.248  30.811  29.482  1.00  0.00    -0.248 NA
ATOM     31  C   UNL A   1      40.970  32.404  30.614  1.00  0.00     0.031 C 
ATOM     32  C   UNL A   1      46.583  31.320  28.544  1.00  0.00     0.029 A 
ATOM     33  C   UNL A   1      45.232  31.185  28.822  1.00  0.00     0.049 A 
ATOM     34  H   UNL A   1      43.943  29.573  28.389  1.00  0.00     0.167 HD
ATOM     35  C   UNL A   1      43.040  31.918  29.749  1.00  0.00     0.074 A 
ATOM     36  C   UNL A   1      42.190  32.884  30.416  1.00  0.00     0.031 C 
ATOM     37  C   UNL A   1      44.355  32.116  29.486  1.00  0.00     0.037 A 
BRANCH  24  38
ATOM     38  C   UNL A   1      47.094  27.479  26.436  1.00  0.00     0.064 A 
ATOM     39  C   UNL A   1      48.074  26.758  27.136  1.00  0.00     0.173 A 
ATOM     40  C   UNL A   1      47.299  27.713  25.069  1.00  0.00     0.173 A 
ATOM     41  F   UNL A   1      47.938  26.535  28.451  1.00  0.00    -0.203 F 
ATOM     42  C   UNL A   1      49.226  26.311  26.494  1.00  0.00     0.198 A 
ATOM     43  C   UNL A   1      48.442  27.247  24.426  1.00  0.00     0.198 A 
ATOM     44  F   UNL A   1      46.396  28.407  24.360  1.00  0.00    -0.203 F 
ATOM     45  F   UNL A   1      50.174  25.668  27.190  1.00  0.00    -0.200 F 
ATOM     46  C   UNL A   1      49.409  26.554  25.140  1.00  0.00     0.200 A 
ATOM     47  F   UNL A   1      48.619  27.486  23.120  1.00  0.00    -0.200 F 
ATOM     48  F   UNL A   1      50.523  26.133  24.526  1.00  0.00    -0.200 F 
ENDBRANCH  24  38
BRANCH  25  49
ATOM     49  C   UNL A   1      38.542  30.743  30.548  1.00  0.00     0.064 A 
ATOM     50  C   UNL A   1      37.530  31.272  29.737  1.00  0.00     0.173 A 
ATOM     51  C   UNL A   1      38.318  30.721  31.934  1.00  0.00     0.173 A 
ATOM     52  F   UNL A   1      37.703  31.341  28.408  1.00  0.00    -0.203 F 
ATOM     53  C   UNL A   1      36.351  31.774  30.288  1.00  0.00     0.198 A 
ATOM     54  C   UNL A   1      37.127  31.194  32.482  1.00  0.00     0.198 A 
ATOM     55  F   UNL A   1      39.254  30.229  32.758  1.00  0.00    -0.203 F 
ATOM     56  F   UNL A   1      35.420  32.317  29.493  1.00  0.00    -0.200 F 
ATOM     57  C   UNL A   1      36.149  31.729  31.660  1.00  0.00     0.200 A 
ATOM     58  F   UNL A   1      36.933  31.137  33.807  1.00  0.00    -0.200 F 
ATOM     59  F   UNL A   1      35.016  32.210  32.189  1.00  0.00    -0.200 F 
ENDBRANCH  25  49
BRANCH  37  60
ATOM     60  C   UNL A   1      44.942  33.420  29.929  1.00  0.00     0.064 A 
ATOM     61  C   UNL A   1      45.515  33.563  31.201  1.00  0.00     0.173 A 
ATOM     62  C   UNL A   1      44.958  34.526  29.066  1.00  0.00     0.173 A 
ATOM     63  F   UNL A   1      45.508  32.536  32.064  1.00  0.00    -0.203 F 
ATOM     64  C   UNL A   1      46.065  34.776  31.602  1.00  0.00     0.198 A 
ATOM     65  C   UNL A   1      45.530  35.730  29.463  1.00  0.00     0.198 A 
ATOM     66  F   UNL A   1      44.424  34.433  27.839  1.00  0.00    -0.203 F 
ATOM     67  F   UNL A   1      46.573  34.903  32.836  1.00  0.00    -0.200 F 
ATOM     68  C   UNL A   1      46.077  35.856  30.732  1.00  0.00     0.200 A 
ATOM     69  F   UNL A   1      45.549  36.771  28.619  1.00  0.00    -0.200 F 
ATOM     70  F   UNL A   1      46.610  37.022  31.119  1.00  0.00    -0.200 F 
ENDBRANCH  37  60
ENDBRANCH  11  12
ENDBRANCH   4   6
ENDBRANCH   3   4
ENDBRANCH   2   3
ENDBRANCH   1   2
BRANCH   1  71
ATOM     71  O   UNL A   1      34.994  21.174  26.233  1.00  0.00    -0.374 OA
BRANCH  71  72
ATOM     72  C   UNL A   1      33.609  21.141  26.597  1.00  0.00     0.202 C 
BRANCH  72  73
ATOM     73  C   UNL A   1      33.352  22.223  27.647  1.00  0.00     0.261 C 
BRANCH  73  74
ATOM     74  O   UNL A   1      31.973  22.601  27.569  1.00  0.00    -0.459 OA
BRANCH  74  75
ATOM     75  C   UNL A   1      31.545  23.094  26.376  1.00  0.00     0.355 C 
ATOM     76  O   UNL A   1      30.827  22.513  25.574  1.00  0.00    -0.244 OA
BRANCH  75  77
ATOM     77  C   UNL A   1      31.901  24.489  26.288  1.00  0.00     0.134 A 
ATOM     78  N   UNL A   1      31.125  25.459  26.877  1.00  0.00    -0.349 N 
ATOM     79  C   UNL A   1      33.002  25.134  25.733  1.00  0.00     0.022 A 
ATOM     80  C   UNL A   1      31.796  26.657  26.920  1.00  0.00     0.047 A 
ATOM     81  H   UNL A   1      30.215  25.314  27.222  1.00  0.00     0.167 HD
ATOM     82  C   UNL A   1      32.963  26.498  26.168  1.00  0.00     0.010 A 
ATOM     83  C   UNL A   1      31.457  27.851  27.565  1.00  0.00     0.028 A 
ATOM     84  C   UNL A   1      33.817  27.610  26.017  1.00  0.00     0.031 A 
ATOM     85  C   UNL A   1      32.335  28.929  27.427  1.00  0.00     0.022 A 
ATOM     86  C   UNL A   1      33.489  28.811  26.657  1.00  0.00     0.041 A 
ATOM     87  Cl  UNL A   1      34.539  30.168  26.497  1.00  0.00    -0.084 Cl
BRANCH  79  88
ATOM     88  C   UNL A   1      34.022  24.407  24.991  1.00  0.00    -0.015 A 
ATOM     89  C   UNL A   1      35.355  24.430  25.433  1.00  0.00     0.009 A 
ATOM     90  C   UNL A   1      33.718  23.825  23.757  1.00  0.00     0.009 A 
ATOM     91  C   UNL A   1      36.377  23.939  24.620  1.00  0.00     0.001 A 
ATOM     92  C   UNL A   1      34.743  23.323  22.950  1.00  0.00     0.001 A 
ATOM     93  C   UNL A   1      36.071  23.396  23.374  1.00  0.00     0.000 A 
ENDBRANCH  79  88
ENDBRANCH  75  77
ENDBRANCH  74  75
ENDBRANCH  73  74
ENDBRANCH  72  73
ENDBRANCH  71  72
ENDBRANCH   1  71
TORSDOF 15
ENDMDL
