MODEL 1
REMARK VINA RESULT:     -12.4      0.000      0.000
REMARK SMILES C[C@@]1(c2ccccc2C(=O)OCCOCCOC(=O)c2ccc(-c3c4nc(c(-c5c(F)c(F)c(F)c(F)c5F)c5ccc([nH]5)c(-c5c(F)c(F)c(F)c(F)c5F)c5nc(c(-c6c(F)c(F)c(F)c(F)c6F)c6ccc3[nH]6)C=C5)C=C4)cc2)NN=C(c2ccccc2)S1
REMARK SMILES IDX 14 1 13 2 12 3 11 4 9 5 10 6 8 7 3 8 4 9 5 10 7 11 6 12 2 13
REMARK SMILES IDX 1 14 83 15 92 16 84 17 85 19 86 20 87 21 91 22 88 23 90 24
REMARK SMILES IDX 89 25 15 26 16 27 17 28 18 29 19 30 20 31 21 32 82 33 22 34
REMARK SMILES IDX 81 35 23 36 24 37 25 38 75 39 26 40 80 41 74 42 76 43 27 44
REMARK SMILES IDX 79 45 73 46 72 47 28 49 60 50 40 51 59 52 41 53 44 54 58 55
REMARK SMILES IDX 77 56 42 57 43 58 57 60 78 61 45 62 29 63 30 64 38 65 31 66
REMARK SMILES IDX 32 67 36 68 39 69 33 70 34 71 37 72 35 73 61 74 62 75 70 76
REMARK SMILES IDX 63 77 64 78 68 79 71 80 65 81 66 82 69 83 67 84 46 85 47 86
REMARK SMILES IDX 55 87 48 88 49 89 53 90 56 91 50 92 51 93 54 94 52 95
REMARK H PARENT 83 18 76 48 44 59
REMARK Flexibility Score: inf
ROOT
ATOM      1  O   UNL A   1      32.317  30.858  26.880  1.00  0.00    -0.374 OA
ENDROOT
BRANCH   1   2
ATOM      2  C   UNL A   1      33.737  30.695  26.873  1.00  0.00     0.202 C 
BRANCH   2   3
ATOM      3  C   UNL A   1      34.276  29.446  27.563  1.00  0.00     0.261 C 
BRANCH   3   4
ATOM      4  O   UNL A   1      34.376  28.362  26.620  1.00  0.00    -0.460 OA
BRANCH   4   5
ATOM      5  C   UNL A   1      33.335  27.522  26.575  1.00  0.00     0.338 C 
ATOM      6  O   UNL A   1      32.426  27.519  27.398  1.00  0.00    -0.246 OA
BRANCH   5   7
ATOM      7  C   UNL A   1      33.316  26.587  25.397  1.00  0.00     0.066 A 
ATOM      8  C   UNL A   1      32.687  26.693  24.123  1.00  0.00     0.004 A 
ATOM      9  C   UNL A   1      33.202  25.829  23.109  1.00  0.00     0.008 A 
ATOM     10  C   UNL A   1      34.080  24.778  23.373  1.00  0.00     0.000 A 
ATOM     11  C   UNL A   1      34.158  25.471  25.649  1.00  0.00     0.016 A 
ATOM     12  C   UNL A   1      34.502  24.553  24.665  1.00  0.00     0.001 A 
BRANCH   8  13
ATOM     13  C   UNL A   1      31.301  27.317  23.799  1.00  0.00     0.129 C 
ATOM     14  C   UNL A   1      30.256  26.408  24.492  1.00  0.00     0.054 C 
ATOM     15  N   UNL A   1      30.959  27.258  22.351  1.00  0.00    -0.288 NA
ATOM     16  S   UNL A   1      30.995  29.076  24.159  1.00  0.00    -0.070 SA
ATOM     17  N   UNL A   1      30.105  28.207  21.878  1.00  0.00    -0.171 NA
ATOM     18  H   UNL A   1      31.334  26.564  21.762  1.00  0.00     0.185 HD
ATOM     19  C   UNL A   1      30.069  29.210  22.695  1.00  0.00     0.126 C 
BRANCH  19  20
ATOM     20  C   UNL A   1      29.288  30.414  22.435  1.00  0.00     0.009 A 
ATOM     21  C   UNL A   1      28.767  30.655  21.163  1.00  0.00     0.011 A 
ATOM     22  C   UNL A   1      29.186  31.373  23.441  1.00  0.00     0.011 A 
ATOM     23  C   UNL A   1      28.128  31.871  20.906  1.00  0.00     0.001 A 
ATOM     24  C   UNL A   1      28.541  32.577  23.170  1.00  0.00     0.001 A 
ATOM     25  C   UNL A   1      27.998  32.822  21.913  1.00  0.00     0.000 A 
ENDBRANCH  19  20
ENDBRANCH   8  13
ENDBRANCH   5   7
ENDBRANCH   4   5
ENDBRANCH   3   4
ENDBRANCH   2   3
ENDBRANCH   1   2
BRANCH   1  26
ATOM     26  C   UNL A   1      31.842  32.202  26.924  1.00  0.00     0.202 C 
BRANCH  26  27
ATOM     27  C   UNL A   1      32.827  33.258  27.449  1.00  0.00     0.261 C 
BRANCH  27  28
ATOM     28  O   UNL A   1      32.214  34.239  28.303  1.00  0.00    -0.460 OA
BRANCH  28  29
ATOM     29  C   UNL A   1      33.040  35.233  28.726  1.00  0.00     0.338 C 
ATOM     30  O   UNL A   1      32.837  36.432  28.702  1.00  0.00    -0.246 OA
BRANCH  29  31
ATOM     31  C   UNL A   1      34.233  34.629  29.347  1.00  0.00     0.060 A 
ATOM     32  C   UNL A   1      35.456  34.635  28.665  1.00  0.00     0.016 A 
ATOM     33  C   UNL A   1      34.134  34.017  30.590  1.00  0.00     0.016 A 
ATOM     34  C   UNL A   1      36.600  34.071  29.250  1.00  0.00     0.010 A 
ATOM     35  C   UNL A   1      35.277  33.452  31.160  1.00  0.00     0.010 A 
ATOM     36  C   UNL A   1      36.538  33.486  30.523  1.00  0.00    -0.014 A 
BRANCH  36  37
ATOM     37  C   UNL A   1      37.734  32.877  31.201  1.00  0.00     0.031 A 
ATOM     38  C   UNL A   1      38.405  31.669  30.586  1.00  0.00     0.074 A 
ATOM     39  C   UNL A   1      38.167  33.294  32.413  1.00  0.00     0.049 A 
ATOM     40  N   UNL A   1      39.274  30.834  31.107  1.00  0.00    -0.248 NA
ATOM     41  C   UNL A   1      37.999  31.324  29.215  1.00  0.00     0.031 C 
ATOM     42  C   UNL A   1      37.615  34.407  33.186  1.00  0.00     0.029 A 
ATOM     43  N   UNL A   1      39.148  32.781  33.240  1.00  0.00    -0.354 N 
ATOM     44  C   UNL A   1      39.481  29.853  30.144  1.00  0.00     0.074 A 
ATOM     45  C   UNL A   1      38.582  30.147  29.049  1.00  0.00     0.031 C 
ATOM     46  C   UNL A   1      38.242  34.479  34.374  1.00  0.00     0.029 A 
ATOM     47  C   UNL A   1      39.218  33.396  34.471  1.00  0.00     0.049 A 
ATOM     48  H   UNL A   1      39.743  32.044  32.975  1.00  0.00     0.167 HD
ATOM     49  C   UNL A   1      40.369  28.828  30.138  1.00  0.00     0.037 A 
ATOM     50  C   UNL A   1      39.951  33.106  35.567  1.00  0.00     0.037 A 
ATOM     51  C   UNL A   1      41.329  28.568  31.178  1.00  0.00     0.049 A 
ATOM     52  C   UNL A   1      40.902  31.935  35.558  1.00  0.00     0.074 A 
ATOM     53  C   UNL A   1      42.353  27.636  31.190  1.00  0.00     0.029 A 
ATOM     54  N   UNL A   1      41.390  29.242  32.387  1.00  0.00    -0.354 N 
ATOM     55  N   UNL A   1      41.144  31.067  34.609  1.00  0.00    -0.248 NA
ATOM     56  C   UNL A   1      41.689  31.711  36.783  1.00  0.00     0.031 C 
ATOM     57  C   UNL A   1      43.003  27.712  32.425  1.00  0.00     0.029 A 
ATOM     58  C   UNL A   1      42.418  28.727  33.162  1.00  0.00     0.049 A 
ATOM     59  H   UNL A   1      40.792  29.976  32.655  1.00  0.00     0.167 HD
ATOM     60  C   UNL A   1      42.145  30.234  35.098  1.00  0.00     0.074 A 
ATOM     61  C   UNL A   1      42.457  30.689  36.433  1.00  0.00     0.031 C 
ATOM     62  C   UNL A   1      42.756  29.193  34.481  1.00  0.00     0.037 A 
BRANCH  49  63
ATOM     63  C   UNL A   1      40.377  27.922  28.937  1.00  0.00     0.064 A 
ATOM     64  C   UNL A   1      41.136  28.224  27.795  1.00  0.00     0.173 A 
ATOM     65  C   UNL A   1      39.653  26.720  28.942  1.00  0.00     0.173 A 
ATOM     66  F   UNL A   1      41.848  29.360  27.738  1.00  0.00    -0.203 F 
ATOM     67  C   UNL A   1      41.127  27.385  26.685  1.00  0.00     0.198 A 
ATOM     68  C   UNL A   1      39.680  25.863  27.846  1.00  0.00     0.198 A 
ATOM     69  F   UNL A   1      38.926  26.372  30.014  1.00  0.00    -0.203 F 
ATOM     70  F   UNL A   1      41.804  27.732  25.582  1.00  0.00    -0.200 F 
ATOM     71  C   UNL A   1      40.405  26.202  26.714  1.00  0.00     0.200 A 
ATOM     72  F   UNL A   1      39.000  24.708  27.882  1.00  0.00    -0.200 F 
ATOM     73  F   UNL A   1      40.404  25.392  25.646  1.00  0.00    -0.200 F 
ENDBRANCH  49  63
BRANCH  50  74
ATOM     74  C   UNL A   1      39.832  33.932  36.803  1.00  0.00     0.064 A 
ATOM     75  C   UNL A   1      38.978  33.552  37.848  1.00  0.00     0.173 A 
ATOM     76  C   UNL A   1      40.495  35.160  36.929  1.00  0.00     0.173 A 
ATOM     77  F   UNL A   1      38.275  32.415  37.752  1.00  0.00    -0.203 F 
ATOM     78  C   UNL A   1      38.785  34.375  38.957  1.00  0.00     0.198 A 
ATOM     79  C   UNL A   1      40.330  35.966  38.053  1.00  0.00     0.198 A 
ATOM     80  F   UNL A   1      41.275  35.603  35.938  1.00  0.00    -0.203 F 
ATOM     81  F   UNL A   1      37.907  34.020  39.906  1.00  0.00    -0.200 F 
ATOM     82  C   UNL A   1      39.467  35.577  39.063  1.00  0.00     0.200 A 
ATOM     83  F   UNL A   1      40.987  37.130  38.141  1.00  0.00    -0.200 F 
ATOM     84  F   UNL A   1      39.270  36.374  40.122  1.00  0.00    -0.200 F 
ENDBRANCH  50  74
BRANCH  62  85
ATOM     85  C   UNL A   1      43.884  28.507  35.201  1.00  0.00     0.064 A 
ATOM     86  C   UNL A   1      43.668  27.418  36.057  1.00  0.00     0.173 A 
ATOM     87  C   UNL A   1      45.211  28.911  34.979  1.00  0.00     0.173 A 
ATOM     88  F   UNL A   1      42.419  27.002  36.319  1.00  0.00    -0.203 F 
ATOM     89  C   UNL A   1      44.735  26.768  36.674  1.00  0.00     0.198 A 
ATOM     90  C   UNL A   1      46.277  28.239  35.572  1.00  0.00     0.198 A 
ATOM     91  F   UNL A   1      45.475  29.944  34.166  1.00  0.00    -0.203 F 
ATOM     92  F   UNL A   1      44.502  25.753  37.519  1.00  0.00    -0.200 F 
ATOM     93  C   UNL A   1      46.038  27.171  36.423  1.00  0.00     0.200 A 
ATOM     94  F   UNL A   1      47.535  28.623  35.314  1.00  0.00    -0.200 F 
ATOM     95  F   UNL A   1      47.064  26.534  37.004  1.00  0.00    -0.200 F 
ENDBRANCH  62  85
ENDBRANCH  36  37
ENDBRANCH  29  31
ENDBRANCH  28  29
ENDBRANCH  27  28
ENDBRANCH  26  27
ENDBRANCH   1  26
TORSDOF 16
ENDMDL
MODEL 2
REMARK VINA RESULT:     -12.3      6.307     11.675
REMARK SMILES C[C@@]1(c2ccccc2C(=O)OCCOCCOC(=O)c2ccc(-c3c4nc(c(-c5c(F)c(F)c(F)c(F)c5F)c5ccc([nH]5)c(-c5c(F)c(F)c(F)c(F)c5F)c5nc(c(-c6c(F)c(F)c(F)c(F)c6F)c6ccc3[nH]6)C=C5)C=C4)cc2)NN=C(c2ccccc2)S1
REMARK SMILES IDX 14 1 13 2 12 3 11 4 9 5 10 6 8 7 3 8 4 9 5 10 7 11 6 12 2 13
REMARK SMILES IDX 1 14 83 15 92 16 84 17 85 19 86 20 87 21 91 22 88 23 90 24
REMARK SMILES IDX 89 25 15 26 16 27 17 28 18 29 19 30 20 31 21 32 82 33 22 34
REMARK SMILES IDX 81 35 23 36 24 37 25 38 75 39 26 40 80 41 74 42 76 43 27 44
REMARK SMILES IDX 79 45 73 46 72 47 28 49 60 50 40 51 59 52 41 53 44 54 58 55
REMARK SMILES IDX 77 56 42 57 43 58 57 60 78 61 45 62 29 63 30 64 38 65 31 66
REMARK SMILES IDX 32 67 36 68 39 69 33 70 34 71 37 72 35 73 61 74 62 75 70 76
REMARK SMILES IDX 63 77 64 78 68 79 71 80 65 81 66 82 69 83 67 84 46 85 47 86
REMARK SMILES IDX 55 87 48 88 49 89 53 90 56 91 50 92 51 93 54 94 52 95
REMARK H PARENT 83 18 76 48 44 59
REMARK Flexibility Score: inf
ROOT
ATOM      1  O   UNL A   1      39.185  21.959  25.384  1.00  0.00    -0.374 OA
ENDROOT
BRANCH   1   2
ATOM      2  C   UNL A   1      39.120  22.803  26.535  1.00  0.00     0.202 C 
BRANCH   2   3
ATOM      3  C   UNL A   1      38.214  24.025  26.425  1.00  0.00     0.261 C 
BRANCH   3   4
ATOM      4  O   UNL A   1      36.835  23.615  26.350  1.00  0.00    -0.460 OA
BRANCH   4   5
ATOM      5  C   UNL A   1      36.213  23.852  25.188  1.00  0.00     0.338 C 
ATOM      6  O   UNL A   1      36.745  23.723  24.092  1.00  0.00    -0.246 OA
BRANCH   5   7
ATOM      7  C   UNL A   1      34.768  24.252  25.305  1.00  0.00     0.066 A 
ATOM      8  C   UNL A   1      33.582  23.469  25.404  1.00  0.00     0.004 A 
ATOM      9  C   UNL A   1      32.433  24.155  25.905  1.00  0.00     0.008 A 
ATOM     10  C   UNL A   1      32.375  25.539  26.060  1.00  0.00     0.000 A 
ATOM     11  C   UNL A   1      34.661  25.665  25.410  1.00  0.00     0.016 A 
ATOM     12  C   UNL A   1      33.474  26.306  25.739  1.00  0.00     0.001 A 
BRANCH   8  13
ATOM     13  C   UNL A   1      33.273  22.122  24.694  1.00  0.00     0.129 C 
ATOM     14  C   UNL A   1      33.116  22.462  23.192  1.00  0.00     0.054 C 
ATOM     15  N   UNL A   1      31.962  21.538  25.093  1.00  0.00    -0.288 NA
ATOM     16  S   UNL A   1      34.379  20.696  24.941  1.00  0.00    -0.070 SA
ATOM     17  N   UNL A   1      31.832  20.187  24.999  1.00  0.00    -0.171 NA
ATOM     18  H   UNL A   1      31.223  22.105  25.412  1.00  0.00     0.185 HD
ATOM     19  C   UNL A   1      33.002  19.636  24.957  1.00  0.00     0.126 C 
BRANCH  19  20
ATOM     20  C   UNL A   1      33.195  18.191  24.914  1.00  0.00     0.009 A 
ATOM     21  C   UNL A   1      33.929  17.608  23.881  1.00  0.00     0.011 A 
ATOM     22  C   UNL A   1      32.524  17.401  25.846  1.00  0.00     0.011 A 
ATOM     23  C   UNL A   1      33.997  16.215  23.792  1.00  0.00     0.001 A 
ATOM     24  C   UNL A   1      32.607  16.015  25.748  1.00  0.00     0.001 A 
ATOM     25  C   UNL A   1      33.353  15.420  24.735  1.00  0.00     0.000 A 
ENDBRANCH  19  20
ENDBRANCH   8  13
ENDBRANCH   5   7
ENDBRANCH   4   5
ENDBRANCH   3   4
ENDBRANCH   2   3
ENDBRANCH   1   2
BRANCH   1  26
ATOM     26  C   UNL A   1      38.565  20.681  25.510  1.00  0.00     0.202 C 
BRANCH  26  27
ATOM     27  C   UNL A   1      39.421  19.564  26.125  1.00  0.00     0.261 C 
BRANCH  27  28
ATOM     28  O   UNL A   1      40.616  19.279  25.376  1.00  0.00    -0.460 OA
BRANCH  28  29
ATOM     29  C   UNL A   1      41.749  19.165  26.118  1.00  0.00     0.338 C 
ATOM     30  O   UNL A   1      42.337  18.148  26.432  1.00  0.00    -0.246 OA
BRANCH  29  31
ATOM     31  C   UNL A   1      42.258  20.516  26.420  1.00  0.00     0.060 A 
ATOM     32  C   UNL A   1      42.578  21.392  25.375  1.00  0.00     0.016 A 
ATOM     33  C   UNL A   1      42.460  20.903  27.738  1.00  0.00     0.016 A 
ATOM     34  C   UNL A   1      43.055  22.683  25.651  1.00  0.00     0.010 A 
ATOM     35  C   UNL A   1      42.943  22.188  28.000  1.00  0.00     0.010 A 
ATOM     36  C   UNL A   1      43.226  23.115  26.974  1.00  0.00    -0.014 A 
BRANCH  36  37
ATOM     37  C   UNL A   1      43.724  24.490  27.325  1.00  0.00     0.031 A 
ATOM     38  C   UNL A   1      42.746  25.536  27.812  1.00  0.00     0.074 A 
ATOM     39  C   UNL A   1      45.004  24.872  27.108  1.00  0.00     0.049 A 
ATOM     40  N   UNL A   1      42.894  26.835  27.930  1.00  0.00    -0.248 NA
ATOM     41  C   UNL A   1      41.399  25.058  28.162  1.00  0.00     0.031 C 
ATOM     42  C   UNL A   1      46.079  24.021  26.595  1.00  0.00     0.029 A 
ATOM     43  N   UNL A   1      45.606  26.109  27.240  1.00  0.00    -0.354 N 
ATOM     44  C   UNL A   1      41.654  27.324  28.325  1.00  0.00     0.074 A 
ATOM     45  C   UNL A   1      40.747  26.196  28.338  1.00  0.00     0.031 C 
ATOM     46  C   UNL A   1      47.192  24.759  26.434  1.00  0.00     0.029 A 
ATOM     47  C   UNL A   1      46.909  26.146  26.795  1.00  0.00     0.049 A 
ATOM     48  H   UNL A   1      45.146  26.892  27.619  1.00  0.00     0.167 HD
ATOM     49  C   UNL A   1      41.302  28.580  28.694  1.00  0.00     0.037 A 
ATOM     50  C   UNL A   1      47.769  27.177  26.655  1.00  0.00     0.037 A 
ATOM     51  C   UNL A   1      42.208  29.696  28.769  1.00  0.00     0.049 A 
ATOM     52  C   UNL A   1      47.348  28.576  27.029  1.00  0.00     0.074 A 
ATOM     53  C   UNL A   1      41.966  30.968  29.262  1.00  0.00     0.029 A 
ATOM     54  N   UNL A   1      43.526  29.677  28.348  1.00  0.00    -0.354 N 
ATOM     55  N   UNL A   1      46.195  29.005  27.479  1.00  0.00    -0.248 NA
ATOM     56  C   UNL A   1      48.359  29.637  26.879  1.00  0.00     0.031 C 
ATOM     57  C   UNL A   1      43.123  31.732  29.094  1.00  0.00     0.029 A 
ATOM     58  C   UNL A   1      44.103  30.923  28.545  1.00  0.00     0.049 A 
ATOM     59  H   UNL A   1      43.986  28.895  27.965  1.00  0.00     0.167 HD
ATOM     60  C   UNL A   1      46.360  30.366  27.716  1.00  0.00     0.074 A 
ATOM     61  C   UNL A   1      47.718  30.696  27.349  1.00  0.00     0.031 C 
ATOM     62  C   UNL A   1      45.462  31.254  28.209  1.00  0.00     0.037 A 
BRANCH  49  63
ATOM     63  C   UNL A   1      39.871  28.813  29.093  1.00  0.00     0.064 A 
ATOM     64  C   UNL A   1      38.906  29.221  28.158  1.00  0.00     0.173 A 
ATOM     65  C   UNL A   1      39.448  28.587  30.411  1.00  0.00     0.173 A 
ATOM     66  F   UNL A   1      39.255  29.450  26.883  1.00  0.00    -0.203 F 
ATOM     67  C   UNL A   1      37.586  29.445  28.539  1.00  0.00     0.198 A 
ATOM     68  C   UNL A   1      38.119  28.772  30.780  1.00  0.00     0.198 A 
ATOM     69  F   UNL A   1      40.323  28.177  31.342  1.00  0.00    -0.203 F 
ATOM     70  F   UNL A   1      36.702  29.903  27.643  1.00  0.00    -0.200 F 
ATOM     71  C   UNL A   1      37.193  29.214  29.848  1.00  0.00     0.200 A 
ATOM     72  F   UNL A   1      37.733  28.526  32.040  1.00  0.00    -0.200 F 
ATOM     73  F   UNL A   1      35.920  29.424  30.211  1.00  0.00    -0.200 F 
ENDBRANCH  49  63
BRANCH  50  74
ATOM     74  C   UNL A   1      49.146  26.953  26.127  1.00  0.00     0.064 A 
ATOM     75  C   UNL A   1      49.427  27.085  24.760  1.00  0.00     0.173 A 
ATOM     76  C   UNL A   1      50.186  26.516  26.957  1.00  0.00     0.173 A 
ATOM     77  F   UNL A   1      48.452  27.443  23.912  1.00  0.00    -0.203 F 
ATOM     78  C   UNL A   1      50.686  26.774  24.248  1.00  0.00     0.198 A 
ATOM     79  C   UNL A   1      51.455  26.239  26.453  1.00  0.00     0.198 A 
ATOM     80  F   UNL A   1      49.961  26.314  28.259  1.00  0.00    -0.203 F 
ATOM     81  F   UNL A   1      50.905  26.839  22.928  1.00  0.00    -0.200 F 
ATOM     82  C   UNL A   1      51.702  26.359  25.096  1.00  0.00     0.200 A 
ATOM     83  F   UNL A   1      52.426  25.831  27.280  1.00  0.00    -0.200 F 
ATOM     84  F   UNL A   1      52.908  26.046  24.603  1.00  0.00    -0.200 F 
ENDBRANCH  50  74
BRANCH  62  85
ATOM     85  C   UNL A   1      45.925  32.662  28.461  1.00  0.00     0.064 A 
ATOM     86  C   UNL A   1      45.770  33.679  27.508  1.00  0.00     0.173 A 
ATOM     87  C   UNL A   1      46.478  33.011  29.704  1.00  0.00     0.173 A 
ATOM     88  F   UNL A   1      45.264  33.397  26.297  1.00  0.00    -0.203 F 
ATOM     89  C   UNL A   1      46.162  34.987  27.784  1.00  0.00     0.198 A 
ATOM     90  C   UNL A   1      46.840  34.325  29.989  1.00  0.00     0.198 A 
ATOM     91  F   UNL A   1      46.646  32.078  30.654  1.00  0.00    -0.203 F 
ATOM     92  F   UNL A   1      46.039  35.935  26.844  1.00  0.00    -0.200 F 
ATOM     93  C   UNL A   1      46.686  35.311  29.027  1.00  0.00     0.200 A 
ATOM     94  F   UNL A   1      47.331  34.637  31.196  1.00  0.00    -0.200 F 
ATOM     95  F   UNL A   1      47.046  36.574  29.297  1.00  0.00    -0.200 F 
ENDBRANCH  62  85
ENDBRANCH  36  37
ENDBRANCH  29  31
ENDBRANCH  28  29
ENDBRANCH  27  28
ENDBRANCH  26  27
ENDBRANCH   1  26
TORSDOF 16
ENDMDL
MODEL 3
REMARK VINA RESULT:     -12.2      3.642      8.909
REMARK SMILES C[C@@]1(c2ccccc2C(=O)OCCOCCOC(=O)c2ccc(-c3c4nc(c(-c5c(F)c(F)c(F)c(F)c5F)c5ccc([nH]5)c(-c5c(F)c(F)c(F)c(F)c5F)c5nc(c(-c6c(F)c(F)c(F)c(F)c6F)c6ccc3[nH]6)C=C5)C=C4)cc2)NN=C(c2ccccc2)S1
REMARK SMILES IDX 14 1 13 2 12 3 11 4 9 5 10 6 8 7 3 8 4 9 5 10 7 11 6 12 2 13
REMARK SMILES IDX 1 14 83 15 92 16 84 17 85 19 86 20 87 21 91 22 88 23 90 24
REMARK SMILES IDX 89 25 15 26 16 27 17 28 18 29 19 30 20 31 21 32 82 33 22 34
REMARK SMILES IDX 81 35 23 36 24 37 25 38 75 39 26 40 80 41 74 42 76 43 27 44
REMARK SMILES IDX 79 45 73 46 72 47 28 49 60 50 40 51 59 52 41 53 44 54 58 55
REMARK SMILES IDX 77 56 42 57 43 58 57 60 78 61 45 62 29 63 30 64 38 65 31 66
REMARK SMILES IDX 32 67 36 68 39 69 33 70 34 71 37 72 35 73 61 74 62 75 70 76
REMARK SMILES IDX 63 77 64 78 68 79 71 80 65 81 66 82 69 83 67 84 46 85 47 86
REMARK SMILES IDX 55 87 48 88 49 89 53 90 56 91 50 92 51 93 54 94 52 95
REMARK H PARENT 83 18 76 48 44 59
REMARK Flexibility Score: inf
ROOT
ATOM      1  O   UNL A   1      40.049  21.201  27.185  1.00  0.00    -0.374 OA
ENDROOT
BRANCH   1   2
ATOM      2  C   UNL A   1      39.390  21.908  26.132  1.00  0.00     0.202 C 
BRANCH   2   3
ATOM      3  C   UNL A   1      38.290  21.150  25.396  1.00  0.00     0.261 C 
BRANCH   3   4
ATOM      4  O   UNL A   1      37.001  21.698  25.730  1.00  0.00    -0.460 OA
BRANCH   4   5
ATOM      5  C   UNL A   1      36.159  21.887  24.706  1.00  0.00     0.338 C 
ATOM      6  O   UNL A   1      36.459  22.485  23.679  1.00  0.00    -0.246 OA
BRANCH   5   7
ATOM      7  C   UNL A   1      34.799  21.267  24.872  1.00  0.00     0.066 A 
ATOM      8  C   UNL A   1      33.512  21.855  25.036  1.00  0.00     0.004 A 
ATOM      9  C   UNL A   1      32.404  20.997  24.757  1.00  0.00     0.008 A 
ATOM     10  C   UNL A   1      32.529  19.620  24.579  1.00  0.00     0.000 A 
ATOM     11  C   UNL A   1      34.891  19.854  24.751  1.00  0.00     0.016 A 
ATOM     12  C   UNL A   1      33.774  19.035  24.650  1.00  0.00     0.001 A 
BRANCH   8  13
ATOM     13  C   UNL A   1      33.151  23.140  25.832  1.00  0.00     0.129 C 
ATOM     14  C   UNL A   1      33.765  22.952  27.240  1.00  0.00     0.054 C 
ATOM     15  N   UNL A   1      31.688  23.289  26.069  1.00  0.00    -0.288 NA
ATOM     16  S   UNL A   1      33.560  24.775  25.141  1.00  0.00    -0.070 SA
ATOM     17  N   UNL A   1      31.213  24.553  26.233  1.00  0.00    -0.171 NA
ATOM     18  H   UNL A   1      31.091  22.506  26.103  1.00  0.00     0.185 HD
ATOM     19  C   UNL A   1      32.063  25.406  25.758  1.00  0.00     0.126 C 
BRANCH  19  20
ATOM     20  C   UNL A   1      31.813  26.843  25.734  1.00  0.00     0.009 A 
ATOM     21  C   UNL A   1      31.628  27.506  24.521  1.00  0.00     0.011 A 
ATOM     22  C   UNL A   1      31.895  27.553  26.930  1.00  0.00     0.011 A 
ATOM     23  C   UNL A   1      31.513  28.898  24.514  1.00  0.00     0.001 A 
ATOM     24  C   UNL A   1      31.772  28.940  26.908  1.00  0.00     0.001 A 
ATOM     25  C   UNL A   1      31.565  29.613  25.707  1.00  0.00     0.000 A 
ENDBRANCH  19  20
ENDBRANCH   8  13
ENDBRANCH   5   7
ENDBRANCH   4   5
ENDBRANCH   3   4
ENDBRANCH   2   3
ENDBRANCH   1   2
BRANCH   1  26
ATOM     26  C   UNL A   1      41.133  20.361  26.792  1.00  0.00     0.202 C 
BRANCH  26  27
ATOM     27  C   UNL A   1      42.148  20.969  25.812  1.00  0.00     0.261 C 
BRANCH  27  28
ATOM     28  O   UNL A   1      43.037  21.920  26.424  1.00  0.00    -0.460 OA
BRANCH  28  29
ATOM     29  C   UNL A   1      43.126  23.119  25.789  1.00  0.00     0.338 C 
ATOM     30  O   UNL A   1      43.327  23.325  24.608  1.00  0.00    -0.246 OA
BRANCH  29  31
ATOM     31  C   UNL A   1      42.825  24.193  26.754  1.00  0.00     0.060 A 
ATOM     32  C   UNL A   1      43.475  25.429  26.651  1.00  0.00     0.016 A 
ATOM     33  C   UNL A   1      41.929  23.964  27.790  1.00  0.00     0.016 A 
ATOM     34  C   UNL A   1      43.191  26.460  27.559  1.00  0.00     0.010 A 
ATOM     35  C   UNL A   1      41.659  24.995  28.693  1.00  0.00     0.010 A 
ATOM     36  C   UNL A   1      42.257  26.270  28.588  1.00  0.00    -0.014 A 
BRANCH  36  37
ATOM     37  C   UNL A   1      41.907  27.344  29.581  1.00  0.00     0.031 A 
ATOM     38  C   UNL A   1      42.577  27.354  30.937  1.00  0.00     0.074 A 
ATOM     39  C   UNL A   1      40.918  28.240  29.356  1.00  0.00     0.049 A 
ATOM     40  N   UNL A   1      42.259  28.012  32.026  1.00  0.00    -0.248 NA
ATOM     41  C   UNL A   1      43.731  26.456  31.100  1.00  0.00     0.031 C 
ATOM     42  C   UNL A   1      40.124  28.354  28.132  1.00  0.00     0.029 A 
ATOM     43  N   UNL A   1      40.372  29.200  30.187  1.00  0.00    -0.354 N 
ATOM     44  C   UNL A   1      43.145  27.577  33.005  1.00  0.00     0.074 A 
ATOM     45  C   UNL A   1      43.951  26.536  32.403  1.00  0.00     0.031 C 
ATOM     46  C   UNL A   1      39.185  29.303  28.298  1.00  0.00     0.029 A 
ATOM     47  C   UNL A   1      39.278  29.844  29.651  1.00  0.00     0.049 A 
ATOM     48  H   UNL A   1      40.731  29.406  31.080  1.00  0.00     0.167 HD
ATOM     49  C   UNL A   1      43.317  28.027  34.272  1.00  0.00     0.037 A 
ATOM     50  C   UNL A   1      38.424  30.739  30.191  1.00  0.00     0.037 A 
ATOM     51  C   UNL A   1      42.585  29.117  34.861  1.00  0.00     0.049 A 
ATOM     52  C   UNL A   1      38.603  31.197  31.617  1.00  0.00     0.074 A 
ATOM     53  C   UNL A   1      42.789  29.726  36.089  1.00  0.00     0.029 A 
ATOM     54  N   UNL A   1      41.515  29.766  34.267  1.00  0.00    -0.354 N 
ATOM     55  N   UNL A   1      39.498  30.834  32.502  1.00  0.00    -0.248 NA
ATOM     56  C   UNL A   1      37.648  32.202  32.117  1.00  0.00     0.031 C 
ATOM     57  C   UNL A   1      41.811  30.711  36.259  1.00  0.00     0.029 A 
ATOM     58  C   UNL A   1      41.032  30.751  35.115  1.00  0.00     0.049 A 
ATOM     59  H   UNL A   1      41.152  29.558  33.377  1.00  0.00     0.167 HD
ATOM     60  C   UNL A   1      39.249  31.601  33.635  1.00  0.00     0.074 A 
ATOM     61  C   UNL A   1      38.112  32.440  33.335  1.00  0.00     0.031 C 
ATOM     62  C   UNL A   1      39.919  31.612  34.814  1.00  0.00     0.037 A 
BRANCH  49  63
ATOM     63  C   UNL A   1      44.379  27.365  35.108  1.00  0.00     0.064 A 
ATOM     64  C   UNL A   1      45.706  27.822  35.104  1.00  0.00     0.173 A 
ATOM     65  C   UNL A   1      44.059  26.292  35.953  1.00  0.00     0.173 A 
ATOM     66  F   UNL A   1      46.066  28.847  34.316  1.00  0.00    -0.203 F 
ATOM     67  C   UNL A   1      46.683  27.195  35.872  1.00  0.00     0.198 A 
ATOM     68  C   UNL A   1      45.030  25.694  36.751  1.00  0.00     0.198 A 
ATOM     69  F   UNL A   1      42.802  25.827  36.011  1.00  0.00    -0.203 F 
ATOM     70  F   UNL A   1      47.956  27.605  35.796  1.00  0.00    -0.200 F 
ATOM     71  C   UNL A   1      46.343  26.137  36.700  1.00  0.00     0.200 A 
ATOM     72  F   UNL A   1      44.697  24.685  37.569  1.00  0.00    -0.200 F 
ATOM     73  F   UNL A   1      47.284  25.539  37.444  1.00  0.00    -0.200 F 
ENDBRANCH  49  63
BRANCH  50  74
ATOM     74  C   UNL A   1      37.289  31.286  29.393  1.00  0.00     0.064 A 
ATOM     75  C   UNL A   1      37.278  32.623  28.973  1.00  0.00     0.173 A 
ATOM     76  C   UNL A   1      36.153  30.515  29.113  1.00  0.00     0.173 A 
ATOM     77  F   UNL A   1      38.314  33.421  29.267  1.00  0.00    -0.203 F 
ATOM     78  C   UNL A   1      36.172  33.165  28.320  1.00  0.00     0.198 A 
ATOM     79  C   UNL A   1      35.062  31.045  28.429  1.00  0.00     0.198 A 
ATOM     80  F   UNL A   1      36.081  29.251  29.542  1.00  0.00    -0.203 F 
ATOM     81  F   UNL A   1      36.160  34.465  27.994  1.00  0.00    -0.200 F 
ATOM     82  C   UNL A   1      35.068  32.374  28.041  1.00  0.00     0.200 A 
ATOM     83  F   UNL A   1      33.997  30.274  28.172  1.00  0.00    -0.200 F 
ATOM     84  F   UNL A   1      33.999  32.898  27.425  1.00  0.00    -0.200 F 
ENDBRANCH  50  74
BRANCH  62  85
ATOM     85  C   UNL A   1      39.501  32.612  35.856  1.00  0.00     0.064 A 
ATOM     86  C   UNL A   1      38.517  32.325  36.812  1.00  0.00     0.173 A 
ATOM     87  C   UNL A   1      40.145  33.858  35.935  1.00  0.00     0.173 A 
ATOM     88  F   UNL A   1      37.858  31.156  36.772  1.00  0.00    -0.203 F 
ATOM     89  C   UNL A   1      38.183  33.250  37.798  1.00  0.00     0.198 A 
ATOM     90  C   UNL A   1      39.831  34.769  36.940  1.00  0.00     0.198 A 
ATOM     91  F   UNL A   1      41.097  34.184  35.047  1.00  0.00    -0.203 F 
ATOM     92  F   UNL A   1      37.212  32.969  38.679  1.00  0.00    -0.200 F 
ATOM     93  C   UNL A   1      38.847  34.466  37.868  1.00  0.00     0.200 A 
ATOM     94  F   UNL A   1      40.486  35.936  37.014  1.00  0.00    -0.200 F 
ATOM     95  F   UNL A   1      38.536  35.349  38.828  1.00  0.00    -0.200 F 
ENDBRANCH  62  85
ENDBRANCH  36  37
ENDBRANCH  29  31
ENDBRANCH  28  29
ENDBRANCH  27  28
ENDBRANCH  26  27
ENDBRANCH   1  26
TORSDOF 16
ENDMDL
