MODEL 1
REMARK VINA RESULT:     -11.9      0.000      0.000
REMARK SMILES O=C(OCCOCCOC(=O)c1cc(-c2cc(Cl)ccc2Cl)cc([N+](=O)[O-])c1)c1ccc(-c2c3nc(c(-c4c(F)c(F)c(F)c(F)c4F)c4ccc([nH]4)c(-c4c(F)c(F)c(F)c(F)c4F)c4nc(c(-c5c(F)c(F)c(F)c(F)c5F)c5ccc2[nH]5)C=C4)C=C3)cc1
REMARK SMILES IDX 5 1 4 2 3 3 2 4 1 5 29 6 30 7 91 8 31 9 90 10 32 11 33 12
REMARK SMILES IDX 34 13 84 14 35 15 89 16 83 17 85 18 36 19 88 20 82 21 81 22
REMARK SMILES IDX 37 24 69 25 49 26 68 27 50 28 53 29 67 30 86 31 51 32 52 33
REMARK SMILES IDX 66 35 87 36 54 37 38 38 39 39 47 40 40 41 41 42 45 43 48 44
REMARK SMILES IDX 42 45 43 46 46 47 44 48 70 49 71 50 79 51 72 52 73 53 77 54
REMARK SMILES IDX 80 55 74 56 75 57 78 58 76 59 55 60 56 61 64 62 57 63 58 64
REMARK SMILES IDX 62 65 65 66 59 67 60 68 63 69 61 70 6 71 7 72 8 73 9 74
REMARK SMILES IDX 10 75 11 76 12 77 13 78 28 79 14 80 24 81 23 82 15 83 16 84
REMARK SMILES IDX 21 85 17 86 20 87 22 88 18 89 19 90 25 91 26 92 27 93
REMARK H PARENT 85 23 53 34
REMARK Flexibility Score: inf
ROOT
ATOM      1  C   UNL A   1      31.508  29.476  25.107  1.00  0.00     0.202 C 
ENDROOT
BRANCH   1   2
ATOM      2  C   UNL A   1      32.020  29.921  26.481  1.00  0.00     0.261 C 
BRANCH   2   3
ATOM      3  O   UNL A   1      33.014  30.949  26.342  1.00  0.00    -0.460 OA
BRANCH   3   4
ATOM      4  C   UNL A   1      33.675  31.615  27.318  1.00  0.00     0.338 C 
ATOM      5  O   UNL A   1      33.174  32.641  27.775  1.00  0.00    -0.246 OA
BRANCH   4   6
ATOM      6  C   UNL A   1      34.974  31.159  27.895  1.00  0.00     0.060 A 
ATOM      7  C   UNL A   1      35.263  29.847  28.269  1.00  0.00     0.016 A 
ATOM      8  C   UNL A   1      36.001  32.113  28.002  1.00  0.00     0.016 A 
ATOM      9  C   UNL A   1      36.485  29.494  28.806  1.00  0.00     0.010 A 
ATOM     10  C   UNL A   1      37.256  31.761  28.507  1.00  0.00     0.010 A 
ATOM     11  C   UNL A   1      37.484  30.449  28.937  1.00  0.00    -0.014 A 
BRANCH  11  12
ATOM     12  C   UNL A   1      38.680  30.044  29.687  1.00  0.00     0.031 A 
ATOM     13  C   UNL A   1      38.793  30.491  31.111  1.00  0.00     0.074 A 
ATOM     14  C   UNL A   1      39.512  29.133  29.155  1.00  0.00     0.049 A 
ATOM     15  N   UNL A   1      39.723  30.240  31.990  1.00  0.00    -0.248 NA
ATOM     16  C   UNL A   1      37.687  31.320  31.623  1.00  0.00     0.031 C 
ATOM     17  C   UNL A   1      39.362  28.531  27.827  1.00  0.00     0.029 A 
ATOM     18  N   UNL A   1      40.612  28.513  29.680  1.00  0.00    -0.354 N 
ATOM     19  C   UNL A   1      39.336  30.908  33.142  1.00  0.00     0.074 A 
ATOM     20  C   UNL A   1      38.086  31.575  32.859  1.00  0.00     0.031 C 
ATOM     21  C   UNL A   1      40.315  27.601  27.658  1.00  0.00     0.029 A 
ATOM     22  C   UNL A   1      41.181  27.598  28.829  1.00  0.00     0.049 A 
ATOM     23  H   UNL A   1      40.961  28.704  30.580  1.00  0.00     0.167 HD
ATOM     24  C   UNL A   1      39.987  30.964  34.326  1.00  0.00     0.037 A 
ATOM     25  C   UNL A   1      42.300  26.867  28.986  1.00  0.00     0.037 A 
ATOM     26  C   UNL A   1      41.226  30.277  34.567  1.00  0.00     0.049 A 
ATOM     27  C   UNL A   1      43.058  27.027  30.277  1.00  0.00     0.074 A 
ATOM     28  C   UNL A   1      42.028  30.299  35.691  1.00  0.00     0.029 A 
ATOM     29  N   UNL A   1      41.840  29.433  33.647  1.00  0.00    -0.354 N 
ATOM     30  N   UNL A   1      42.742  27.729  31.340  1.00  0.00    -0.248 NA
ATOM     31  C   UNL A   1      44.331  26.308  30.387  1.00  0.00     0.031 C 
ATOM     32  C   UNL A   1      43.156  29.513  35.430  1.00  0.00     0.029 A 
ATOM     33  C   UNL A   1      43.024  28.944  34.171  1.00  0.00     0.049 A 
ATOM     34  H   UNL A   1      41.486  29.216  32.755  1.00  0.00     0.167 HD
ATOM     35  C   UNL A   1      43.759  27.514  32.259  1.00  0.00     0.074 A 
ATOM     36  C   UNL A   1      44.694  26.602  31.627  1.00  0.00     0.031 C 
ATOM     37  C   UNL A   1      43.913  28.021  33.508  1.00  0.00     0.037 A 
BRANCH  24  38
ATOM     38  C   UNL A   1      39.415  31.871  35.376  1.00  0.00     0.064 A 
ATOM     39  C   UNL A   1      39.795  33.217  35.498  1.00  0.00     0.173 A 
ATOM     40  C   UNL A   1      38.513  31.359  36.322  1.00  0.00     0.173 A 
ATOM     41  F   UNL A   1      40.681  33.749  34.644  1.00  0.00    -0.203 F 
ATOM     42  C   UNL A   1      39.324  34.001  36.550  1.00  0.00     0.198 A 
ATOM     43  C   UNL A   1      38.021  32.154  37.352  1.00  0.00     0.198 A 
ATOM     44  F   UNL A   1      38.125  30.077  36.259  1.00  0.00    -0.203 F 
ATOM     45  F   UNL A   1      39.760  35.261  36.691  1.00  0.00    -0.200 F 
ATOM     46  C   UNL A   1      38.436  33.471  37.473  1.00  0.00     0.200 A 
ATOM     47  F   UNL A   1      37.161  31.638  38.241  1.00  0.00    -0.200 F 
ATOM     48  F   UNL A   1      37.995  34.222  38.493  1.00  0.00    -0.200 F 
ENDBRANCH  24  38
BRANCH  25  49
ATOM     49  C   UNL A   1      42.781  25.973  27.898  1.00  0.00     0.064 A 
ATOM     50  C   UNL A   1      43.634  26.444  26.889  1.00  0.00     0.173 A 
ATOM     51  C   UNL A   1      42.382  24.628  27.833  1.00  0.00     0.173 A 
ATOM     52  F   UNL A   1      44.031  27.725  26.892  1.00  0.00    -0.203 F 
ATOM     53  C   UNL A   1      44.049  25.612  25.850  1.00  0.00     0.198 A 
ATOM     54  C   UNL A   1      42.825  23.789  26.811  1.00  0.00     0.198 A 
ATOM     55  F   UNL A   1      41.565  24.122  28.767  1.00  0.00    -0.203 F 
ATOM     56  F   UNL A   1      44.821  26.103  24.870  1.00  0.00    -0.200 F 
ATOM     57  C   UNL A   1      43.649  24.285  25.815  1.00  0.00     0.200 A 
ATOM     58  F   UNL A   1      42.446  22.504  26.792  1.00  0.00    -0.200 F 
ATOM     59  F   UNL A   1      44.048  23.487  24.815  1.00  0.00    -0.200 F 
ENDBRANCH  25  49
BRANCH  37  60
ATOM     60  C   UNL A   1      45.101  27.543  34.287  1.00  0.00     0.064 A 
ATOM     61  C   UNL A   1      45.053  26.388  35.078  1.00  0.00     0.173 A 
ATOM     62  C   UNL A   1      46.317  28.239  34.204  1.00  0.00     0.173 A 
ATOM     63  F   UNL A   1      43.908  25.698  35.201  1.00  0.00    -0.203 F 
ATOM     64  C   UNL A   1      46.174  25.964  35.786  1.00  0.00     0.198 A 
ATOM     65  C   UNL A   1      47.444  27.790  34.882  1.00  0.00     0.198 A 
ATOM     66  F   UNL A   1      46.413  29.346  33.451  1.00  0.00    -0.203 F 
ATOM     67  F   UNL A   1      46.093  24.889  36.582  1.00  0.00    -0.200 F 
ATOM     68  C   UNL A   1      47.369  26.659  35.680  1.00  0.00     0.200 A 
ATOM     69  F   UNL A   1      48.603  28.454  34.763  1.00  0.00    -0.200 F 
ATOM     70  F   UNL A   1      48.449  26.244  36.355  1.00  0.00    -0.200 F 
ENDBRANCH  37  60
ENDBRANCH  11  12
ENDBRANCH   4   6
ENDBRANCH   3   4
ENDBRANCH   2   3
ENDBRANCH   1   2
BRANCH   1  71
ATOM     71  O   UNL A   1      32.363  28.559  24.422  1.00  0.00    -0.374 OA
BRANCH  71  72
ATOM     72  C   UNL A   1      33.216  29.125  23.420  1.00  0.00     0.202 C 
BRANCH  72  73
ATOM     73  C   UNL A   1      33.607  28.050  22.405  1.00  0.00     0.261 C 
BRANCH  73  74
ATOM     74  O   UNL A   1      32.485  27.176  22.206  1.00  0.00    -0.460 OA
BRANCH  74  75
ATOM     75  C   UNL A   1      32.806  25.876  21.995  1.00  0.00     0.338 C 
ATOM     76  O   UNL A   1      33.139  25.345  20.948  1.00  0.00    -0.246 OA
BRANCH  75  77
ATOM     77  C   UNL A   1      32.919  25.226  23.316  1.00  0.00     0.067 A 
ATOM     78  C   UNL A   1      34.123  24.584  23.638  1.00  0.00     0.025 A 
ATOM     79  C   UNL A   1      31.881  25.295  24.244  1.00  0.00     0.101 A 
ATOM     80  C   UNL A   1      34.328  24.033  24.910  1.00  0.00    -0.009 A 
ATOM     81  C   UNL A   1      32.066  24.715  25.502  1.00  0.00     0.270 A 
ATOM     82  C   UNL A   1      33.286  24.110  25.848  1.00  0.00     0.094 A 
BRANCH  80  83
ATOM     83  C   UNL A   1      35.580  23.328  25.220  1.00  0.00     0.002 A 
ATOM     84  C   UNL A   1      36.699  24.045  25.687  1.00  0.00     0.030 A 
ATOM     85  C   UNL A   1      35.713  21.938  25.035  1.00  0.00     0.048 A 
ATOM     86  C   UNL A   1      37.904  23.387  25.954  1.00  0.00     0.041 A 
ATOM     87  C   UNL A   1      36.921  21.287  25.306  1.00  0.00     0.023 A 
ATOM     88  Cl  UNL A   1      34.401  20.973  24.449  1.00  0.00    -0.084 Cl
ATOM     89  Cl  UNL A   1      39.264  24.285  26.510  1.00  0.00    -0.084 Cl
ATOM     90  C   UNL A   1      38.019  22.013  25.763  1.00  0.00     0.022 A 
ENDBRANCH  80  83
BRANCH  81  91
ATOM     91  N   UNL A   1      30.954  24.711  26.459  1.00  0.00     0.062 N 
ATOM     92  O   UNL A   1      30.806  23.704  27.163  1.00  0.00    -0.258 OA
ATOM     93  O   UNL A   1      30.229  25.715  26.500  1.00  0.00    -0.258 OA
ENDBRANCH  81  91
ENDBRANCH  75  77
ENDBRANCH  74  75
ENDBRANCH  73  74
ENDBRANCH  72  73
ENDBRANCH  71  72
ENDBRANCH   1  71
TORSDOF 16
ENDMDL
MODEL 2
REMARK VINA RESULT:     -11.9      2.359      4.080
REMARK SMILES O=C(OCCOCCOC(=O)c1cc(-c2cc(Cl)ccc2Cl)cc([N+](=O)[O-])c1)c1ccc(-c2c3nc(c(-c4c(F)c(F)c(F)c(F)c4F)c4ccc([nH]4)c(-c4c(F)c(F)c(F)c(F)c4F)c4nc(c(-c5c(F)c(F)c(F)c(F)c5F)c5ccc2[nH]5)C=C4)C=C3)cc1
REMARK SMILES IDX 5 1 4 2 3 3 2 4 1 5 29 6 30 7 91 8 31 9 90 10 32 11 33 12
REMARK SMILES IDX 34 13 84 14 35 15 89 16 83 17 85 18 36 19 88 20 82 21 81 22
REMARK SMILES IDX 37 24 69 25 49 26 68 27 50 28 53 29 67 30 86 31 51 32 52 33
REMARK SMILES IDX 66 35 87 36 54 37 38 38 39 39 47 40 40 41 41 42 45 43 48 44
REMARK SMILES IDX 42 45 43 46 46 47 44 48 70 49 71 50 79 51 72 52 73 53 77 54
REMARK SMILES IDX 80 55 74 56 75 57 78 58 76 59 55 60 56 61 64 62 57 63 58 64
REMARK SMILES IDX 62 65 65 66 59 67 60 68 63 69 61 70 6 71 7 72 8 73 9 74
REMARK SMILES IDX 10 75 11 76 12 77 13 78 28 79 14 80 24 81 23 82 15 83 16 84
REMARK SMILES IDX 21 85 17 86 20 87 22 88 18 89 19 90 25 91 26 92 27 93
REMARK H PARENT 85 23 53 34
REMARK Flexibility Score: inf
ROOT
ATOM      1  C   UNL A   1      31.297  31.481  26.200  1.00  0.00     0.202 C 
ENDROOT
BRANCH   1   2
ATOM      2  C   UNL A   1      31.624  32.747  26.998  1.00  0.00     0.261 C 
BRANCH   2   3
ATOM      3  O   UNL A   1      33.023  33.058  26.901  1.00  0.00    -0.460 OA
BRANCH   3   4
ATOM      4  C   UNL A   1      33.838  33.566  27.856  1.00  0.00     0.338 C 
ATOM      5  O   UNL A   1      33.572  34.666  28.336  1.00  0.00    -0.246 OA
BRANCH   4   6
ATOM      6  C   UNL A   1      35.037  32.849  28.385  1.00  0.00     0.060 A 
ATOM      7  C   UNL A   1      35.060  31.507  28.764  1.00  0.00     0.016 A 
ATOM      8  C   UNL A   1      36.245  33.566  28.434  1.00  0.00     0.016 A 
ATOM      9  C   UNL A   1      36.203  30.907  29.254  1.00  0.00     0.010 A 
ATOM     10  C   UNL A   1      37.419  32.959  28.890  1.00  0.00     0.010 A 
ATOM     11  C   UNL A   1      37.385  31.632  29.329  1.00  0.00    -0.014 A 
BRANCH  11  12
ATOM     12  C   UNL A   1      38.502  30.987  30.034  1.00  0.00     0.031 A 
ATOM     13  C   UNL A   1      38.636  31.241  31.502  1.00  0.00     0.074 A 
ATOM     14  C   UNL A   1      39.224  30.048  29.400  1.00  0.00     0.049 A 
ATOM     15  N   UNL A   1      39.505  30.766  32.352  1.00  0.00    -0.248 NA
ATOM     16  C   UNL A   1      37.633  32.138  32.104  1.00  0.00     0.031 C 
ATOM     17  C   UNL A   1      39.030  29.635  28.007  1.00  0.00     0.029 A 
ATOM     18  N   UNL A   1      40.223  29.231  29.854  1.00  0.00    -0.354 N 
ATOM     19  C   UNL A   1      39.179  31.335  33.574  1.00  0.00     0.074 A 
ATOM     20  C   UNL A   1      38.031  32.187  33.364  1.00  0.00     0.031 C 
ATOM     21  C   UNL A   1      39.860  28.616  27.733  1.00  0.00     0.029 A 
ATOM     22  C   UNL A   1      40.690  28.360  28.902  1.00  0.00     0.049 A 
ATOM     23  H   UNL A   1      40.571  29.265  30.774  1.00  0.00     0.167 HD
ATOM     24  C   UNL A   1      39.803  31.163  34.761  1.00  0.00     0.037 A 
ATOM     25  C   UNL A   1      41.703  27.477  28.977  1.00  0.00     0.037 A 
ATOM     26  C   UNL A   1      40.938  30.297  34.926  1.00  0.00     0.049 A 
ATOM     27  C   UNL A   1      42.444  27.381  30.284  1.00  0.00     0.074 A 
ATOM     28  C   UNL A   1      41.709  30.079  36.051  1.00  0.00     0.029 A 
ATOM     29  N   UNL A   1      41.462  29.499  33.915  1.00  0.00    -0.354 N 
ATOM     30  N   UNL A   1      42.195  27.984  31.423  1.00  0.00    -0.248 NA
ATOM     31  C   UNL A   1      43.612  26.494  30.315  1.00  0.00     0.031 C 
ATOM     32  C   UNL A   1      42.733  29.191  35.705  1.00  0.00     0.029 A 
ATOM     33  C   UNL A   1      42.561  28.801  34.384  1.00  0.00     0.049 A 
ATOM     34  H   UNL A   1      41.104  29.439  33.000  1.00  0.00     0.167 HD
ATOM     35  C   UNL A   1      43.154  27.530  32.317  1.00  0.00     0.074 A 
ATOM     36  C   UNL A   1      43.980  26.587  31.585  1.00  0.00     0.031 C 
ATOM     37  C   UNL A   1      43.340  27.857  33.620  1.00  0.00     0.037 A 
BRANCH  24  38
ATOM     38  C   UNL A   1      39.326  32.002  35.910  1.00  0.00     0.064 A 
ATOM     39  C   UNL A   1      39.875  33.260  36.204  1.00  0.00     0.173 A 
ATOM     40  C   UNL A   1      38.339  31.503  36.774  1.00  0.00     0.173 A 
ATOM     41  F   UNL A   1      40.846  33.770  35.432  1.00  0.00    -0.203 F 
ATOM     42  C   UNL A   1      39.482  33.966  37.340  1.00  0.00     0.198 A 
ATOM     43  C   UNL A   1      37.927  32.224  37.890  1.00  0.00     0.198 A 
ATOM     44  F   UNL A   1      37.788  30.301  36.548  1.00  0.00    -0.203 F 
ATOM     45  F   UNL A   1      40.075  35.129  37.642  1.00  0.00    -0.200 F 
ATOM     46  C   UNL A   1      38.507  33.449  38.179  1.00  0.00     0.200 A 
ATOM     47  F   UNL A   1      36.983  31.722  38.699  1.00  0.00    -0.200 F 
ATOM     48  F   UNL A   1      38.141  34.122  39.280  1.00  0.00    -0.200 F 
ENDBRANCH  24  38
BRANCH  25  49
ATOM     49  C   UNL A   1      42.093  26.666  27.791  1.00  0.00     0.064 A 
ATOM     50  C   UNL A   1      41.523  25.409  27.547  1.00  0.00     0.173 A 
ATOM     51  C   UNL A   1      43.062  27.125  26.884  1.00  0.00     0.173 A 
ATOM     52  F   UNL A   1      40.606  24.914  28.392  1.00  0.00    -0.203 F 
ATOM     53  C   UNL A   1      41.922  24.636  26.457  1.00  0.00     0.198 A 
ATOM     54  C   UNL A   1      43.436  26.365  25.777  1.00  0.00     0.198 A 
ATOM     55  F   UNL A   1      43.645  28.318  27.068  1.00  0.00    -0.203 F 
ATOM     56  F   UNL A   1      41.398  23.415  26.278  1.00  0.00    -0.200 F 
ATOM     57  C   UNL A   1      42.873  25.117  25.571  1.00  0.00     0.200 A 
ATOM     58  F   UNL A   1      44.345  26.842  24.917  1.00  0.00    -0.200 F 
ATOM     59  F   UNL A   1      43.256  24.373  24.524  1.00  0.00    -0.200 F 
ENDBRANCH  25  49
BRANCH  37  60
ATOM     60  C   UNL A   1      44.438  27.139  34.344  1.00  0.00     0.064 A 
ATOM     61  C   UNL A   1      44.229  25.905  34.973  1.00  0.00     0.173 A 
ATOM     62  C   UNL A   1      45.731  27.685  34.372  1.00  0.00     0.173 A 
ATOM     63  F   UNL A   1      43.007  25.350  34.986  1.00  0.00    -0.203 F 
ATOM     64  C   UNL A   1      45.269  25.257  35.633  1.00  0.00     0.198 A 
ATOM     65  C   UNL A   1      46.775  27.016  34.999  1.00  0.00     0.198 A 
ATOM     66  F   UNL A   1      45.982  28.861  33.776  1.00  0.00    -0.203 F 
ATOM     67  F   UNL A   1      45.036  24.105  36.277  1.00  0.00    -0.200 F 
ATOM     68  C   UNL A   1      46.542  25.808  35.637  1.00  0.00     0.200 A 
ATOM     69  F   UNL A   1      48.008  27.543  34.987  1.00  0.00    -0.200 F 
ATOM     70  F   UNL A   1      47.544  25.178  36.266  1.00  0.00    -0.200 F 
ENDBRANCH  37  60
ENDBRANCH  11  12
ENDBRANCH   4   6
ENDBRANCH   3   4
ENDBRANCH   2   3
ENDBRANCH   1   2
BRANCH   1  71
ATOM     71  O   UNL A   1      32.313  30.477  26.234  1.00  0.00    -0.374 OA
BRANCH  71  72
ATOM     72  C   UNL A   1      32.148  29.450  27.219  1.00  0.00     0.202 C 
BRANCH  72  73
ATOM     73  C   UNL A   1      33.239  28.391  27.053  1.00  0.00     0.261 C 
BRANCH  73  74
ATOM     74  O   UNL A   1      32.638  27.187  26.553  1.00  0.00    -0.460 OA
BRANCH  74  75
ATOM     75  C   UNL A   1      33.400  26.492  25.673  1.00  0.00     0.338 C 
ATOM     76  O   UNL A   1      34.373  25.795  25.909  1.00  0.00    -0.246 OA
BRANCH  75  77
ATOM     77  C   UNL A   1      32.710  26.524  24.368  1.00  0.00     0.067 A 
ATOM     78  C   UNL A   1      31.591  27.358  24.231  1.00  0.00     0.025 A 
ATOM     79  C   UNL A   1      33.186  25.790  23.283  1.00  0.00     0.101 A 
ATOM     80  C   UNL A   1      30.950  27.505  22.993  1.00  0.00    -0.009 A 
ATOM     81  C   UNL A   1      32.529  25.906  22.055  1.00  0.00     0.270 A 
ATOM     82  C   UNL A   1      31.436  26.774  21.898  1.00  0.00     0.094 A 
BRANCH  80  83
ATOM     83  C   UNL A   1      29.755  28.352  22.874  1.00  0.00     0.002 A 
ATOM     84  C   UNL A   1      29.863  29.664  22.373  1.00  0.00     0.030 A 
ATOM     85  C   UNL A   1      28.483  27.899  23.277  1.00  0.00     0.048 A 
ATOM     86  C   UNL A   1      28.736  30.488  22.286  1.00  0.00     0.041 A 
ATOM     87  C   UNL A   1      27.360  28.728  23.185  1.00  0.00     0.023 A 
ATOM     88  Cl  UNL A   1      28.250  26.309  23.922  1.00  0.00    -0.084 Cl
ATOM     89  Cl  UNL A   1      28.894  32.093  21.684  1.00  0.00    -0.084 Cl
ATOM     90  C   UNL A   1      27.487  30.025  22.691  1.00  0.00     0.022 A 
ENDBRANCH  80  83
BRANCH  81  91
ATOM     91  N   UNL A   1      32.971  25.080  20.926  1.00  0.00     0.062 N 
ATOM     92  O   UNL A   1      32.966  25.595  19.800  1.00  0.00    -0.258 OA
ATOM     93  O   UNL A   1      33.318  23.915  21.168  1.00  0.00    -0.258 OA
ENDBRANCH  81  91
ENDBRANCH  75  77
ENDBRANCH  74  75
ENDBRANCH  73  74
ENDBRANCH  72  73
ENDBRANCH  71  72
ENDBRANCH   1  71
TORSDOF 16
ENDMDL
MODEL 3
REMARK VINA RESULT:     -11.8      1.910      3.521
REMARK SMILES O=C(OCCOCCOC(=O)c1cc(-c2cc(Cl)ccc2Cl)cc([N+](=O)[O-])c1)c1ccc(-c2c3nc(c(-c4c(F)c(F)c(F)c(F)c4F)c4ccc([nH]4)c(-c4c(F)c(F)c(F)c(F)c4F)c4nc(c(-c5c(F)c(F)c(F)c(F)c5F)c5ccc2[nH]5)C=C4)C=C3)cc1
REMARK SMILES IDX 5 1 4 2 3 3 2 4 1 5 29 6 30 7 91 8 31 9 90 10 32 11 33 12
REMARK SMILES IDX 34 13 84 14 35 15 89 16 83 17 85 18 36 19 88 20 82 21 81 22
REMARK SMILES IDX 37 24 69 25 49 26 68 27 50 28 53 29 67 30 86 31 51 32 52 33
REMARK SMILES IDX 66 35 87 36 54 37 38 38 39 39 47 40 40 41 41 42 45 43 48 44
REMARK SMILES IDX 42 45 43 46 46 47 44 48 70 49 71 50 79 51 72 52 73 53 77 54
REMARK SMILES IDX 80 55 74 56 75 57 78 58 76 59 55 60 56 61 64 62 57 63 58 64
REMARK SMILES IDX 62 65 65 66 59 67 60 68 63 69 61 70 6 71 7 72 8 73 9 74
REMARK SMILES IDX 10 75 11 76 12 77 13 78 28 79 14 80 24 81 23 82 15 83 16 84
REMARK SMILES IDX 21 85 17 86 20 87 22 88 18 89 19 90 25 91 26 92 27 93
REMARK H PARENT 85 23 53 34
REMARK Flexibility Score: inf
ROOT
ATOM      1  C   UNL A   1      31.301  31.969  26.557  1.00  0.00     0.202 C 
ENDROOT
BRANCH   1   2
ATOM      2  C   UNL A   1      32.538  32.787  26.944  1.00  0.00     0.261 C 
BRANCH   2   3
ATOM      3  O   UNL A   1      32.163  33.933  27.724  1.00  0.00    -0.460 OA
BRANCH   3   4
ATOM      4  C   UNL A   1      32.937  34.679  28.547  1.00  0.00     0.338 C 
ATOM      5  O   UNL A   1      32.600  35.837  28.786  1.00  0.00    -0.246 OA
BRANCH   4   6
ATOM      6  C   UNL A   1      34.173  34.164  29.209  1.00  0.00     0.060 A 
ATOM      7  C   UNL A   1      35.475  34.478  28.820  1.00  0.00     0.016 A 
ATOM      8  C   UNL A   1      34.005  33.363  30.352  1.00  0.00     0.016 A 
ATOM      9  C   UNL A   1      36.576  33.960  29.473  1.00  0.00     0.010 A 
ATOM     10  C   UNL A   1      35.111  32.864  31.046  1.00  0.00     0.010 A 
ATOM     11  C   UNL A   1      36.401  33.143  30.582  1.00  0.00    -0.014 A 
BRANCH  11  12
ATOM     12  C   UNL A   1      37.605  32.482  31.102  1.00  0.00     0.031 A 
ATOM     13  C   UNL A   1      38.026  32.805  32.501  1.00  0.00     0.074 A 
ATOM     14  C   UNL A   1      38.155  31.475  30.403  1.00  0.00     0.049 A 
ATOM     15  N   UNL A   1      39.022  32.333  33.199  1.00  0.00    -0.248 NA
ATOM     16  C   UNL A   1      37.192  33.781  33.224  1.00  0.00     0.031 C 
ATOM     17  C   UNL A   1      37.684  30.999  29.099  1.00  0.00     0.029 A 
ATOM     18  N   UNL A   1      39.190  30.635  30.710  1.00  0.00    -0.354 N 
ATOM     19  C   UNL A   1      38.957  32.981  34.423  1.00  0.00     0.074 A 
ATOM     20  C   UNL A   1      37.825  33.877  34.382  1.00  0.00     0.031 C 
ATOM     21  C   UNL A   1      38.406  29.928  28.736  1.00  0.00     0.029 A 
ATOM     22  C   UNL A   1      39.433  29.692  29.742  1.00  0.00     0.049 A 
ATOM     23  H   UNL A   1      39.708  30.700  31.544  1.00  0.00     0.167 HD
ATOM     24  C   UNL A   1      39.788  32.841  35.481  1.00  0.00     0.037 A 
ATOM     25  C   UNL A   1      40.406  28.765  29.679  1.00  0.00     0.037 A 
ATOM     26  C   UNL A   1      40.899  31.929  35.482  1.00  0.00     0.049 A 
ATOM     27  C   UNL A   1      41.379  28.701  30.827  1.00  0.00     0.074 A 
ATOM     28  C   UNL A   1      41.861  31.732  36.453  1.00  0.00     0.029 A 
ATOM     29  N   UNL A   1      41.189  31.053  34.441  1.00  0.00    -0.354 N 
ATOM     30  N   UNL A   1      41.374  29.375  31.954  1.00  0.00    -0.248 NA
ATOM     31  C   UNL A   1      42.495  27.760  30.692  1.00  0.00     0.031 C 
ATOM     32  C   UNL A   1      42.766  30.777  35.976  1.00  0.00     0.029 A 
ATOM     33  C   UNL A   1      42.329  30.327  34.738  1.00  0.00     0.049 A 
ATOM     34  H   UNL A   1      40.662  30.963  33.615  1.00  0.00     0.167 HD
ATOM     35  C   UNL A   1      42.468  28.921  32.677  1.00  0.00     0.074 A 
ATOM     36  C   UNL A   1      43.102  27.901  31.862  1.00  0.00     0.031 C 
ATOM     37  C   UNL A   1      42.911  29.307  33.900  1.00  0.00     0.037 A 
BRANCH  24  38
ATOM     38  C   UNL A   1      39.573  33.762  36.645  1.00  0.00     0.064 A 
ATOM     39  C   UNL A   1      40.145  35.042  36.710  1.00  0.00     0.173 A 
ATOM     40  C   UNL A   1      38.826  33.324  37.750  1.00  0.00     0.173 A 
ATOM     41  F   UNL A   1      40.897  35.498  35.697  1.00  0.00    -0.203 F 
ATOM     42  C   UNL A   1      40.011  35.830  37.853  1.00  0.00     0.198 A 
ATOM     43  C   UNL A   1      38.668  34.126  38.876  1.00  0.00     0.198 A 
ATOM     44  F   UNL A   1      38.266  32.105  37.747  1.00  0.00    -0.203 F 
ATOM     45  F   UNL A   1      40.630  37.017  37.922  1.00  0.00    -0.200 F 
ATOM     46  C   UNL A   1      39.271  35.373  38.932  1.00  0.00     0.200 A 
ATOM     47  F   UNL A   1      37.950  33.682  39.917  1.00  0.00    -0.200 F 
ATOM     48  F   UNL A   1      39.155  36.126  40.036  1.00  0.00    -0.200 F 
ENDBRANCH  24  38
BRANCH  25  49
ATOM     49  C   UNL A   1      40.531  27.874  28.493  1.00  0.00     0.064 A 
ATOM     50  C   UNL A   1      39.922  26.612  28.460  1.00  0.00     0.173 A 
ATOM     51  C   UNL A   1      41.281  28.260  27.371  1.00  0.00     0.173 A 
ATOM     52  F   UNL A   1      39.209  26.185  29.514  1.00  0.00    -0.203 F 
ATOM     53  C   UNL A   1      40.076  25.765  27.364  1.00  0.00     0.198 A 
ATOM     54  C   UNL A   1      41.408  27.425  26.261  1.00  0.00     0.198 A 
ATOM     55  F   UNL A   1      41.891  29.454  27.346  1.00  0.00    -0.203 F 
ATOM     56  F   UNL A   1      39.526  24.542  27.382  1.00  0.00    -0.200 F 
ATOM     57  C   UNL A   1      40.814  26.174  26.263  1.00  0.00     0.200 A 
ATOM     58  F   UNL A   1      42.110  27.834  25.196  1.00  0.00    -0.200 F 
ATOM     59  F   UNL A   1      40.962  25.359  25.210  1.00  0.00    -0.200 F 
ENDBRANCH  25  49
BRANCH  37  60
ATOM     60  C   UNL A   1      44.099  28.574  34.447  1.00  0.00     0.064 A 
ATOM     61  C   UNL A   1      45.408  29.036  34.258  1.00  0.00     0.173 A 
ATOM     62  C   UNL A   1      43.912  27.409  35.207  1.00  0.00     0.173 A 
ATOM     63  F   UNL A   1      45.637  30.138  33.525  1.00  0.00    -0.203 F 
ATOM     64  C   UNL A   1      46.492  28.339  34.782  1.00  0.00     0.198 A 
ATOM     65  C   UNL A   1      44.995  26.737  35.761  1.00  0.00     0.198 A 
ATOM     66  F   UNL A   1      42.676  26.932  35.423  1.00  0.00    -0.203 F 
ATOM     67  F   UNL A   1      47.739  28.766  34.542  1.00  0.00    -0.200 F 
ATOM     68  C   UNL A   1      46.284  27.197  35.541  1.00  0.00     0.200 A 
ATOM     69  F   UNL A   1      44.790  25.643  36.509  1.00  0.00    -0.200 F 
ATOM     70  F   UNL A   1      47.329  26.533  36.053  1.00  0.00    -0.200 F 
ENDBRANCH  37  60
ENDBRANCH  11  12
ENDBRANCH   4   6
ENDBRANCH   3   4
ENDBRANCH   2   3
ENDBRANCH   1   2
BRANCH   1  71
ATOM     71  O   UNL A   1      31.584  30.654  26.075  1.00  0.00    -0.374 OA
BRANCH  71  72
ATOM     72  C   UNL A   1      32.669  29.972  26.714  1.00  0.00     0.202 C 
BRANCH  72  73
ATOM     73  C   UNL A   1      32.154  28.702  27.394  1.00  0.00     0.261 C 
BRANCH  73  74
ATOM     74  O   UNL A   1      32.935  27.587  26.936  1.00  0.00    -0.460 OA
BRANCH  74  75
ATOM     75  C   UNL A   1      32.214  26.501  26.562  1.00  0.00     0.338 C 
ATOM     76  O   UNL A   1      31.110  26.162  26.953  1.00  0.00    -0.246 OA
BRANCH  75  77
ATOM     77  C   UNL A   1      32.895  25.897  25.399  1.00  0.00     0.067 A 
ATOM     78  C   UNL A   1      33.488  24.636  25.561  1.00  0.00     0.025 A 
ATOM     79  C   UNL A   1      32.902  26.531  24.158  1.00  0.00     0.101 A 
ATOM     80  C   UNL A   1      34.065  23.967  24.473  1.00  0.00    -0.009 A 
ATOM     81  C   UNL A   1      33.508  25.885  23.078  1.00  0.00     0.270 A 
ATOM     82  C   UNL A   1      34.064  24.602  23.220  1.00  0.00     0.094 A 
BRANCH  80  83
ATOM     83  C   UNL A   1      34.718  22.664  24.665  1.00  0.00     0.002 A 
ATOM     84  C   UNL A   1      33.984  21.473  24.503  1.00  0.00     0.030 A 
ATOM     85  C   UNL A   1      36.072  22.563  25.042  1.00  0.00     0.048 A 
ATOM     86  C   UNL A   1      34.589  20.231  24.716  1.00  0.00     0.041 A 
ATOM     87  C   UNL A   1      36.670  21.317  25.251  1.00  0.00     0.023 A 
ATOM     88  Cl  UNL A   1      37.052  23.969  25.283  1.00  0.00    -0.084 Cl
ATOM     89  Cl  UNL A   1      33.670  18.788  24.525  1.00  0.00    -0.084 Cl
ATOM     90  C   UNL A   1      35.927  20.148  25.090  1.00  0.00     0.022 A 
ENDBRANCH  80  83
BRANCH  81  91
ATOM     91  N   UNL A   1      33.591  26.574  21.786  1.00  0.00     0.062 N 
ATOM     92  O   UNL A   1      33.251  25.945  20.775  1.00  0.00    -0.258 OA
ATOM     93  O   UNL A   1      34.003  27.743  21.785  1.00  0.00    -0.258 OA
ENDBRANCH  81  91
ENDBRANCH  75  77
ENDBRANCH  74  75
ENDBRANCH  73  74
ENDBRANCH  72  73
ENDBRANCH  71  72
ENDBRANCH   1  71
TORSDOF 16
ENDMDL
