MODEL 1
REMARK VINA RESULT:     -11.9      0.000      0.000
REMARK SMILES Cc1ccccc1/C=C1\SC(=S)N(CCC(=O)N[C@@H](C)C(=O)OCCOCCOC(=O)c2ccc(-c3c4nc(c(-c5c(F)c(F)c(F)c(F)c5F)c5ccc([nH]5)c(-c5c(F)c(F)c(F)c(F)c5F)c5nc(c(-c6c(F)c(F)c(F)c(F)c6F)c6ccc3[nH]6)C=C5)C=C4)cc2)C1=O
REMARK SMILES IDX 24 1 23 2 21 3 22 4 19 5 20 6 18 7 16 8 17 9 15 11 14 12
REMARK SMILES IDX 13 13 8 14 9 15 10 16 95 17 11 18 96 19 12 20 7 21 1 22 2 23
REMARK SMILES IDX 3 24 4 25 6 26 5 27 25 28 26 29 27 30 28 31 29 32 30 33
REMARK SMILES IDX 31 34 32 35 33 36 94 37 34 38 93 39 35 40 36 41 37 42 87 43
REMARK SMILES IDX 38 44 92 45 86 46 88 47 39 48 91 49 85 50 84 51 40 53 72 54
REMARK SMILES IDX 52 55 71 56 53 57 56 58 70 59 89 60 54 61 55 62 69 64 90 65
REMARK SMILES IDX 57 66 41 67 42 68 50 69 43 70 44 71 48 72 51 73 45 74 46 75
REMARK SMILES IDX 49 76 47 77 73 78 74 79 82 80 75 81 76 82 80 83 83 84 77 85
REMARK SMILES IDX 78 86 81 87 79 88 58 89 59 90 67 91 60 92 61 93 65 94 68 95
REMARK SMILES IDX 62 96 63 97 66 98 64 99
REMARK H PARENT 18 10 88 52 56 63
REMARK Flexibility Score: inf
ROOT
ATOM      1  C   UNL A   1      33.270  27.463  24.003  1.00  0.00     0.261 C 
ENDROOT
BRANCH   1   2
ATOM      2  O   UNL A   1      32.723  26.200  24.213  1.00  0.00    -0.462 OA
BRANCH   2   3
ATOM      3  C   UNL A   1      31.617  25.818  23.531  1.00  0.00     0.328 C 
ATOM      4  O   UNL A   1      31.245  26.021  22.383  1.00  0.00    -0.250 OA
BRANCH   3   5
ATOM      5  C   UNL A   1      30.836  25.065  24.521  1.00  0.00     0.189 C 
ATOM      6  C   UNL A   1      29.486  25.672  24.805  1.00  0.00     0.043 C 
BRANCH   5   7
ATOM      7  N   UNL A   1      31.554  24.921  25.742  1.00  0.00    -0.343 N 
ATOM      8  C   UNL A   1      31.495  23.748  26.418  1.00  0.00     0.222 C 
ATOM      9  O   UNL A   1      31.685  23.761  27.630  1.00  0.00    -0.275 OA
ATOM     10  H   UNL A   1      32.090  25.669  26.092  1.00  0.00     0.164 HD
BRANCH   8  11
ATOM     11  C   UNL A   1      31.321  22.463  25.574  1.00  0.00     0.122 C 
BRANCH  11  12
ATOM     12  C   UNL A   1      32.585  21.543  25.228  1.00  0.00     0.137 C 
BRANCH  12  13
ATOM     13  N   UNL A   1      33.972  22.208  24.799  1.00  0.00    -0.292 N 
ATOM     14  C   UNL A   1      37.565  22.809  25.786  1.00  0.00     0.029 C 
ATOM     15  C   UNL A   1      36.397  22.891  25.039  1.00  0.00     0.081 C 
ATOM     16  S   UNL A   1      36.021  23.062  23.369  1.00  0.00    -0.054 SA
ATOM     17  C   UNL A   1      34.995  22.542  25.709  1.00  0.00     0.266 C 
ATOM     18  C   UNL A   1      34.261  22.671  23.539  1.00  0.00     0.148 C 
ATOM     19  O   UNL A   1      34.837  22.531  26.926  1.00  0.00    -0.268 OA
ATOM     20  S   UNL A   1      33.151  22.890  22.306  1.00  0.00    -0.052 S 
BRANCH  14  21
ATOM     21  C   UNL A   1      39.238  22.666  26.128  1.00  0.00    -0.021 A 
ATOM     22  C   UNL A   1      38.965  25.196  26.990  1.00  0.00     0.045 C 
ATOM     23  C   UNL A   1      39.787  23.957  27.056  1.00  0.00    -0.044 A 
ATOM     24  C   UNL A   1      41.079  23.734  28.258  1.00  0.00     0.004 A 
ATOM     25  C   UNL A   1      42.030  21.880  28.378  1.00  0.00     0.000 A 
ATOM     26  C   UNL A   1      40.095  21.148  26.283  1.00  0.00     0.008 A 
ATOM     27  C   UNL A   1      41.450  20.646  27.295  1.00  0.00     0.001 A 
ENDBRANCH  14  21
ENDBRANCH  12  13
ENDBRANCH  11  12
ENDBRANCH   8  11
ENDBRANCH   5   7
ENDBRANCH   3   5
ENDBRANCH   2   3
ENDBRANCH   1   2
BRANCH   1  28
ATOM     28  C   UNL A   1      33.676  28.103  25.239  1.00  0.00     0.202 C 
BRANCH  28  29
ATOM     29  O   UNL A   1      33.344  29.465  25.221  1.00  0.00    -0.374 OA
BRANCH  29  30
ATOM     30  C   UNL A   1      32.049  29.757  25.674  1.00  0.00     0.202 C 
BRANCH  30  31
ATOM     31  C   UNL A   1      32.141  30.821  26.773  1.00  0.00     0.261 C 
BRANCH  31  32
ATOM     32  O   UNL A   1      33.144  30.387  27.786  1.00  0.00    -0.460 OA
BRANCH  32  33
ATOM     33  C   UNL A   1      34.185  31.174  28.266  1.00  0.00     0.338 C 
ATOM     34  O   UNL A   1      34.033  32.261  28.805  1.00  0.00    -0.246 OA
BRANCH  33  35
ATOM     35  C   UNL A   1      35.562  30.701  27.734  1.00  0.00     0.060 A 
ATOM     36  C   UNL A   1      36.055  29.377  27.933  1.00  0.00     0.016 A 
ATOM     37  C   UNL A   1      36.501  31.696  27.626  1.00  0.00     0.016 A 
ATOM     38  C   UNL A   1      37.409  29.129  28.336  1.00  0.00     0.010 A 
ATOM     39  C   UNL A   1      37.707  31.476  28.285  1.00  0.00     0.010 A 
ATOM     40  C   UNL A   1      38.194  30.213  28.701  1.00  0.00    -0.014 A 
BRANCH  40  41
ATOM     41  C   UNL A   1      39.500  30.295  29.482  1.00  0.00     0.031 A 
ATOM     42  C   UNL A   1      40.543  29.288  28.650  1.00  0.00     0.074 A 
ATOM     43  C   UNL A   1      39.670  31.228  30.553  1.00  0.00     0.049 A 
ATOM     44  N   UNL A   1      41.620  28.708  29.086  1.00  0.00    -0.248 NA
ATOM     45  C   UNL A   1      40.245  28.653  27.335  1.00  0.00     0.031 C 
ATOM     46  C   UNL A   1      40.782  32.162  30.944  1.00  0.00     0.029 A 
ATOM     47  N   UNL A   1      38.797  31.721  31.575  1.00  0.00    -0.354 N 
ATOM     48  C   UNL A   1      42.196  27.857  28.170  1.00  0.00     0.074 A 
ATOM     49  C   UNL A   1      41.259  27.815  27.101  1.00  0.00     0.031 C 
ATOM     50  C   UNL A   1      40.708  32.676  32.194  1.00  0.00     0.029 A 
ATOM     51  C   UNL A   1      39.545  32.084  32.724  1.00  0.00     0.049 A 
ATOM     52  H   UNL A   1      37.818  31.796  31.492  1.00  0.00     0.167 HD
ATOM     53  C   UNL A   1      43.433  27.334  28.405  1.00  0.00     0.037 A 
ATOM     54  C   UNL A   1      39.272  31.951  34.033  1.00  0.00     0.037 A 
ATOM     55  C   UNL A   1      43.948  27.776  29.689  1.00  0.00     0.049 A 
ATOM     56  C   UNL A   1      40.519  31.111  34.518  1.00  0.00     0.074 A 
ATOM     57  C   UNL A   1      44.815  28.802  30.005  1.00  0.00     0.029 A 
ATOM     58  N   UNL A   1      43.408  27.329  30.883  1.00  0.00    -0.354 N 
ATOM     59  N   UNL A   1      41.564  30.582  33.299  1.00  0.00    -0.248 NA
ATOM     60  C   UNL A   1      41.053  30.134  36.159  1.00  0.00     0.031 C 
ATOM     61  C   UNL A   1      44.942  28.849  31.411  1.00  0.00     0.029 A 
ATOM     62  C   UNL A   1      43.938  28.059  31.951  1.00  0.00     0.049 A 
ATOM     63  H   UNL A   1      42.749  26.603  30.967  1.00  0.00     0.167 HD
ATOM     64  C   UNL A   1      42.791  29.131  33.916  1.00  0.00     0.074 A 
ATOM     65  C   UNL A   1      42.292  29.074  35.822  1.00  0.00     0.031 C 
ATOM     66  C   UNL A   1      43.356  27.958  33.291  1.00  0.00     0.037 A 
BRANCH  53  67
ATOM     67  C   UNL A   1      44.374  26.634  27.429  1.00  0.00     0.064 A 
ATOM     68  C   UNL A   1      44.866  27.361  26.310  1.00  0.00     0.173 A 
ATOM     69  C   UNL A   1      44.801  25.296  27.473  1.00  0.00     0.173 A 
ATOM     70  F   UNL A   1      44.647  28.672  26.154  1.00  0.00    -0.203 F 
ATOM     71  C   UNL A   1      45.618  26.791  25.287  1.00  0.00     0.198 A 
ATOM     72  C   UNL A   1      45.572  24.723  26.442  1.00  0.00     0.198 A 
ATOM     73  F   UNL A   1      44.530  24.502  28.514  1.00  0.00    -0.203 F 
ATOM     74  F   UNL A   1      45.994  27.547  24.245  1.00  0.00    -0.200 F 
ATOM     75  C   UNL A   1      45.964  25.466  25.345  1.00  0.00     0.200 A 
ATOM     76  F   UNL A   1      45.935  23.434  26.520  1.00  0.00    -0.200 F 
ATOM     77  F   UNL A   1      46.688  24.916  24.361  1.00  0.00    -0.200 F 
ENDBRANCH  53  67
BRANCH  54  78
ATOM     78  C   UNL A   1      37.750  32.176  34.045  1.00  0.00     0.064 A 
ATOM     79  C   UNL A   1      37.448  33.589  33.952  1.00  0.00     0.173 A 
ATOM     80  C   UNL A   1      36.867  31.356  33.280  1.00  0.00     0.173 A 
ATOM     81  F   UNL A   1      38.300  34.475  34.497  1.00  0.00    -0.203 F 
ATOM     82  C   UNL A   1      36.509  34.124  33.043  1.00  0.00     0.198 A 
ATOM     83  C   UNL A   1      35.896  31.913  32.395  1.00  0.00     0.198 A 
ATOM     84  F   UNL A   1      37.173  30.063  33.091  1.00  0.00    -0.203 F 
ATOM     85  F   UNL A   1      36.581  35.425  32.701  1.00  0.00    -0.200 F 
ATOM     86  C   UNL A   1      35.711  33.285  32.288  1.00  0.00     0.200 A 
ATOM     87  F   UNL A   1      35.328  31.137  31.454  1.00  0.00    -0.200 F 
ATOM     88  F   UNL A   1      34.960  33.795  31.291  1.00  0.00    -0.200 F 
ENDBRANCH  54  78
BRANCH  66  89
ATOM     89  C   UNL A   1      43.396  26.542  33.939  1.00  0.00     0.064 A 
ATOM     90  C   UNL A   1      42.344  25.938  34.649  1.00  0.00     0.173 A 
ATOM     91  C   UNL A   1      44.502  25.663  33.762  1.00  0.00     0.173 A 
ATOM     92  F   UNL A   1      41.082  26.362  34.545  1.00  0.00    -0.203 F 
ATOM     93  C   UNL A   1      42.503  24.774  35.408  1.00  0.00     0.198 A 
ATOM     94  C   UNL A   1      44.614  24.428  34.413  1.00  0.00     0.198 A 
ATOM     95  F   UNL A   1      45.498  25.928  32.905  1.00  0.00    -0.203 F 
ATOM     96  F   UNL A   1      41.508  24.368  36.209  1.00  0.00    -0.200 F 
ATOM     97  C   UNL A   1      43.653  24.028  35.309  1.00  0.00     0.200 A 
ATOM     98  F   UNL A   1      45.659  23.629  34.153  1.00  0.00    -0.200 F 
ATOM     99  F   UNL A   1      43.804  22.906  36.023  1.00  0.00    -0.200 F 
ENDBRANCH  66  89
ENDBRANCH  40  41
ENDBRANCH  33  35
ENDBRANCH  32  33
ENDBRANCH  31  32
ENDBRANCH  30  31
ENDBRANCH  29  30
ENDBRANCH  28  29
ENDBRANCH   1  28
TORSDOF 19
ENDMDL
MODEL 2
REMARK VINA RESULT:     -11.9      1.670      2.445
REMARK SMILES Cc1ccccc1/C=C1\SC(=S)N(CCC(=O)N[C@@H](C)C(=O)OCCOCCOC(=O)c2ccc(-c3c4nc(c(-c5c(F)c(F)c(F)c(F)c5F)c5ccc([nH]5)c(-c5c(F)c(F)c(F)c(F)c5F)c5nc(c(-c6c(F)c(F)c(F)c(F)c6F)c6ccc3[nH]6)C=C5)C=C4)cc2)C1=O
REMARK SMILES IDX 24 1 23 2 21 3 22 4 19 5 20 6 18 7 16 8 17 9 15 11 14 12
REMARK SMILES IDX 13 13 8 14 9 15 10 16 95 17 11 18 96 19 12 20 7 21 1 22 2 23
REMARK SMILES IDX 3 24 4 25 6 26 5 27 25 28 26 29 27 30 28 31 29 32 30 33
REMARK SMILES IDX 31 34 32 35 33 36 94 37 34 38 93 39 35 40 36 41 37 42 87 43
REMARK SMILES IDX 38 44 92 45 86 46 88 47 39 48 91 49 85 50 84 51 40 53 72 54
REMARK SMILES IDX 52 55 71 56 53 57 56 58 70 59 89 60 54 61 55 62 69 64 90 65
REMARK SMILES IDX 57 66 41 67 42 68 50 69 43 70 44 71 48 72 51 73 45 74 46 75
REMARK SMILES IDX 49 76 47 77 73 78 74 79 82 80 75 81 76 82 80 83 83 84 77 85
REMARK SMILES IDX 78 86 81 87 79 88 58 89 59 90 67 91 60 92 61 93 65 94 68 95
REMARK SMILES IDX 62 96 63 97 66 98 64 99
REMARK H PARENT 18 10 88 52 56 63
REMARK Flexibility Score: inf
ROOT
ATOM      1  C   UNL A   1      32.930  27.924  25.512  1.00  0.00     0.261 C 
ENDROOT
BRANCH   1   2
ATOM      2  O   UNL A   1      32.570  26.579  25.529  1.00  0.00    -0.462 OA
BRANCH   2   3
ATOM      3  C   UNL A   1      31.592  26.128  24.708  1.00  0.00     0.328 C 
ATOM      4  O   UNL A   1      31.225  26.476  23.594  1.00  0.00    -0.250 OA
BRANCH   3   5
ATOM      5  C   UNL A   1      30.952  25.056  25.481  1.00  0.00     0.189 C 
ATOM      6  C   UNL A   1      29.648  25.469  26.112  1.00  0.00     0.043 C 
BRANCH   5   7
ATOM      7  N   UNL A   1      31.824  24.554  26.487  1.00  0.00    -0.343 N 
ATOM      8  C   UNL A   1      31.733  23.255  26.865  1.00  0.00     0.222 C 
ATOM      9  O   UNL A   1      32.105  22.947  27.993  1.00  0.00    -0.275 OA
ATOM     10  H   UNL A   1      32.490  25.146  26.905  1.00  0.00     0.164 HD
BRANCH   8  11
ATOM     11  C   UNL A   1      31.286  22.243  25.784  1.00  0.00     0.122 C 
BRANCH  11  12
ATOM     12  C   UNL A   1      32.373  21.415  24.949  1.00  0.00     0.137 C 
BRANCH  12  13
ATOM     13  N   UNL A   1      33.808  22.046  24.648  1.00  0.00    -0.292 N 
ATOM     14  C   UNL A   1      37.470  22.017  25.563  1.00  0.00     0.029 C 
ATOM     15  C   UNL A   1      36.296  22.412  24.935  1.00  0.00     0.081 C 
ATOM     16  S   UNL A   1      35.894  23.083  23.403  1.00  0.00    -0.054 SA
ATOM     17  C   UNL A   1      34.885  22.015  25.557  1.00  0.00     0.266 C 
ATOM     18  C   UNL A   1      34.108  22.820  23.554  1.00  0.00     0.148 C 
ATOM     19  O   UNL A   1      34.760  21.674  26.729  1.00  0.00    -0.268 OA
ATOM     20  S   UNL A   1      32.993  23.478  22.494  1.00  0.00    -0.052 S 
BRANCH  14  21
ATOM     21  C   UNL A   1      39.128  21.633  25.759  1.00  0.00    -0.021 A 
ATOM     22  C   UNL A   1      39.191  23.955  27.108  1.00  0.00     0.045 C 
ATOM     23  C   UNL A   1      39.866  22.648  26.880  1.00  0.00    -0.044 A 
ATOM     24  C   UNL A   1      41.174  22.055  27.927  1.00  0.00     0.004 A 
ATOM     25  C   UNL A   1      41.907  20.124  27.624  1.00  0.00     0.000 A 
ATOM     26  C   UNL A   1      39.808  20.032  25.561  1.00  0.00     0.008 A 
ATOM     27  C   UNL A   1      41.139  19.198  26.365  1.00  0.00     0.001 A 
ENDBRANCH  14  21
ENDBRANCH  12  13
ENDBRANCH  11  12
ENDBRANCH   8  11
ENDBRANCH   5   7
ENDBRANCH   3   5
ENDBRANCH   2   3
ENDBRANCH   1   2
BRANCH   1  28
ATOM     28  C   UNL A   1      33.853  28.263  26.577  1.00  0.00     0.202 C 
BRANCH  28  29
ATOM     29  O   UNL A   1      34.085  29.646  26.605  1.00  0.00    -0.374 OA
BRANCH  29  30
ATOM     30  C   UNL A   1      32.936  30.427  26.802  1.00  0.00     0.202 C 
BRANCH  30  31
ATOM     31  C   UNL A   1      33.360  31.796  27.345  1.00  0.00     0.261 C 
BRANCH  31  32
ATOM     32  O   UNL A   1      33.832  31.637  28.750  1.00  0.00    -0.460 OA
BRANCH  32  33
ATOM     33  C   UNL A   1      35.104  31.960  29.207  1.00  0.00     0.338 C 
ATOM     34  O   UNL A   1      35.451  33.086  29.535  1.00  0.00    -0.246 OA
BRANCH  33  35
ATOM     35  C   UNL A   1      36.126  30.831  28.921  1.00  0.00     0.060 A 
ATOM     36  C   UNL A   1      36.290  29.701  29.775  1.00  0.00     0.016 A 
ATOM     37  C   UNL A   1      37.234  31.234  28.216  1.00  0.00     0.016 A 
ATOM     38  C   UNL A   1      37.588  29.217  30.147  1.00  0.00     0.010 A 
ATOM     39  C   UNL A   1      38.466  30.950  28.797  1.00  0.00     0.010 A 
ATOM     40  C   UNL A   1      38.695  29.977  29.799  1.00  0.00    -0.014 A 
BRANCH  40  41
ATOM     41  C   UNL A   1      40.131  29.959  30.308  1.00  0.00     0.031 A 
ATOM     42  C   UNL A   1      40.882  28.784  29.386  1.00  0.00     0.074 A 
ATOM     43  C   UNL A   1      40.603  30.935  31.242  1.00  0.00     0.049 A 
ATOM     44  N   UNL A   1      41.960  28.112  29.660  1.00  0.00    -0.248 NA
ATOM     45  C   UNL A   1      40.267  28.102  28.212  1.00  0.00     0.031 C 
ATOM     46  C   UNL A   1      41.860  31.757  31.332  1.00  0.00     0.029 A 
ATOM     47  N   UNL A   1      40.004  31.593  32.363  1.00  0.00    -0.354 N 
ATOM     48  C   UNL A   1      42.254  27.142  28.730  1.00  0.00     0.074 A 
ATOM     49  C   UNL A   1      41.125  27.137  27.865  1.00  0.00     0.031 C 
ATOM     50  C   UNL A   1      42.087  32.358  32.523  1.00  0.00     0.029 A 
ATOM     51  C   UNL A   1      40.998  31.942  33.313  1.00  0.00     0.049 A 
ATOM     52  H   UNL A   1      39.041  31.775  32.460  1.00  0.00     0.167 HD
ATOM     53  C   UNL A   1      43.453  26.495  28.772  1.00  0.00     0.037 A 
ATOM     54  C   UNL A   1      40.978  31.930  34.657  1.00  0.00     0.037 A 
ATOM     55  C   UNL A   1      44.255  26.959  29.891  1.00  0.00     0.049 A 
ATOM     56  C   UNL A   1      42.204  30.984  34.969  1.00  0.00     0.074 A 
ATOM     57  C   UNL A   1      45.267  27.895  29.945  1.00  0.00     0.029 A 
ATOM     58  N   UNL A   1      43.919  26.658  31.200  1.00  0.00    -0.354 N 
ATOM     59  N   UNL A   1      42.928  30.257  33.625  1.00  0.00    -0.248 NA
ATOM     60  C   UNL A   1      42.950  30.063  36.559  1.00  0.00     0.031 C 
ATOM     61  C   UNL A   1      45.673  28.020  31.293  1.00  0.00     0.029 A 
ATOM     62  C   UNL A   1      44.721  27.391  32.080  1.00  0.00     0.049 A 
ATOM     63  H   UNL A   1      43.219  26.021  31.471  1.00  0.00     0.167 HD
ATOM     64  C   UNL A   1      44.100  28.717  34.124  1.00  0.00     0.074 A 
ATOM     65  C   UNL A   1      43.984  28.846  36.088  1.00  0.00     0.031 C 
ATOM     66  C   UNL A   1      44.409  27.448  33.509  1.00  0.00     0.037 A 
BRANCH  53  67
ATOM     67  C   UNL A   1      44.107  25.627  27.701  1.00  0.00     0.064 A 
ATOM     68  C   UNL A   1      44.754  26.261  26.604  1.00  0.00     0.173 A 
ATOM     69  C   UNL A   1      44.116  24.222  27.634  1.00  0.00     0.173 A 
ATOM     70  F   UNL A   1      44.932  27.586  26.546  1.00  0.00    -0.203 F 
ATOM     71  C   UNL A   1      45.265  25.576  25.505  1.00  0.00     0.198 A 
ATOM     72  C   UNL A   1      44.643  23.530  26.526  1.00  0.00     0.198 A 
ATOM     73  F   UNL A   1      43.657  23.466  28.636  1.00  0.00    -0.203 F 
ATOM     74  F   UNL A   1      45.812  26.267  24.495  1.00  0.00    -0.200 F 
ATOM     75  C   UNL A   1      45.200  24.208  25.458  1.00  0.00     0.200 A 
ATOM     76  F   UNL A   1      44.607  22.190  26.501  1.00  0.00    -0.200 F 
ATOM     77  F   UNL A   1      45.692  23.547  24.401  1.00  0.00    -0.200 F 
ENDBRANCH  53  67
BRANCH  54  78
ATOM     78  C   UNL A   1      39.518  32.331  34.937  1.00  0.00     0.064 A 
ATOM     79  C   UNL A   1      38.780  31.206  35.471  1.00  0.00     0.173 A 
ATOM     80  C   UNL A   1      39.189  33.572  35.558  1.00  0.00     0.173 A 
ATOM     81  F   UNL A   1      39.112  29.963  35.080  1.00  0.00    -0.203 F 
ATOM     82  C   UNL A   1      37.968  31.288  36.623  1.00  0.00     0.198 A 
ATOM     83  C   UNL A   1      38.335  33.642  36.699  1.00  0.00     0.198 A 
ATOM     84  F   UNL A   1      39.960  34.646  35.325  1.00  0.00    -0.203 F 
ATOM     85  F   UNL A   1      37.668  30.167  37.306  1.00  0.00    -0.200 F 
ATOM     86  C   UNL A   1      37.720  32.511  37.218  1.00  0.00     0.200 A 
ATOM     87  F   UNL A   1      38.319  34.756  37.454  1.00  0.00    -0.200 F 
ATOM     88  F   UNL A   1      37.109  32.559  38.419  1.00  0.00    -0.200 F 
ENDBRANCH  54  78
BRANCH  66  89
ATOM     89  C   UNL A   1      44.432  26.083  34.260  1.00  0.00     0.064 A 
ATOM     90  C   UNL A   1      45.587  25.382  34.645  1.00  0.00     0.173 A 
ATOM     91  C   UNL A   1      43.242  25.465  34.737  1.00  0.00     0.173 A 
ATOM     92  F   UNL A   1      46.783  25.971  34.725  1.00  0.00    -0.203 F 
ATOM     93  C   UNL A   1      45.562  24.060  35.104  1.00  0.00     0.198 A 
ATOM     94  C   UNL A   1      43.217  24.193  35.323  1.00  0.00     0.198 A 
ATOM     95  F   UNL A   1      42.054  26.085  34.714  1.00  0.00    -0.203 F 
ATOM     96  F   UNL A   1      46.716  23.398  35.267  1.00  0.00    -0.200 F 
ATOM     97  C   UNL A   1      44.371  23.454  35.420  1.00  0.00     0.200 A 
ATOM     98  F   UNL A   1      42.065  23.699  35.799  1.00  0.00    -0.200 F 
ATOM     99  F   UNL A   1      44.343  22.194  35.872  1.00  0.00    -0.200 F 
ENDBRANCH  66  89
ENDBRANCH  40  41
ENDBRANCH  33  35
ENDBRANCH  32  33
ENDBRANCH  31  32
ENDBRANCH  30  31
ENDBRANCH  29  30
ENDBRANCH  28  29
ENDBRANCH   1  28
TORSDOF 19
ENDMDL
MODEL 3
REMARK VINA RESULT:     -11.3      7.127     11.288
REMARK SMILES Cc1ccccc1/C=C1\SC(=S)N(CCC(=O)N[C@@H](C)C(=O)OCCOCCOC(=O)c2ccc(-c3c4nc(c(-c5c(F)c(F)c(F)c(F)c5F)c5ccc([nH]5)c(-c5c(F)c(F)c(F)c(F)c5F)c5nc(c(-c6c(F)c(F)c(F)c(F)c6F)c6ccc3[nH]6)C=C5)C=C4)cc2)C1=O
REMARK SMILES IDX 24 1 23 2 21 3 22 4 19 5 20 6 18 7 16 8 17 9 15 11 14 12
REMARK SMILES IDX 13 13 8 14 9 15 10 16 95 17 11 18 96 19 12 20 7 21 1 22 2 23
REMARK SMILES IDX 3 24 4 25 6 26 5 27 25 28 26 29 27 30 28 31 29 32 30 33
REMARK SMILES IDX 31 34 32 35 33 36 94 37 34 38 93 39 35 40 36 41 37 42 87 43
REMARK SMILES IDX 38 44 92 45 86 46 88 47 39 48 91 49 85 50 84 51 40 53 72 54
REMARK SMILES IDX 52 55 71 56 53 57 56 58 70 59 89 60 54 61 55 62 69 64 90 65
REMARK SMILES IDX 57 66 41 67 42 68 50 69 43 70 44 71 48 72 51 73 45 74 46 75
REMARK SMILES IDX 49 76 47 77 73 78 74 79 82 80 75 81 76 82 80 83 83 84 77 85
REMARK SMILES IDX 78 86 81 87 79 88 58 89 59 90 67 91 60 92 61 93 65 94 68 95
REMARK SMILES IDX 62 96 63 97 66 98 64 99
REMARK H PARENT 18 10 88 52 56 63
REMARK Flexibility Score: inf
ROOT
ATOM      1  C   UNL A   1      40.751  34.673  29.459  1.00  0.00     0.261 C 
ENDROOT
BRANCH   1   2
ATOM      2  O   UNL A   1      41.485  35.810  29.131  1.00  0.00    -0.462 OA
BRANCH   2   3
ATOM      3  C   UNL A   1      42.206  35.843  27.984  1.00  0.00     0.328 C 
ATOM      4  O   UNL A   1      41.984  35.422  26.857  1.00  0.00    -0.250 OA
BRANCH   3   5
ATOM      5  C   UNL A   1      43.454  36.513  28.375  1.00  0.00     0.189 C 
ATOM      6  C   UNL A   1      44.426  35.603  29.080  1.00  0.00     0.043 C 
BRANCH   5   7
ATOM      7  N   UNL A   1      43.195  37.650  29.191  1.00  0.00    -0.343 N 
ATOM      8  C   UNL A   1      43.514  38.886  28.736  1.00  0.00     0.222 C 
ATOM      9  O   UNL A   1      43.745  39.770  29.556  1.00  0.00    -0.275 OA
ATOM     10  H   UNL A   1      42.787  37.539  30.080  1.00  0.00     0.164 HD
BRANCH   8  11
ATOM     11  C   UNL A   1      43.431  39.111  27.207  1.00  0.00     0.122 C 
BRANCH  11  12
ATOM     12  C   UNL A   1      44.297  40.265  26.510  1.00  0.00     0.137 C 
BRANCH  12  13
ATOM     13  N   UNL A   1      43.622  41.247  25.448  1.00  0.00    -0.292 N 
ATOM     14  C   UNL A   1      44.230  43.532  22.505  1.00  0.00     0.029 C 
ATOM     15  C   UNL A   1      43.537  42.885  23.520  1.00  0.00     0.081 C 
ATOM     16  S   UNL A   1      41.924  42.326  23.737  1.00  0.00    -0.054 SA
ATOM     17  C   UNL A   1      44.327  42.245  24.745  1.00  0.00     0.266 C 
ATOM     18  C   UNL A   1      42.272  41.342  25.217  1.00  0.00     0.148 C 
ATOM     19  O   UNL A   1      45.475  42.575  25.026  1.00  0.00    -0.268 OA
ATOM     20  S   UNL A   1      41.073  40.674  26.175  1.00  0.00    -0.052 S 
BRANCH  14  21
ATOM     21  C   UNL A   1      44.551  44.195  20.958  1.00  0.00    -0.021 A 
ATOM     22  C   UNL A   1      42.456  42.685  20.215  1.00  0.00     0.045 C 
ATOM     23  C   UNL A   1      43.307  43.859  19.876  1.00  0.00    -0.044 A 
ATOM     24  C   UNL A   1      42.871  45.014  18.598  1.00  0.00     0.004 A 
ATOM     25  C   UNL A   1      44.041  46.725  18.347  1.00  0.00     0.000 A 
ATOM     26  C   UNL A   1      45.489  45.645  20.673  1.00  0.00     0.008 A 
ATOM     27  C   UNL A   1      45.367  46.919  19.459  1.00  0.00     0.001 A 
ENDBRANCH  14  21
ENDBRANCH  12  13
ENDBRANCH  11  12
ENDBRANCH   8  11
ENDBRANCH   5   7
ENDBRANCH   3   5
ENDBRANCH   2   3
ENDBRANCH   1   2
BRANCH   1  28
ATOM     28  C   UNL A   1      39.346  34.963  29.669  1.00  0.00     0.202 C 
BRANCH  28  29
ATOM     29  O   UNL A   1      38.546  34.108  28.898  1.00  0.00    -0.374 OA
BRANCH  29  30
ATOM     30  C   UNL A   1      37.613  33.361  29.633  1.00  0.00     0.202 C 
BRANCH  30  31
ATOM     31  C   UNL A   1      36.213  33.641  29.078  1.00  0.00     0.261 C 
BRANCH  31  32
ATOM     32  O   UNL A   1      35.931  32.690  27.965  1.00  0.00    -0.460 OA
BRANCH  32  33
ATOM     33  C   UNL A   1      35.059  31.610  28.039  1.00  0.00     0.338 C 
ATOM     34  O   UNL A   1      33.849  31.712  28.175  1.00  0.00    -0.246 OA
BRANCH  33  35
ATOM     35  C   UNL A   1      35.809  30.276  28.289  1.00  0.00     0.060 A 
ATOM     36  C   UNL A   1      36.039  29.750  29.594  1.00  0.00     0.016 A 
ATOM     37  C   UNL A   1      36.736  29.958  27.327  1.00  0.00     0.016 A 
ATOM     38  C   UNL A   1      37.312  29.213  29.979  1.00  0.00     0.010 A 
ATOM     39  C   UNL A   1      38.029  29.710  27.779  1.00  0.00     0.010 A 
ATOM     40  C   UNL A   1      38.381  29.372  29.108  1.00  0.00    -0.014 A 
BRANCH  40  41
ATOM     41  C   UNL A   1      39.884  29.251  29.324  1.00  0.00     0.031 A 
ATOM     42  C   UNL A   1      40.291  27.801  28.598  1.00  0.00     0.074 A 
ATOM     43  C   UNL A   1      40.646  30.327  29.878  1.00  0.00     0.049 A 
ATOM     44  N   UNL A   1      41.329  27.052  28.821  1.00  0.00    -0.248 NA
ATOM     45  C   UNL A   1      39.367  26.976  27.769  1.00  0.00     0.031 C 
ATOM     46  C   UNL A   1      41.969  30.950  29.521  1.00  0.00     0.029 A 
ATOM     47  N   UNL A   1      40.378  31.300  30.894  1.00  0.00    -0.354 N 
ATOM     48  C   UNL A   1      41.312  25.866  28.122  1.00  0.00     0.074 A 
ATOM     49  C   UNL A   1      40.025  25.841  27.517  1.00  0.00     0.031 C 
ATOM     50  C   UNL A   1      42.512  31.759  30.460  1.00  0.00     0.029 A 
ATOM     51  C   UNL A   1      41.587  31.698  31.521  1.00  0.00     0.049 A 
ATOM     52  H   UNL A   1      39.483  31.643  31.124  1.00  0.00     0.167 HD
ATOM     53  C   UNL A   1      42.419  25.072  28.096  1.00  0.00     0.037 A 
ATOM     54  C   UNL A   1      41.862  31.988  32.804  1.00  0.00     0.037 A 
ATOM     55  C   UNL A   1      43.490  25.647  28.891  1.00  0.00     0.049 A 
ATOM     56  C   UNL A   1      43.025  30.962  33.103  1.00  0.00     0.074 A 
ATOM     57  C   UNL A   1      44.578  26.408  28.518  1.00  0.00     0.029 A 
ATOM     58  N   UNL A   1      43.422  25.698  30.273  1.00  0.00    -0.354 N 
ATOM     59  N   UNL A   1      43.358  29.853  31.870  1.00  0.00    -0.248 NA
ATOM     60  C   UNL A   1      44.006  30.315  34.701  1.00  0.00     0.031 C 
ATOM     61  C   UNL A   1      45.282  26.767  29.690  1.00  0.00     0.029 A 
ATOM     62  C   UNL A   1      44.467  26.479  30.774  1.00  0.00     0.049 A 
ATOM     63  H   UNL A   1      42.738  25.250  30.821  1.00  0.00     0.167 HD
ATOM     64  C   UNL A   1      44.450  28.304  32.504  1.00  0.00     0.074 A 
ATOM     65  C   UNL A   1      44.783  28.882  34.360  1.00  0.00     0.031 C 
ATOM     66  C   UNL A   1      44.485  26.898  32.177  1.00  0.00     0.037 A 
BRANCH  53  67
ATOM     67  C   UNL A   1      42.730  23.900  27.170  1.00  0.00     0.064 A 
ATOM     68  C   UNL A   1      42.376  22.585  27.585  1.00  0.00     0.173 A 
ATOM     69  C   UNL A   1      43.385  23.948  25.927  1.00  0.00     0.173 A 
ATOM     70  F   UNL A   1      41.660  22.351  28.691  1.00  0.00    -0.203 F 
ATOM     71  C   UNL A   1      42.729  21.433  26.889  1.00  0.00     0.198 A 
ATOM     72  C   UNL A   1      43.732  22.782  25.218  1.00  0.00     0.198 A 
ATOM     73  F   UNL A   1      43.684  25.108  25.333  1.00  0.00    -0.203 F 
ATOM     74  F   UNL A   1      42.394  20.234  27.387  1.00  0.00    -0.200 F 
ATOM     75  C   UNL A   1      43.418  21.528  25.708  1.00  0.00     0.200 A 
ATOM     76  F   UNL A   1      44.377  22.882  24.047  1.00  0.00    -0.200 F 
ATOM     77  F   UNL A   1      43.758  20.419  25.036  1.00  0.00    -0.200 F 
ENDBRANCH  53  67
BRANCH  54  78
ATOM     78  C   UNL A   1      40.548  32.656  33.247  1.00  0.00     0.064 A 
ATOM     79  C   UNL A   1      39.911  31.876  34.287  1.00  0.00     0.173 A 
ATOM     80  C   UNL A   1      40.459  34.064  33.459  1.00  0.00     0.173 A 
ATOM     81  F   UNL A   1      40.062  30.539  34.285  1.00  0.00    -0.203 F 
ATOM     82  C   UNL A   1      39.429  32.435  35.490  1.00  0.00     0.198 A 
ATOM     83  C   UNL A   1      39.932  34.614  34.666  1.00  0.00     0.198 A 
ATOM     84  F   UNL A   1      41.202  34.889  32.704  1.00  0.00    -0.203 F 
ATOM     85  F   UNL A   1      39.252  31.644  36.566  1.00  0.00    -0.200 F 
ATOM     86  C   UNL A   1      39.410  33.805  35.667  1.00  0.00     0.200 A 
ATOM     87  F   UNL A   1      40.173  35.901  34.974  1.00  0.00    -0.200 F 
ATOM     88  F   UNL A   1      39.132  34.320  36.882  1.00  0.00    -0.200 F 
ENDBRANCH  54  78
BRANCH  66  89
ATOM     89  C   UNL A   1      44.536  25.746  33.226  1.00  0.00     0.064 A 
ATOM     90  C   UNL A   1      45.626  24.888  33.445  1.00  0.00     0.173 A 
ATOM     91  C   UNL A   1      43.484  25.533  34.160  1.00  0.00     0.173 A 
ATOM     92  F   UNL A   1      46.860  25.187  33.030  1.00  0.00    -0.203 F 
ATOM     93  C   UNL A   1      45.543  23.730  34.226  1.00  0.00     0.198 A 
ATOM     94  C   UNL A   1      43.450  24.448  35.045  1.00  0.00     0.198 A 
ATOM     95  F   UNL A   1      42.468  26.395  34.306  1.00  0.00    -0.203 F 
ATOM     96  F   UNL A   1      46.567  22.864  34.231  1.00  0.00    -0.200 F 
ATOM     97  C   UNL A   1      44.440  23.495  35.009  1.00  0.00     0.200 A 
ATOM     98  F   UNL A   1      42.454  24.342  35.936  1.00  0.00    -0.200 F 
ATOM     99  F   UNL A   1      44.361  22.395  35.768  1.00  0.00    -0.200 F 
ENDBRANCH  66  89
ENDBRANCH  40  41
ENDBRANCH  33  35
ENDBRANCH  32  33
ENDBRANCH  31  32
ENDBRANCH  30  31
ENDBRANCH  29  30
ENDBRANCH  28  29
ENDBRANCH   1  28
TORSDOF 19
ENDMDL
