MODEL 1
REMARK VINA RESULT:     -12.5      0.000      0.000
REMARK SMILES Cn1cc(C(=O)OCCOCCOC(=O)c2ccc(-c3c4nc(c(-c5c(F)c(F)c(F)c(F)c5F)c5ccc([nH]5)c(-c5c(F)c(F)c(F)c(F)c5F)c5nc(c(-c6c(F)c(F)c(F)c(F)c6F)c6ccc3[nH]6)C=C5)C=C4)cc2)c(C(=O)Nc2ccc(-c3nc4cc(Cl)ccc4o3)cc2)n1
REMARK SMILES IDX 9 1 8 2 7 3 5 4 6 5 4 6 1 7 2 8 3 9 99 10 79 11 80 12 81 13
REMARK SMILES IDX 82 14 83 16 84 17 98 18 85 19 97 20 86 21 87 22 88 23 96 24
REMARK SMILES IDX 89 25 95 26 90 27 94 28 91 29 93 30 92 31 10 32 11 33 12 34
REMARK SMILES IDX 13 35 14 36 15 37 16 38 17 39 78 40 18 41 77 42 19 43 20 44
REMARK SMILES IDX 21 45 71 46 22 47 76 48 70 49 72 50 23 51 75 52 69 53 68 54
REMARK SMILES IDX 24 56 56 57 36 58 55 59 37 60 40 61 54 62 73 63 38 64 39 65
REMARK SMILES IDX 53 67 74 68 41 69 25 70 26 71 34 72 27 73 28 74 32 75 35 76
REMARK SMILES IDX 29 77 30 78 33 79 31 80 57 81 58 82 66 83 59 84 60 85 64 86
REMARK SMILES IDX 67 87 61 88 62 89 65 90 63 91 42 92 43 93 51 94 44 95 45 96
REMARK SMILES IDX 49 97 52 98 46 99 47 100 50 101 48 102
REMARK H PARENT 82 15 72 55 40 66
REMARK Flexibility Score: inf
ROOT
ATOM      1  C   UNL A   1      37.066  22.281  24.320  1.00  0.00     0.202 C 
ENDROOT
BRANCH   1   2
ATOM      2  C   UNL A   1      36.240  23.470  24.779  1.00  0.00     0.261 C 
BRANCH   2   3
ATOM      3  O   UNL A   1      34.896  23.177  24.418  1.00  0.00    -0.460 OA
BRANCH   3   4
ATOM      4  C   UNL A   1      34.034  22.897  25.426  1.00  0.00     0.342 C 
ATOM      5  O   UNL A   1      33.926  23.507  26.479  1.00  0.00    -0.246 OA
BRANCH   4   6
ATOM      6  C   UNL A   1      33.386  21.659  25.108  1.00  0.00     0.111 A 
ATOM      7  C   UNL A   1      32.775  18.192  25.832  1.00  0.00     0.173 C 
ATOM      8  N   UNL A   1      32.892  19.543  25.338  1.00  0.00    -0.274 N 
ATOM      9  C   UNL A   1      33.520  20.567  25.951  1.00  0.00     0.125 A 
ATOM     10  N   UNL A   1      32.372  19.879  24.153  1.00  0.00    -0.167 NA
ATOM     11  C   UNL A   1      32.628  21.203  23.989  1.00  0.00     0.165 A 
BRANCH  11  12
ATOM     12  C   UNL A   1      32.047  21.866  22.785  1.00  0.00     0.277 C 
ATOM     13  O   UNL A   1      32.096  21.315  21.677  1.00  0.00    -0.267 OA
ATOM     14  N   UNL A   1      31.265  23.001  22.825  1.00  0.00    -0.321 N 
ATOM     15  H   UNL A   1      30.489  22.955  22.221  1.00  0.00     0.170 HD
BRANCH  14  16
ATOM     16  C   UNL A   1      31.333  24.200  23.536  1.00  0.00     0.041 A 
ATOM     17  C   UNL A   1      30.627  24.284  24.744  1.00  0.00     0.027 A 
ATOM     18  C   UNL A   1      32.003  25.318  23.067  1.00  0.00     0.027 A 
ATOM     19  C   UNL A   1      30.775  25.398  25.583  1.00  0.00     0.016 A 
ATOM     20  C   UNL A   1      32.088  26.458  23.877  1.00  0.00     0.016 A 
ATOM     21  C   UNL A   1      31.567  26.470  25.176  1.00  0.00     0.037 A 
BRANCH  21  22
ATOM     22  C   UNL A   1      32.033  27.508  26.089  1.00  0.00     0.227 A 
ATOM     23  N   UNL A   1      31.522  28.706  26.313  1.00  0.00    -0.209 NA
ATOM     24  O   UNL A   1      33.348  27.373  26.473  1.00  0.00    -0.436 OA
ATOM     25  C   UNL A   1      32.580  29.429  26.807  1.00  0.00     0.111 A 
ATOM     26  C   UNL A   1      33.703  28.622  26.888  1.00  0.00     0.155 A 
ATOM     27  C   UNL A   1      32.685  30.781  27.161  1.00  0.00     0.053 A 
ATOM     28  C   UNL A   1      34.966  29.055  27.276  1.00  0.00     0.051 A 
ATOM     29  C   UNL A   1      33.943  31.253  27.559  1.00  0.00     0.043 A 
ATOM     30  C   UNL A   1      35.066  30.415  27.602  1.00  0.00     0.024 A 
ATOM     31  Cl  UNL A   1      34.120  32.913  27.988  1.00  0.00    -0.084 Cl
ENDBRANCH  21  22
ENDBRANCH  14  16
ENDBRANCH  11  12
ENDBRANCH   4   6
ENDBRANCH   3   4
ENDBRANCH   2   3
ENDBRANCH   1   2
BRANCH   1  32
ATOM     32  O   UNL A   1      37.138  21.237  25.290  1.00  0.00    -0.374 OA
BRANCH  32  33
ATOM     33  C   UNL A   1      37.660  19.964  24.896  1.00  0.00     0.202 C 
BRANCH  33  34
ATOM     34  C   UNL A   1      39.043  19.551  25.428  1.00  0.00     0.261 C 
BRANCH  34  35
ATOM     35  O   UNL A   1      39.531  20.379  26.479  1.00  0.00    -0.460 OA
BRANCH  35  36
ATOM     36  C   UNL A   1      40.880  20.459  26.554  1.00  0.00     0.338 C 
ATOM     37  O   UNL A   1      41.691  19.684  26.081  1.00  0.00    -0.246 OA
BRANCH  36  38
ATOM     38  C   UNL A   1      41.161  21.836  27.009  1.00  0.00     0.060 A 
ATOM     39  C   UNL A   1      40.398  22.865  26.447  1.00  0.00     0.016 A 
ATOM     40  C   UNL A   1      42.011  22.087  28.097  1.00  0.00     0.016 A 
ATOM     41  C   UNL A   1      40.492  24.151  26.966  1.00  0.00     0.010 A 
ATOM     42  C   UNL A   1      42.120  23.380  28.605  1.00  0.00     0.010 A 
ATOM     43  C   UNL A   1      41.383  24.419  28.015  1.00  0.00    -0.014 A 
BRANCH  43  44
ATOM     44  C   UNL A   1      41.803  25.818  28.222  1.00  0.00     0.031 A 
ATOM     45  C   UNL A   1      43.139  26.193  27.646  1.00  0.00     0.074 A 
ATOM     46  C   UNL A   1      41.020  26.735  28.812  1.00  0.00     0.049 A 
ATOM     47  N   UNL A   1      43.766  27.337  27.668  1.00  0.00    -0.248 NA
ATOM     48  C   UNL A   1      43.857  25.124  26.924  1.00  0.00     0.031 C 
ATOM     49  C   UNL A   1      39.668  26.510  29.319  1.00  0.00     0.029 A 
ATOM     50  N   UNL A   1      41.260  28.062  29.068  1.00  0.00    -0.354 N 
ATOM     51  C   UNL A   1      44.932  27.129  26.945  1.00  0.00     0.074 A 
ATOM     52  C   UNL A   1      44.944  25.752  26.515  1.00  0.00     0.031 C 
ATOM     53  C   UNL A   1      39.196  27.666  29.823  1.00  0.00     0.029 A 
ATOM     54  C   UNL A   1      40.226  28.699  29.705  1.00  0.00     0.049 A 
ATOM     55  H   UNL A   1      42.099  28.513  28.818  1.00  0.00     0.167 HD
ATOM     56  C   UNL A   1      45.915  28.009  26.662  1.00  0.00     0.037 A 
ATOM     57  C   UNL A   1      40.146  29.968  30.152  1.00  0.00     0.037 A 
ATOM     58  C   UNL A   1      45.937  29.360  27.133  1.00  0.00     0.049 A 
ATOM     59  C   UNL A   1      41.332  30.887  29.963  1.00  0.00     0.074 A 
ATOM     60  C   UNL A   1      46.926  30.312  26.984  1.00  0.00     0.029 A 
ATOM     61  N   UNL A   1      44.913  29.943  27.865  1.00  0.00    -0.354 N 
ATOM     62  N   UNL A   1      42.450  30.679  29.311  1.00  0.00    -0.248 NA
ATOM     63  C   UNL A   1      41.248  32.214  30.595  1.00  0.00     0.031 C 
ATOM     64  C   UNL A   1      46.517  31.464  27.663  1.00  0.00     0.029 A 
ATOM     65  C   UNL A   1      45.257  31.238  28.198  1.00  0.00     0.049 A 
ATOM     66  H   UNL A   1      44.068  29.500  28.109  1.00  0.00     0.167 HD
ATOM     67  C   UNL A   1      43.193  31.846  29.439  1.00  0.00     0.074 A 
ATOM     68  C   UNL A   1      42.391  32.769  30.215  1.00  0.00     0.031 C 
ATOM     69  C   UNL A   1      44.431  32.133  28.966  1.00  0.00     0.037 A 
BRANCH  56  70
ATOM     70  C   UNL A   1      47.062  27.491  25.858  1.00  0.00     0.064 A 
ATOM     71  C   UNL A   1      48.157  26.863  26.470  1.00  0.00     0.173 A 
ATOM     72  C   UNL A   1      47.094  27.679  24.470  1.00  0.00     0.173 A 
ATOM     73  F   UNL A   1      48.185  26.703  27.802  1.00  0.00    -0.203 F 
ATOM     74  C   UNL A   1      49.253  26.453  25.717  1.00  0.00     0.198 A 
ATOM     75  C   UNL A   1      48.183  27.251  23.719  1.00  0.00     0.198 A 
ATOM     76  F   UNL A   1      46.079  28.299  23.849  1.00  0.00    -0.203 F 
ATOM     77  F   UNL A   1      50.312  25.900  26.325  1.00  0.00    -0.200 F 
ATOM     78  C   UNL A   1      49.264  26.644  24.344  1.00  0.00     0.200 A 
ATOM     79  F   UNL A   1      48.197  27.444  22.393  1.00  0.00    -0.200 F 
ATOM     80  F   UNL A   1      50.324  26.259  23.620  1.00  0.00    -0.200 F 
ENDBRANCH  56  70
BRANCH  57  81
ATOM     81  C   UNL A   1      38.930  30.455  30.858  1.00  0.00     0.064 A 
ATOM     82  C   UNL A   1      37.927  31.153  30.169  1.00  0.00     0.173 A 
ATOM     83  C   UNL A   1      38.782  30.304  32.244  1.00  0.00     0.173 A 
ATOM     84  F   UNL A   1      38.038  31.352  28.847  1.00  0.00    -0.203 F 
ATOM     85  C   UNL A   1      36.837  31.700  30.843  1.00  0.00     0.198 A 
ATOM     86  C   UNL A   1      37.678  30.829  32.914  1.00  0.00     0.198 A 
ATOM     87  F   UNL A   1      39.717  29.655  32.952  1.00  0.00    -0.203 F 
ATOM     88  F   UNL A   1      35.922  32.411  30.169  1.00  0.00    -0.200 F 
ATOM     89  C   UNL A   1      36.712  31.536  32.214  1.00  0.00     0.200 A 
ATOM     90  F   UNL A   1      37.560  30.664  34.238  1.00  0.00    -0.200 F 
ATOM     91  F   UNL A   1      35.670  32.073  32.865  1.00  0.00    -0.200 F 
ENDBRANCH  57  81
BRANCH  69  92
ATOM     92  C   UNL A   1      44.991  33.491  29.260  1.00  0.00     0.064 A 
ATOM     93  C   UNL A   1      45.819  33.713  30.369  1.00  0.00     0.173 A 
ATOM     94  C   UNL A   1      44.768  34.557  28.376  1.00  0.00     0.173 A 
ATOM     95  F   UNL A   1      46.052  32.726  31.246  1.00  0.00    -0.203 F 
ATOM     96  C   UNL A   1      46.396  34.961  30.588  1.00  0.00     0.198 A 
ATOM     97  C   UNL A   1      45.368  35.795  28.584  1.00  0.00     0.198 A 
ATOM     98  F   UNL A   1      43.991  34.389  27.295  1.00  0.00    -0.203 F 
ATOM     99  F   UNL A   1      47.164  35.161  31.668  1.00  0.00    -0.200 F 
ATOM    100  C   UNL A   1      46.179  35.997  29.691  1.00  0.00     0.200 A 
ATOM    101  F   UNL A   1      45.169  36.791  27.709  1.00  0.00    -0.200 F 
ATOM    102  F   UNL A   1      46.750  37.192  29.896  1.00  0.00    -0.200 F 
ENDBRANCH  69  92
ENDBRANCH  43  44
ENDBRANCH  36  38
ENDBRANCH  35  36
ENDBRANCH  34  35
ENDBRANCH  33  34
ENDBRANCH  32  33
ENDBRANCH   1  32
TORSDOF 17
ENDMDL
MODEL 2
REMARK VINA RESULT:     -12.1      1.866      2.950
REMARK SMILES Cn1cc(C(=O)OCCOCCOC(=O)c2ccc(-c3c4nc(c(-c5c(F)c(F)c(F)c(F)c5F)c5ccc([nH]5)c(-c5c(F)c(F)c(F)c(F)c5F)c5nc(c(-c6c(F)c(F)c(F)c(F)c6F)c6ccc3[nH]6)C=C5)C=C4)cc2)c(C(=O)Nc2ccc(-c3nc4cc(Cl)ccc4o3)cc2)n1
REMARK SMILES IDX 9 1 8 2 7 3 5 4 6 5 4 6 1 7 2 8 3 9 99 10 79 11 80 12 81 13
REMARK SMILES IDX 82 14 83 16 84 17 98 18 85 19 97 20 86 21 87 22 88 23 96 24
REMARK SMILES IDX 89 25 95 26 90 27 94 28 91 29 93 30 92 31 10 32 11 33 12 34
REMARK SMILES IDX 13 35 14 36 15 37 16 38 17 39 78 40 18 41 77 42 19 43 20 44
REMARK SMILES IDX 21 45 71 46 22 47 76 48 70 49 72 50 23 51 75 52 69 53 68 54
REMARK SMILES IDX 24 56 56 57 36 58 55 59 37 60 40 61 54 62 73 63 38 64 39 65
REMARK SMILES IDX 53 67 74 68 41 69 25 70 26 71 34 72 27 73 28 74 32 75 35 76
REMARK SMILES IDX 29 77 30 78 33 79 31 80 57 81 58 82 66 83 59 84 60 85 64 86
REMARK SMILES IDX 67 87 61 88 62 89 65 90 63 91 42 92 43 93 51 94 44 95 45 96
REMARK SMILES IDX 49 97 52 98 46 99 47 100 50 101 48 102
REMARK H PARENT 82 15 72 55 40 66
REMARK Flexibility Score: inf
ROOT
ATOM      1  C   UNL A   1      36.521  22.219  24.503  1.00  0.00     0.202 C 
ENDROOT
BRANCH   1   2
ATOM      2  C   UNL A   1      35.756  22.631  23.258  1.00  0.00     0.261 C 
BRANCH   2   3
ATOM      3  O   UNL A   1      34.515  23.155  23.714  1.00  0.00    -0.460 OA
BRANCH   3   4
ATOM      4  C   UNL A   1      33.388  22.531  23.291  1.00  0.00     0.342 C 
ATOM      5  O   UNL A   1      32.606  22.941  22.447  1.00  0.00    -0.246 OA
BRANCH   4   6
ATOM      6  C   UNL A   1      33.189  21.385  24.128  1.00  0.00     0.111 A 
ATOM      7  C   UNL A   1      32.293  17.924  24.501  1.00  0.00     0.173 C 
ATOM      8  N   UNL A   1      32.658  19.318  24.596  1.00  0.00    -0.274 N 
ATOM      9  C   UNL A   1      32.883  20.157  23.564  1.00  0.00     0.125 A 
ATOM     10  N   UNL A   1      32.778  19.908  25.789  1.00  0.00    -0.167 NA
ATOM     11  C   UNL A   1      33.145  21.193  25.541  1.00  0.00     0.165 A 
BRANCH  11  12
ATOM     12  C   UNL A   1      33.463  22.052  26.719  1.00  0.00     0.277 C 
ATOM     13  O   UNL A   1      33.873  21.548  27.773  1.00  0.00    -0.267 OA
ATOM     14  N   UNL A   1      33.520  23.429  26.683  1.00  0.00    -0.321 N 
ATOM     15  H   UNL A   1      34.284  23.796  27.183  1.00  0.00     0.170 HD
BRANCH  14  16
ATOM     16  C   UNL A   1      32.730  24.416  26.091  1.00  0.00     0.041 A 
ATOM     17  C   UNL A   1      33.356  25.612  25.713  1.00  0.00     0.027 A 
ATOM     18  C   UNL A   1      31.360  24.291  25.931  1.00  0.00     0.027 A 
ATOM     19  C   UNL A   1      32.660  26.581  24.976  1.00  0.00     0.016 A 
ATOM     20  C   UNL A   1      30.653  25.297  25.259  1.00  0.00     0.016 A 
ATOM     21  C   UNL A   1      31.309  26.393  24.688  1.00  0.00     0.037 A 
BRANCH  21  22
ATOM     22  C   UNL A   1      30.594  27.167  23.679  1.00  0.00     0.227 A 
ATOM     23  N   UNL A   1      31.056  28.114  22.880  1.00  0.00    -0.209 NA
ATOM     24  O   UNL A   1      29.228  27.179  23.841  1.00  0.00    -0.436 OA
ATOM     25  C   UNL A   1      29.938  28.840  22.549  1.00  0.00     0.111 A 
ATOM     26  C   UNL A   1      28.821  28.283  23.150  1.00  0.00     0.155 A 
ATOM     27  C   UNL A   1      29.791  30.009  21.791  1.00  0.00     0.053 A 
ATOM     28  C   UNL A   1      27.537  28.812  23.086  1.00  0.00     0.051 A 
ATOM     29  C   UNL A   1      28.510  30.570  21.702  1.00  0.00     0.043 A 
ATOM     30  C   UNL A   1      27.407  29.996  22.347  1.00  0.00     0.024 A 
ATOM     31  Cl  UNL A   1      28.290  32.017  20.791  1.00  0.00    -0.084 Cl
ENDBRANCH  21  22
ENDBRANCH  14  16
ENDBRANCH  11  12
ENDBRANCH   4   6
ENDBRANCH   3   4
ENDBRANCH   2   3
ENDBRANCH   1   2
BRANCH   1  32
ATOM     32  O   UNL A   1      37.613  21.343  24.229  1.00  0.00    -0.374 OA
BRANCH  32  33
ATOM     33  C   UNL A   1      37.664  20.076  24.893  1.00  0.00     0.202 C 
BRANCH  33  34
ATOM     34  C   UNL A   1      39.023  19.587  25.421  1.00  0.00     0.261 C 
BRANCH  34  35
ATOM     35  O   UNL A   1      39.512  20.328  26.536  1.00  0.00    -0.460 OA
BRANCH  35  36
ATOM     36  C   UNL A   1      40.860  20.442  26.589  1.00  0.00     0.338 C 
ATOM     37  O   UNL A   1      41.682  19.694  26.094  1.00  0.00    -0.246 OA
BRANCH  36  38
ATOM     38  C   UNL A   1      41.112  21.821  27.056  1.00  0.00     0.060 A 
ATOM     39  C   UNL A   1      40.315  22.836  26.516  1.00  0.00     0.016 A 
ATOM     40  C   UNL A   1      41.971  22.081  28.134  1.00  0.00     0.016 A 
ATOM     41  C   UNL A   1      40.385  24.118  27.048  1.00  0.00     0.010 A 
ATOM     42  C   UNL A   1      42.055  23.371  28.655  1.00  0.00     0.010 A 
ATOM     43  C   UNL A   1      41.283  24.397  28.087  1.00  0.00    -0.014 A 
BRANCH  43  44
ATOM     44  C   UNL A   1      41.671  25.804  28.304  1.00  0.00     0.031 A 
ATOM     45  C   UNL A   1      43.049  26.183  27.840  1.00  0.00     0.074 A 
ATOM     46  C   UNL A   1      40.831  26.723  28.807  1.00  0.00     0.049 A 
ATOM     47  N   UNL A   1      43.661  27.334  27.895  1.00  0.00    -0.248 NA
ATOM     48  C   UNL A   1      43.837  25.110  27.202  1.00  0.00     0.031 C 
ATOM     49  C   UNL A   1      39.442  26.493  29.199  1.00  0.00     0.029 A 
ATOM     50  N   UNL A   1      41.036  28.056  29.059  1.00  0.00    -0.354 N 
ATOM     51  C   UNL A   1      44.887  27.126  27.280  1.00  0.00     0.074 A 
ATOM     52  C   UNL A   1      44.949  25.742  26.878  1.00  0.00     0.031 C 
ATOM     53  C   UNL A   1      38.918  27.652  29.639  1.00  0.00     0.029 A 
ATOM     54  C   UNL A   1      39.945  28.694  29.592  1.00  0.00     0.049 A 
ATOM     55  H   UNL A   1      41.889  28.513  28.874  1.00  0.00     0.167 HD
ATOM     56  C   UNL A   1      45.883  28.012  27.067  1.00  0.00     0.037 A 
ATOM     57  C   UNL A   1      39.814  29.970  30.006  1.00  0.00     0.037 A 
ATOM     58  C   UNL A   1      45.851  29.371  27.514  1.00  0.00     0.049 A 
ATOM     59  C   UNL A   1      41.003  30.898  29.904  1.00  0.00     0.074 A 
ATOM     60  C   UNL A   1      46.841  30.330  27.434  1.00  0.00     0.029 A 
ATOM     61  N   UNL A   1      44.763  29.956  28.142  1.00  0.00    -0.354 N 
ATOM     62  N   UNL A   1      42.176  30.691  29.356  1.00  0.00    -0.248 NA
ATOM     63  C   UNL A   1      40.853  32.234  30.502  1.00  0.00     0.031 C 
ATOM     64  C   UNL A   1      46.364  31.490  28.053  1.00  0.00     0.029 A 
ATOM     65  C   UNL A   1      45.064  31.260  28.481  1.00  0.00     0.049 A 
ATOM     66  H   UNL A   1      43.903  29.508  28.320  1.00  0.00     0.167 HD
ATOM     67  C   UNL A   1      42.895  31.868  29.526  1.00  0.00     0.074 A 
ATOM     68  C   UNL A   1      42.019  32.795  30.212  1.00  0.00     0.031 C 
ATOM     69  C   UNL A   1      44.166  32.159  29.157  1.00  0.00     0.037 A 
BRANCH  56  70
ATOM     70  C   UNL A   1      47.101  27.492  26.376  1.00  0.00     0.064 A 
ATOM     71  C   UNL A   1      47.242  27.582  24.983  1.00  0.00     0.173 A 
ATOM     72  C   UNL A   1      48.106  26.845  27.107  1.00  0.00     0.173 A 
ATOM     73  F   UNL A   1      46.282  28.155  24.243  1.00  0.00    -0.203 F 
ATOM     74  C   UNL A   1      48.347  27.026  24.344  1.00  0.00     0.198 A 
ATOM     75  C   UNL A   1      49.217  26.308  26.466  1.00  0.00     0.198 A 
ATOM     76  F   UNL A   1      47.996  26.715  28.437  1.00  0.00    -0.203 F 
ATOM     77  F   UNL A   1      48.441  27.077  23.009  1.00  0.00    -0.200 F 
ATOM     78  C   UNL A   1      49.333  26.393  25.086  1.00  0.00     0.200 A 
ATOM     79  F   UNL A   1      50.165  25.688  27.182  1.00  0.00    -0.200 F 
ATOM     80  F   UNL A   1      50.391  25.849  24.469  1.00  0.00    -0.200 F 
ENDBRANCH  56  70
BRANCH  57  81
ATOM     81  C   UNL A   1      38.537  30.456  30.594  1.00  0.00     0.064 A 
ATOM     82  C   UNL A   1      37.500  30.928  29.777  1.00  0.00     0.173 A 
ATOM     83  C   UNL A   1      38.357  30.533  31.983  1.00  0.00     0.173 A 
ATOM     84  F   UNL A   1      37.636  30.905  28.443  1.00  0.00    -0.203 F 
ATOM     85  C   UNL A   1      36.343  31.480  30.326  1.00  0.00     0.198 A 
ATOM     86  C   UNL A   1      37.189  31.061  32.531  1.00  0.00     0.198 A 
ATOM     87  F   UNL A   1      39.321  30.106  32.810  1.00  0.00    -0.203 F 
ATOM     88  F   UNL A   1      35.392  31.975  29.522  1.00  0.00    -0.200 F 
ATOM     89  C   UNL A   1      36.188  31.544  31.702  1.00  0.00     0.200 A 
ATOM     90  F   UNL A   1      37.042  31.117  33.862  1.00  0.00    -0.200 F 
ATOM     91  F   UNL A   1      35.081  32.085  32.230  1.00  0.00    -0.200 F 
ENDBRANCH  57  81
BRANCH  69  92
ATOM     92  C   UNL A   1      44.686  33.529  29.474  1.00  0.00     0.064 A 
ATOM     93  C   UNL A   1      44.477  34.606  28.602  1.00  0.00     0.173 A 
ATOM     94  C   UNL A   1      45.319  33.781  30.700  1.00  0.00     0.173 A 
ATOM     95  F   UNL A   1      43.885  34.409  27.415  1.00  0.00    -0.203 F 
ATOM     96  C   UNL A   1      44.895  35.889  28.943  1.00  0.00     0.198 A 
ATOM     97  C   UNL A   1      45.712  35.069  31.048  1.00  0.00     0.198 A 
ATOM     98  F   UNL A   1      45.530  32.782  31.571  1.00  0.00    -0.203 F 
ATOM     99  F   UNL A   1      44.711  36.902  28.085  1.00  0.00    -0.200 F 
ATOM    100  C   UNL A   1      45.503  36.122  30.169  1.00  0.00     0.200 A 
ATOM    101  F   UNL A   1      46.285  35.295  32.239  1.00  0.00    -0.200 F 
ATOM    102  F   UNL A   1      45.889  37.361  30.502  1.00  0.00    -0.200 F 
ENDBRANCH  69  92
ENDBRANCH  43  44
ENDBRANCH  36  38
ENDBRANCH  35  36
ENDBRANCH  34  35
ENDBRANCH  33  34
ENDBRANCH  32  33
ENDBRANCH   1  32
TORSDOF 17
ENDMDL
MODEL 3
REMARK VINA RESULT:     -12.1      2.166      4.952
REMARK SMILES Cn1cc(C(=O)OCCOCCOC(=O)c2ccc(-c3c4nc(c(-c5c(F)c(F)c(F)c(F)c5F)c5ccc([nH]5)c(-c5c(F)c(F)c(F)c(F)c5F)c5nc(c(-c6c(F)c(F)c(F)c(F)c6F)c6ccc3[nH]6)C=C5)C=C4)cc2)c(C(=O)Nc2ccc(-c3nc4cc(Cl)ccc4o3)cc2)n1
REMARK SMILES IDX 9 1 8 2 7 3 5 4 6 5 4 6 1 7 2 8 3 9 99 10 79 11 80 12 81 13
REMARK SMILES IDX 82 14 83 16 84 17 98 18 85 19 97 20 86 21 87 22 88 23 96 24
REMARK SMILES IDX 89 25 95 26 90 27 94 28 91 29 93 30 92 31 10 32 11 33 12 34
REMARK SMILES IDX 13 35 14 36 15 37 16 38 17 39 78 40 18 41 77 42 19 43 20 44
REMARK SMILES IDX 21 45 71 46 22 47 76 48 70 49 72 50 23 51 75 52 69 53 68 54
REMARK SMILES IDX 24 56 56 57 36 58 55 59 37 60 40 61 54 62 73 63 38 64 39 65
REMARK SMILES IDX 53 67 74 68 41 69 25 70 26 71 34 72 27 73 28 74 32 75 35 76
REMARK SMILES IDX 29 77 30 78 33 79 31 80 57 81 58 82 66 83 59 84 60 85 64 86
REMARK SMILES IDX 67 87 61 88 62 89 65 90 63 91 42 92 43 93 51 94 44 95 45 96
REMARK SMILES IDX 49 97 52 98 46 99 47 100 50 101 48 102
REMARK H PARENT 82 15 72 55 40 66
REMARK Flexibility Score: inf
ROOT
ATOM      1  C   UNL A   1      35.485  23.215  25.262  1.00  0.00     0.202 C 
ENDROOT
BRANCH   1   2
ATOM      2  C   UNL A   1      34.453  23.902  26.139  1.00  0.00     0.261 C 
BRANCH   2   3
ATOM      3  O   UNL A   1      33.739  24.788  25.285  1.00  0.00    -0.460 OA
BRANCH   3   4
ATOM      4  C   UNL A   1      32.752  25.526  25.849  1.00  0.00     0.342 C 
ATOM      5  O   UNL A   1      31.688  25.107  26.279  1.00  0.00    -0.246 OA
BRANCH   4   6
ATOM      6  C   UNL A   1      33.107  26.907  25.699  1.00  0.00     0.111 A 
ATOM      7  C   UNL A   1      34.771  29.843  26.938  1.00  0.00     0.173 C 
ATOM      8  N   UNL A   1      34.014  28.812  26.267  1.00  0.00    -0.274 N 
ATOM      9  C   UNL A   1      33.956  27.510  26.613  1.00  0.00     0.125 A 
ATOM     10  N   UNL A   1      33.256  29.108  25.207  1.00  0.00    -0.167 NA
ATOM     11  C   UNL A   1      32.699  27.937  24.801  1.00  0.00     0.165 A 
BRANCH  11  12
ATOM     12  C   UNL A   1      31.887  27.965  23.549  1.00  0.00     0.277 C 
ATOM     13  O   UNL A   1      31.296  28.998  23.205  1.00  0.00    -0.267 OA
ATOM     14  N   UNL A   1      31.883  26.962  22.604  1.00  0.00    -0.321 N 
ATOM     15  H   UNL A   1      31.904  27.303  21.680  1.00  0.00     0.170 HD
BRANCH  14  16
ATOM     16  C   UNL A   1      31.854  25.568  22.670  1.00  0.00     0.041 A 
ATOM     17  C   UNL A   1      32.961  24.868  22.170  1.00  0.00     0.027 A 
ATOM     18  C   UNL A   1      30.761  24.857  23.138  1.00  0.00     0.027 A 
ATOM     19  C   UNL A   1      33.068  23.481  22.346  1.00  0.00     0.016 A 
ATOM     20  C   UNL A   1      30.843  23.463  23.243  1.00  0.00     0.016 A 
ATOM     21  C   UNL A   1      32.027  22.777  22.947  1.00  0.00     0.037 A 
BRANCH  21  22
ATOM     22  C   UNL A   1      32.173  21.416  23.454  1.00  0.00     0.227 A 
ATOM     23  N   UNL A   1      32.885  20.987  24.482  1.00  0.00    -0.209 NA
ATOM     24  O   UNL A   1      31.842  20.437  22.545  1.00  0.00    -0.436 OA
ATOM     25  C   UNL A   1      33.100  19.660  24.203  1.00  0.00     0.111 A 
ATOM     26  C   UNL A   1      32.480  19.325  23.010  1.00  0.00     0.155 A 
ATOM     27  C   UNL A   1      33.848  18.686  24.878  1.00  0.00     0.053 A 
ATOM     28  C   UNL A   1      32.561  18.081  22.394  1.00  0.00     0.051 A 
ATOM     29  C   UNL A   1      33.950  17.419  24.288  1.00  0.00     0.043 A 
ATOM     30  C   UNL A   1      33.334  17.123  23.065  1.00  0.00     0.024 A 
ATOM     31  Cl  UNL A   1      34.876  16.198  25.079  1.00  0.00    -0.084 Cl
ENDBRANCH  21  22
ENDBRANCH  14  16
ENDBRANCH  11  12
ENDBRANCH   4   6
ENDBRANCH   3   4
ENDBRANCH   2   3
ENDBRANCH   1   2
BRANCH   1  32
ATOM     32  O   UNL A   1      36.012  22.023  25.842  1.00  0.00    -0.374 OA
BRANCH  32  33
ATOM     33  C   UNL A   1      36.497  20.992  24.977  1.00  0.00     0.202 C 
BRANCH  33  34
ATOM     34  C   UNL A   1      37.905  20.429  25.235  1.00  0.00     0.261 C 
BRANCH  34  35
ATOM     35  O   UNL A   1      38.909  21.428  25.389  1.00  0.00    -0.460 OA
BRANCH  35  36
ATOM     36  C   UNL A   1      39.828  21.161  26.346  1.00  0.00     0.338 C 
ATOM     37  O   UNL A   1      40.417  20.112  26.529  1.00  0.00    -0.246 OA
BRANCH  36  38
ATOM     38  C   UNL A   1      40.221  22.480  26.882  1.00  0.00     0.060 A 
ATOM     39  C   UNL A   1      39.415  23.574  26.548  1.00  0.00     0.016 A 
ATOM     40  C   UNL A   1      41.236  22.606  27.842  1.00  0.00     0.016 A 
ATOM     41  C   UNL A   1      39.631  24.799  27.166  1.00  0.00     0.010 A 
ATOM     42  C   UNL A   1      41.465  23.840  28.449  1.00  0.00     0.010 A 
ATOM     43  C   UNL A   1      40.680  24.945  28.084  1.00  0.00    -0.014 A 
BRANCH  43  44
ATOM     44  C   UNL A   1      41.173  26.309  28.357  1.00  0.00     0.031 A 
ATOM     45  C   UNL A   1      42.593  26.586  27.949  1.00  0.00     0.074 A 
ATOM     46  C   UNL A   1      40.394  27.279  28.860  1.00  0.00     0.049 A 
ATOM     47  N   UNL A   1      43.294  27.681  28.059  1.00  0.00    -0.248 NA
ATOM     48  C   UNL A   1      43.312  25.469  27.304  1.00  0.00     0.031 C 
ATOM     49  C   UNL A   1      38.979  27.153  29.200  1.00  0.00     0.029 A 
ATOM     50  N   UNL A   1      40.698  28.583  29.159  1.00  0.00    -0.354 N 
ATOM     51  C   UNL A   1      44.520  27.390  27.478  1.00  0.00     0.074 A 
ATOM     52  C   UNL A   1      44.483  26.016  27.036  1.00  0.00     0.031 C 
ATOM     53  C   UNL A   1      38.535  28.339  29.658  1.00  0.00     0.029 A 
ATOM     54  C   UNL A   1      39.644  29.294  29.676  1.00  0.00     0.049 A 
ATOM     55  H   UNL A   1      41.591  28.973  29.016  1.00  0.00     0.167 HD
ATOM     56  C   UNL A   1      45.591  28.196  27.325  1.00  0.00     0.037 A 
ATOM     57  C   UNL A   1      39.604  30.564  30.125  1.00  0.00     0.037 A 
ATOM     58  C   UNL A   1      45.655  29.540  27.812  1.00  0.00     0.049 A 
ATOM     59  C   UNL A   1      40.867  31.393  30.090  1.00  0.00     0.074 A 
ATOM     60  C   UNL A   1      46.722  30.416  27.793  1.00  0.00     0.029 A 
ATOM     61  N   UNL A   1      44.596  30.194  28.423  1.00  0.00    -0.354 N 
ATOM     62  N   UNL A   1      42.038  31.105  29.574  1.00  0.00    -0.248 NA
ATOM     63  C   UNL A   1      40.806  32.720  30.724  1.00  0.00     0.031 C 
ATOM     64  C   UNL A   1      46.319  31.594  28.432  1.00  0.00     0.029 A 
ATOM     65  C   UNL A   1      44.991  31.459  28.810  1.00  0.00     0.049 A 
ATOM     66  H   UNL A   1      43.698  29.814  28.559  1.00  0.00     0.167 HD
ATOM     67  C   UNL A   1      42.843  32.214  29.804  1.00  0.00     0.074 A 
ATOM     68  C   UNL A   1      42.023  33.191  30.489  1.00  0.00     0.031 C 
ATOM     69  C   UNL A   1      44.146  32.410  29.484  1.00  0.00     0.037 A 
BRANCH  56  70
ATOM     70  C   UNL A   1      46.786  27.597  26.657  1.00  0.00     0.064 A 
ATOM     71  C   UNL A   1      46.936  27.634  25.263  1.00  0.00     0.173 A 
ATOM     72  C   UNL A   1      47.757  26.929  27.414  1.00  0.00     0.173 A 
ATOM     73  F   UNL A   1      46.007  28.226  24.499  1.00  0.00    -0.203 F 
ATOM     74  C   UNL A   1      48.016  27.006  24.648  1.00  0.00     0.198 A 
ATOM     75  C   UNL A   1      48.844  26.319  26.798  1.00  0.00     0.198 A 
ATOM     76  F   UNL A   1      47.636  26.848  28.748  1.00  0.00    -0.203 F 
ATOM     77  F   UNL A   1      48.118  27.009  23.313  1.00  0.00    -0.200 F 
ATOM     78  C   UNL A   1      48.970  26.353  25.416  1.00  0.00     0.200 A 
ATOM     79  F   UNL A   1      49.760  25.680  27.538  1.00  0.00    -0.200 F 
ATOM     80  F   UNL A   1      50.003  25.740  24.823  1.00  0.00    -0.200 F 
ENDBRANCH  56  70
BRANCH  57  81
ATOM     81  C   UNL A   1      38.351  31.137  30.686  1.00  0.00     0.064 A 
ATOM     82  C   UNL A   1      38.117  31.143  32.069  1.00  0.00     0.173 A 
ATOM     83  C   UNL A   1      37.332  31.619  29.853  1.00  0.00     0.173 A 
ATOM     84  F   UNL A   1      39.048  30.664  32.907  1.00  0.00    -0.203 F 
ATOM     85  C   UNL A   1      36.903  31.584  32.593  1.00  0.00     0.198 A 
ATOM     86  C   UNL A   1      36.128  32.084  30.379  1.00  0.00     0.198 A 
ATOM     87  F   UNL A   1      37.499  31.626  28.523  1.00  0.00    -0.203 F 
ATOM     88  F   UNL A   1      36.684  31.526  33.914  1.00  0.00    -0.200 F 
ATOM     89  C   UNL A   1      35.910  32.057  31.748  1.00  0.00     0.200 A 
ATOM     90  F   UNL A   1      35.173  32.544  29.558  1.00  0.00    -0.200 F 
ATOM     91  F   UNL A   1      34.738  32.470  32.251  1.00  0.00    -0.200 F 
ENDBRANCH  57  81
BRANCH  69  92
ATOM     92  C   UNL A   1      44.764  33.723  29.860  1.00  0.00     0.064 A 
ATOM     93  C   UNL A   1      44.679  34.837  29.014  1.00  0.00     0.173 A 
ATOM     94  C   UNL A   1      45.369  33.889  31.115  1.00  0.00     0.173 A 
ATOM     95  F   UNL A   1      44.119  34.721  27.800  1.00  0.00    -0.203 F 
ATOM     96  C   UNL A   1      45.188  36.070  29.407  1.00  0.00     0.198 A 
ATOM     97  C   UNL A   1      45.852  35.131  31.515  1.00  0.00     0.198 A 
ATOM     98  F   UNL A   1      45.463  32.854  31.963  1.00  0.00    -0.203 F 
ATOM     99  F   UNL A   1      45.121  37.117  28.573  1.00  0.00    -0.200 F 
ATOM    100  C   UNL A   1      45.765  36.220  30.660  1.00  0.00     0.200 A 
ATOM    101  F   UNL A   1      46.396  35.277  32.732  1.00  0.00    -0.200 F 
ATOM    102  F   UNL A   1      46.238  37.413  31.043  1.00  0.00    -0.200 F 
ENDBRANCH  69  92
ENDBRANCH  43  44
ENDBRANCH  36  38
ENDBRANCH  35  36
ENDBRANCH  34  35
ENDBRANCH  33  34
ENDBRANCH  32  33
ENDBRANCH   1  32
TORSDOF 17
ENDMDL
