MODEL 1
REMARK VINA RESULT:     -11.8      0.000      0.000
REMARK SMILES COc1ccc(Cl)c(NS(=O)(=O)c2ccc(C)c(C(=O)OCCOCCOC(=O)c3ccc(-c4c5nc(c(-c6c(F)c(F)c(F)c(F)c6F)c6ccc([nH]6)c(-c6c(F)c(F)c(F)c(F)c6F)c6nc(c(-c7c(F)c(F)c(F)c(F)c7F)c7ccc4[nH]7)C=C6)C=C5)cc3)c2)c1
REMARK SMILES IDX 23 1 22 2 21 3 19 4 20 5 18 6 13 7 14 8 93 9 15 10 16 11
REMARK SMILES IDX 17 12 10 13 11 14 12 15 9 16 8 18 3 19 4 20 94 21 5 22 6 23
REMARK SMILES IDX 7 24 2 25 1 26 24 27 25 28 26 29 27 30 28 31 29 32 30 33
REMARK SMILES IDX 31 34 92 35 32 36 91 37 33 38 34 39 35 40 85 41 36 42 90 43
REMARK SMILES IDX 84 44 86 45 37 46 89 47 83 48 82 49 38 51 70 52 50 53 69 54
REMARK SMILES IDX 51 55 54 56 68 57 87 58 52 59 53 60 67 62 88 63 55 64 39 65
REMARK SMILES IDX 40 66 48 67 41 68 42 69 46 70 49 71 43 72 44 73 47 74 45 75
REMARK SMILES IDX 71 76 72 77 80 78 73 79 74 80 78 81 81 82 75 83 76 84 79 85
REMARK SMILES IDX 77 86 56 87 57 88 65 89 58 90 59 91 63 92 66 93 60 94 61 95
REMARK SMILES IDX 64 96 62 97
REMARK H PARENT 9 17 86 50 54 61
REMARK Flexibility Score: inf
ROOT
ATOM      1  C   UNL A   1      36.453  22.227  25.223  1.00  0.00     0.202 C 
ENDROOT
BRANCH   1   2
ATOM      2  C   UNL A   1      35.894  23.373  24.448  1.00  0.00     0.261 C 
BRANCH   2   3
ATOM      3  O   UNL A   1      34.613  23.787  24.925  1.00  0.00    -0.460 OA
BRANCH   3   4
ATOM      4  C   UNL A   1      34.018  24.839  24.316  1.00  0.00     0.338 C 
ATOM      5  O   UNL A   1      34.075  25.142  23.137  1.00  0.00    -0.246 OA
BRANCH   4   6
ATOM      6  C   UNL A   1      33.088  25.454  25.288  1.00  0.00     0.064 A 
ATOM      7  C   UNL A   1      32.687  27.524  26.428  1.00  0.00     0.088 A 
ATOM      8  C   UNL A   1      31.342  27.191  26.602  1.00  0.00     0.022 A 
ATOM      9  C   UNL A   1      33.591  26.615  25.884  1.00  0.00     0.038 A 
ATOM     10  C   UNL A   1      30.870  25.973  26.116  1.00  0.00     0.006 A 
ATOM     11  C   UNL A   1      31.721  25.109  25.408  1.00  0.00    -0.036 A 
ATOM     12  C   UNL A   1      31.101  23.943  24.683  1.00  0.00     0.045 C 
BRANCH   7  13
ATOM     13  S   UNL A   1      33.159  29.235  26.466  1.00  0.00     0.261 S 
ATOM     14  O   UNL A   1      34.583  29.267  26.723  1.00  0.00    -0.201 OA
ATOM     15  O   UNL A   1      32.221  29.956  27.297  1.00  0.00    -0.201 OA
BRANCH  13  16
ATOM     16  N   UNL A   1      32.950  29.750  24.874  1.00  0.00    -0.278 N 
ATOM     17  H   UNL A   1      33.382  30.591  24.602  1.00  0.00     0.180 HD
BRANCH  16  18
ATOM     18  C   UNL A   1      32.176  29.042  23.884  1.00  0.00     0.071 A 
ATOM     19  C   UNL A   1      30.066  28.031  23.146  1.00  0.00     0.121 A 
ATOM     20  C   UNL A   1      30.743  27.284  22.189  1.00  0.00     0.048 A 
ATOM     21  C   UNL A   1      30.785  28.915  23.965  1.00  0.00     0.074 A 
ATOM     22  C   UNL A   1      32.128  27.417  22.067  1.00  0.00     0.026 A 
ATOM     23  C   UNL A   1      32.839  28.278  22.912  1.00  0.00     0.065 A 
ATOM     24  Cl  UNL A   1      34.557  28.353  22.743  1.00  0.00    -0.082 Cl
BRANCH  19  25
ATOM     25  O   UNL A   1      28.725  27.973  23.407  1.00  0.00    -0.497 OA
ATOM     26  C   UNL A   1      28.201  26.751  23.920  1.00  0.00     0.278 C 
ENDBRANCH  19  25
ENDBRANCH  16  18
ENDBRANCH  13  16
ENDBRANCH   7  13
ENDBRANCH   4   6
ENDBRANCH   3   4
ENDBRANCH   2   3
ENDBRANCH   1   2
BRANCH   1  27
ATOM     27  O   UNL A   1      37.786  22.003  24.791  1.00  0.00    -0.374 OA
BRANCH  27  28
ATOM     28  C   UNL A   1      38.506  21.074  25.590  1.00  0.00     0.202 C 
BRANCH  28  29
ATOM     29  C   UNL A   1      39.747  21.648  26.303  1.00  0.00     0.261 C 
BRANCH  29  30
ATOM     30  O   UNL A   1      39.448  22.949  26.851  1.00  0.00    -0.460 OA
BRANCH  30  31
ATOM     31  C   UNL A   1      40.509  23.779  27.059  1.00  0.00     0.338 C 
ATOM     32  O   UNL A   1      41.643  23.423  27.337  1.00  0.00    -0.246 OA
BRANCH  31  33
ATOM     33  C   UNL A   1      40.008  25.175  27.243  1.00  0.00     0.060 A 
ATOM     34  C   UNL A   1      40.512  26.222  26.448  1.00  0.00     0.016 A 
ATOM     35  C   UNL A   1      39.366  25.468  28.440  1.00  0.00     0.016 A 
ATOM     36  C   UNL A   1      40.517  27.539  26.937  1.00  0.00     0.010 A 
ATOM     37  C   UNL A   1      39.522  26.726  28.975  1.00  0.00     0.010 A 
ATOM     38  C   UNL A   1      40.100  27.777  28.244  1.00  0.00    -0.014 A 
BRANCH  38  39
ATOM     39  C   UNL A   1      40.299  29.014  29.015  1.00  0.00     0.031 A 
ATOM     40  C   UNL A   1      39.218  30.033  29.027  1.00  0.00     0.074 A 
ATOM     41  C   UNL A   1      41.292  29.126  29.932  1.00  0.00     0.049 A 
ATOM     42  N   UNL A   1      39.362  31.230  29.481  1.00  0.00    -0.248 NA
ATOM     43  C   UNL A   1      37.880  29.807  28.492  1.00  0.00     0.031 C 
ATOM     44  C   UNL A   1      41.340  30.014  31.096  1.00  0.00     0.029 A 
ATOM     45  N   UNL A   1      42.505  28.424  30.037  1.00  0.00    -0.354 N 
ATOM     46  C   UNL A   1      38.107  31.763  29.668  1.00  0.00     0.074 A 
ATOM     47  C   UNL A   1      37.246  30.910  28.890  1.00  0.00     0.031 C 
ATOM     48  C   UNL A   1      42.586  30.026  31.597  1.00  0.00     0.029 A 
ATOM     49  C   UNL A   1      43.425  29.260  30.696  1.00  0.00     0.049 A 
ATOM     50  H   UNL A   1      42.679  27.513  29.707  1.00  0.00     0.167 HD
ATOM     51  C   UNL A   1      37.957  32.766  30.585  1.00  0.00     0.037 A 
ATOM     52  C   UNL A   1      44.554  29.644  30.047  1.00  0.00     0.037 A 
ATOM     53  C   UNL A   1      39.278  33.193  31.117  1.00  0.00     0.049 A 
ATOM     54  C   UNL A   1      44.470  31.107  29.716  1.00  0.00     0.074 A 
ATOM     55  C   UNL A   1      39.908  33.146  32.353  1.00  0.00     0.029 A 
ATOM     56  N   UNL A   1      40.294  33.521  30.217  1.00  0.00    -0.354 N 
ATOM     57  N   UNL A   1      43.501  31.858  30.161  1.00  0.00    -0.248 NA
ATOM     58  C   UNL A   1      45.381  31.849  28.857  1.00  0.00     0.031 C 
ATOM     59  C   UNL A   1      41.299  33.447  32.169  1.00  0.00     0.029 A 
ATOM     60  C   UNL A   1      41.524  33.698  30.827  1.00  0.00     0.049 A 
ATOM     61  H   UNL A   1      40.149  33.615  29.248  1.00  0.00     0.167 HD
ATOM     62  C   UNL A   1      43.594  33.114  29.674  1.00  0.00     0.074 A 
ATOM     63  C   UNL A   1      44.790  33.060  28.840  1.00  0.00     0.031 C 
ATOM     64  C   UNL A   1      42.677  34.073  30.004  1.00  0.00     0.037 A 
BRANCH  51  65
ATOM     65  C   UNL A   1      36.614  33.231  31.170  1.00  0.00     0.064 A 
ATOM     66  C   UNL A   1      35.711  33.981  30.382  1.00  0.00     0.173 A 
ATOM     67  C   UNL A   1      36.156  33.029  32.493  1.00  0.00     0.173 A 
ATOM     68  F   UNL A   1      35.938  34.201  29.081  1.00  0.00    -0.203 F 
ATOM     69  C   UNL A   1      34.520  34.528  30.889  1.00  0.00     0.198 A 
ATOM     70  C   UNL A   1      34.977  33.585  33.005  1.00  0.00     0.198 A 
ATOM     71  F   UNL A   1      36.786  32.249  33.368  1.00  0.00    -0.203 F 
ATOM     72  F   UNL A   1      33.720  35.239  30.082  1.00  0.00    -0.200 F 
ATOM     73  C   UNL A   1      34.161  34.345  32.206  1.00  0.00     0.200 A 
ATOM     74  F   UNL A   1      34.644  33.361  34.286  1.00  0.00    -0.200 F 
ATOM     75  F   UNL A   1      33.031  34.871  32.695  1.00  0.00    -0.200 F 
ENDBRANCH  51  65
BRANCH  52  76
ATOM     76  C   UNL A   1      45.145  28.484  29.310  1.00  0.00     0.064 A 
ATOM     77  C   UNL A   1      45.769  27.506  30.125  1.00  0.00     0.173 A 
ATOM     78  C   UNL A   1      44.642  28.049  28.076  1.00  0.00     0.173 A 
ATOM     79  F   UNL A   1      46.261  27.855  31.325  1.00  0.00    -0.203 F 
ATOM     80  C   UNL A   1      45.727  26.149  29.806  1.00  0.00     0.198 A 
ATOM     81  C   UNL A   1      44.617  26.683  27.754  1.00  0.00     0.198 A 
ATOM     82  F   UNL A   1      44.023  28.913  27.258  1.00  0.00    -0.203 F 
ATOM     83  F   UNL A   1      46.171  25.240  30.688  1.00  0.00    -0.200 F 
ATOM     84  C   UNL A   1      45.115  25.735  28.637  1.00  0.00     0.200 A 
ATOM     85  F   UNL A   1      44.006  26.273  26.632  1.00  0.00    -0.200 F 
ATOM     86  F   UNL A   1      44.950  24.426  28.395  1.00  0.00    -0.200 F 
ENDBRANCH  52  76
BRANCH  64  87
ATOM     87  C   UNL A   1      42.812  35.478  29.511  1.00  0.00     0.064 A 
ATOM     88  C   UNL A   1      42.271  35.891  28.285  1.00  0.00     0.173 A 
ATOM     89  C   UNL A   1      43.528  36.452  30.235  1.00  0.00     0.173 A 
ATOM     90  F   UNL A   1      41.720  35.006  27.440  1.00  0.00    -0.203 F 
ATOM     91  C   UNL A   1      42.288  37.227  27.896  1.00  0.00     0.198 A 
ATOM     92  C   UNL A   1      43.601  37.773  29.812  1.00  0.00     0.198 A 
ATOM     93  F   UNL A   1      44.153  36.169  31.385  1.00  0.00    -0.203 F 
ATOM     94  F   UNL A   1      41.654  37.598  26.776  1.00  0.00    -0.200 F 
ATOM     95  C   UNL A   1      42.943  38.169  28.667  1.00  0.00     0.200 A 
ATOM     96  F   UNL A   1      44.290  38.662  30.540  1.00  0.00    -0.200 F 
ATOM     97  F   UNL A   1      42.941  39.459  28.305  1.00  0.00    -0.200 F 
ENDBRANCH  64  87
ENDBRANCH  38  39
ENDBRANCH  31  33
ENDBRANCH  30  31
ENDBRANCH  29  30
ENDBRANCH  28  29
ENDBRANCH  27  28
ENDBRANCH   1  27
TORSDOF 18
ENDMDL
MODEL 2
REMARK VINA RESULT:     -11.8      3.561      9.993
REMARK SMILES COc1ccc(Cl)c(NS(=O)(=O)c2ccc(C)c(C(=O)OCCOCCOC(=O)c3ccc(-c4c5nc(c(-c6c(F)c(F)c(F)c(F)c6F)c6ccc([nH]6)c(-c6c(F)c(F)c(F)c(F)c6F)c6nc(c(-c7c(F)c(F)c(F)c(F)c7F)c7ccc4[nH]7)C=C6)C=C5)cc3)c2)c1
REMARK SMILES IDX 23 1 22 2 21 3 19 4 20 5 18 6 13 7 14 8 93 9 15 10 16 11
REMARK SMILES IDX 17 12 10 13 11 14 12 15 9 16 8 18 3 19 4 20 94 21 5 22 6 23
REMARK SMILES IDX 7 24 2 25 1 26 24 27 25 28 26 29 27 30 28 31 29 32 30 33
REMARK SMILES IDX 31 34 92 35 32 36 91 37 33 38 34 39 35 40 85 41 36 42 90 43
REMARK SMILES IDX 84 44 86 45 37 46 89 47 83 48 82 49 38 51 70 52 50 53 69 54
REMARK SMILES IDX 51 55 54 56 68 57 87 58 52 59 53 60 67 62 88 63 55 64 39 65
REMARK SMILES IDX 40 66 48 67 41 68 42 69 46 70 49 71 43 72 44 73 47 74 45 75
REMARK SMILES IDX 71 76 72 77 80 78 73 79 74 80 78 81 81 82 75 83 76 84 79 85
REMARK SMILES IDX 77 86 56 87 57 88 65 89 58 90 59 91 63 92 66 93 60 94 61 95
REMARK SMILES IDX 64 96 62 97
REMARK H PARENT 9 17 86 50 54 61
REMARK Flexibility Score: inf
ROOT
ATOM      1  C   UNL A   1      32.583  29.727  25.354  1.00  0.00     0.202 C 
ENDROOT
BRANCH   1   2
ATOM      2  C   UNL A   1      31.517  28.715  25.606  1.00  0.00     0.261 C 
BRANCH   2   3
ATOM      3  O   UNL A   1      30.995  28.152  24.402  1.00  0.00    -0.460 OA
BRANCH   3   4
ATOM      4  C   UNL A   1      30.766  26.820  24.371  1.00  0.00     0.338 C 
ATOM      5  O   UNL A   1      29.777  26.248  23.947  1.00  0.00    -0.246 OA
BRANCH   4   6
ATOM      6  C   UNL A   1      32.025  26.137  24.739  1.00  0.00     0.064 A 
ATOM      7  C   UNL A   1      32.821  24.192  25.893  1.00  0.00     0.088 A 
ATOM      8  C   UNL A   1      34.017  24.230  25.172  1.00  0.00     0.022 A 
ATOM      9  C   UNL A   1      31.875  25.207  25.772  1.00  0.00     0.038 A 
ATOM     10  C   UNL A   1      34.218  25.237  24.230  1.00  0.00     0.006 A 
ATOM     11  C   UNL A   1      33.207  26.175  23.962  1.00  0.00    -0.036 A 
ATOM     12  C   UNL A   1      33.371  27.068  22.760  1.00  0.00     0.045 C 
BRANCH   7  13
ATOM     13  S   UNL A   1      32.296  22.653  26.603  1.00  0.00     0.261 S 
ATOM     14  O   UNL A   1      30.960  22.401  26.106  1.00  0.00    -0.201 OA
ATOM     15  O   UNL A   1      32.589  22.672  28.019  1.00  0.00    -0.201 OA
BRANCH  13  16
ATOM     16  N   UNL A   1      33.299  21.507  25.878  1.00  0.00    -0.278 N 
ATOM     17  H   UNL A   1      34.271  21.641  25.942  1.00  0.00     0.180 HD
BRANCH  16  18
ATOM     18  C   UNL A   1      32.827  20.342  25.171  1.00  0.00     0.071 A 
ATOM     19  C   UNL A   1      32.605  17.906  24.977  1.00  0.00     0.121 A 
ATOM     20  C   UNL A   1      32.320  18.027  23.622  1.00  0.00     0.048 A 
ATOM     21  C   UNL A   1      32.832  19.063  25.739  1.00  0.00     0.074 A 
ATOM     22  C   UNL A   1      32.276  19.295  23.039  1.00  0.00     0.026 A 
ATOM     23  C   UNL A   1      32.538  20.440  23.802  1.00  0.00     0.065 A 
ATOM     24  Cl  UNL A   1      32.520  21.973  23.005  1.00  0.00    -0.082 Cl
BRANCH  19  25
ATOM     25  O   UNL A   1      32.723  16.733  25.671  1.00  0.00    -0.497 OA
ATOM     26  C   UNL A   1      33.848  15.905  25.386  1.00  0.00     0.278 C 
ENDBRANCH  19  25
ENDBRANCH  16  18
ENDBRANCH  13  16
ENDBRANCH   7  13
ENDBRANCH   4   6
ENDBRANCH   3   4
ENDBRANCH   2   3
ENDBRANCH   1   2
BRANCH   1  27
ATOM     27  O   UNL A   1      33.824  29.185  25.778  1.00  0.00    -0.374 OA
BRANCH  27  28
ATOM     28  C   UNL A   1      34.098  29.374  27.160  1.00  0.00     0.202 C 
BRANCH  28  29
ATOM     29  C   UNL A   1      34.222  30.845  27.606  1.00  0.00     0.261 C 
BRANCH  29  30
ATOM     30  O   UNL A   1      34.964  30.929  28.841  1.00  0.00    -0.460 OA
BRANCH  30  31
ATOM     31  C   UNL A   1      36.289  31.232  28.735  1.00  0.00     0.338 C 
ATOM     32  O   UNL A   1      36.742  32.314  28.399  1.00  0.00    -0.246 OA
BRANCH  31  33
ATOM     33  C   UNL A   1      37.082  29.965  28.743  1.00  0.00     0.060 A 
ATOM     34  C   UNL A   1      37.211  29.215  29.927  1.00  0.00     0.016 A 
ATOM     35  C   UNL A   1      37.985  29.773  27.704  1.00  0.00     0.016 A 
ATOM     36  C   UNL A   1      38.339  28.402  30.128  1.00  0.00     0.010 A 
ATOM     37  C   UNL A   1      39.158  29.107  27.974  1.00  0.00     0.010 A 
ATOM     38  C   UNL A   1      39.361  28.418  29.182  1.00  0.00    -0.014 A 
BRANCH  38  39
ATOM     39  C   UNL A   1      40.716  27.871  29.347  1.00  0.00     0.031 A 
ATOM     40  C   UNL A   1      41.002  26.500  28.850  1.00  0.00     0.074 A 
ATOM     41  C   UNL A   1      41.767  28.666  29.667  1.00  0.00     0.049 A 
ATOM     42  N   UNL A   1      42.074  25.843  29.129  1.00  0.00    -0.248 NA
ATOM     43  C   UNL A   1      40.084  25.728  28.021  1.00  0.00     0.031 C 
ATOM     44  C   UNL A   1      43.186  28.431  29.389  1.00  0.00     0.029 A 
ATOM     45  N   UNL A   1      41.789  29.914  30.313  1.00  0.00    -0.354 N 
ATOM     46  C   UNL A   1      42.170  24.798  28.238  1.00  0.00     0.074 A 
ATOM     47  C   UNL A   1      40.842  24.680  27.694  1.00  0.00     0.031 C 
ATOM     48  C   UNL A   1      43.930  29.299  30.093  1.00  0.00     0.029 A 
ATOM     49  C   UNL A   1      43.032  30.037  30.961  1.00  0.00     0.049 A 
ATOM     50  H   UNL A   1      41.065  30.581  30.313  1.00  0.00     0.167 HD
ATOM     51  C   UNL A   1      43.408  24.279  27.976  1.00  0.00     0.037 A 
ATOM     52  C   UNL A   1      43.065  30.164  32.312  1.00  0.00     0.037 A 
ATOM     53  C   UNL A   1      44.432  24.890  28.863  1.00  0.00     0.049 A 
ATOM     54  C   UNL A   1      43.618  28.908  32.922  1.00  0.00     0.074 A 
ATOM     55  C   UNL A   1      45.538  25.708  28.678  1.00  0.00     0.029 A 
ATOM     56  N   UNL A   1      44.207  24.910  30.241  1.00  0.00    -0.354 N 
ATOM     57  N   UNL A   1      44.117  27.950  32.190  1.00  0.00    -0.248 NA
ATOM     58  C   UNL A   1      43.631  28.571  34.338  1.00  0.00     0.031 C 
ATOM     59  C   UNL A   1      45.956  26.208  29.956  1.00  0.00     0.029 A 
ATOM     60  C   UNL A   1      45.124  25.683  30.931  1.00  0.00     0.049 A 
ATOM     61  H   UNL A   1      43.471  24.423  30.676  1.00  0.00     0.167 HD
ATOM     62  C   UNL A   1      44.481  26.895  32.949  1.00  0.00     0.074 A 
ATOM     63  C   UNL A   1      44.141  27.324  34.302  1.00  0.00     0.031 C 
ATOM     64  C   UNL A   1      45.025  25.772  32.390  1.00  0.00     0.037 A 
BRANCH  51  65
ATOM     65  C   UNL A   1      43.748  23.372  26.783  1.00  0.00     0.064 A 
ATOM     66  C   UNL A   1      43.259  22.047  26.728  1.00  0.00     0.173 A 
ATOM     67  C   UNL A   1      44.575  23.702  25.683  1.00  0.00     0.173 A 
ATOM     68  F   UNL A   1      42.394  21.584  27.639  1.00  0.00    -0.203 F 
ATOM     69  C   UNL A   1      43.623  21.135  25.722  1.00  0.00     0.198 A 
ATOM     70  C   UNL A   1      44.951  22.791  24.688  1.00  0.00     0.198 A 
ATOM     71  F   UNL A   1      45.041  24.929  25.468  1.00  0.00    -0.203 F 
ATOM     72  F   UNL A   1      43.127  19.890  25.744  1.00  0.00    -0.200 F 
ATOM     73  C   UNL A   1      44.483  21.502  24.711  1.00  0.00     0.200 A 
ATOM     74  F   UNL A   1      45.767  23.192  23.701  1.00  0.00    -0.200 F 
ATOM     75  F   UNL A   1      44.838  20.634  23.755  1.00  0.00    -0.200 F 
ENDBRANCH  51  65
BRANCH  52  76
ATOM     76  C   UNL A   1      42.002  31.113  32.767  1.00  0.00     0.064 A 
ATOM     77  C   UNL A   1      42.249  32.479  32.479  1.00  0.00     0.173 A 
ATOM     78  C   UNL A   1      40.659  30.727  32.888  1.00  0.00     0.173 A 
ATOM     79  F   UNL A   1      43.512  32.911  32.338  1.00  0.00    -0.203 F 
ATOM     80  C   UNL A   1      41.216  33.359  32.153  1.00  0.00     0.198 A 
ATOM     81  C   UNL A   1      39.624  31.622  32.575  1.00  0.00     0.198 A 
ATOM     82  F   UNL A   1      40.346  29.448  33.142  1.00  0.00    -0.203 F 
ATOM     83  F   UNL A   1      41.503  34.595  31.716  1.00  0.00    -0.200 F 
ATOM     84  C   UNL A   1      39.906  32.918  32.164  1.00  0.00     0.200 A 
ATOM     85  F   UNL A   1      38.353  31.194  32.562  1.00  0.00    -0.200 F 
ATOM     86  F   UNL A   1      38.926  33.718  31.719  1.00  0.00    -0.200 F 
ENDBRANCH  52  76
BRANCH  64  87
ATOM     87  C   UNL A   1      45.480  24.626  33.236  1.00  0.00     0.064 A 
ATOM     88  C   UNL A   1      44.614  23.589  33.612  1.00  0.00     0.173 A 
ATOM     89  C   UNL A   1      46.795  24.550  33.735  1.00  0.00     0.173 A 
ATOM     90  F   UNL A   1      43.302  23.650  33.336  1.00  0.00    -0.203 F 
ATOM     91  C   UNL A   1      45.077  22.464  34.288  1.00  0.00     0.198 A 
ATOM     92  C   UNL A   1      47.240  23.457  34.467  1.00  0.00     0.198 A 
ATOM     93  F   UNL A   1      47.700  25.511  33.508  1.00  0.00    -0.203 F 
ATOM     94  F   UNL A   1      44.244  21.443  34.521  1.00  0.00    -0.200 F 
ATOM     95  C   UNL A   1      46.394  22.394  34.704  1.00  0.00     0.200 A 
ATOM     96  F   UNL A   1      48.503  23.431  34.914  1.00  0.00    -0.200 F 
ATOM     97  F   UNL A   1      46.847  21.303  35.334  1.00  0.00    -0.200 F 
ENDBRANCH  64  87
ENDBRANCH  38  39
ENDBRANCH  31  33
ENDBRANCH  30  31
ENDBRANCH  29  30
ENDBRANCH  28  29
ENDBRANCH  27  28
ENDBRANCH   1  27
TORSDOF 18
ENDMDL
MODEL 3
REMARK VINA RESULT:     -11.3      3.847      9.839
REMARK SMILES COc1ccc(Cl)c(NS(=O)(=O)c2ccc(C)c(C(=O)OCCOCCOC(=O)c3ccc(-c4c5nc(c(-c6c(F)c(F)c(F)c(F)c6F)c6ccc([nH]6)c(-c6c(F)c(F)c(F)c(F)c6F)c6nc(c(-c7c(F)c(F)c(F)c(F)c7F)c7ccc4[nH]7)C=C6)C=C5)cc3)c2)c1
REMARK SMILES IDX 23 1 22 2 21 3 19 4 20 5 18 6 13 7 14 8 93 9 15 10 16 11
REMARK SMILES IDX 17 12 10 13 11 14 12 15 9 16 8 18 3 19 4 20 94 21 5 22 6 23
REMARK SMILES IDX 7 24 2 25 1 26 24 27 25 28 26 29 27 30 28 31 29 32 30 33
REMARK SMILES IDX 31 34 92 35 32 36 91 37 33 38 34 39 35 40 85 41 36 42 90 43
REMARK SMILES IDX 84 44 86 45 37 46 89 47 83 48 82 49 38 51 70 52 50 53 69 54
REMARK SMILES IDX 51 55 54 56 68 57 87 58 52 59 53 60 67 62 88 63 55 64 39 65
REMARK SMILES IDX 40 66 48 67 41 68 42 69 46 70 49 71 43 72 44 73 47 74 45 75
REMARK SMILES IDX 71 76 72 77 80 78 73 79 74 80 78 81 81 82 75 83 76 84 79 85
REMARK SMILES IDX 77 86 56 87 57 88 65 89 58 90 59 91 63 92 66 93 60 94 61 95
REMARK SMILES IDX 64 96 62 97
REMARK H PARENT 9 17 86 50 54 61
REMARK Flexibility Score: inf
ROOT
ATOM      1  C   UNL A   1      33.393  28.638  27.617  1.00  0.00     0.202 C 
ENDROOT
BRANCH   1   2
ATOM      2  C   UNL A   1      31.921  28.438  27.471  1.00  0.00     0.261 C 
BRANCH   2   3
ATOM      3  O   UNL A   1      31.594  27.439  26.504  1.00  0.00    -0.460 OA
BRANCH   3   4
ATOM      4  C   UNL A   1      31.131  27.848  25.301  1.00  0.00     0.338 C 
ATOM      5  O   UNL A   1      31.087  28.988  24.872  1.00  0.00    -0.246 OA
BRANCH   4   6
ATOM      6  C   UNL A   1      30.881  26.642  24.481  1.00  0.00     0.064 A 
ATOM      7  C   UNL A   1      31.884  25.332  22.742  1.00  0.00     0.088 A 
ATOM      8  C   UNL A   1      31.144  24.213  23.132  1.00  0.00     0.022 A 
ATOM      9  C   UNL A   1      31.670  26.576  23.329  1.00  0.00     0.038 A 
ATOM     10  C   UNL A   1      30.260  24.315  24.205  1.00  0.00     0.006 A 
ATOM     11  C   UNL A   1      30.152  25.515  24.928  1.00  0.00    -0.036 A 
ATOM     12  C   UNL A   1      29.390  25.491  26.227  1.00  0.00     0.045 C 
BRANCH   7  13
ATOM     13  S   UNL A   1      33.394  25.091  21.842  1.00  0.00     0.261 S 
ATOM     14  O   UNL A   1      33.850  26.403  21.437  1.00  0.00    -0.201 OA
ATOM     15  O   UNL A   1      33.198  24.025  20.885  1.00  0.00    -0.201 OA
BRANCH  13  16
ATOM     16  N   UNL A   1      34.482  24.547  23.012  1.00  0.00    -0.278 N 
ATOM     17  H   UNL A   1      35.413  24.859  22.954  1.00  0.00     0.180 HD
BRANCH  16  18
ATOM     18  C   UNL A   1      34.139  23.654  24.091  1.00  0.00     0.071 A 
ATOM     19  C   UNL A   1      33.251  21.510  24.887  1.00  0.00     0.121 A 
ATOM     20  C   UNL A   1      33.043  22.049  26.150  1.00  0.00     0.048 A 
ATOM     21  C   UNL A   1      33.816  22.309  23.880  1.00  0.00     0.074 A 
ATOM     22  C   UNL A   1      33.387  23.381  26.394  1.00  0.00     0.026 A 
ATOM     23  C   UNL A   1      33.919  24.178  25.373  1.00  0.00     0.065 A 
ATOM     24  Cl  UNL A   1      34.272  25.832  25.729  1.00  0.00    -0.082 Cl
BRANCH  19  25
ATOM     25  O   UNL A   1      32.924  20.242  24.492  1.00  0.00    -0.497 OA
ATOM     26  C   UNL A   1      33.896  19.217  24.681  1.00  0.00     0.278 C 
ENDBRANCH  19  25
ENDBRANCH  16  18
ENDBRANCH  13  16
ENDBRANCH   7  13
ENDBRANCH   4   6
ENDBRANCH   3   4
ENDBRANCH   2   3
ENDBRANCH   1   2
BRANCH   1  27
ATOM     27  O   UNL A   1      33.782  29.723  26.790  1.00  0.00    -0.374 OA
BRANCH  27  28
ATOM     28  C   UNL A   1      33.251  30.978  27.193  1.00  0.00     0.202 C 
BRANCH  28  29
ATOM     29  C   UNL A   1      34.290  31.990  27.718  1.00  0.00     0.261 C 
BRANCH  29  30
ATOM     30  O   UNL A   1      35.605  31.397  27.716  1.00  0.00    -0.460 OA
BRANCH  30  31
ATOM     31  C   UNL A   1      36.171  31.169  28.935  1.00  0.00     0.338 C 
ATOM     32  O   UNL A   1      36.244  31.979  29.844  1.00  0.00    -0.246 OA
BRANCH  31  33
ATOM     33  C   UNL A   1      36.990  29.920  28.867  1.00  0.00     0.060 A 
ATOM     34  C   UNL A   1      37.125  29.096  30.000  1.00  0.00     0.016 A 
ATOM     35  C   UNL A   1      37.905  29.815  27.826  1.00  0.00     0.016 A 
ATOM     36  C   UNL A   1      38.268  28.294  30.158  1.00  0.00     0.010 A 
ATOM     37  C   UNL A   1      39.089  29.156  28.063  1.00  0.00     0.010 A 
ATOM     38  C   UNL A   1      39.297  28.393  29.224  1.00  0.00    -0.014 A 
BRANCH  38  39
ATOM     39  C   UNL A   1      40.661  27.863  29.366  1.00  0.00     0.031 A 
ATOM     40  C   UNL A   1      40.958  26.499  28.858  1.00  0.00     0.074 A 
ATOM     41  C   UNL A   1      41.707  28.671  29.674  1.00  0.00     0.049 A 
ATOM     42  N   UNL A   1      42.043  25.855  29.116  1.00  0.00    -0.248 NA
ATOM     43  C   UNL A   1      40.038  25.719  28.038  1.00  0.00     0.031 C 
ATOM     44  C   UNL A   1      43.124  28.456  29.372  1.00  0.00     0.029 A 
ATOM     45  N   UNL A   1      41.722  29.916  30.326  1.00  0.00    -0.354 N 
ATOM     46  C   UNL A   1      42.139  24.816  28.218  1.00  0.00     0.074 A 
ATOM     47  C   UNL A   1      40.804  24.683  27.694  1.00  0.00     0.031 C 
ATOM     48  C   UNL A   1      43.867  29.331  30.069  1.00  0.00     0.029 A 
ATOM     49  C   UNL A   1      42.973  30.052  30.954  1.00  0.00     0.049 A 
ATOM     50  H   UNL A   1      40.989  30.573  30.340  1.00  0.00     0.167 HD
ATOM     51  C   UNL A   1      43.379  24.314  27.934  1.00  0.00     0.037 A 
ATOM     52  C   UNL A   1      43.026  30.173  32.306  1.00  0.00     0.037 A 
ATOM     53  C   UNL A   1      44.409  24.935  28.809  1.00  0.00     0.049 A 
ATOM     54  C   UNL A   1      43.604  28.921  32.901  1.00  0.00     0.074 A 
ATOM     55  C   UNL A   1      45.501  25.769  28.611  1.00  0.00     0.029 A 
ATOM     56  N   UNL A   1      44.205  24.945  30.190  1.00  0.00    -0.354 N 
ATOM     57  N   UNL A   1      44.105  27.974  32.156  1.00  0.00    -0.248 NA
ATOM     58  C   UNL A   1      43.644  28.578  34.314  1.00  0.00     0.031 C 
ATOM     59  C   UNL A   1      45.932  26.268  29.885  1.00  0.00     0.029 A 
ATOM     60  C   UNL A   1      45.123  25.727  30.869  1.00  0.00     0.049 A 
ATOM     61  H   UNL A   1      43.482  24.446  30.634  1.00  0.00     0.167 HD
ATOM     62  C   UNL A   1      44.494  26.920  32.904  1.00  0.00     0.074 A 
ATOM     63  C   UNL A   1      44.170  27.338  34.264  1.00  0.00     0.031 C 
ATOM     64  C   UNL A   1      45.044  25.807  32.331  1.00  0.00     0.037 A 
BRANCH  51  65
ATOM     65  C   UNL A   1      43.713  23.419  26.732  1.00  0.00     0.064 A 
ATOM     66  C   UNL A   1      43.305  22.065  26.712  1.00  0.00     0.173 A 
ATOM     67  C   UNL A   1      44.460  23.787  25.588  1.00  0.00     0.173 A 
ATOM     68  F   UNL A   1      42.520  21.559  27.671  1.00  0.00    -0.203 F 
ATOM     69  C   UNL A   1      43.673  21.167  25.695  1.00  0.00     0.198 A 
ATOM     70  C   UNL A   1      44.840  22.891  24.581  1.00  0.00     0.198 A 
ATOM     71  F   UNL A   1      44.837  25.038  25.340  1.00  0.00    -0.203 F 
ATOM     72  F   UNL A   1      43.258  19.894  25.752  1.00  0.00    -0.200 F 
ATOM     73  C   UNL A   1      44.455  21.576  24.637  1.00  0.00     0.200 A 
ATOM     74  F   UNL A   1      45.577  23.332  23.549  1.00  0.00    -0.200 F 
ATOM     75  F   UNL A   1      44.813  20.722  23.670  1.00  0.00    -0.200 F 
ENDBRANCH  51  65
BRANCH  52  76
ATOM     76  C   UNL A   1      41.957  31.105  32.782  1.00  0.00     0.064 A 
ATOM     77  C   UNL A   1      40.845  30.482  33.402  1.00  0.00     0.173 A 
ATOM     78  C   UNL A   1      42.234  32.426  33.164  1.00  0.00     0.173 A 
ATOM     79  F   UNL A   1      40.534  29.213  33.089  1.00  0.00    -0.203 F 
ATOM     80  C   UNL A   1      40.168  31.078  34.467  1.00  0.00     0.198 A 
ATOM     81  C   UNL A   1      41.538  33.026  34.226  1.00  0.00     0.198 A 
ATOM     82  F   UNL A   1      43.280  33.076  32.634  1.00  0.00    -0.203 F 
ATOM     83  F   UNL A   1      39.238  30.384  35.141  1.00  0.00    -0.200 F 
ATOM     84  C   UNL A   1      40.542  32.335  34.903  1.00  0.00     0.200 A 
ATOM     85  F   UNL A   1      41.910  34.236  34.668  1.00  0.00    -0.200 F 
ATOM     86  F   UNL A   1      39.990  32.852  36.010  1.00  0.00    -0.200 F 
ENDBRANCH  52  76
BRANCH  64  87
ATOM     87  C   UNL A   1      45.528  24.663  33.163  1.00  0.00     0.064 A 
ATOM     88  C   UNL A   1      46.839  24.606  33.658  1.00  0.00     0.173 A 
ATOM     89  C   UNL A   1      44.704  23.560  33.457  1.00  0.00     0.173 A 
ATOM     90  F   UNL A   1      47.755  25.518  33.295  1.00  0.00    -0.203 F 
ATOM     91  C   UNL A   1      47.242  23.605  34.537  1.00  0.00     0.198 A 
ATOM     92  C   UNL A   1      45.129  22.526  34.282  1.00  0.00     0.198 A 
ATOM     93  F   UNL A   1      43.455  23.457  32.985  1.00  0.00    -0.203 F 
ATOM     94  F   UNL A   1      48.464  23.656  35.083  1.00  0.00    -0.200 F 
ATOM     95  C   UNL A   1      46.381  22.573  34.859  1.00  0.00     0.200 A 
ATOM     96  F   UNL A   1      44.304  21.501  34.536  1.00  0.00    -0.200 F 
ATOM     97  F   UNL A   1      46.759  21.621  35.722  1.00  0.00    -0.200 F 
ENDBRANCH  64  87
ENDBRANCH  38  39
ENDBRANCH  31  33
ENDBRANCH  30  31
ENDBRANCH  29  30
ENDBRANCH  28  29
ENDBRANCH  27  28
ENDBRANCH   1  27
TORSDOF 18
ENDMDL
