MODEL 1
REMARK VINA RESULT:     -10.5      0.000      0.000
REMARK SMILES O=C(CNC(=O)OCc1ccccc1)NCC(=O)OCCOCCOC(=O)c1ccc(-c2c3nc(c(-c4c(F)c(F)c(F)c(F)c4F)c4ccc([nH]4)c(-c4c(F)c(F)c(F)c(F)c4F)c4nc(c(-c5c(F)c(F)c(F)c(F)c5F)c5ccc2[nH]5)C=C4)C=C3)cc1
REMARK SMILES IDX 20 1 19 2 17 3 18 4 16 5 15 6 1 7 2 8 3 10 4 11 5 12 6 14
REMARK SMILES IDX 7 15 8 16 9 17 10 18 14 19 11 20 13 21 12 22 21 23 22 24
REMARK SMILES IDX 23 25 24 26 25 27 26 28 27 29 28 30 29 31 90 32 30 33 89 34
REMARK SMILES IDX 31 35 32 36 33 37 83 38 34 39 88 40 82 41 84 42 35 43 87 44
REMARK SMILES IDX 81 45 80 46 36 48 68 49 48 50 67 51 49 52 52 53 66 54 85 55
REMARK SMILES IDX 50 56 51 57 65 59 86 60 53 61 37 62 38 63 46 64 39 65 40 66
REMARK SMILES IDX 44 67 47 68 41 69 42 70 45 71 43 72 69 73 70 74 78 75 71 76
REMARK SMILES IDX 72 77 76 78 79 79 73 80 74 81 77 82 75 83 54 84 55 85 63 86
REMARK SMILES IDX 56 87 57 88 61 89 64 90 58 91 59 92 62 93 60 94
REMARK H PARENT 15 9 4 13 84 47 52 58
REMARK Flexibility Score: inf
ROOT
ATOM      1  C   UNL A   1      41.798  40.594  26.933  1.00  0.00     0.261 C 
ENDROOT
BRANCH   1   2
ATOM      2  O   UNL A   1      43.202  40.672  26.632  1.00  0.00    -0.462 OA
BRANCH   2   3
ATOM      3  C   UNL A   1      43.506  41.290  25.456  1.00  0.00     0.325 C 
ATOM      4  O   UNL A   1      44.635  41.381  24.986  1.00  0.00    -0.250 OA
BRANCH   3   5
ATOM      5  C   UNL A   1      42.272  41.757  24.685  1.00  0.00     0.238 C 
BRANCH   5   6
ATOM      6  N   UNL A   1      42.403  42.810  23.689  1.00  0.00    -0.344 N 
ATOM      7  O   UNL A   1      42.327  41.426  21.870  1.00  0.00    -0.273 OA
ATOM      8  C   UNL A   1      42.297  42.559  22.339  1.00  0.00     0.240 C 
ATOM      9  H   UNL A   1      42.573  43.732  23.990  1.00  0.00     0.164 HD
BRANCH   8  10
ATOM     10  C   UNL A   1      42.260  43.820  21.466  1.00  0.00     0.219 C 
BRANCH  10  11
ATOM     11  N   UNL A   1      41.302  43.626  20.386  1.00  0.00    -0.312 N 
ATOM     12  C   UNL A   1      41.476  43.865  19.061  1.00  0.00     0.407 C 
ATOM     13  H   UNL A   1      40.419  43.276  20.649  1.00  0.00     0.167 HD
ATOM     14  O   UNL A   1      40.532  43.769  18.286  1.00  0.00    -0.225 OA
BRANCH  12  15
ATOM     15  O   UNL A   1      42.736  44.232  18.735  1.00  0.00    -0.445 OA
BRANCH  15  16
ATOM     16  C   UNL A   1      42.950  44.499  17.340  1.00  0.00     0.270 C 
BRANCH  16  17
ATOM     17  C   UNL A   1      43.064  45.980  17.074  1.00  0.00    -0.011 A 
ATOM     18  C   UNL A   1      41.912  46.759  16.890  1.00  0.00     0.007 A 
ATOM     19  C   UNL A   1      44.318  46.597  16.974  1.00  0.00     0.007 A 
ATOM     20  C   UNL A   1      42.010  48.121  16.607  1.00  0.00     0.000 A 
ATOM     21  C   UNL A   1      44.415  47.963  16.699  1.00  0.00     0.000 A 
ATOM     22  C   UNL A   1      43.262  48.723  16.512  1.00  0.00     0.000 A 
ENDBRANCH  16  17
ENDBRANCH  15  16
ENDBRANCH  12  15
ENDBRANCH  10  11
ENDBRANCH   8  10
ENDBRANCH   5   6
ENDBRANCH   3   5
ENDBRANCH   2   3
ENDBRANCH   1   2
BRANCH   1  23
ATOM     23  C   UNL A   1      41.552  40.347  28.424  1.00  0.00     0.202 C 
BRANCH  23  24
ATOM     24  O   UNL A   1      42.467  40.927  29.349  1.00  0.00    -0.374 OA
BRANCH  24  25
ATOM     25  C   UNL A   1      43.257  40.061  30.160  1.00  0.00     0.202 C 
BRANCH  25  26
ATOM     26  C   UNL A   1      44.133  39.008  29.464  1.00  0.00     0.261 C 
BRANCH  26  27
ATOM     27  O   UNL A   1      44.522  37.916  30.316  1.00  0.00    -0.460 OA
BRANCH  27  28
ATOM     28  C   UNL A   1      45.725  37.366  30.005  1.00  0.00     0.338 C 
ATOM     29  O   UNL A   1      46.825  37.874  30.132  1.00  0.00    -0.246 OA
BRANCH  28  30
ATOM     30  C   UNL A   1      45.562  35.950  29.624  1.00  0.00     0.060 A 
ATOM     31  C   UNL A   1      44.958  35.673  28.390  1.00  0.00     0.016 A 
ATOM     32  C   UNL A   1      45.883  34.919  30.506  1.00  0.00     0.016 A 
ATOM     33  C   UNL A   1      44.636  34.362  28.049  1.00  0.00     0.010 A 
ATOM     34  C   UNL A   1      45.551  33.602  30.163  1.00  0.00     0.010 A 
ATOM     35  C   UNL A   1      44.896  33.321  28.950  1.00  0.00    -0.014 A 
BRANCH  35  36
ATOM     36  C   UNL A   1      44.367  31.961  28.676  1.00  0.00     0.031 A 
ATOM     37  C   UNL A   1      43.021  31.572  29.224  1.00  0.00     0.074 A 
ATOM     38  C   UNL A   1      45.067  31.090  27.930  1.00  0.00     0.049 A 
ATOM     39  N   UNL A   1      42.395  30.424  29.157  1.00  0.00    -0.248 NA
ATOM     40  C   UNL A   1      42.282  32.618  29.948  1.00  0.00     0.031 C 
ATOM     41  C   UNL A   1      46.362  31.364  27.309  1.00  0.00     0.029 A 
ATOM     42  N   UNL A   1      44.790  29.793  27.577  1.00  0.00    -0.354 N 
ATOM     43  C   UNL A   1      41.198  30.605  29.838  1.00  0.00     0.074 A 
ATOM     44  C   UNL A   1      41.199  31.962  30.339  1.00  0.00     0.031 C 
ATOM     45  C   UNL A   1      46.774  30.262  26.658  1.00  0.00     0.029 A 
ATOM     46  C   UNL A   1      45.792  29.197  26.851  1.00  0.00     0.049 A 
ATOM     47  H   UNL A   1      43.954  29.334  27.819  1.00  0.00     0.167 HD
ATOM     48  C   UNL A   1      40.188  29.721  30.021  1.00  0.00     0.037 A 
ATOM     49  C   UNL A   1      45.914  27.927  26.416  1.00  0.00     0.037 A 
ATOM     50  C   UNL A   1      40.191  28.372  29.516  1.00  0.00     0.049 A 
ATOM     51  C   UNL A   1      44.810  26.941  26.698  1.00  0.00     0.074 A 
ATOM     52  C   UNL A   1      39.206  27.406  29.630  1.00  0.00     0.029 A 
ATOM     53  N   UNL A   1      41.237  27.794  28.810  1.00  0.00    -0.354 N 
ATOM     54  N   UNL A   1      43.672  27.125  27.322  1.00  0.00    -0.248 NA
ATOM     55  C   UNL A   1      45.007  25.567  26.211  1.00  0.00     0.031 C 
ATOM     56  C   UNL A   1      39.682  26.226  29.051  1.00  0.00     0.029 A 
ATOM     57  C   UNL A   1      40.933  26.475  28.510  1.00  0.00     0.049 A 
ATOM     58  H   UNL A   1      42.071  28.253  28.560  1.00  0.00     0.167 HD
ATOM     59  C   UNL A   1      43.004  25.908  27.270  1.00  0.00     0.074 A 
ATOM     60  C   UNL A   1      43.860  24.993  26.544  1.00  0.00     0.031 C 
ATOM     61  C   UNL A   1      41.789  25.578  27.774  1.00  0.00     0.037 A 
BRANCH  48  62
ATOM     62  C   UNL A   1      39.003  30.172  30.827  1.00  0.00     0.064 A 
ATOM     63  C   UNL A   1      38.930  29.977  32.215  1.00  0.00     0.173 A 
ATOM     64  C   UNL A   1      37.938  30.847  30.205  1.00  0.00     0.173 A 
ATOM     65  F   UNL A   1      39.913  29.329  32.857  1.00  0.00    -0.203 F 
ATOM     66  C   UNL A   1      37.827  30.413  32.944  1.00  0.00     0.198 A 
ATOM     67  C   UNL A   1      36.854  31.313  30.943  1.00  0.00     0.198 A 
ATOM     68  F   UNL A   1      37.958  31.067  28.882  1.00  0.00    -0.203 F 
ATOM     69  F   UNL A   1      37.757  30.170  34.260  1.00  0.00    -0.200 F 
ATOM     70  C   UNL A   1      36.794  31.088  32.310  1.00  0.00     0.200 A 
ATOM     71  F   UNL A   1      35.865  31.978  30.331  1.00  0.00    -0.200 F 
ATOM     72  F   UNL A   1      35.738  31.516  33.015  1.00  0.00    -0.200 F 
ENDBRANCH  48  62
BRANCH  49  73
ATOM     73  C   UNL A   1      47.135  27.508  25.678  1.00  0.00     0.064 A 
ATOM     74  C   UNL A   1      48.226  26.935  26.346  1.00  0.00     0.173 A 
ATOM     75  C   UNL A   1      47.245  27.692  24.291  1.00  0.00     0.173 A 
ATOM     76  F   UNL A   1      48.180  26.760  27.675  1.00  0.00    -0.203 F 
ATOM     77  C   UNL A   1      49.387  26.583  25.661  1.00  0.00     0.198 A 
ATOM     78  C   UNL A   1      48.393  27.309  23.602  1.00  0.00     0.198 A 
ATOM     79  F   UNL A   1      46.232  28.239  23.603  1.00  0.00    -0.203 F 
ATOM     80  F   UNL A   1      50.435  26.087  26.333  1.00  0.00    -0.200 F 
ATOM     81  C   UNL A   1      49.467  26.764  24.288  1.00  0.00     0.200 A 
ATOM     82  F   UNL A   1      48.461  27.474  22.273  1.00  0.00    -0.200 F 
ATOM     83  F   UNL A   1      50.582  26.423  23.629  1.00  0.00    -0.200 F 
ENDBRANCH  49  73
BRANCH  61  84
ATOM     84  C   UNL A   1      41.282  24.186  27.515  1.00  0.00     0.064 A 
ATOM     85  C   UNL A   1      40.216  23.934  26.639  1.00  0.00     0.173 A 
ATOM     86  C   UNL A   1      41.906  23.084  28.121  1.00  0.00     0.173 A 
ATOM     87  F   UNL A   1      39.574  24.950  26.045  1.00  0.00    -0.203 F 
ATOM     88  C   UNL A   1      39.775  22.633  26.403  1.00  0.00     0.198 A 
ATOM     89  C   UNL A   1      41.487  21.783  27.854  1.00  0.00     0.198 A 
ATOM     90  F   UNL A   1      42.937  23.267  28.959  1.00  0.00    -0.203 F 
ATOM     91  F   UNL A   1      38.720  22.420  25.605  1.00  0.00    -0.200 F 
ATOM     92  C   UNL A   1      40.417  21.559  27.003  1.00  0.00     0.200 A 
ATOM     93  F   UNL A   1      42.121  20.747  28.420  1.00  0.00    -0.200 F 
ATOM     94  F   UNL A   1      39.998  20.309  26.765  1.00  0.00    -0.200 F 
ENDBRANCH  61  84
ENDBRANCH  35  36
ENDBRANCH  28  30
ENDBRANCH  27  28
ENDBRANCH  26  27
ENDBRANCH  25  26
ENDBRANCH  24  25
ENDBRANCH  23  24
ENDBRANCH   1  23
TORSDOF 20
ENDMDL
MODEL 2
REMARK VINA RESULT:     -10.4      8.130     12.169
REMARK SMILES O=C(CNC(=O)OCc1ccccc1)NCC(=O)OCCOCCOC(=O)c1ccc(-c2c3nc(c(-c4c(F)c(F)c(F)c(F)c4F)c4ccc([nH]4)c(-c4c(F)c(F)c(F)c(F)c4F)c4nc(c(-c5c(F)c(F)c(F)c(F)c5F)c5ccc2[nH]5)C=C4)C=C3)cc1
REMARK SMILES IDX 20 1 19 2 17 3 18 4 16 5 15 6 1 7 2 8 3 10 4 11 5 12 6 14
REMARK SMILES IDX 7 15 8 16 9 17 10 18 14 19 11 20 13 21 12 22 21 23 22 24
REMARK SMILES IDX 23 25 24 26 25 27 26 28 27 29 28 30 29 31 90 32 30 33 89 34
REMARK SMILES IDX 31 35 32 36 33 37 83 38 34 39 88 40 82 41 84 42 35 43 87 44
REMARK SMILES IDX 81 45 80 46 36 48 68 49 48 50 67 51 49 52 52 53 66 54 85 55
REMARK SMILES IDX 50 56 51 57 65 59 86 60 53 61 37 62 38 63 46 64 39 65 40 66
REMARK SMILES IDX 44 67 47 68 41 69 42 70 45 71 43 72 69 73 70 74 78 75 71 76
REMARK SMILES IDX 72 77 76 78 79 79 73 80 74 81 77 82 75 83 54 84 55 85 63 86
REMARK SMILES IDX 56 87 57 88 61 89 64 90 58 91 59 92 62 93 60 94
REMARK H PARENT 15 9 4 13 84 47 52 58
REMARK Flexibility Score: inf
ROOT
ATOM      1  C   UNL A   1      36.384  33.639  29.508  1.00  0.00     0.261 C 
ENDROOT
BRANCH   1   2
ATOM      2  O   UNL A   1      37.356  33.147  30.446  1.00  0.00    -0.462 OA
BRANCH   2   3
ATOM      3  C   UNL A   1      38.182  34.094  30.972  1.00  0.00     0.325 C 
ATOM      4  O   UNL A   1      38.836  34.895  30.314  1.00  0.00    -0.250 OA
BRANCH   3   5
ATOM      5  C   UNL A   1      38.121  34.165  32.497  1.00  0.00     0.238 C 
BRANCH   5   6
ATOM      6  N   UNL A   1      38.791  33.146  33.291  1.00  0.00    -0.344 N 
ATOM      7  O   UNL A   1      36.894  31.995  33.848  1.00  0.00    -0.273 OA
ATOM      8  C   UNL A   1      38.119  32.061  33.809  1.00  0.00     0.240 C 
ATOM      9  H   UNL A   1      39.756  33.234  33.463  1.00  0.00     0.164 HD
BRANCH   8  10
ATOM     10  C   UNL A   1      39.030  30.999  34.438  1.00  0.00     0.219 C 
BRANCH  10  11
ATOM     11  N   UNL A   1      38.758  29.709  33.819  1.00  0.00    -0.312 N 
ATOM     12  C   UNL A   1      39.652  28.770  33.417  1.00  0.00     0.407 C 
ATOM     13  H   UNL A   1      37.808  29.490  33.675  1.00  0.00     0.167 HD
ATOM     14  O   UNL A   1      39.275  27.782  32.797  1.00  0.00    -0.225 OA
BRANCH  12  15
ATOM     15  O   UNL A   1      40.932  29.062  33.739  1.00  0.00    -0.445 OA
BRANCH  15  16
ATOM     16  C   UNL A   1      41.428  28.406  34.916  1.00  0.00     0.270 C 
BRANCH  16  17
ATOM     17  C   UNL A   1      42.278  27.210  34.563  1.00  0.00    -0.011 A 
ATOM     18  C   UNL A   1      42.066  25.977  35.198  1.00  0.00     0.007 A 
ATOM     19  C   UNL A   1      43.311  27.316  33.622  1.00  0.00     0.007 A 
ATOM     20  C   UNL A   1      42.871  24.876  34.904  1.00  0.00     0.000 A 
ATOM     21  C   UNL A   1      44.111  26.210  33.322  1.00  0.00     0.000 A 
ATOM     22  C   UNL A   1      43.893  24.993  33.966  1.00  0.00     0.000 A 
ENDBRANCH  16  17
ENDBRANCH  15  16
ENDBRANCH  12  15
ENDBRANCH  10  11
ENDBRANCH   8  10
ENDBRANCH   5   6
ENDBRANCH   3   5
ENDBRANCH   2   3
ENDBRANCH   1   2
BRANCH   1  23
ATOM     23  C   UNL A   1      34.961  33.542  30.063  1.00  0.00     0.202 C 
BRANCH  23  24
ATOM     24  O   UNL A   1      33.901  34.049  29.257  1.00  0.00    -0.374 OA
BRANCH  24  25
ATOM     25  C   UNL A   1      33.644  33.425  28.000  1.00  0.00     0.202 C 
BRANCH  25  26
ATOM     26  C   UNL A   1      33.473  31.899  27.965  1.00  0.00     0.261 C 
BRANCH  26  27
ATOM     27  O   UNL A   1      34.531  31.209  27.275  1.00  0.00    -0.460 OA
BRANCH  27  28
ATOM     28  C   UNL A   1      34.776  29.956  27.739  1.00  0.00     0.338 C 
ATOM     29  O   UNL A   1      34.049  28.981  27.652  1.00  0.00    -0.246 OA
BRANCH  28  30
ATOM     30  C   UNL A   1      36.158  29.852  28.244  1.00  0.00     0.060 A 
ATOM     31  C   UNL A   1      37.201  30.090  27.339  1.00  0.00     0.016 A 
ATOM     32  C   UNL A   1      36.427  29.416  29.541  1.00  0.00     0.016 A 
ATOM     33  C   UNL A   1      38.521  29.852  27.716  1.00  0.00     0.010 A 
ATOM     34  C   UNL A   1      37.754  29.172  29.915  1.00  0.00     0.010 A 
ATOM     35  C   UNL A   1      38.803  29.355  28.995  1.00  0.00    -0.014 A 
BRANCH  35  36
ATOM     36  C   UNL A   1      40.181  28.909  29.324  1.00  0.00     0.031 A 
ATOM     37  C   UNL A   1      41.062  29.797  30.159  1.00  0.00     0.074 A 
ATOM     38  C   UNL A   1      40.634  27.716  28.902  1.00  0.00     0.049 A 
ATOM     39  N   UNL A   1      42.311  29.633  30.515  1.00  0.00    -0.248 NA
ATOM     40  C   UNL A   1      40.453  31.040  30.657  1.00  0.00     0.031 C 
ATOM     41  C   UNL A   1      39.863  26.748  28.124  1.00  0.00     0.029 A 
ATOM     42  N   UNL A   1      41.861  27.119  29.062  1.00  0.00    -0.354 N 
ATOM     43  C   UNL A   1      42.640  30.755  31.267  1.00  0.00     0.074 A 
ATOM     44  C   UNL A   1      41.471  31.607  31.287  1.00  0.00     0.031 C 
ATOM     45  C   UNL A   1      40.638  25.681  27.864  1.00  0.00     0.029 A 
ATOM     46  C   UNL A   1      41.969  25.910  28.423  1.00  0.00     0.049 A 
ATOM     47  H   UNL A   1      42.591  27.520  29.586  1.00  0.00     0.167 HD
ATOM     48  C   UNL A   1      43.809  31.041  31.888  1.00  0.00     0.037 A 
ATOM     49  C   UNL A   1      43.032  25.093  28.281  1.00  0.00     0.037 A 
ATOM     50  C   UNL A   1      44.969  30.186  31.866  1.00  0.00     0.049 A 
ATOM     51  C   UNL A   1      44.344  25.471  28.918  1.00  0.00     0.074 A 
ATOM     52  C   UNL A   1      46.193  30.378  32.483  1.00  0.00     0.029 A 
ATOM     53  N   UNL A   1      45.051  28.982  31.182  1.00  0.00    -0.354 N 
ATOM     54  N   UNL A   1      44.641  26.520  29.645  1.00  0.00    -0.248 NA
ATOM     55  C   UNL A   1      45.470  24.547  28.716  1.00  0.00     0.031 C 
ATOM     56  C   UNL A   1      47.036  29.324  32.119  1.00  0.00     0.029 A 
ATOM     57  C   UNL A   1      46.316  28.435  31.337  1.00  0.00     0.049 A 
ATOM     58  H   UNL A   1      44.320  28.575  30.665  1.00  0.00     0.167 HD
ATOM     59  C   UNL A   1      45.971  26.365  30.018  1.00  0.00     0.074 A 
ATOM     60  C   UNL A   1      46.421  25.114  29.444  1.00  0.00     0.031 C 
ATOM     61  C   UNL A   1      46.748  27.182  30.771  1.00  0.00     0.037 A 
BRANCH  48  62
ATOM     62  C   UNL A   1      43.907  32.348  32.622  1.00  0.00     0.064 A 
ATOM     63  C   UNL A   1      43.494  32.484  33.956  1.00  0.00     0.173 A 
ATOM     64  C   UNL A   1      44.462  33.475  31.992  1.00  0.00     0.173 A 
ATOM     65  F   UNL A   1      42.947  31.444  34.603  1.00  0.00    -0.203 F 
ATOM     66  C   UNL A   1      43.604  33.703  34.621  1.00  0.00     0.198 A 
ATOM     67  C   UNL A   1      44.603  34.682  32.671  1.00  0.00     0.198 A 
ATOM     68  F   UNL A   1      44.879  33.401  30.719  1.00  0.00    -0.203 F 
ATOM     69  F   UNL A   1      43.156  33.822  35.878  1.00  0.00    -0.200 F 
ATOM     70  C   UNL A   1      44.167  34.798  33.981  1.00  0.00     0.200 A 
ATOM     71  F   UNL A   1      45.161  35.733  32.056  1.00  0.00    -0.200 F 
ATOM     72  F   UNL A   1      44.281  35.967  34.626  1.00  0.00    -0.200 F 
ENDBRANCH  48  62
BRANCH  49  73
ATOM     73  C   UNL A   1      42.905  23.839  27.490  1.00  0.00     0.064 A 
ATOM     74  C   UNL A   1      42.412  22.663  28.071  1.00  0.00     0.173 A 
ATOM     75  C   UNL A   1      43.294  23.787  26.143  1.00  0.00     0.173 A 
ATOM     76  F   UNL A   1      42.049  22.655  29.362  1.00  0.00    -0.203 F 
ATOM     77  C   UNL A   1      42.334  21.477  27.342  1.00  0.00     0.198 A 
ATOM     78  C   UNL A   1      43.185  22.610  25.406  1.00  0.00     0.198 A 
ATOM     79  F   UNL A   1      43.775  24.883  25.539  1.00  0.00    -0.203 F 
ATOM     80  F   UNL A   1      41.910  20.354  27.938  1.00  0.00    -0.200 F 
ATOM     81  C   UNL A   1      42.714  21.453  26.008  1.00  0.00     0.200 A 
ATOM     82  F   UNL A   1      43.541  22.595  24.114  1.00  0.00    -0.200 F 
ATOM     83  F   UNL A   1      42.637  20.314  25.308  1.00  0.00    -0.200 F 
ENDBRANCH  49  73
BRANCH  61  84
ATOM     84  C   UNL A   1      48.151  26.729  31.068  1.00  0.00     0.064 A 
ATOM     85  C   UNL A   1      49.218  26.996  30.199  1.00  0.00     0.173 A 
ATOM     86  C   UNL A   1      48.436  26.055  32.267  1.00  0.00     0.173 A 
ATOM     87  F   UNL A   1      49.001  27.624  29.034  1.00  0.00    -0.203 F 
ATOM     88  C   UNL A   1      50.513  26.580  30.504  1.00  0.00     0.198 A 
ATOM     89  C   UNL A   1      49.737  25.674  32.586  1.00  0.00     0.198 A 
ATOM     90  F   UNL A   1      47.455  25.783  33.140  1.00  0.00    -0.203 F 
ATOM     91  F   UNL A   1      51.508  26.798  29.633  1.00  0.00    -0.200 F 
ATOM     92  C   UNL A   1      50.772  25.928  31.701  1.00  0.00     0.200 A 
ATOM     93  F   UNL A   1      49.987  25.061  33.751  1.00  0.00    -0.200 F 
ATOM     94  F   UNL A   1      52.020  25.539  31.996  1.00  0.00    -0.200 F 
ENDBRANCH  61  84
ENDBRANCH  35  36
ENDBRANCH  28  30
ENDBRANCH  27  28
ENDBRANCH  26  27
ENDBRANCH  25  26
ENDBRANCH  24  25
ENDBRANCH  23  24
ENDBRANCH   1  23
TORSDOF 20
ENDMDL
MODEL 3
REMARK VINA RESULT:     -10.3      8.569     13.601
REMARK SMILES O=C(CNC(=O)OCc1ccccc1)NCC(=O)OCCOCCOC(=O)c1ccc(-c2c3nc(c(-c4c(F)c(F)c(F)c(F)c4F)c4ccc([nH]4)c(-c4c(F)c(F)c(F)c(F)c4F)c4nc(c(-c5c(F)c(F)c(F)c(F)c5F)c5ccc2[nH]5)C=C4)C=C3)cc1
REMARK SMILES IDX 20 1 19 2 17 3 18 4 16 5 15 6 1 7 2 8 3 10 4 11 5 12 6 14
REMARK SMILES IDX 7 15 8 16 9 17 10 18 14 19 11 20 13 21 12 22 21 23 22 24
REMARK SMILES IDX 23 25 24 26 25 27 26 28 27 29 28 30 29 31 90 32 30 33 89 34
REMARK SMILES IDX 31 35 32 36 33 37 83 38 34 39 88 40 82 41 84 42 35 43 87 44
REMARK SMILES IDX 81 45 80 46 36 48 68 49 48 50 67 51 49 52 52 53 66 54 85 55
REMARK SMILES IDX 50 56 51 57 65 59 86 60 53 61 37 62 38 63 46 64 39 65 40 66
REMARK SMILES IDX 44 67 47 68 41 69 42 70 45 71 43 72 69 73 70 74 78 75 71 76
REMARK SMILES IDX 72 77 76 78 79 79 73 80 74 81 77 82 75 83 54 84 55 85 63 86
REMARK SMILES IDX 56 87 57 88 61 89 64 90 58 91 59 92 62 93 60 94
REMARK H PARENT 15 9 4 13 84 47 52 58
REMARK Flexibility Score: inf
ROOT
ATOM      1  C   UNL A   1      35.125  34.397  31.853  1.00  0.00     0.261 C 
ENDROOT
BRANCH   1   2
ATOM      2  O   UNL A   1      35.326  33.212  32.639  1.00  0.00    -0.462 OA
BRANCH   2   3
ATOM      3  C   UNL A   1      36.454  32.507  32.343  1.00  0.00     0.325 C 
ATOM      4  O   UNL A   1      37.131  32.663  31.334  1.00  0.00    -0.250 OA
BRANCH   3   5
ATOM      5  C   UNL A   1      36.891  31.571  33.470  1.00  0.00     0.238 C 
BRANCH   5   6
ATOM      6  N   UNL A   1      38.294  31.213  33.602  1.00  0.00    -0.344 N 
ATOM      7  O   UNL A   1      38.151  30.485  35.766  1.00  0.00    -0.273 OA
ATOM      8  C   UNL A   1      38.787  30.578  34.721  1.00  0.00     0.240 C 
ATOM      9  H   UNL A   1      38.913  31.430  32.868  1.00  0.00     0.164 HD
BRANCH   8  10
ATOM     10  C   UNL A   1      40.240  30.103  34.586  1.00  0.00     0.219 C 
BRANCH  10  11
ATOM     11  N   UNL A   1      40.594  29.309  35.755  1.00  0.00    -0.312 N 
ATOM     12  C   UNL A   1      41.397  28.216  35.812  1.00  0.00     0.407 C 
ATOM     13  H   UNL A   1      40.203  29.602  36.611  1.00  0.00     0.167 HD
ATOM     14  O   UNL A   1      41.501  27.579  36.853  1.00  0.00    -0.225 OA
BRANCH  12  15
ATOM     15  O   UNL A   1      42.000  27.922  34.638  1.00  0.00    -0.445 OA
BRANCH  15  16
ATOM     16  C   UNL A   1      43.432  27.828  34.697  1.00  0.00     0.270 C 
BRANCH  16  17
ATOM     17  C   UNL A   1      43.899  26.409  34.487  1.00  0.00    -0.011 A 
ATOM     18  C   UNL A   1      43.973  25.870  33.194  1.00  0.00     0.007 A 
ATOM     19  C   UNL A   1      44.234  25.595  35.578  1.00  0.00     0.007 A 
ATOM     20  C   UNL A   1      44.369  24.547  32.995  1.00  0.00     0.000 A 
ATOM     21  C   UNL A   1      44.639  24.273  35.376  1.00  0.00     0.000 A 
ATOM     22  C   UNL A   1      44.702  23.749  34.086  1.00  0.00     0.000 A 
ENDBRANCH  16  17
ENDBRANCH  15  16
ENDBRANCH  12  15
ENDBRANCH  10  11
ENDBRANCH   8  10
ENDBRANCH   5   6
ENDBRANCH   3   5
ENDBRANCH   2   3
ENDBRANCH   1   2
BRANCH   1  23
ATOM     23  C   UNL A   1      33.649  34.598  31.498  1.00  0.00     0.202 C 
BRANCH  23  24
ATOM     24  O   UNL A   1      33.284  34.523  30.123  1.00  0.00    -0.374 OA
BRANCH  24  25
ATOM     25  C   UNL A   1      34.310  34.311  29.157  1.00  0.00     0.202 C 
BRANCH  25  26
ATOM     26  C   UNL A   1      34.285  33.011  28.338  1.00  0.00     0.261 C 
BRANCH  26  27
ATOM     27  O   UNL A   1      34.621  31.836  29.098  1.00  0.00    -0.460 OA
BRANCH  27  28
ATOM     28  C   UNL A   1      34.728  30.704  28.356  1.00  0.00     0.338 C 
ATOM     29  O   UNL A   1      33.926  30.272  27.545  1.00  0.00    -0.246 OA
BRANCH  28  30
ATOM     30  C   UNL A   1      36.063  30.099  28.525  1.00  0.00     0.060 A 
ATOM     31  C   UNL A   1      36.392  29.592  29.790  1.00  0.00     0.016 A 
ATOM     32  C   UNL A   1      37.013  30.135  27.505  1.00  0.00     0.016 A 
ATOM     33  C   UNL A   1      37.688  29.155  30.052  1.00  0.00     0.010 A 
ATOM     34  C   UNL A   1      38.317  29.702  27.773  1.00  0.00     0.010 A 
ATOM     35  C   UNL A   1      38.670  29.243  29.056  1.00  0.00    -0.014 A 
BRANCH  35  36
ATOM     36  C   UNL A   1      40.090  28.973  29.396  1.00  0.00     0.031 A 
ATOM     37  C   UNL A   1      40.740  27.715  28.891  1.00  0.00     0.074 A 
ATOM     38  C   UNL A   1      40.798  29.850  30.128  1.00  0.00     0.049 A 
ATOM     39  N   UNL A   1      41.945  27.253  29.115  1.00  0.00    -0.248 NA
ATOM     40  C   UNL A   1      39.920  26.859  28.019  1.00  0.00     0.031 C 
ATOM     41  C   UNL A   1      40.293  31.123  30.638  1.00  0.00     0.029 A 
ATOM     42  N   UNL A   1      42.094  29.796  30.577  1.00  0.00    -0.354 N 
ATOM     43  C   UNL A   1      42.023  26.050  28.422  1.00  0.00     0.074 A 
ATOM     44  C   UNL A   1      40.735  25.837  27.799  1.00  0.00     0.031 C 
ATOM     45  C   UNL A   1      41.266  31.727  31.342  1.00  0.00     0.029 A 
ATOM     46  C   UNL A   1      42.446  30.865  31.364  1.00  0.00     0.049 A 
ATOM     47  H   UNL A   1      42.712  29.063  30.357  1.00  0.00     0.167 HD
ATOM     48  C   UNL A   1      43.077  25.207  28.311  1.00  0.00     0.037 A 
ATOM     49  C   UNL A   1      43.583  31.106  32.046  1.00  0.00     0.037 A 
ATOM     50  C   UNL A   1      44.359  25.427  28.932  1.00  0.00     0.049 A 
ATOM     51  C   UNL A   1      44.715  30.114  31.969  1.00  0.00     0.074 A 
ATOM     52  C   UNL A   1      45.497  24.641  28.862  1.00  0.00     0.029 A 
ATOM     53  N   UNL A   1      44.669  26.507  29.746  1.00  0.00    -0.354 N 
ATOM     54  N   UNL A   1      44.791  28.992  31.295  1.00  0.00    -0.248 NA
ATOM     55  C   UNL A   1      45.924  30.425  32.747  1.00  0.00     0.031 C 
ATOM     56  C   UNL A   1      46.473  25.211  29.685  1.00  0.00     0.029 A 
ATOM     57  C   UNL A   1      45.971  26.391  30.210  1.00  0.00     0.049 A 
ATOM     58  H   UNL A   1      44.056  27.245  29.962  1.00  0.00     0.167 HD
ATOM     59  C   UNL A   1      46.062  28.484  31.536  1.00  0.00     0.074 A 
ATOM     60  C   UNL A   1      46.727  29.426  32.411  1.00  0.00     0.031 C 
ATOM     61  C   UNL A   1      46.628  27.343  31.070  1.00  0.00     0.037 A 
BRANCH  48  62
ATOM     62  C   UNL A   1      42.884  23.949  27.513  1.00  0.00     0.064 A 
ATOM     63  C   UNL A   1      43.234  23.868  26.156  1.00  0.00     0.173 A 
ATOM     64  C   UNL A   1      42.376  22.791  28.127  1.00  0.00     0.173 A 
ATOM     65  F   UNL A   1      43.713  24.947  25.518  1.00  0.00    -0.203 F 
ATOM     66  C   UNL A   1      43.057  22.688  25.438  1.00  0.00     0.198 A 
ATOM     67  C   UNL A   1      42.233  21.604  27.415  1.00  0.00     0.198 A 
ATOM     68  F   UNL A   1      42.031  22.809  29.423  1.00  0.00    -0.203 F 
ATOM     69  F   UNL A   1      43.350  22.650  24.132  1.00  0.00    -0.200 F 
ATOM     70  C   UNL A   1      42.565  21.555  26.069  1.00  0.00     0.200 A 
ATOM     71  F   UNL A   1      41.773  20.507  28.030  1.00  0.00    -0.200 F 
ATOM     72  F   UNL A   1      42.404  20.418  25.380  1.00  0.00    -0.200 F 
ENDBRANCH  48  62
BRANCH  49  73
ATOM     73  C   UNL A   1      43.706  32.334  32.876  1.00  0.00     0.064 A 
ATOM     74  C   UNL A   1      44.065  33.562  32.304  1.00  0.00     0.173 A 
ATOM     75  C   UNL A   1      43.487  32.300  34.261  1.00  0.00     0.173 A 
ATOM     76  F   UNL A   1      44.309  33.642  30.988  1.00  0.00    -0.203 F 
ATOM     77  C   UNL A   1      44.222  34.703  33.088  1.00  0.00     0.198 A 
ATOM     78  C   UNL A   1      43.611  33.449  35.040  1.00  0.00     0.198 A 
ATOM     79  F   UNL A   1      43.143  31.150  34.860  1.00  0.00    -0.203 F 
ATOM     80  F   UNL A   1      44.619  35.852  32.523  1.00  0.00    -0.200 F 
ATOM     81  C   UNL A   1      43.989  34.648  34.455  1.00  0.00     0.200 A 
ATOM     82  F   UNL A   1      43.372  33.393  36.358  1.00  0.00    -0.200 F 
ATOM     83  F   UNL A   1      44.138  35.746  35.207  1.00  0.00    -0.200 F 
ENDBRANCH  49  73
BRANCH  61  84
ATOM     84  C   UNL A   1      48.056  27.070  31.450  1.00  0.00     0.064 A 
ATOM     85  C   UNL A   1      48.393  26.272  32.554  1.00  0.00     0.173 A 
ATOM     86  C   UNL A   1      49.105  27.580  30.668  1.00  0.00     0.173 A 
ATOM     87  F   UNL A   1      47.432  25.770  33.343  1.00  0.00    -0.203 F 
ATOM     88  C   UNL A   1      49.725  26.020  32.876  1.00  0.00     0.198 A 
ATOM     89  C   UNL A   1      50.434  27.296  30.972  1.00  0.00     0.198 A 
ATOM     90  F   UNL A   1      48.840  28.341  29.595  1.00  0.00    -0.203 F 
ATOM     91  F   UNL A   1      50.024  25.300  33.966  1.00  0.00    -0.200 F 
ATOM     92  C   UNL A   1      50.743  26.525  32.080  1.00  0.00     0.200 A 
ATOM     93  F   UNL A   1      51.414  27.769  30.190  1.00  0.00    -0.200 F 
ATOM     94  F   UNL A   1      52.023  26.271  32.386  1.00  0.00    -0.200 F 
ENDBRANCH  61  84
ENDBRANCH  35  36
ENDBRANCH  28  30
ENDBRANCH  27  28
ENDBRANCH  26  27
ENDBRANCH  25  26
ENDBRANCH  24  25
ENDBRANCH  23  24
ENDBRANCH   1  23
TORSDOF 20
ENDMDL
