MODEL 1
REMARK VINA RESULT:     -11.0      0.000      0.000
REMARK SMILES Cc1nn(-c2cccc(C(=O)OCCOCCOC(=O)c3ccc(-c4c5nc(c(-c6c(F)c(F)c(F)c(F)c6F)c6ccc([nH]6)c(-c6c(F)c(F)c(F)c(F)c6F)c6nc(c(-c7c(F)c(F)c(F)c(F)c7F)c7ccc4[nH]7)C=C6)C=C5)cc3)c2)c(C)c1Cl
REMARK SMILES IDX 16 1 15 2 14 3 13 4 12 5 10 6 11 7 9 8 5 9 6 10 84 11 7 12
REMARK SMILES IDX 8 13 4 14 1 15 2 16 3 17 87 18 85 19 88 20 86 21 17 22 18 23
REMARK SMILES IDX 19 24 20 25 21 26 22 27 83 28 23 29 82 30 24 31 25 32 26 33
REMARK SMILES IDX 76 34 27 35 81 36 75 37 77 38 28 39 80 40 74 41 73 42 29 44
REMARK SMILES IDX 61 45 41 46 60 47 42 48 45 49 59 50 78 51 43 52 44 53 58 55
REMARK SMILES IDX 79 56 46 57 30 58 31 59 39 60 32 61 33 62 37 63 40 64 34 65
REMARK SMILES IDX 35 66 38 67 36 68 62 69 63 70 71 71 64 72 65 73 69 74 72 75
REMARK SMILES IDX 66 76 67 77 70 78 68 79 47 80 48 81 56 82 49 83 50 84 54 85
REMARK SMILES IDX 57 86 51 87 52 88 55 89 53 90
REMARK H PARENT 77 43 45 54
REMARK Flexibility Score: inf
ROOT
ATOM      1  C   UNL A   1      42.001  19.563  26.964  1.00  0.00     0.202 C 
ENDROOT
BRANCH   1   2
ATOM      2  O   UNL A   1      42.411  18.879  25.787  1.00  0.00    -0.374 OA
BRANCH   2   3
ATOM      3  C   UNL A   1      43.783  18.535  25.589  1.00  0.00     0.202 C 
BRANCH   3   4
ATOM      4  C   UNL A   1      44.519  19.100  24.373  1.00  0.00     0.261 C 
BRANCH   4   5
ATOM      5  O   UNL A   1      44.428  20.531  24.281  1.00  0.00    -0.460 OA
BRANCH   5   6
ATOM      6  C   UNL A   1      45.421  21.204  24.913  1.00  0.00     0.338 C 
ATOM      7  O   UNL A   1      46.539  20.794  25.181  1.00  0.00    -0.246 OA
BRANCH   6   8
ATOM      8  C   UNL A   1      45.027  22.613  25.107  1.00  0.00     0.062 A 
ATOM      9  C   UNL A   1      45.529  24.860  25.814  1.00  0.00     0.066 A 
ATOM     10  C   UNL A   1      44.290  25.300  25.329  1.00  0.00     0.028 A 
ATOM     11  C   UNL A   1      45.868  23.503  25.769  1.00  0.00     0.044 A 
ATOM     12  C   UNL A   1      43.444  24.395  24.683  1.00  0.00     0.003 A 
ATOM     13  C   UNL A   1      43.826  23.060  24.544  1.00  0.00     0.016 A 
BRANCH   9  14
ATOM     14  N   UNL A   1      46.487  25.812  26.242  1.00  0.00    -0.236 N 
ATOM     15  C   UNL A   1      49.245  27.927  25.498  1.00  0.00     0.070 C 
ATOM     16  C   UNL A   1      48.128  27.164  26.108  1.00  0.00     0.079 A 
ATOM     17  N   UNL A   1      47.480  26.221  25.413  1.00  0.00    -0.171 NA
ATOM     18  C   UNL A   1      47.637  27.267  27.426  1.00  0.00     0.085 A 
ATOM     19  C   UNL A   1      46.609  26.357  27.512  1.00  0.00     0.060 A 
ATOM     20  Cl  UNL A   1      48.255  28.260  28.655  1.00  0.00    -0.080 Cl
ATOM     21  C   UNL A   1      45.837  25.898  28.698  1.00  0.00     0.068 C 
ENDBRANCH   9  14
ENDBRANCH   6   8
ENDBRANCH   5   6
ENDBRANCH   4   5
ENDBRANCH   3   4
ENDBRANCH   2   3
ENDBRANCH   1   2
BRANCH   1  22
ATOM     22  C   UNL A   1      40.781  20.471  26.895  1.00  0.00     0.261 C 
BRANCH  22  23
ATOM     23  O   UNL A   1      41.028  21.743  27.467  1.00  0.00    -0.460 OA
BRANCH  23  24
ATOM     24  C   UNL A   1      40.168  22.700  27.060  1.00  0.00     0.338 C 
ATOM     25  O   UNL A   1      39.018  22.547  26.656  1.00  0.00    -0.246 OA
BRANCH  24  26
ATOM     26  C   UNL A   1      40.880  23.977  27.007  1.00  0.00     0.060 A 
ATOM     27  C   UNL A   1      41.870  24.156  27.975  1.00  0.00     0.016 A 
ATOM     28  C   UNL A   1      40.280  25.051  26.335  1.00  0.00     0.016 A 
ATOM     29  C   UNL A   1      42.032  25.417  28.494  1.00  0.00     0.010 A 
ATOM     30  C   UNL A   1      40.418  26.300  26.875  1.00  0.00     0.010 A 
ATOM     31  C   UNL A   1      41.209  26.438  28.013  1.00  0.00    -0.014 A 
BRANCH  31  32
ATOM     32  C   UNL A   1      41.256  27.722  28.666  1.00  0.00     0.031 A 
ATOM     33  C   UNL A   1      42.463  28.472  28.277  1.00  0.00     0.074 A 
ATOM     34  C   UNL A   1      40.247  28.171  29.433  1.00  0.00     0.049 A 
ATOM     35  N   UNL A   1      43.528  28.656  28.985  1.00  0.00    -0.248 NA
ATOM     36  C   UNL A   1      42.613  28.830  26.858  1.00  0.00     0.031 C 
ATOM     37  C   UNL A   1      38.923  27.574  29.637  1.00  0.00     0.029 A 
ATOM     38  N   UNL A   1      40.170  29.331  30.139  1.00  0.00    -0.354 N 
ATOM     39  C   UNL A   1      44.392  29.362  28.156  1.00  0.00     0.074 A 
ATOM     40  C   UNL A   1      43.898  29.186  26.821  1.00  0.00     0.031 C 
ATOM     41  C   UNL A   1      38.109  28.479  30.229  1.00  0.00     0.029 A 
ATOM     42  C   UNL A   1      38.887  29.659  30.563  1.00  0.00     0.049 A 
ATOM     43  H   UNL A   1      40.956  29.892  30.333  1.00  0.00     0.167 HD
ATOM     44  C   UNL A   1      45.208  30.315  28.679  1.00  0.00     0.037 A 
ATOM     45  C   UNL A   1      38.511  30.853  31.086  1.00  0.00     0.037 A 
ATOM     46  C   UNL A   1      45.304  30.153  30.113  1.00  0.00     0.049 A 
ATOM     47  C   UNL A   1      39.747  31.530  31.553  1.00  0.00     0.074 A 
ATOM     48  C   UNL A   1      45.832  29.214  30.972  1.00  0.00     0.029 A 
ATOM     49  N   UNL A   1      44.420  30.907  30.843  1.00  0.00    -0.354 N 
ATOM     50  N   UNL A   1      40.460  31.108  32.561  1.00  0.00    -0.248 NA
ATOM     51  C   UNL A   1      40.439  32.418  30.631  1.00  0.00     0.031 C 
ATOM     52  C   UNL A   1      44.993  29.236  32.127  1.00  0.00     0.029 A 
ATOM     53  C   UNL A   1      44.018  30.220  31.953  1.00  0.00     0.049 A 
ATOM     54  H   UNL A   1      44.120  31.812  30.602  1.00  0.00     0.167 HD
ATOM     55  C   UNL A   1      41.775  31.313  32.174  1.00  0.00     0.074 A 
ATOM     56  C   UNL A   1      41.697  32.241  31.049  1.00  0.00     0.031 C 
ATOM     57  C   UNL A   1      42.756  30.471  32.614  1.00  0.00     0.037 A 
BRANCH  44  58
ATOM     58  C   UNL A   1      45.473  31.661  28.021  1.00  0.00     0.064 A 
ATOM     59  C   UNL A   1      44.358  32.436  27.639  1.00  0.00     0.173 A 
ATOM     60  C   UNL A   1      46.704  32.072  27.460  1.00  0.00     0.173 A 
ATOM     61  F   UNL A   1      43.136  32.158  28.119  1.00  0.00    -0.203 F 
ATOM     62  C   UNL A   1      44.449  33.444  26.676  1.00  0.00     0.198 A 
ATOM     63  C   UNL A   1      46.797  33.108  26.532  1.00  0.00     0.198 A 
ATOM     64  F   UNL A   1      47.861  31.448  27.692  1.00  0.00    -0.203 F 
ATOM     65  F   UNL A   1      43.336  34.050  26.243  1.00  0.00    -0.200 F 
ATOM     66  C   UNL A   1      45.666  33.767  26.109  1.00  0.00     0.200 A 
ATOM     67  F   UNL A   1      47.990  33.398  25.992  1.00  0.00    -0.200 F 
ATOM     68  F   UNL A   1      45.747  34.678  25.131  1.00  0.00    -0.200 F 
ENDBRANCH  44  58
BRANCH  45  69
ATOM     69  C   UNL A   1      37.225  31.570  30.928  1.00  0.00     0.064 A 
ATOM     70  C   UNL A   1      36.336  31.734  32.004  1.00  0.00     0.173 A 
ATOM     71  C   UNL A   1      36.974  32.352  29.784  1.00  0.00     0.173 A 
ATOM     72  F   UNL A   1      36.537  31.069  33.151  1.00  0.00    -0.203 F 
ATOM     73  C   UNL A   1      35.267  32.636  31.941  1.00  0.00     0.198 A 
ATOM     74  C   UNL A   1      35.908  33.250  29.722  1.00  0.00     0.198 A 
ATOM     75  F   UNL A   1      37.820  32.331  28.743  1.00  0.00    -0.203 F 
ATOM     76  F   UNL A   1      34.472  32.806  33.006  1.00  0.00    -0.200 F 
ATOM     77  C   UNL A   1      35.059  33.399  30.803  1.00  0.00     0.200 A 
ATOM     78  F   UNL A   1      35.745  34.015  28.633  1.00  0.00    -0.200 F 
ATOM     79  F   UNL A   1      34.073  34.306  30.765  1.00  0.00    -0.200 F 
ENDBRANCH  45  69
BRANCH  57  80
ATOM     80  C   UNL A   1      42.419  29.593  33.785  1.00  0.00     0.064 A 
ATOM     81  C   UNL A   1      41.889  28.297  33.676  1.00  0.00     0.173 A 
ATOM     82  C   UNL A   1      42.758  30.048  35.065  1.00  0.00     0.173 A 
ATOM     83  F   UNL A   1      41.622  27.760  32.478  1.00  0.00    -0.203 F 
ATOM     84  C   UNL A   1      41.671  27.509  34.806  1.00  0.00     0.198 A 
ATOM     85  C   UNL A   1      42.575  29.248  36.187  1.00  0.00     0.198 A 
ATOM     86  F   UNL A   1      43.314  31.260  35.219  1.00  0.00    -0.203 F 
ATOM     87  F   UNL A   1      41.151  26.279  34.681  1.00  0.00    -0.200 F 
ATOM     88  C   UNL A   1      42.023  27.983  36.060  1.00  0.00     0.200 A 
ATOM     89  F   UNL A   1      42.961  29.693  37.391  1.00  0.00    -0.200 F 
ATOM     90  F   UNL A   1      41.853  27.214  37.143  1.00  0.00    -0.200 F 
ENDBRANCH  57  80
ENDBRANCH  31  32
ENDBRANCH  24  26
ENDBRANCH  23  24
ENDBRANCH  22  23
ENDBRANCH   1  22
TORSDOF 15
ENDMDL
MODEL 2
REMARK VINA RESULT:     -10.8      4.397     11.289
REMARK SMILES Cc1nn(-c2cccc(C(=O)OCCOCCOC(=O)c3ccc(-c4c5nc(c(-c6c(F)c(F)c(F)c(F)c6F)c6ccc([nH]6)c(-c6c(F)c(F)c(F)c(F)c6F)c6nc(c(-c7c(F)c(F)c(F)c(F)c7F)c7ccc4[nH]7)C=C6)C=C5)cc3)c2)c(C)c1Cl
REMARK SMILES IDX 16 1 15 2 14 3 13 4 12 5 10 6 11 7 9 8 5 9 6 10 84 11 7 12
REMARK SMILES IDX 8 13 4 14 1 15 2 16 3 17 87 18 85 19 88 20 86 21 17 22 18 23
REMARK SMILES IDX 19 24 20 25 21 26 22 27 83 28 23 29 82 30 24 31 25 32 26 33
REMARK SMILES IDX 76 34 27 35 81 36 75 37 77 38 28 39 80 40 74 41 73 42 29 44
REMARK SMILES IDX 61 45 41 46 60 47 42 48 45 49 59 50 78 51 43 52 44 53 58 55
REMARK SMILES IDX 79 56 46 57 30 58 31 59 39 60 32 61 33 62 37 63 40 64 34 65
REMARK SMILES IDX 35 66 38 67 36 68 62 69 63 70 71 71 64 72 65 73 69 74 72 75
REMARK SMILES IDX 66 76 67 77 70 78 68 79 47 80 48 81 56 82 49 83 50 84 54 85
REMARK SMILES IDX 57 86 51 87 52 88 55 89 53 90
REMARK H PARENT 77 43 45 54
REMARK Flexibility Score: inf
ROOT
ATOM      1  C   UNL A   1      33.943  34.211  29.211  1.00  0.00     0.202 C 
ENDROOT
BRANCH   1   2
ATOM      2  O   UNL A   1      32.802  35.017  29.472  1.00  0.00    -0.374 OA
BRANCH   2   3
ATOM      3  C   UNL A   1      32.871  36.089  30.413  1.00  0.00     0.202 C 
BRANCH   3   4
ATOM      4  C   UNL A   1      32.442  35.833  31.858  1.00  0.00     0.261 C 
BRANCH   4   5
ATOM      5  O   UNL A   1      33.236  34.824  32.505  1.00  0.00    -0.460 OA
BRANCH   5   6
ATOM      6  C   UNL A   1      34.465  35.238  32.903  1.00  0.00     0.338 C 
ATOM      7  O   UNL A   1      34.778  36.348  33.301  1.00  0.00    -0.246 OA
BRANCH   6   8
ATOM      8  C   UNL A   1      35.389  34.089  32.950  1.00  0.00     0.062 A 
ATOM      9  C   UNL A   1      37.430  33.060  33.709  1.00  0.00     0.066 A 
ATOM     10  C   UNL A   1      37.046  31.845  33.127  1.00  0.00     0.028 A 
ATOM     11  C   UNL A   1      36.636  34.203  33.558  1.00  0.00     0.044 A 
ATOM     12  C   UNL A   1      35.800  31.745  32.503  1.00  0.00     0.003 A 
ATOM     13  C   UNL A   1      34.960  32.858  32.441  1.00  0.00     0.016 A 
BRANCH   9  14
ATOM     14  N   UNL A   1      38.568  33.100  34.552  1.00  0.00    -0.236 N 
ATOM     15  C   UNL A   1      39.964  32.987  37.819  1.00  0.00     0.070 C 
ATOM     16  C   UNL A   1      39.690  33.071  36.364  1.00  0.00     0.079 A 
ATOM     17  N   UNL A   1      38.434  33.121  35.902  1.00  0.00    -0.171 NA
ATOM     18  C   UNL A   1      40.631  33.152  35.317  1.00  0.00     0.085 A 
ATOM     19  C   UNL A   1      39.893  33.217  34.158  1.00  0.00     0.060 A 
ATOM     20  Cl  UNL A   1      42.317  33.232  35.484  1.00  0.00    -0.080 Cl
ATOM     21  C   UNL A   1      40.330  33.487  32.761  1.00  0.00     0.068 C 
ENDBRANCH   9  14
ENDBRANCH   6   8
ENDBRANCH   5   6
ENDBRANCH   4   5
ENDBRANCH   3   4
ENDBRANCH   2   3
ENDBRANCH   1   2
BRANCH   1  22
ATOM     22  C   UNL A   1      34.531  34.206  27.806  1.00  0.00     0.261 C 
BRANCH  22  23
ATOM     23  O   UNL A   1      35.669  33.368  27.706  1.00  0.00    -0.460 OA
BRANCH  23  24
ATOM     24  C   UNL A   1      35.396  32.057  27.873  1.00  0.00     0.338 C 
ATOM     25  O   UNL A   1      34.484  31.413  27.363  1.00  0.00    -0.246 OA
BRANCH  24  26
ATOM     26  C   UNL A   1      36.272  31.528  28.919  1.00  0.00     0.060 A 
ATOM     27  C   UNL A   1      37.419  32.278  29.183  1.00  0.00     0.016 A 
ATOM     28  C   UNL A   1      36.164  30.172  29.260  1.00  0.00     0.016 A 
ATOM     29  C   UNL A   1      38.568  31.596  29.500  1.00  0.00     0.010 A 
ATOM     30  C   UNL A   1      37.316  29.491  29.542  1.00  0.00     0.010 A 
ATOM     31  C   UNL A   1      38.513  30.202  29.550  1.00  0.00    -0.014 A 
BRANCH  31  32
ATOM     32  C   UNL A   1      39.745  29.472  29.715  1.00  0.00     0.031 A 
ATOM     33  C   UNL A   1      40.160  29.444  31.129  1.00  0.00     0.074 A 
ATOM     34  C   UNL A   1      40.337  28.827  28.694  1.00  0.00     0.049 A 
ATOM     35  N   UNL A   1      41.103  30.135  31.677  1.00  0.00    -0.248 NA
ATOM     36  C   UNL A   1      39.263  28.778  32.087  1.00  0.00     0.031 C 
ATOM     37  C   UNL A   1      39.826  28.612  27.336  1.00  0.00     0.029 A 
ATOM     38  N   UNL A   1      41.511  28.140  28.692  1.00  0.00    -0.354 N 
ATOM     39  C   UNL A   1      41.053  29.801  33.026  1.00  0.00     0.074 A 
ATOM     40  C   UNL A   1      39.764  29.211  33.244  1.00  0.00     0.031 C 
ATOM     41  C   UNL A   1      40.578  27.670  26.719  1.00  0.00     0.029 A 
ATOM     42  C   UNL A   1      41.691  27.320  27.584  1.00  0.00     0.049 A 
ATOM     43  H   UNL A   1      42.176  28.217  29.413  1.00  0.00     0.167 HD
ATOM     44  C   UNL A   1      42.203  29.708  33.746  1.00  0.00     0.037 A 
ATOM     45  C   UNL A   1      42.659  26.379  27.449  1.00  0.00     0.037 A 
ATOM     46  C   UNL A   1      43.282  30.366  33.044  1.00  0.00     0.049 A 
ATOM     47  C   UNL A   1      43.724  26.710  28.430  1.00  0.00     0.074 A 
ATOM     48  C   UNL A   1      43.593  31.662  32.694  1.00  0.00     0.029 A 
ATOM     49  N   UNL A   1      44.043  29.547  32.249  1.00  0.00    -0.354 N 
ATOM     50  N   UNL A   1      44.484  27.766  28.336  1.00  0.00    -0.248 NA
ATOM     51  C   UNL A   1      43.654  26.111  29.755  1.00  0.00     0.031 C 
ATOM     52  C   UNL A   1      44.306  31.566  31.460  1.00  0.00     0.029 A 
ATOM     53  C   UNL A   1      44.448  30.218  31.129  1.00  0.00     0.049 A 
ATOM     54  H   UNL A   1      44.265  28.611  32.455  1.00  0.00     0.167 HD
ATOM     55  C   UNL A   1      44.632  28.212  29.640  1.00  0.00     0.074 A 
ATOM     56  C   UNL A   1      44.220  27.086  30.473  1.00  0.00     0.031 C 
ATOM     57  C   UNL A   1      44.781  29.546  29.893  1.00  0.00     0.037 A 
BRANCH  44  58
ATOM     58  C   UNL A   1      42.481  28.611  34.764  1.00  0.00     0.064 A 
ATOM     59  C   UNL A   1      43.126  28.978  35.964  1.00  0.00     0.173 A 
ATOM     60  C   UNL A   1      42.455  27.223  34.502  1.00  0.00     0.173 A 
ATOM     61  F   UNL A   1      43.200  30.265  36.335  1.00  0.00    -0.203 F 
ATOM     62  C   UNL A   1      43.803  28.048  36.756  1.00  0.00     0.198 A 
ATOM     63  C   UNL A   1      43.094  26.293  35.319  1.00  0.00     0.198 A 
ATOM     64  F   UNL A   1      41.906  26.692  33.406  1.00  0.00    -0.203 F 
ATOM     65  F   UNL A   1      44.521  28.469  37.806  1.00  0.00    -0.200 F 
ATOM     66  C   UNL A   1      43.802  26.708  36.424  1.00  0.00     0.200 A 
ATOM     67  F   UNL A   1      43.085  24.998  34.970  1.00  0.00    -0.200 F 
ATOM     68  F   UNL A   1      44.512  25.824  37.136  1.00  0.00    -0.200 F 
ENDBRANCH  44  58
BRANCH  45  69
ATOM     69  C   UNL A   1      42.587  25.065  26.771  1.00  0.00     0.064 A 
ATOM     70  C   UNL A   1      43.350  24.785  25.624  1.00  0.00     0.173 A 
ATOM     71  C   UNL A   1      41.977  23.964  27.400  1.00  0.00     0.173 A 
ATOM     72  F   UNL A   1      44.011  25.770  24.998  1.00  0.00    -0.203 F 
ATOM     73  C   UNL A   1      43.502  23.478  25.145  1.00  0.00     0.198 A 
ATOM     74  C   UNL A   1      42.128  22.661  26.921  1.00  0.00     0.198 A 
ATOM     75  F   UNL A   1      41.304  24.119  28.550  1.00  0.00    -0.203 F 
ATOM     76  F   UNL A   1      44.283  23.242  24.081  1.00  0.00    -0.200 F 
ATOM     77  C   UNL A   1      42.898  22.417  25.799  1.00  0.00     0.200 A 
ATOM     78  F   UNL A   1      41.575  21.638  27.589  1.00  0.00    -0.200 F 
ATOM     79  F   UNL A   1      43.092  21.159  25.376  1.00  0.00    -0.200 F 
ENDBRANCH  45  69
BRANCH  57  80
ATOM     80  C   UNL A   1      45.147  30.419  28.727  1.00  0.00     0.064 A 
ATOM     81  C   UNL A   1      44.215  31.024  27.867  1.00  0.00     0.173 A 
ATOM     82  C   UNL A   1      46.497  30.744  28.549  1.00  0.00     0.173 A 
ATOM     83  F   UNL A   1      42.900  30.831  28.030  1.00  0.00    -0.203 F 
ATOM     84  C   UNL A   1      44.626  31.885  26.849  1.00  0.00     0.198 A 
ATOM     85  C   UNL A   1      46.902  31.631  27.558  1.00  0.00     0.198 A 
ATOM     86  F   UNL A   1      47.423  30.232  29.375  1.00  0.00    -0.203 F 
ATOM     87  F   UNL A   1      43.721  32.441  26.030  1.00  0.00    -0.200 F 
ATOM     88  C   UNL A   1      45.969  32.193  26.702  1.00  0.00     0.200 A 
ATOM     89  F   UNL A   1      48.196  31.962  27.451  1.00  0.00    -0.200 F 
ATOM     90  F   UNL A   1      46.363  33.051  25.751  1.00  0.00    -0.200 F 
ENDBRANCH  57  80
ENDBRANCH  31  32
ENDBRANCH  24  26
ENDBRANCH  23  24
ENDBRANCH  22  23
ENDBRANCH   1  22
TORSDOF 15
ENDMDL
MODEL 3
REMARK VINA RESULT:     -10.7      4.065      6.773
REMARK SMILES Cc1nn(-c2cccc(C(=O)OCCOCCOC(=O)c3ccc(-c4c5nc(c(-c6c(F)c(F)c(F)c(F)c6F)c6ccc([nH]6)c(-c6c(F)c(F)c(F)c(F)c6F)c6nc(c(-c7c(F)c(F)c(F)c(F)c7F)c7ccc4[nH]7)C=C6)C=C5)cc3)c2)c(C)c1Cl
REMARK SMILES IDX 16 1 15 2 14 3 13 4 12 5 10 6 11 7 9 8 5 9 6 10 84 11 7 12
REMARK SMILES IDX 8 13 4 14 1 15 2 16 3 17 87 18 85 19 88 20 86 21 17 22 18 23
REMARK SMILES IDX 19 24 20 25 21 26 22 27 83 28 23 29 82 30 24 31 25 32 26 33
REMARK SMILES IDX 76 34 27 35 81 36 75 37 77 38 28 39 80 40 74 41 73 42 29 44
REMARK SMILES IDX 61 45 41 46 60 47 42 48 45 49 59 50 78 51 43 52 44 53 58 55
REMARK SMILES IDX 79 56 46 57 30 58 31 59 39 60 32 61 33 62 37 63 40 64 34 65
REMARK SMILES IDX 35 66 38 67 36 68 62 69 63 70 71 71 64 72 65 73 69 74 72 75
REMARK SMILES IDX 66 76 67 77 70 78 68 79 47 80 48 81 56 82 49 83 50 84 54 85
REMARK SMILES IDX 57 86 51 87 52 88 55 89 53 90
REMARK H PARENT 77 43 45 54
REMARK Flexibility Score: inf
ROOT
ATOM      1  C   UNL A   1      42.278  19.414  27.226  1.00  0.00     0.202 C 
ENDROOT
BRANCH   1   2
ATOM      2  O   UNL A   1      41.979  20.786  27.452  1.00  0.00    -0.374 OA
BRANCH   2   3
ATOM      3  C   UNL A   1      40.628  21.246  27.430  1.00  0.00     0.202 C 
BRANCH   3   4
ATOM      4  C   UNL A   1      40.075  21.856  26.141  1.00  0.00     0.261 C 
BRANCH   4   5
ATOM      5  O   UNL A   1      38.638  21.869  26.102  1.00  0.00    -0.460 OA
BRANCH   5   6
ATOM      6  C   UNL A   1      38.083  23.105  26.049  1.00  0.00     0.338 C 
ATOM      7  O   UNL A   1      38.540  24.141  26.502  1.00  0.00    -0.246 OA
BRANCH   6   8
ATOM      8  C   UNL A   1      36.877  23.076  25.199  1.00  0.00     0.062 A 
ATOM      9  C   UNL A   1      34.514  23.424  24.885  1.00  0.00     0.066 A 
ATOM     10  C   UNL A   1      34.644  23.140  23.518  1.00  0.00     0.028 A 
ATOM     11  C   UNL A   1      35.618  23.321  25.739  1.00  0.00     0.044 A 
ATOM     12  C   UNL A   1      35.909  22.877  22.988  1.00  0.00     0.003 A 
ATOM     13  C   UNL A   1      37.029  22.875  23.821  1.00  0.00     0.016 A 
BRANCH   9  14
ATOM     14  N   UNL A   1      33.287  23.932  25.377  1.00  0.00    -0.236 N 
ATOM     15  C   UNL A   1      30.105  23.356  26.852  1.00  0.00     0.070 C 
ATOM     16  C   UNL A   1      31.340  23.907  26.243  1.00  0.00     0.079 A 
ATOM     17  N   UNL A   1      32.293  23.096  25.764  1.00  0.00    -0.171 NA
ATOM     18  C   UNL A   1      31.667  25.264  26.043  1.00  0.00     0.085 A 
ATOM     19  C   UNL A   1      32.904  25.264  25.443  1.00  0.00     0.060 A 
ATOM     20  Cl  UNL A   1      30.685  26.599  26.405  1.00  0.00    -0.080 Cl
ATOM     21  C   UNL A   1      33.675  26.387  24.841  1.00  0.00     0.068 C 
ENDBRANCH   9  14
ENDBRANCH   6   8
ENDBRANCH   5   6
ENDBRANCH   4   5
ENDBRANCH   3   4
ENDBRANCH   2   3
ENDBRANCH   1   2
BRANCH   1  22
ATOM     22  C   UNL A   1      42.674  18.973  25.823  1.00  0.00     0.261 C 
BRANCH  22  23
ATOM     23  O   UNL A   1      43.072  20.064  25.012  1.00  0.00    -0.460 OA
BRANCH  23  24
ATOM     24  C   UNL A   1      44.410  20.217  24.923  1.00  0.00     0.338 C 
ATOM     25  O   UNL A   1      45.266  19.338  24.973  1.00  0.00    -0.246 OA
BRANCH  24  26
ATOM     26  C   UNL A   1      44.718  21.647  24.929  1.00  0.00     0.060 A 
ATOM     27  C   UNL A   1      45.762  22.037  25.769  1.00  0.00     0.016 A 
ATOM     28  C   UNL A   1      43.741  22.544  24.475  1.00  0.00     0.016 A 
ATOM     29  C   UNL A   1      45.648  23.246  26.408  1.00  0.00     0.010 A 
ATOM     30  C   UNL A   1      43.610  23.734  25.137  1.00  0.00     0.010 A 
ATOM     31  C   UNL A   1      44.505  24.013  26.167  1.00  0.00    -0.014 A 
BRANCH  31  32
ATOM     32  C   UNL A   1      44.297  25.201  26.957  1.00  0.00     0.031 A 
ATOM     33  C   UNL A   1      45.368  26.186  26.726  1.00  0.00     0.074 A 
ATOM     34  C   UNL A   1      43.193  25.378  27.705  1.00  0.00     0.049 A 
ATOM     35  N   UNL A   1      46.352  26.466  27.513  1.00  0.00    -0.248 NA
ATOM     36  C   UNL A   1      45.510  26.729  25.365  1.00  0.00     0.031 C 
ATOM     37  C   UNL A   1      41.989  24.543  27.761  1.00  0.00     0.029 A 
ATOM     38  N   UNL A   1      42.883  26.417  28.525  1.00  0.00    -0.354 N 
ATOM     39  C   UNL A   1      47.111  27.402  26.819  1.00  0.00     0.074 A 
ATOM     40  C   UNL A   1      46.712  27.301  25.445  1.00  0.00     0.031 C 
ATOM     41  C   UNL A   1      41.004  25.220  28.397  1.00  0.00     0.029 A 
ATOM     42  C   UNL A   1      41.546  26.468  28.903  1.00  0.00     0.049 A 
ATOM     43  H   UNL A   1      43.548  27.077  28.826  1.00  0.00     0.167 HD
ATOM     44  C   UNL A   1      47.724  28.413  27.491  1.00  0.00     0.037 A 
ATOM     45  C   UNL A   1      40.943  27.511  29.527  1.00  0.00     0.037 A 
ATOM     46  C   UNL A   1      47.787  28.103  28.902  1.00  0.00     0.049 A 
ATOM     47  C   UNL A   1      42.019  28.330  30.139  1.00  0.00     0.074 A 
ATOM     48  C   UNL A   1      48.437  27.175  29.686  1.00  0.00     0.029 A 
ATOM     49  N   UNL A   1      46.754  28.604  29.653  1.00  0.00    -0.354 N 
ATOM     50  N   UNL A   1      42.753  27.923  31.137  1.00  0.00    -0.248 NA
ATOM     51  C   UNL A   1      42.581  29.425  29.362  1.00  0.00     0.031 C 
ATOM     52  C   UNL A   1      47.560  26.917  30.783  1.00  0.00     0.029 A 
ATOM     53  C   UNL A   1      46.434  27.733  30.657  1.00  0.00     0.049 A 
ATOM     54  H   UNL A   1      46.309  29.467  29.494  1.00  0.00     0.167 HD
ATOM     55  C   UNL A   1      44.026  28.394  30.856  1.00  0.00     0.074 A 
ATOM     56  C   UNL A   1      43.831  29.419  29.835  1.00  0.00     0.031 C 
ATOM     57  C   UNL A   1      45.121  27.686  31.262  1.00  0.00     0.037 A 
BRANCH  44  58
ATOM     58  C   UNL A   1      47.773  29.852  26.999  1.00  0.00     0.064 A 
ATOM     59  C   UNL A   1      48.993  30.548  27.127  1.00  0.00     0.173 A 
ATOM     60  C   UNL A   1      46.649  30.665  26.728  1.00  0.00     0.173 A 
ATOM     61  F   UNL A   1      50.136  29.887  27.366  1.00  0.00    -0.203 F 
ATOM     62  C   UNL A   1      49.055  31.944  27.120  1.00  0.00     0.198 A 
ATOM     63  C   UNL A   1      46.723  32.056  26.677  1.00  0.00     0.198 A 
ATOM     64  F   UNL A   1      45.410  30.185  26.593  1.00  0.00    -0.203 F 
ATOM     65  F   UNL A   1      50.215  32.557  27.391  1.00  0.00    -0.200 F 
ATOM     66  C   UNL A   1      47.917  32.698  26.914  1.00  0.00     0.200 A 
ATOM     67  F   UNL A   1      45.602  32.765  26.482  1.00  0.00    -0.200 F 
ATOM     68  F   UNL A   1      47.958  34.034  26.983  1.00  0.00    -0.200 F 
ENDBRANCH  44  58
BRANCH  45  69
ATOM     69  C   UNL A   1      39.558  28.011  29.369  1.00  0.00     0.064 A 
ATOM     70  C   UNL A   1      38.693  28.144  30.468  1.00  0.00     0.173 A 
ATOM     71  C   UNL A   1      39.151  28.633  28.174  1.00  0.00     0.173 A 
ATOM     72  F   UNL A   1      39.033  27.630  31.659  1.00  0.00    -0.203 F 
ATOM     73  C   UNL A   1      37.498  28.867  30.377  1.00  0.00     0.198 A 
ATOM     74  C   UNL A   1      37.959  29.353  28.083  1.00  0.00     0.198 A 
ATOM     75  F   UNL A   1      39.953  28.638  27.098  1.00  0.00    -0.203 F 
ATOM     76  F   UNL A   1      36.723  29.019  31.461  1.00  0.00    -0.200 F 
ATOM     77  C   UNL A   1      37.136  29.478  29.187  1.00  0.00     0.200 A 
ATOM     78  F   UNL A   1      37.643  29.978  26.940  1.00  0.00    -0.200 F 
ATOM     79  F   UNL A   1      36.022  30.221  29.116  1.00  0.00    -0.200 F 
ENDBRANCH  45  69
BRANCH  57  80
ATOM     80  C   UNL A   1      44.898  26.633  32.308  1.00  0.00     0.064 A 
ATOM     81  C   UNL A   1      44.629  25.283  32.028  1.00  0.00     0.173 A 
ATOM     82  C   UNL A   1      45.077  26.992  33.650  1.00  0.00     0.173 A 
ATOM     83  F   UNL A   1      44.531  24.847  30.766  1.00  0.00    -0.203 F 
ATOM     84  C   UNL A   1      44.506  24.344  33.053  1.00  0.00     0.198 A 
ATOM     85  C   UNL A   1      44.992  26.048  34.668  1.00  0.00     0.198 A 
ATOM     86  F   UNL A   1      45.384  28.259  33.968  1.00  0.00    -0.203 F 
ATOM     87  F   UNL A   1      44.236  23.062  32.764  1.00  0.00    -0.200 F 
ATOM     88  C   UNL A   1      44.696  24.727  34.371  1.00  0.00     0.200 A 
ATOM     89  F   UNL A   1      45.223  26.416  35.935  1.00  0.00    -0.200 F 
ATOM     90  F   UNL A   1      44.619  23.820  35.354  1.00  0.00    -0.200 F 
ENDBRANCH  57  80
ENDBRANCH  31  32
ENDBRANCH  24  26
ENDBRANCH  23  24
ENDBRANCH  22  23
ENDBRANCH   1  22
TORSDOF 15
ENDMDL
