MODEL 1
REMARK VINA RESULT:     -10.3      0.000      0.000
REMARK SMILES CC[C@H](CCO)CNc1cc(C(=O)OCCOCCOC(=O)c2ccc(-c3c4nc(c(-c5c(F)c(F)c(F)c(F)c5F)c5ccc([nH]5)c(-c5c(F)c(F)c(F)c(F)c5F)c5nc(c(-c6c(F)c(F)c(F)c(F)c6F)c6ccc3[nH]6)C=C5)C=C4)cc2)ccn1
REMARK SMILES IDX 15 1 14 2 12 3 13 4 11 5 9 6 10 7 88 8 87 9 86 10 8 11 7 13
REMARK SMILES IDX 3 14 2 15 1 16 4 17 5 18 6 19 16 21 17 22 18 23 19 24 20 25
REMARK SMILES IDX 21 26 22 27 23 28 24 29 85 30 25 31 84 32 26 33 27 34 28 35
REMARK SMILES IDX 78 36 29 37 83 38 77 39 79 40 30 41 82 42 76 43 75 44 31 46
REMARK SMILES IDX 63 47 43 48 62 49 44 50 47 51 61 52 80 53 45 54 46 55 60 57
REMARK SMILES IDX 81 58 48 59 32 60 33 61 41 62 34 63 35 64 39 65 42 66 36 67
REMARK SMILES IDX 37 68 40 69 38 70 64 71 65 72 73 73 66 74 67 75 71 76 74 77
REMARK SMILES IDX 68 78 69 79 72 80 70 81 49 82 50 83 58 84 51 85 52 86 56 87
REMARK SMILES IDX 59 88 53 89 54 90 57 91 55 92
REMARK H PARENT 8 12 6 20 79 45 47 56
REMARK Flexibility Score: inf
ROOT
ATOM      1  C   UNL A   1      40.718  21.088  27.301  1.00  0.00     0.261 C 
ENDROOT
BRANCH   1   2
ATOM      2  O   UNL A   1      39.695  21.220  26.300  1.00  0.00    -0.460 OA
BRANCH   2   3
ATOM      3  C   UNL A   1      38.986  22.373  26.344  1.00  0.00     0.338 C 
ATOM      4  O   UNL A   1      39.381  23.467  26.723  1.00  0.00    -0.246 OA
BRANCH   3   5
ATOM      5  C   UNL A   1      37.671  22.182  25.700  1.00  0.00     0.065 A 
ATOM      6  C   UNL A   1      35.820  20.832  25.005  1.00  0.00     0.126 A 
ATOM      7  C   UNL A   1      37.054  20.932  25.629  1.00  0.00     0.062 A 
ATOM      8  N   UNL A   1      35.236  21.899  24.426  1.00  0.00    -0.240 NA
ATOM      9  C   UNL A   1      35.857  23.096  24.491  1.00  0.00     0.114 A 
ATOM     10  C   UNL A   1      37.062  23.292  25.125  1.00  0.00     0.036 A 
BRANCH   6  11
ATOM     11  N   UNL A   1      35.104  19.669  24.921  1.00  0.00    -0.370 N 
ATOM     12  H   UNL A   1      35.607  18.823  24.879  1.00  0.00     0.162 HD
BRANCH  11  13
ATOM     13  C   UNL A   1      33.659  19.596  24.888  1.00  0.00     0.118 C 
BRANCH  13  14
ATOM     14  C   UNL A   1      33.176  18.398  24.034  1.00  0.00     0.010 C 
BRANCH  14  15
ATOM     15  C   UNL A   1      32.327  18.960  22.869  1.00  0.00     0.002 C 
ATOM     16  C   UNL A   1      32.211  20.478  22.828  1.00  0.00     0.004 C 
ENDBRANCH  14  15
BRANCH  14  17
ATOM     17  C   UNL A   1      32.416  17.362  24.897  1.00  0.00     0.033 C 
BRANCH  17  18
ATOM     18  C   UNL A   1      33.346  16.323  25.525  1.00  0.00     0.156 C 
BRANCH  18  19
ATOM     19  O   UNL A   1      34.132  15.683  24.531  1.00  0.00    -0.396 OA
ATOM     20  H   UNL A   1      34.515  16.352  23.943  1.00  0.00     0.210 HD
ENDBRANCH  18  19
ENDBRANCH  17  18
ENDBRANCH  14  17
ENDBRANCH  13  14
ENDBRANCH  11  13
ENDBRANCH   6  11
ENDBRANCH   3   5
ENDBRANCH   2   3
ENDBRANCH   1   2
BRANCH   1  21
ATOM     21  C   UNL A   1      41.894  20.251  26.787  1.00  0.00     0.202 C 
BRANCH  21  22
ATOM     22  O   UNL A   1      42.426  20.629  25.518  1.00  0.00    -0.374 OA
BRANCH  22  23
ATOM     23  C   UNL A   1      43.831  20.463  25.328  1.00  0.00     0.202 C 
BRANCH  23  24
ATOM     24  C   UNL A   1      44.666  21.748  25.266  1.00  0.00     0.261 C 
BRANCH  24  25
ATOM     25  O   UNL A   1      43.864  22.895  24.930  1.00  0.00    -0.460 OA
BRANCH  25  26
ATOM     26  C   UNL A   1      44.482  24.088  25.094  1.00  0.00     0.338 C 
ATOM     27  O   UNL A   1      45.472  24.499  24.507  1.00  0.00    -0.246 OA
BRANCH  26  28
ATOM     28  C   UNL A   1      43.690  24.946  25.994  1.00  0.00     0.060 A 
ATOM     29  C   UNL A   1      43.995  26.313  26.015  1.00  0.00     0.016 A 
ATOM     30  C   UNL A   1      42.726  24.421  26.855  1.00  0.00     0.016 A 
ATOM     31  C   UNL A   1      43.376  27.152  26.937  1.00  0.00     0.010 A 
ATOM     32  C   UNL A   1      42.110  25.264  27.787  1.00  0.00     0.010 A 
ATOM     33  C   UNL A   1      42.459  26.625  27.857  1.00  0.00    -0.014 A 
BRANCH  33  34
ATOM     34  C   UNL A   1      41.984  27.467  28.983  1.00  0.00     0.031 A 
ATOM     35  C   UNL A   1      42.745  27.442  30.281  1.00  0.00     0.074 A 
ATOM     36  C   UNL A   1      40.915  28.271  28.841  1.00  0.00     0.049 A 
ATOM     37  N   UNL A   1      42.489  28.059  31.407  1.00  0.00    -0.248 NA
ATOM     38  C   UNL A   1      43.959  26.611  30.314  1.00  0.00     0.031 C 
ATOM     39  C   UNL A   1      40.127  28.420  27.620  1.00  0.00     0.029 A 
ATOM     40  N   UNL A   1      40.308  29.112  29.739  1.00  0.00    -0.354 N 
ATOM     41  C   UNL A   1      43.508  27.692  32.278  1.00  0.00     0.074 A 
ATOM     42  C   UNL A   1      44.366  26.771  31.565  1.00  0.00     0.031 C 
ATOM     43  C   UNL A   1      39.131  29.294  27.848  1.00  0.00     0.029 A 
ATOM     44  C   UNL A   1      39.192  29.739  29.239  1.00  0.00     0.049 A 
ATOM     45  H   UNL A   1      40.639  29.253  30.655  1.00  0.00     0.167 HD
ATOM     46  C   UNL A   1      43.716  28.097  33.553  1.00  0.00     0.037 A 
ATOM     47  C   UNL A   1      38.312  30.559  29.846  1.00  0.00     0.037 A 
ATOM     48  C   UNL A   1      42.863  29.014  34.263  1.00  0.00     0.049 A 
ATOM     49  C   UNL A   1      38.520  30.923  31.294  1.00  0.00     0.074 A 
ATOM     50  C   UNL A   1      42.984  29.480  35.560  1.00  0.00     0.029 A 
ATOM     51  N   UNL A   1      41.725  29.602  33.731  1.00  0.00    -0.354 N 
ATOM     52  N   UNL A   1      39.492  30.582  32.105  1.00  0.00    -0.248 NA
ATOM     53  C   UNL A   1      37.508  31.794  31.910  1.00  0.00     0.031 C 
ATOM     54  C   UNL A   1      41.897  30.317  35.829  1.00  0.00     0.029 A 
ATOM     55  C   UNL A   1      41.127  30.415  34.681  1.00  0.00     0.049 A 
ATOM     56  H   UNL A   1      41.391  29.464  32.816  1.00  0.00     0.167 HD
ATOM     57  C   UNL A   1      39.230  31.225  33.309  1.00  0.00     0.074 A 
ATOM     58  C   UNL A   1      38.014  31.987  33.119  1.00  0.00     0.031 C 
ATOM     59  C   UNL A   1      39.932  31.189  34.468  1.00  0.00     0.037 A 
BRANCH  46  60
ATOM     60  C   UNL A   1      44.912  27.548  34.273  1.00  0.00     0.064 A 
ATOM     61  C   UNL A   1      46.107  28.275  34.372  1.00  0.00     0.173 A 
ATOM     62  C   UNL A   1      44.843  26.306  34.923  1.00  0.00     0.173 A 
ATOM     63  F   UNL A   1      46.228  29.462  33.758  1.00  0.00    -0.203 F 
ATOM     64  C   UNL A   1      47.195  27.774  35.082  1.00  0.00     0.198 A 
ATOM     65  C   UNL A   1      45.923  25.819  35.655  1.00  0.00     0.198 A 
ATOM     66  F   UNL A   1      43.722  25.572  34.863  1.00  0.00    -0.203 F 
ATOM     67  F   UNL A   1      48.338  28.470  35.135  1.00  0.00    -0.200 F 
ATOM     68  C   UNL A   1      47.099  26.551  35.730  1.00  0.00     0.200 A 
ATOM     69  F   UNL A   1      45.824  24.645  36.293  1.00  0.00    -0.200 F 
ATOM     70  F   UNL A   1      48.141  26.076  36.427  1.00  0.00    -0.200 F 
ENDBRANCH  46  60
BRANCH  47  71
ATOM     71  C   UNL A   1      37.135  31.083  29.102  1.00  0.00     0.064 A 
ATOM     72  C   UNL A   1      37.068  32.428  28.709  1.00  0.00     0.173 A 
ATOM     73  C   UNL A   1      36.031  30.267  28.818  1.00  0.00     0.173 A 
ATOM     74  F   UNL A   1      38.088  33.256  28.980  1.00  0.00    -0.203 F 
ATOM     75  C   UNL A   1      35.929  32.943  28.095  1.00  0.00     0.198 A 
ATOM     76  C   UNL A   1      34.905  30.776  28.173  1.00  0.00     0.198 A 
ATOM     77  F   UNL A   1      36.041  28.973  29.172  1.00  0.00    -0.203 F 
ATOM     78  F   UNL A   1      35.865  34.247  27.791  1.00  0.00    -0.200 F 
ATOM     79  C   UNL A   1      34.849  32.116  27.824  1.00  0.00     0.200 A 
ATOM     80  F   UNL A   1      33.869  29.969  27.903  1.00  0.00    -0.200 F 
ATOM     81  F   UNL A   1      33.751  32.613  27.240  1.00  0.00    -0.200 F 
ENDBRANCH  47  71
BRANCH  59  82
ATOM     82  C   UNL A   1      39.441  32.042  35.602  1.00  0.00     0.064 A 
ATOM     83  C   UNL A   1      38.546  31.551  36.564  1.00  0.00     0.173 A 
ATOM     84  C   UNL A   1      39.906  33.359  35.748  1.00  0.00     0.173 A 
ATOM     85  F   UNL A   1      38.062  30.305  36.463  1.00  0.00    -0.203 F 
ATOM     86  C   UNL A   1      38.112  32.357  37.614  1.00  0.00     0.198 A 
ATOM     87  C   UNL A   1      39.494  34.150  36.817  1.00  0.00     0.198 A 
ATOM     88  F   UNL A   1      40.769  33.874  34.861  1.00  0.00    -0.203 F 
ATOM     89  F   UNL A   1      37.217  31.884  38.493  1.00  0.00    -0.200 F 
ATOM     90  C   UNL A   1      38.592  33.652  37.744  1.00  0.00     0.200 A 
ATOM     91  F   UNL A   1      39.971  35.395  36.950  1.00  0.00    -0.200 F 
ATOM     92  F   UNL A   1      38.178  34.423  38.759  1.00  0.00    -0.200 F 
ENDBRANCH  59  82
ENDBRANCH  33  34
ENDBRANCH  26  28
ENDBRANCH  25  26
ENDBRANCH  24  25
ENDBRANCH  23  24
ENDBRANCH  22  23
ENDBRANCH  21  22
ENDBRANCH   1  21
TORSDOF 21
ENDMDL
MODEL 2
REMARK VINA RESULT:     -10.1      3.485      8.828
REMARK SMILES CC[C@H](CCO)CNc1cc(C(=O)OCCOCCOC(=O)c2ccc(-c3c4nc(c(-c5c(F)c(F)c(F)c(F)c5F)c5ccc([nH]5)c(-c5c(F)c(F)c(F)c(F)c5F)c5nc(c(-c6c(F)c(F)c(F)c(F)c6F)c6ccc3[nH]6)C=C5)C=C4)cc2)ccn1
REMARK SMILES IDX 15 1 14 2 12 3 13 4 11 5 9 6 10 7 88 8 87 9 86 10 8 11 7 13
REMARK SMILES IDX 3 14 2 15 1 16 4 17 5 18 6 19 16 21 17 22 18 23 19 24 20 25
REMARK SMILES IDX 21 26 22 27 23 28 24 29 85 30 25 31 84 32 26 33 27 34 28 35
REMARK SMILES IDX 78 36 29 37 83 38 77 39 79 40 30 41 82 42 76 43 75 44 31 46
REMARK SMILES IDX 63 47 43 48 62 49 44 50 47 51 61 52 80 53 45 54 46 55 60 57
REMARK SMILES IDX 81 58 48 59 32 60 33 61 41 62 34 63 35 64 39 65 42 66 36 67
REMARK SMILES IDX 37 68 40 69 38 70 64 71 65 72 73 73 66 74 67 75 71 76 74 77
REMARK SMILES IDX 68 78 69 79 72 80 70 81 49 82 50 83 58 84 51 85 52 86 56 87
REMARK SMILES IDX 59 88 53 89 54 90 57 91 55 92
REMARK H PARENT 8 12 6 20 79 45 47 56
REMARK Flexibility Score: inf
ROOT
ATOM      1  C   UNL A   1      32.156  27.633  23.385  1.00  0.00     0.261 C 
ENDROOT
BRANCH   1   2
ATOM      2  O   UNL A   1      32.022  26.215  23.188  1.00  0.00    -0.460 OA
BRANCH   2   3
ATOM      3  C   UNL A   1      33.130  25.586  22.730  1.00  0.00     0.338 C 
ATOM      4  O   UNL A   1      33.694  25.774  21.661  1.00  0.00    -0.246 OA
BRANCH   3   5
ATOM      5  C   UNL A   1      33.696  24.725  23.788  1.00  0.00     0.065 A 
ATOM      6  C   UNL A   1      35.008  22.873  24.545  1.00  0.00     0.126 A 
ATOM      7  C   UNL A   1      34.517  23.636  23.498  1.00  0.00     0.062 A 
ATOM      8  N   UNL A   1      34.668  23.131  25.823  1.00  0.00    -0.240 NA
ATOM      9  C   UNL A   1      33.858  24.179  26.082  1.00  0.00     0.114 A 
ATOM     10  C   UNL A   1      33.359  25.011  25.107  1.00  0.00     0.036 A 
BRANCH   6  11
ATOM     11  N   UNL A   1      35.860  21.814  24.380  1.00  0.00    -0.370 N 
ATOM     12  H   UNL A   1      35.464  20.915  24.309  1.00  0.00     0.162 HD
BRANCH  11  13
ATOM     13  C   UNL A   1      37.301  21.924  24.302  1.00  0.00     0.118 C 
BRANCH  13  14
ATOM     14  C   UNL A   1      37.974  21.418  25.601  1.00  0.00     0.010 C 
BRANCH  14  15
ATOM     15  C   UNL A   1      38.888  22.548  26.131  1.00  0.00     0.002 C 
ATOM     16  C   UNL A   1      38.209  23.900  26.306  1.00  0.00     0.004 C 
ENDBRANCH  14  15
BRANCH  14  17
ATOM     17  C   UNL A   1      38.726  20.086  25.363  1.00  0.00     0.033 C 
BRANCH  17  18
ATOM     18  C   UNL A   1      40.060  20.021  26.108  1.00  0.00     0.156 C 
BRANCH  18  19
ATOM     19  O   UNL A   1      40.774  18.844  25.763  1.00  0.00    -0.396 OA
ATOM     20  H   UNL A   1      40.221  18.288  25.192  1.00  0.00     0.210 HD
ENDBRANCH  18  19
ENDBRANCH  17  18
ENDBRANCH  14  17
ENDBRANCH  13  14
ENDBRANCH  11  13
ENDBRANCH   6  11
ENDBRANCH   3   5
ENDBRANCH   2   3
ENDBRANCH   1   2
BRANCH   1  21
ATOM     21  C   UNL A   1      30.786  28.315  23.462  1.00  0.00     0.202 C 
BRANCH  21  22
ATOM     22  O   UNL A   1      30.685  29.419  24.360  1.00  0.00    -0.374 OA
BRANCH  22  23
ATOM     23  C   UNL A   1      31.824  29.701  25.174  1.00  0.00     0.202 C 
BRANCH  23  24
ATOM     24  C   UNL A   1      31.711  30.912  26.108  1.00  0.00     0.261 C 
BRANCH  24  25
ATOM     25  O   UNL A   1      32.565  30.786  27.259  1.00  0.00    -0.460 OA
BRANCH  25  26
ATOM     26  C   UNL A   1      33.370  31.848  27.488  1.00  0.00     0.338 C 
ATOM     27  O   UNL A   1      33.054  33.029  27.515  1.00  0.00    -0.246 OA
BRANCH  26  28
ATOM     28  C   UNL A   1      34.714  31.387  27.883  1.00  0.00     0.060 A 
ATOM     29  C   UNL A   1      34.874  30.021  28.151  1.00  0.00     0.016 A 
ATOM     30  C   UNL A   1      35.775  32.274  28.064  1.00  0.00     0.016 A 
ATOM     31  C   UNL A   1      36.081  29.546  28.655  1.00  0.00     0.010 A 
ATOM     32  C   UNL A   1      36.986  31.796  28.578  1.00  0.00     0.010 A 
ATOM     33  C   UNL A   1      37.132  30.437  28.911  1.00  0.00    -0.014 A 
BRANCH  33  34
ATOM     34  C   UNL A   1      38.322  29.971  29.664  1.00  0.00     0.031 A 
ATOM     35  C   UNL A   1      38.560  30.502  31.051  1.00  0.00     0.074 A 
ATOM     36  C   UNL A   1      39.159  29.058  29.137  1.00  0.00     0.049 A 
ATOM     37  N   UNL A   1      39.552  30.269  31.873  1.00  0.00    -0.248 NA
ATOM     38  C   UNL A   1      37.539  31.419  31.586  1.00  0.00     0.031 C 
ATOM     39  C   UNL A   1      39.009  28.434  27.825  1.00  0.00     0.029 A 
ATOM     40  N   UNL A   1      40.306  28.504  29.645  1.00  0.00    -0.354 N 
ATOM     41  C   UNL A   1      39.274  31.007  33.018  1.00  0.00     0.074 A 
ATOM     42  C   UNL A   1      38.042  31.724  32.773  1.00  0.00     0.031 C 
ATOM     43  C   UNL A   1      40.033  27.585  27.627  1.00  0.00     0.029 A 
ATOM     44  C   UNL A   1      40.927  27.635  28.781  1.00  0.00     0.049 A 
ATOM     45  H   UNL A   1      40.652  28.709  30.544  1.00  0.00     0.167 HD
ATOM     46  C   UNL A   1      39.978  31.070  34.173  1.00  0.00     0.037 A 
ATOM     47  C   UNL A   1      42.096  26.975  28.905  1.00  0.00     0.037 A 
ATOM     48  C   UNL A   1      41.204  30.356  34.416  1.00  0.00     0.049 A 
ATOM     49  C   UNL A   1      42.903  27.133  30.169  1.00  0.00     0.074 A 
ATOM     50  C   UNL A   1      41.996  30.361  35.551  1.00  0.00     0.029 A 
ATOM     51  N   UNL A   1      41.817  29.511  33.504  1.00  0.00    -0.354 N 
ATOM     52  N   UNL A   1      42.627  27.823  31.249  1.00  0.00    -0.248 NA
ATOM     53  C   UNL A   1      44.185  26.416  30.230  1.00  0.00     0.031 C 
ATOM     54  C   UNL A   1      43.111  29.552  35.311  1.00  0.00     0.029 A 
ATOM     55  C   UNL A   1      42.986  29.000  34.046  1.00  0.00     0.049 A 
ATOM     56  H   UNL A   1      41.474  29.303  32.605  1.00  0.00     0.167 HD
ATOM     57  C   UNL A   1      43.677  27.590  32.130  1.00  0.00     0.074 A 
ATOM     58  C   UNL A   1      44.590  26.686  31.463  1.00  0.00     0.031 C 
ATOM     59  C   UNL A   1      43.870  28.080  33.379  1.00  0.00     0.037 A 
BRANCH  46  60
ATOM     60  C   UNL A   1      39.446  31.948  35.267  1.00  0.00     0.064 A 
ATOM     61  C   UNL A   1      38.588  31.447  36.257  1.00  0.00     0.173 A 
ATOM     62  C   UNL A   1      39.844  33.290  35.360  1.00  0.00     0.173 A 
ATOM     63  F   UNL A   1      38.167  30.173  36.206  1.00  0.00    -0.203 F 
ATOM     64  C   UNL A   1      38.137  32.261  37.293  1.00  0.00     0.198 A 
ATOM     65  C   UNL A   1      39.413  34.094  36.412  1.00  0.00     0.198 A 
ATOM     66  F   UNL A   1      40.666  33.817  34.441  1.00  0.00    -0.203 F 
ATOM     67  F   UNL A   1      37.291  31.770  38.209  1.00  0.00    -0.200 F 
ATOM     68  C   UNL A   1      38.557  33.580  37.375  1.00  0.00     0.200 A 
ATOM     69  F   UNL A   1      39.831  35.364  36.499  1.00  0.00    -0.200 F 
ATOM     70  F   UNL A   1      38.135  34.358  38.381  1.00  0.00    -0.200 F 
ENDBRANCH  46  60
BRANCH  47  71
ATOM     71  C   UNL A   1      42.595  26.115  27.798  1.00  0.00     0.064 A 
ATOM     72  C   UNL A   1      43.504  26.608  26.852  1.00  0.00     0.173 A 
ATOM     73  C   UNL A   1      42.131  24.802  27.632  1.00  0.00     0.173 A 
ATOM     74  F   UNL A   1      43.958  27.866  26.952  1.00  0.00    -0.203 F 
ATOM     75  C   UNL A   1      43.902  25.835  25.763  1.00  0.00     0.198 A 
ATOM     76  C   UNL A   1      42.556  24.018  26.560  1.00  0.00     0.198 A 
ATOM     77  F   UNL A   1      41.259  24.279  28.507  1.00  0.00    -0.203 F 
ATOM     78  F   UNL A   1      44.720  26.356  24.837  1.00  0.00    -0.200 F 
ATOM     79  C   UNL A   1      43.430  24.539  25.620  1.00  0.00     0.200 A 
ATOM     80  F   UNL A   1      42.106  22.762  26.433  1.00  0.00    -0.200 F 
ATOM     81  F   UNL A   1      43.806  23.799  24.569  1.00  0.00    -0.200 F 
ENDBRANCH  47  71
BRANCH  59  82
ATOM     82  C   UNL A   1      45.079  27.603  34.131  1.00  0.00     0.064 A 
ATOM     83  C   UNL A   1      46.294  28.303  34.097  1.00  0.00     0.173 A 
ATOM     84  C   UNL A   1      45.006  26.451  34.929  1.00  0.00     0.173 A 
ATOM     85  F   UNL A   1      46.421  29.402  33.340  1.00  0.00    -0.203 F 
ATOM     86  C   UNL A   1      47.400  27.848  34.812  1.00  0.00     0.198 A 
ATOM     87  C   UNL A   1      46.104  26.018  35.667  1.00  0.00     0.198 A 
ATOM     88  F   UNL A   1      43.865  25.750  35.003  1.00  0.00    -0.203 F 
ATOM     89  F   UNL A   1      48.567  28.503  34.724  1.00  0.00    -0.200 F 
ATOM     90  C   UNL A   1      47.302  26.712  35.601  1.00  0.00     0.200 A 
ATOM     91  F   UNL A   1      46.003  24.929  36.441  1.00  0.00    -0.200 F 
ATOM     92  F   UNL A   1      48.366  26.281  36.293  1.00  0.00    -0.200 F 
ENDBRANCH  59  82
ENDBRANCH  33  34
ENDBRANCH  26  28
ENDBRANCH  25  26
ENDBRANCH  24  25
ENDBRANCH  23  24
ENDBRANCH  22  23
ENDBRANCH  21  22
ENDBRANCH   1  21
TORSDOF 21
ENDMDL
MODEL 3
REMARK VINA RESULT:     -10.0      5.149      7.598
REMARK SMILES CC[C@H](CCO)CNc1cc(C(=O)OCCOCCOC(=O)c2ccc(-c3c4nc(c(-c5c(F)c(F)c(F)c(F)c5F)c5ccc([nH]5)c(-c5c(F)c(F)c(F)c(F)c5F)c5nc(c(-c6c(F)c(F)c(F)c(F)c6F)c6ccc3[nH]6)C=C5)C=C4)cc2)ccn1
REMARK SMILES IDX 15 1 14 2 12 3 13 4 11 5 9 6 10 7 88 8 87 9 86 10 8 11 7 13
REMARK SMILES IDX 3 14 2 15 1 16 4 17 5 18 6 19 16 21 17 22 18 23 19 24 20 25
REMARK SMILES IDX 21 26 22 27 23 28 24 29 85 30 25 31 84 32 26 33 27 34 28 35
REMARK SMILES IDX 78 36 29 37 83 38 77 39 79 40 30 41 82 42 76 43 75 44 31 46
REMARK SMILES IDX 63 47 43 48 62 49 44 50 47 51 61 52 80 53 45 54 46 55 60 57
REMARK SMILES IDX 81 58 48 59 32 60 33 61 41 62 34 63 35 64 39 65 42 66 36 67
REMARK SMILES IDX 37 68 40 69 38 70 64 71 65 72 73 73 66 74 67 75 71 76 74 77
REMARK SMILES IDX 68 78 69 79 72 80 70 81 49 82 50 83 58 84 51 85 52 86 56 87
REMARK SMILES IDX 59 88 53 89 54 90 57 91 55 92
REMARK H PARENT 8 12 6 20 79 45 47 56
REMARK Flexibility Score: inf
ROOT
ATOM      1  C   UNL A   1      34.787  21.447  24.770  1.00  0.00     0.261 C 
ENDROOT
BRANCH   1   2
ATOM      2  O   UNL A   1      33.965  22.604  24.546  1.00  0.00    -0.460 OA
BRANCH   2   3
ATOM      3  C   UNL A   1      34.457  23.502  23.659  1.00  0.00     0.338 C 
ATOM      4  O   UNL A   1      35.122  23.262  22.661  1.00  0.00    -0.246 OA
BRANCH   3   5
ATOM      5  C   UNL A   1      33.936  24.850  23.964  1.00  0.00     0.065 A 
ATOM      6  C   UNL A   1      32.832  26.887  23.364  1.00  0.00     0.126 A 
ATOM      7  C   UNL A   1      33.291  25.630  23.003  1.00  0.00     0.062 A 
ATOM      8  N   UNL A   1      33.040  27.385  24.599  1.00  0.00    -0.240 NA
ATOM      9  C   UNL A   1      33.681  26.621  25.508  1.00  0.00     0.114 A 
ATOM     10  C   UNL A   1      34.134  25.348  25.247  1.00  0.00     0.036 A 
BRANCH   6  11
ATOM     11  N   UNL A   1      32.144  27.716  22.519  1.00  0.00    -0.370 N 
ATOM     12  H   UNL A   1      32.026  27.423  21.586  1.00  0.00     0.162 HD
BRANCH  11  13
ATOM     13  C   UNL A   1      31.581  28.993  22.901  1.00  0.00     0.118 C 
BRANCH  13  14
ATOM     14  C   UNL A   1      30.157  28.827  23.487  1.00  0.00     0.010 C 
BRANCH  14  15
ATOM     15  C   UNL A   1      29.585  27.487  22.967  1.00  0.00     0.002 C 
ATOM     16  C   UNL A   1      29.143  26.510  24.048  1.00  0.00     0.004 C 
ENDBRANCH  14  15
BRANCH  14  17
ATOM     17  C   UNL A   1      29.264  30.045  23.148  1.00  0.00     0.033 C 
BRANCH  17  18
ATOM     18  C   UNL A   1      28.174  29.711  22.129  1.00  0.00     0.156 C 
BRANCH  18  19
ATOM     19  O   UNL A   1      26.906  29.614  22.760  1.00  0.00    -0.396 OA
ATOM     20  H   UNL A   1      26.768  30.390  23.326  1.00  0.00     0.210 HD
ENDBRANCH  18  19
ENDBRANCH  17  18
ENDBRANCH  14  17
ENDBRANCH  13  14
ENDBRANCH  11  13
ENDBRANCH   6  11
ENDBRANCH   3   5
ENDBRANCH   2   3
ENDBRANCH   1   2
BRANCH   1  21
ATOM     21  C   UNL A   1      35.777  21.683  25.915  1.00  0.00     0.202 C 
BRANCH  21  22
ATOM     22  O   UNL A   1      37.154  21.463  25.610  1.00  0.00    -0.374 OA
BRANCH  22  23
ATOM     23  C   UNL A   1      37.493  20.217  25.000  1.00  0.00     0.202 C 
BRANCH  23  24
ATOM     24  C   UNL A   1      38.822  19.587  25.433  1.00  0.00     0.261 C 
BRANCH  24  25
ATOM     25  O   UNL A   1      39.858  20.572  25.595  1.00  0.00    -0.460 OA
BRANCH  25  26
ATOM     26  C   UNL A   1      40.481  20.549  26.796  1.00  0.00     0.338 C 
ATOM     27  O   UNL A   1      40.934  19.576  27.380  1.00  0.00    -0.246 OA
BRANCH  26  28
ATOM     28  C   UNL A   1      40.707  21.926  27.273  1.00  0.00     0.060 A 
ATOM     29  C   UNL A   1      40.053  22.960  26.591  1.00  0.00     0.016 A 
ATOM     30  C   UNL A   1      41.596  22.211  28.310  1.00  0.00     0.016 A 
ATOM     31  C   UNL A   1      40.329  24.288  26.907  1.00  0.00     0.010 A 
ATOM     32  C   UNL A   1      41.877  23.546  28.621  1.00  0.00     0.010 A 
ATOM     33  C   UNL A   1      41.273  24.590  27.897  1.00  0.00    -0.014 A 
BRANCH  33  34
ATOM     34  C   UNL A   1      41.737  25.989  28.065  1.00  0.00     0.031 A 
ATOM     35  C   UNL A   1      43.090  26.376  27.533  1.00  0.00     0.074 A 
ATOM     36  C   UNL A   1      40.951  26.912  28.648  1.00  0.00     0.049 A 
ATOM     37  N   UNL A   1      43.716  27.524  27.606  1.00  0.00    -0.248 NA
ATOM     38  C   UNL A   1      43.839  25.328  26.821  1.00  0.00     0.031 C 
ATOM     39  C   UNL A   1      39.603  26.671  29.159  1.00  0.00     0.029 A 
ATOM     40  N   UNL A   1      41.179  28.238  28.912  1.00  0.00    -0.354 N 
ATOM     41  C   UNL A   1      44.926  27.336  26.950  1.00  0.00     0.074 A 
ATOM     42  C   UNL A   1      44.966  25.956  26.518  1.00  0.00     0.031 C 
ATOM     43  C   UNL A   1      39.126  27.813  29.684  1.00  0.00     0.029 A 
ATOM     44  C   UNL A   1      40.147  28.854  29.578  1.00  0.00     0.049 A 
ATOM     45  H   UNL A   1      42.005  28.706  28.649  1.00  0.00     0.167 HD
ATOM     46  C   UNL A   1      45.910  28.238  26.718  1.00  0.00     0.037 A 
ATOM     47  C   UNL A   1      40.051  30.107  30.064  1.00  0.00     0.037 A 
ATOM     48  C   UNL A   1      45.870  29.611  27.148  1.00  0.00     0.049 A 
ATOM     49  C   UNL A   1      41.200  31.064  29.867  1.00  0.00     0.074 A 
ATOM     50  C   UNL A   1      46.821  30.600  26.968  1.00  0.00     0.029 A 
ATOM     51  N   UNL A   1      44.820  30.187  27.847  1.00  0.00    -0.354 N 
ATOM     52  N   UNL A   1      42.335  30.881  29.236  1.00  0.00    -0.248 NA
ATOM     53  C   UNL A   1      41.051  32.406  30.449  1.00  0.00     0.031 C 
ATOM     54  C   UNL A   1      46.366  31.764  27.595  1.00  0.00     0.029 A 
ATOM     55  C   UNL A   1      45.108  31.515  28.119  1.00  0.00     0.049 A 
ATOM     56  H   UNL A   1      43.993  29.723  28.110  1.00  0.00     0.167 HD
ATOM     57  C   UNL A   1      43.013  32.093  29.310  1.00  0.00     0.074 A 
ATOM     58  C   UNL A   1      42.158  33.006  30.038  1.00  0.00     0.031 C 
ATOM     59  C   UNL A   1      44.235  32.419  28.821  1.00  0.00     0.037 A 
BRANCH  46  60
ATOM     60  C   UNL A   1      47.123  27.769  25.969  1.00  0.00     0.064 A 
ATOM     61  C   UNL A   1      48.253  27.278  26.639  1.00  0.00     0.173 A 
ATOM     62  C   UNL A   1      47.133  27.757  24.566  1.00  0.00     0.173 A 
ATOM     63  F   UNL A   1      48.298  27.280  27.980  1.00  0.00    -0.203 F 
ATOM     64  C   UNL A   1      49.355  26.804  25.931  1.00  0.00     0.198 A 
ATOM     65  C   UNL A   1      48.225  27.258  23.862  1.00  0.00     0.198 A 
ATOM     66  F   UNL A   1      46.075  28.213  23.878  1.00  0.00    -0.203 F 
ATOM     67  F   UNL A   1      50.437  26.370  26.591  1.00  0.00    -0.200 F 
ATOM     68  C   UNL A   1      49.336  26.785  24.545  1.00  0.00     0.200 A 
ATOM     69  F   UNL A   1      48.200  27.227  22.522  1.00  0.00    -0.200 F 
ATOM     70  F   UNL A   1      50.391  26.315  23.865  1.00  0.00    -0.200 F 
ENDBRANCH  46  60
BRANCH  47  71
ATOM     71  C   UNL A   1      38.834  30.537  30.803  1.00  0.00     0.064 A 
ATOM     72  C   UNL A   1      37.734  31.084  30.130  1.00  0.00     0.173 A 
ATOM     73  C   UNL A   1      38.770  30.463  32.202  1.00  0.00     0.173 A 
ATOM     74  F   UNL A   1      37.757  31.201  28.794  1.00  0.00    -0.203 F 
ATOM     75  C   UNL A   1      36.631  31.573  30.827  1.00  0.00     0.198 A 
ATOM     76  C   UNL A   1      37.652  30.921  32.897  1.00  0.00     0.198 A 
ATOM     77  F   UNL A   1      39.795  29.949  32.898  1.00  0.00    -0.203 F 
ATOM     78  F   UNL A   1      35.622  32.152  30.162  1.00  0.00    -0.200 F 
ATOM     79  C   UNL A   1      36.589  31.488  32.211  1.00  0.00     0.200 A 
ATOM     80  F   UNL A   1      37.611  30.825  34.233  1.00  0.00    -0.200 F 
ATOM     81  F   UNL A   1      35.533  31.965  32.883  1.00  0.00    -0.200 F 
ENDBRANCH  47  71
BRANCH  59  82
ATOM     82  C   UNL A   1      44.695  33.837  29.000  1.00  0.00     0.064 A 
ATOM     83  C   UNL A   1      44.352  34.847  28.088  1.00  0.00     0.173 A 
ATOM     84  C   UNL A   1      45.455  34.198  30.123  1.00  0.00     0.173 A 
ATOM     85  F   UNL A   1      43.639  34.553  26.991  1.00  0.00    -0.203 F 
ATOM     86  C   UNL A   1      44.780  36.158  28.279  1.00  0.00     0.198 A 
ATOM     87  C   UNL A   1      45.854  35.516  30.327  1.00  0.00     0.198 A 
ATOM     88  F   UNL A   1      45.802  33.272  31.030  1.00  0.00    -0.203 F 
ATOM     89  F   UNL A   1      44.485  37.096  27.368  1.00  0.00    -0.200 F 
ATOM     90  C   UNL A   1      45.523  36.493  29.401  1.00  0.00     0.200 A 
ATOM     91  F   UNL A   1      46.558  35.840  31.420  1.00  0.00    -0.200 F 
ATOM     92  F   UNL A   1      45.928  37.757  29.587  1.00  0.00    -0.200 F 
ENDBRANCH  59  82
ENDBRANCH  33  34
ENDBRANCH  26  28
ENDBRANCH  25  26
ENDBRANCH  24  25
ENDBRANCH  23  24
ENDBRANCH  22  23
ENDBRANCH  21  22
ENDBRANCH   1  21
TORSDOF 21
ENDMDL
