MODEL 1
REMARK VINA RESULT:     -11.5      0.000      0.000
REMARK SMILES [NH3+][C@@]1(C(=O)OCCOCCOC(=O)c2ccc(-c3c4nc(c(-c5c(F)c(F)c(F)c(F)c5F)c5ccc([nH]5)c(-c5c(F)c(F)c(F)c(F)c5F)c5nc(c(-c6c(F)c(F)c(F)c(F)c6F)c6ccc3[nH]6)C=C5)C=C4)cc2)CCC[C@@H](Oc2ccccc2[N+](=O)[O-])C1
REMARK SMILES IDX 7 1 6 2 5 3 3 4 4 5 2 6 77 7 91 8 78 9 80 10 79 11 1 12
REMARK SMILES IDX 81 16 82 17 83 18 87 19 84 20 86 21 85 22 88 23 89 24 90 25
REMARK SMILES IDX 8 26 9 27 10 28 11 29 12 30 13 31 14 32 15 33 76 34 16 35
REMARK SMILES IDX 75 36 17 37 18 38 19 39 69 40 20 41 74 42 68 43 70 44 21 45
REMARK SMILES IDX 73 46 67 47 66 48 22 50 54 51 34 52 53 53 35 54 38 55 52 56
REMARK SMILES IDX 71 57 36 58 37 59 51 61 72 62 39 63 23 64 24 65 32 66 25 67
REMARK SMILES IDX 26 68 30 69 33 70 27 71 28 72 31 73 29 74 55 75 56 76 64 77
REMARK SMILES IDX 57 78 58 79 62 80 65 81 59 82 60 83 63 84 61 85 40 86 41 87
REMARK SMILES IDX 49 88 42 89 43 90 47 91 50 92 44 93 45 94 48 95 46 96
REMARK H PARENT 1 13 1 14 1 15 70 49 38 60
REMARK Flexibility Score: inf
ROOT
ATOM      1  C   UNL A   1      40.757  20.723  27.104  1.00  0.00     0.202 C 
ENDROOT
BRANCH   1   2
ATOM      2  C   UNL A   1      40.157  21.253  25.795  1.00  0.00     0.261 C 
BRANCH   2   3
ATOM      3  O   UNL A   1      38.728  21.341  25.905  1.00  0.00    -0.459 OA
BRANCH   3   4
ATOM      4  C   UNL A   1      38.185  22.588  26.064  1.00  0.00     0.368 C 
ATOM      5  O   UNL A   1      38.786  23.574  26.468  1.00  0.00    -0.245 OA
BRANCH   4   6
ATOM      6  C   UNL A   1      36.686  22.571  25.633  1.00  0.00     0.196 C 
ATOM      7  C   UNL A   1      36.542  22.155  24.159  1.00  0.00     0.081 C 
ATOM      8  C   UNL A   1      36.165  24.005  25.824  1.00  0.00     0.126 C 
ATOM      9  C   UNL A   1      35.097  22.261  23.668  1.00  0.00     0.011 C 
ATOM     10  C   UNL A   1      34.804  24.335  25.199  1.00  0.00     0.180 C 
ATOM     11  C   UNL A   1      34.532  23.671  23.838  1.00  0.00     0.046 C 
BRANCH   6  12
ATOM     12  N   UNL A   1      35.985  21.535  26.426  1.00  0.00    -0.343 N 
ATOM     13  H   UNL A   1      36.419  21.461  27.347  1.00  0.00     0.345 HD
ATOM     14  H   UNL A   1      36.049  20.638  25.946  1.00  0.00     0.345 HD
ATOM     15  H   UNL A   1      35.005  21.795  26.534  1.00  0.00     0.345 HD
ENDBRANCH   6  12
BRANCH  10  16
ATOM     16  O   UNL A   1      33.692  24.384  26.120  1.00  0.00    -0.483 OA
BRANCH  16  17
ATOM     17  C   UNL A   1      32.849  25.448  26.076  1.00  0.00     0.197 A 
ATOM     18  C   UNL A   1      33.397  26.732  26.060  1.00  0.00     0.054 A 
ATOM     19  C   UNL A   1      31.455  25.322  26.140  1.00  0.00     0.310 A 
ATOM     20  C   UNL A   1      32.571  27.858  25.974  1.00  0.00     0.004 A 
ATOM     21  C   UNL A   1      30.617  26.443  26.033  1.00  0.00     0.090 A 
ATOM     22  C   UNL A   1      31.184  27.713  25.934  1.00  0.00     0.007 A 
BRANCH  19  23
ATOM     23  N   UNL A   1      30.820  24.016  26.211  1.00  0.00     0.066 N 
ATOM     24  O   UNL A   1      30.925  23.296  25.206  1.00  0.00    -0.258 OA
ATOM     25  O   UNL A   1      30.225  23.708  27.250  1.00  0.00    -0.258 OA
ENDBRANCH  19  23
ENDBRANCH  16  17
ENDBRANCH  10  16
ENDBRANCH   4   6
ENDBRANCH   3   4
ENDBRANCH   2   3
ENDBRANCH   1   2
BRANCH   1  26
ATOM     26  O   UNL A   1      42.188  20.671  27.115  1.00  0.00    -0.374 OA
BRANCH  26  27
ATOM     27  C   UNL A   1      42.804  20.581  25.830  1.00  0.00     0.202 C 
BRANCH  27  28
ATOM     28  C   UNL A   1      43.820  21.682  25.541  1.00  0.00     0.261 C 
BRANCH  28  29
ATOM     29  O   UNL A   1      43.166  22.802  24.917  1.00  0.00    -0.460 OA
BRANCH  29  30
ATOM     30  C   UNL A   1      43.835  23.969  25.021  1.00  0.00     0.338 C 
ATOM     31  O   UNL A   1      44.802  24.333  24.364  1.00  0.00    -0.246 OA
BRANCH  30  32
ATOM     32  C   UNL A   1      43.146  24.858  25.970  1.00  0.00     0.060 A 
ATOM     33  C   UNL A   1      43.631  26.166  26.083  1.00  0.00     0.016 A 
ATOM     34  C   UNL A   1      42.091  24.419  26.777  1.00  0.00     0.016 A 
ATOM     35  C   UNL A   1      43.106  27.023  27.045  1.00  0.00     0.010 A 
ATOM     36  C   UNL A   1      41.566  25.280  27.745  1.00  0.00     0.010 A 
ATOM     37  C   UNL A   1      42.097  26.573  27.906  1.00  0.00    -0.014 A 
BRANCH  37  38
ATOM     38  C   UNL A   1      41.689  27.421  29.050  1.00  0.00     0.031 A 
ATOM     39  C   UNL A   1      42.467  27.346  30.333  1.00  0.00     0.074 A 
ATOM     40  C   UNL A   1      40.660  28.278  28.926  1.00  0.00     0.049 A 
ATOM     41  N   UNL A   1      42.274  27.983  31.460  1.00  0.00    -0.248 NA
ATOM     42  C   UNL A   1      43.618  26.428  30.350  1.00  0.00     0.031 C 
ATOM     43  C   UNL A   1      39.860  28.464  27.719  1.00  0.00     0.029 A 
ATOM     44  N   UNL A   1      40.113  29.148  29.834  1.00  0.00    -0.354 N 
ATOM     45  C   UNL A   1      43.273  27.542  32.318  1.00  0.00     0.074 A 
ATOM     46  C   UNL A   1      44.053  26.562  31.595  1.00  0.00     0.031 C 
ATOM     47  C   UNL A   1      38.913  29.386  27.962  1.00  0.00     0.029 A 
ATOM     48  C   UNL A   1      39.022  29.827  29.351  1.00  0.00     0.049 A 
ATOM     49  H   UNL A   1      40.467  29.274  30.744  1.00  0.00     0.167 HD
ATOM     50  C   UNL A   1      43.519  27.929  33.592  1.00  0.00     0.037 A 
ATOM     51  C   UNL A   1      38.193  30.689  29.971  1.00  0.00     0.037 A 
ATOM     52  C   UNL A   1      42.743  28.910  34.304  1.00  0.00     0.049 A 
ATOM     53  C   UNL A   1      38.448  31.049  31.411  1.00  0.00     0.074 A 
ATOM     54  C   UNL A   1      42.934  29.399  35.585  1.00  0.00     0.029 A 
ATOM     55  N   UNL A   1      41.620  29.548  33.797  1.00  0.00    -0.354 N 
ATOM     56  N   UNL A   1      39.413  30.654  32.206  1.00  0.00    -0.248 NA
ATOM     57  C   UNL A   1      37.497  31.977  32.040  1.00  0.00     0.031 C 
ATOM     58  C   UNL A   1      41.893  30.287  35.874  1.00  0.00     0.029 A 
ATOM     59  C   UNL A   1      41.085  30.397  34.754  1.00  0.00     0.049 A 
ATOM     60  H   UNL A   1      41.256  29.416  32.892  1.00  0.00     0.167 HD
ATOM     61  C   UNL A   1      39.198  31.295  33.418  1.00  0.00     0.074 A 
ATOM     62  C   UNL A   1      38.021  32.123  33.248  1.00  0.00     0.031 C 
ATOM     63  C   UNL A   1      39.909  31.208  34.569  1.00  0.00     0.037 A 
BRANCH  50  64
ATOM     64  C   UNL A   1      44.660  27.272  34.312  1.00  0.00     0.064 A 
ATOM     65  C   UNL A   1      44.490  26.084  35.040  1.00  0.00     0.173 A 
ATOM     66  C   UNL A   1      45.952  27.815  34.234  1.00  0.00     0.173 A 
ATOM     67  F   UNL A   1      43.274  25.532  35.157  1.00  0.00    -0.203 F 
ATOM     68  C   UNL A   1      45.568  25.477  35.679  1.00  0.00     0.198 A 
ATOM     69  C   UNL A   1      47.031  27.189  34.851  1.00  0.00     0.198 A 
ATOM     70  F   UNL A   1      46.169  28.948  33.548  1.00  0.00    -0.203 F 
ATOM     71  F   UNL A   1      45.376  24.364  36.402  1.00  0.00    -0.200 F 
ATOM     72  C   UNL A   1      46.838  26.025  35.577  1.00  0.00     0.200 A 
ATOM     73  F   UNL A   1      48.259  27.714  34.742  1.00  0.00    -0.200 F 
ATOM     74  F   UNL A   1      47.876  25.432  36.185  1.00  0.00    -0.200 F 
ENDBRANCH  50  64
BRANCH  51  75
ATOM     75  C   UNL A   1      37.029  31.251  29.238  1.00  0.00     0.064 A 
ATOM     76  C   UNL A   1      37.008  32.588  28.821  1.00  0.00     0.173 A 
ATOM     77  C   UNL A   1      35.903  30.462  28.955  1.00  0.00     0.173 A 
ATOM     78  F   UNL A   1      38.048  33.390  29.092  1.00  0.00    -0.203 F 
ATOM     79  C   UNL A   1      35.900  33.118  28.162  1.00  0.00     0.198 A 
ATOM     80  C   UNL A   1      34.809  30.985  28.270  1.00  0.00     0.198 A 
ATOM     81  F   UNL A   1      35.871  29.176  29.337  1.00  0.00    -0.203 F 
ATOM     82  F   UNL A   1      35.888  34.413  27.815  1.00  0.00    -0.200 F 
ATOM     83  C   UNL A   1      34.805  32.315  27.881  1.00  0.00     0.200 A 
ATOM     84  F   UNL A   1      33.759  30.201  27.992  1.00  0.00    -0.200 F 
ATOM     85  F   UNL A   1      33.742  32.825  27.245  1.00  0.00    -0.200 F 
ENDBRANCH  51  75
BRANCH  63  86
ATOM     86  C   UNL A   1      39.442  32.037  35.731  1.00  0.00     0.064 A 
ATOM     87  C   UNL A   1      39.934  33.332  35.953  1.00  0.00     0.173 A 
ATOM     88  C   UNL A   1      38.463  31.547  36.609  1.00  0.00     0.173 A 
ATOM     89  F   UNL A   1      40.882  33.840  35.150  1.00  0.00    -0.203 F 
ATOM     90  C   UNL A   1      39.482  34.095  37.026  1.00  0.00     0.198 A 
ATOM     91  C   UNL A   1      37.991  32.325  37.662  1.00  0.00     0.198 A 
ATOM     92  F   UNL A   1      37.954  30.318  36.437  1.00  0.00    -0.203 F 
ATOM     93  F   UNL A   1      40.001  35.310  37.247  1.00  0.00    -0.200 F 
ATOM     94  C   UNL A   1      38.506  33.595  37.875  1.00  0.00     0.200 A 
ATOM     95  F   UNL A   1      37.037  31.845  38.472  1.00  0.00    -0.200 F 
ATOM     96  F   UNL A   1      38.066  34.333  38.902  1.00  0.00    -0.200 F 
ENDBRANCH  63  86
ENDBRANCH  37  38
ENDBRANCH  30  32
ENDBRANCH  29  30
ENDBRANCH  28  29
ENDBRANCH  27  28
ENDBRANCH  26  27
ENDBRANCH   1  26
TORSDOF 18
ENDMDL
MODEL 2
REMARK VINA RESULT:     -11.3      4.941     11.201
REMARK SMILES [NH3+][C@@]1(C(=O)OCCOCCOC(=O)c2ccc(-c3c4nc(c(-c5c(F)c(F)c(F)c(F)c5F)c5ccc([nH]5)c(-c5c(F)c(F)c(F)c(F)c5F)c5nc(c(-c6c(F)c(F)c(F)c(F)c6F)c6ccc3[nH]6)C=C5)C=C4)cc2)CCC[C@@H](Oc2ccccc2[N+](=O)[O-])C1
REMARK SMILES IDX 7 1 6 2 5 3 3 4 4 5 2 6 77 7 91 8 78 9 80 10 79 11 1 12
REMARK SMILES IDX 81 16 82 17 83 18 87 19 84 20 86 21 85 22 88 23 89 24 90 25
REMARK SMILES IDX 8 26 9 27 10 28 11 29 12 30 13 31 14 32 15 33 76 34 16 35
REMARK SMILES IDX 75 36 17 37 18 38 19 39 69 40 20 41 74 42 68 43 70 44 21 45
REMARK SMILES IDX 73 46 67 47 66 48 22 50 54 51 34 52 53 53 35 54 38 55 52 56
REMARK SMILES IDX 71 57 36 58 37 59 51 61 72 62 39 63 23 64 24 65 32 66 25 67
REMARK SMILES IDX 26 68 30 69 33 70 27 71 28 72 31 73 29 74 55 75 56 76 64 77
REMARK SMILES IDX 57 78 58 79 62 80 65 81 59 82 60 83 63 84 61 85 40 86 41 87
REMARK SMILES IDX 49 88 42 89 43 90 47 91 50 92 44 93 45 94 48 95 46 96
REMARK H PARENT 1 13 1 14 1 15 70 49 38 60
REMARK Flexibility Score: inf
ROOT
ATOM      1  C   UNL A   1      32.911  35.970  29.887  1.00  0.00     0.202 C 
ENDROOT
BRANCH   1   2
ATOM      2  C   UNL A   1      32.606  36.184  31.376  1.00  0.00     0.261 C 
BRANCH   2   3
ATOM      3  O   UNL A   1      33.190  35.131  32.157  1.00  0.00    -0.459 OA
BRANCH   3   4
ATOM      4  C   UNL A   1      34.287  35.445  32.915  1.00  0.00     0.368 C 
ATOM      5  O   UNL A   1      34.374  36.406  33.667  1.00  0.00    -0.245 OA
BRANCH   4   6
ATOM      6  C   UNL A   1      35.406  34.381  32.693  1.00  0.00     0.196 C 
ATOM      7  C   UNL A   1      34.845  33.130  31.995  1.00  0.00     0.081 C 
ATOM      8  C   UNL A   1      35.931  34.009  34.089  1.00  0.00     0.126 C 
ATOM      9  C   UNL A   1      35.886  32.015  31.886  1.00  0.00     0.011 C 
ATOM     10  C   UNL A   1      36.832  32.770  34.181  1.00  0.00     0.180 C 
ATOM     11  C   UNL A   1      36.441  31.609  33.250  1.00  0.00     0.046 C 
BRANCH   6  12
ATOM     12  N   UNL A   1      36.415  34.953  31.772  1.00  0.00    -0.343 N 
ATOM     13  H   UNL A   1      36.855  34.201  31.241  1.00  0.00     0.345 HD
ATOM     14  H   UNL A   1      37.125  35.449  32.311  1.00  0.00     0.345 HD
ATOM     15  H   UNL A   1      35.960  35.601  31.130  1.00  0.00     0.345 HD
ENDBRANCH   6  12
BRANCH  10  16
ATOM     16  O   UNL A   1      38.246  33.037  34.311  1.00  0.00    -0.483 OA
BRANCH  16  17
ATOM     17  C   UNL A   1      38.681  33.767  35.371  1.00  0.00     0.197 A 
ATOM     18  C   UNL A   1      39.243  35.022  35.129  1.00  0.00     0.054 A 
ATOM     19  C   UNL A   1      38.679  33.281  36.685  1.00  0.00     0.310 A 
ATOM     20  C   UNL A   1      39.669  35.827  36.191  1.00  0.00     0.004 A 
ATOM     21  C   UNL A   1      39.084  34.089  37.760  1.00  0.00     0.090 A 
ATOM     22  C   UNL A   1      39.566  35.372  37.506  1.00  0.00     0.007 A 
BRANCH  19  23
ATOM     23  N   UNL A   1      38.156  31.962  36.999  1.00  0.00     0.066 N 
ATOM     24  O   UNL A   1      37.084  31.928  37.625  1.00  0.00    -0.258 OA
ATOM     25  O   UNL A   1      38.799  30.972  36.631  1.00  0.00    -0.258 OA
ENDBRANCH  19  23
ENDBRANCH  16  17
ENDBRANCH  10  16
ENDBRANCH   4   6
ENDBRANCH   3   4
ENDBRANCH   2   3
ENDBRANCH   1   2
BRANCH   1  26
ATOM     26  O   UNL A   1      32.608  34.656  29.409  1.00  0.00    -0.374 OA
BRANCH  26  27
ATOM     27  C   UNL A   1      33.426  34.195  28.332  1.00  0.00     0.202 C 
BRANCH  27  28
ATOM     28  C   UNL A   1      34.531  33.229  28.751  1.00  0.00     0.261 C 
BRANCH  28  29
ATOM     29  O   UNL A   1      34.901  32.396  27.637  1.00  0.00    -0.460 OA
BRANCH  29  30
ATOM     30  C   UNL A   1      34.637  31.084  27.809  1.00  0.00     0.338 C 
ATOM     31  O   UNL A   1      33.566  30.513  27.646  1.00  0.00    -0.246 OA
BRANCH  30  32
ATOM     32  C   UNL A   1      35.884  30.356  28.095  1.00  0.00     0.060 A 
ATOM     33  C   UNL A   1      35.992  29.750  29.352  1.00  0.00     0.016 A 
ATOM     34  C   UNL A   1      36.948  30.310  27.189  1.00  0.00     0.016 A 
ATOM     35  C   UNL A   1      37.187  29.149  29.733  1.00  0.00     0.010 A 
ATOM     36  C   UNL A   1      38.149  29.707  27.574  1.00  0.00     0.010 A 
ATOM     37  C   UNL A   1      38.284  29.157  28.862  1.00  0.00    -0.014 A 
BRANCH  37  38
ATOM     38  C   UNL A   1      39.603  28.696  29.353  1.00  0.00     0.031 A 
ATOM     39  C   UNL A   1      40.336  29.522  30.372  1.00  0.00     0.074 A 
ATOM     40  C   UNL A   1      40.118  27.531  28.922  1.00  0.00     0.049 A 
ATOM     41  N   UNL A   1      41.506  29.315  30.922  1.00  0.00    -0.248 NA
ATOM     42  C   UNL A   1      39.662  30.746  30.833  1.00  0.00     0.031 C 
ATOM     43  C   UNL A   1      39.478  26.630  27.967  1.00  0.00     0.029 A 
ATOM     44  N   UNL A   1      41.302  26.912  29.233  1.00  0.00    -0.354 N 
ATOM     45  C   UNL A   1      41.708  30.382  31.789  1.00  0.00     0.074 A 
ATOM     46  C   UNL A   1      40.557  31.249  31.671  1.00  0.00     0.031 C 
ATOM     47  C   UNL A   1      40.282  25.574  27.759  1.00  0.00     0.029 A 
ATOM     48  C   UNL A   1      41.506  25.744  28.541  1.00  0.00     0.049 A 
ATOM     49  H   UNL A   1      41.943  27.270  29.888  1.00  0.00     0.167 HD
ATOM     50  C   UNL A   1      42.758  30.608  32.613  1.00  0.00     0.037 A 
ATOM     51  C   UNL A   1      42.572  24.921  28.524  1.00  0.00     0.037 A 
ATOM     52  C   UNL A   1      43.897  29.737  32.731  1.00  0.00     0.049 A 
ATOM     53  C   UNL A   1      43.757  25.235  29.399  1.00  0.00     0.074 A 
ATOM     54  C   UNL A   1      44.996  29.859  33.564  1.00  0.00     0.029 A 
ATOM     55  N   UNL A   1      44.089  28.584  31.984  1.00  0.00    -0.354 N 
ATOM     56  N   UNL A   1      43.928  26.226  30.240  1.00  0.00    -0.248 NA
ATOM     57  C   UNL A   1      44.899  24.312  29.323  1.00  0.00     0.031 C 
ATOM     58  C   UNL A   1      45.879  28.812  33.280  1.00  0.00     0.029 A 
ATOM     59  C   UNL A   1      45.306  28.005  32.311  1.00  0.00     0.049 A 
ATOM     60  H   UNL A   1      43.456  28.229  31.320  1.00  0.00     0.167 HD
ATOM     61  C   UNL A   1      45.183  26.039  30.804  1.00  0.00     0.074 A 
ATOM     62  C   UNL A   1      45.723  24.826  30.225  1.00  0.00     0.031 C 
ATOM     63  C   UNL A   1      45.831  26.801  31.719  1.00  0.00     0.037 A 
BRANCH  50  64
ATOM     64  C   UNL A   1      42.739  31.863  33.437  1.00  0.00     0.064 A 
ATOM     65  C   UNL A   1      42.341  31.859  34.782  1.00  0.00     0.173 A 
ATOM     66  C   UNL A   1      43.171  33.078  32.883  1.00  0.00     0.173 A 
ATOM     67  F   UNL A   1      41.907  30.726  35.355  1.00  0.00    -0.203 F 
ATOM     68  C   UNL A   1      42.357  33.030  35.536  1.00  0.00     0.198 A 
ATOM     69  C   UNL A   1      43.212  34.240  33.649  1.00  0.00     0.198 A 
ATOM     70  F   UNL A   1      43.565  33.136  31.602  1.00  0.00    -0.203 F 
ATOM     71  F   UNL A   1      41.935  33.011  36.809  1.00  0.00    -0.200 F 
ATOM     72  C   UNL A   1      42.800  34.217  34.972  1.00  0.00     0.200 A 
ATOM     73  F   UNL A   1      43.651  35.383  33.104  1.00  0.00    -0.200 F 
ATOM     74  F   UNL A   1      42.824  35.340  35.702  1.00  0.00    -0.200 F 
ENDBRANCH  50  64
BRANCH  51  75
ATOM     75  C   UNL A   1      42.576  23.734  27.630  1.00  0.00     0.064 A 
ATOM     76  C   UNL A   1      42.158  22.478  28.087  1.00  0.00     0.173 A 
ATOM     77  C   UNL A   1      43.014  23.832  26.301  1.00  0.00     0.173 A 
ATOM     78  F   UNL A   1      41.755  22.327  29.357  1.00  0.00    -0.203 F 
ATOM     79  C   UNL A   1      42.193  21.362  27.253  1.00  0.00     0.198 A 
ATOM     80  C   UNL A   1      43.022  22.722  25.459  1.00  0.00     0.198 A 
ATOM     81  F   UNL A   1      43.429  25.013  25.816  1.00  0.00    -0.203 F 
ATOM     82  F   UNL A   1      41.832  20.162  27.729  1.00  0.00    -0.200 F 
ATOM     83  C   UNL A   1      42.618  21.486  25.939  1.00  0.00     0.200 A 
ATOM     84  F   UNL A   1      43.424  22.851  24.188  1.00  0.00    -0.200 F 
ATOM     85  F   UNL A   1      42.649  20.412  25.137  1.00  0.00    -0.200 F 
ENDBRANCH  51  75
BRANCH  63  86
ATOM     86  C   UNL A   1      47.190  26.340  32.160  1.00  0.00     0.064 A 
ATOM     87  C   UNL A   1      48.359  26.791  31.529  1.00  0.00     0.173 A 
ATOM     88  C   UNL A   1      47.328  25.468  33.250  1.00  0.00     0.173 A 
ATOM     89  F   UNL A   1      48.280  27.614  30.472  1.00  0.00    -0.203 F 
ATOM     90  C   UNL A   1      49.614  26.366  31.957  1.00  0.00     0.198 A 
ATOM     91  C   UNL A   1      48.585  25.070  33.696  1.00  0.00     0.198 A 
ATOM     92  F   UNL A   1      46.242  25.013  33.894  1.00  0.00    -0.203 F 
ATOM     93  F   UNL A   1      50.714  26.773  31.309  1.00  0.00    -0.200 F 
ATOM     94  C   UNL A   1      49.726  25.513  33.045  1.00  0.00     0.200 A 
ATOM     95  F   UNL A   1      48.692  24.256  34.756  1.00  0.00    -0.200 F 
ATOM     96  F   UNL A   1      50.935  25.111  33.461  1.00  0.00    -0.200 F 
ENDBRANCH  63  86
ENDBRANCH  37  38
ENDBRANCH  30  32
ENDBRANCH  29  30
ENDBRANCH  28  29
ENDBRANCH  27  28
ENDBRANCH  26  27
ENDBRANCH   1  26
TORSDOF 18
ENDMDL
MODEL 3
REMARK VINA RESULT:     -11.1      3.067      8.490
REMARK SMILES [NH3+][C@@]1(C(=O)OCCOCCOC(=O)c2ccc(-c3c4nc(c(-c5c(F)c(F)c(F)c(F)c5F)c5ccc([nH]5)c(-c5c(F)c(F)c(F)c(F)c5F)c5nc(c(-c6c(F)c(F)c(F)c(F)c6F)c6ccc3[nH]6)C=C5)C=C4)cc2)CCC[C@@H](Oc2ccccc2[N+](=O)[O-])C1
REMARK SMILES IDX 7 1 6 2 5 3 3 4 4 5 2 6 77 7 91 8 78 9 80 10 79 11 1 12
REMARK SMILES IDX 81 16 82 17 83 18 87 19 84 20 86 21 85 22 88 23 89 24 90 25
REMARK SMILES IDX 8 26 9 27 10 28 11 29 12 30 13 31 14 32 15 33 76 34 16 35
REMARK SMILES IDX 75 36 17 37 18 38 19 39 69 40 20 41 74 42 68 43 70 44 21 45
REMARK SMILES IDX 73 46 67 47 66 48 22 50 54 51 34 52 53 53 35 54 38 55 52 56
REMARK SMILES IDX 71 57 36 58 37 59 51 61 72 62 39 63 23 64 24 65 32 66 25 67
REMARK SMILES IDX 26 68 30 69 33 70 27 71 28 72 31 73 29 74 55 75 56 76 64 77
REMARK SMILES IDX 57 78 58 79 62 80 65 81 59 82 60 83 63 84 61 85 40 86 41 87
REMARK SMILES IDX 49 88 42 89 43 90 47 91 50 92 44 93 45 94 48 95 46 96
REMARK H PARENT 1 13 1 14 1 15 70 49 38 60
REMARK Flexibility Score: inf
ROOT
ATOM      1  C   UNL A   1      30.931  29.164  22.940  1.00  0.00     0.202 C 
ENDROOT
BRANCH   1   2
ATOM      2  C   UNL A   1      29.990  28.058  22.445  1.00  0.00     0.261 C 
BRANCH   2   3
ATOM      3  O   UNL A   1      30.530  26.767  22.765  1.00  0.00    -0.459 OA
BRANCH   3   4
ATOM      4  C   UNL A   1      30.145  26.202  23.952  1.00  0.00     0.368 C 
ATOM      5  O   UNL A   1      29.098  26.434  24.539  1.00  0.00    -0.245 OA
BRANCH   4   6
ATOM      6  C   UNL A   1      31.237  25.198  24.438  1.00  0.00     0.196 C 
ATOM      7  C   UNL A   1      31.701  25.539  25.865  1.00  0.00     0.081 C 
ATOM      8  C   UNL A   1      32.416  25.336  23.459  1.00  0.00     0.126 C 
ATOM      9  C   UNL A   1      32.867  24.658  26.318  1.00  0.00     0.011 C 
ATOM     10  C   UNL A   1      33.738  24.677  23.873  1.00  0.00     0.180 C 
ATOM     11  C   UNL A   1      34.065  24.758  25.375  1.00  0.00     0.046 C 
BRANCH   6  12
ATOM     12  N   UNL A   1      30.631  23.849  24.508  1.00  0.00    -0.343 N 
ATOM     13  H   UNL A   1      29.712  23.866  24.066  1.00  0.00     0.345 HD
ATOM     14  H   UNL A   1      30.534  23.571  25.485  1.00  0.00     0.345 HD
ATOM     15  H   UNL A   1      31.229  23.182  24.022  1.00  0.00     0.345 HD
ENDBRANCH   6  12
BRANCH  10  16
ATOM     16  O   UNL A   1      34.041  23.425  23.219  1.00  0.00    -0.483 OA
BRANCH  16  17
ATOM     17  C   UNL A   1      34.926  22.576  23.804  1.00  0.00     0.197 A 
ATOM     18  C   UNL A   1      36.287  22.876  23.727  1.00  0.00     0.054 A 
ATOM     19  C   UNL A   1      34.543  21.367  24.399  1.00  0.00     0.310 A 
ATOM     20  C   UNL A   1      37.233  22.053  24.348  1.00  0.00     0.004 A 
ATOM     21  C   UNL A   1      35.482  20.545  25.044  1.00  0.00     0.090 A 
ATOM     22  C   UNL A   1      36.829  20.903  25.028  1.00  0.00     0.007 A 
BRANCH  19  23
ATOM     23  N   UNL A   1      33.148  20.969  24.467  1.00  0.00     0.066 N 
ATOM     24  O   UNL A   1      32.441  21.571  25.292  1.00  0.00    -0.258 OA
ATOM     25  O   UNL A   1      32.755  20.071  23.713  1.00  0.00    -0.258 OA
ENDBRANCH  19  23
ENDBRANCH  16  17
ENDBRANCH  10  16
ENDBRANCH   4   6
ENDBRANCH   3   4
ENDBRANCH   2   3
ENDBRANCH   1   2
BRANCH   1  26
ATOM     26  O   UNL A   1      30.576  29.709  24.216  1.00  0.00    -0.374 OA
BRANCH  26  27
ATOM     27  C   UNL A   1      31.616  29.696  25.195  1.00  0.00     0.202 C 
BRANCH  27  28
ATOM     28  C   UNL A   1      31.617  30.904  26.127  1.00  0.00     0.261 C 
BRANCH  28  29
ATOM     29  O   UNL A   1      32.612  30.731  27.153  1.00  0.00    -0.460 OA
BRANCH  29  30
ATOM     30  C   UNL A   1      33.356  31.828  27.399  1.00  0.00     0.338 C 
ATOM     31  O   UNL A   1      33.001  32.998  27.339  1.00  0.00    -0.246 OA
BRANCH  30  32
ATOM     32  C   UNL A   1      34.678  31.431  27.912  1.00  0.00     0.060 A 
ATOM     33  C   UNL A   1      34.830  30.100  28.318  1.00  0.00     0.016 A 
ATOM     34  C   UNL A   1      35.730  32.342  28.053  1.00  0.00     0.016 A 
ATOM     35  C   UNL A   1      36.012  29.688  28.923  1.00  0.00     0.010 A 
ATOM     36  C   UNL A   1      36.917  31.927  28.663  1.00  0.00     0.010 A 
ATOM     37  C   UNL A   1      37.049  30.607  29.133  1.00  0.00    -0.014 A 
BRANCH  37  38
ATOM     38  C   UNL A   1      38.215  30.209  29.954  1.00  0.00     0.031 A 
ATOM     39  C   UNL A   1      39.213  29.238  29.389  1.00  0.00     0.074 A 
ATOM     40  C   UNL A   1      38.399  30.741  31.174  1.00  0.00     0.049 A 
ATOM     41  N   UNL A   1      40.292  28.742  29.939  1.00  0.00    -0.248 NA
ATOM     42  C   UNL A   1      38.962  28.762  28.019  1.00  0.00     0.031 C 
ATOM     43  C   UNL A   1      37.518  31.720  31.808  1.00  0.00     0.029 A 
ATOM     44  N   UNL A   1      39.389  30.527  32.099  1.00  0.00    -0.354 N 
ATOM     45  C   UNL A   1      40.845  27.895  28.987  1.00  0.00     0.074 A 
ATOM     46  C   UNL A   1      39.969  27.919  27.836  1.00  0.00     0.031 C 
ATOM     47  C   UNL A   1      38.001  32.016  33.026  1.00  0.00     0.029 A 
ATOM     48  C   UNL A   1      39.205  31.222  33.268  1.00  0.00     0.049 A 
ATOM     49  H   UNL A   1      40.157  29.932  31.941  1.00  0.00     0.167 HD
ATOM     50  C   UNL A   1      41.985  27.170  29.067  1.00  0.00     0.037 A 
ATOM     51  C   UNL A   1      39.915  31.199  34.412  1.00  0.00     0.037 A 
ATOM     52  C   UNL A   1      42.856  27.155  30.213  1.00  0.00     0.049 A 
ATOM     53  C   UNL A   1      41.142  30.329  34.499  1.00  0.00     0.074 A 
ATOM     54  C   UNL A   1      44.055  26.482  30.378  1.00  0.00     0.029 A 
ATOM     55  N   UNL A   1      42.617  27.840  31.395  1.00  0.00    -0.354 N 
ATOM     56  N   UNL A   1      41.677  29.557  33.585  1.00  0.00    -0.248 NA
ATOM     57  C   UNL A   1      41.864  30.329  35.779  1.00  0.00     0.031 C 
ATOM     58  C   UNL A   1      44.510  26.713  31.681  1.00  0.00     0.029 A 
ATOM     59  C   UNL A   1      43.626  27.575  32.308  1.00  0.00     0.049 A 
ATOM     60  H   UNL A   1      41.844  28.426  31.561  1.00  0.00     0.167 HD
ATOM     61  C   UNL A   1      42.804  28.995  34.170  1.00  0.00     0.074 A 
ATOM     62  C   UNL A   1      42.888  29.531  35.512  1.00  0.00     0.031 C 
ATOM     63  C   UNL A   1      43.689  28.113  33.644  1.00  0.00     0.037 A 
BRANCH  50  64
ATOM     64  C   UNL A   1      42.348  26.308  27.893  1.00  0.00     0.064 A 
ATOM     65  C   UNL A   1      41.782  25.038  27.704  1.00  0.00     0.173 A 
ATOM     66  C   UNL A   1      43.240  26.781  26.918  1.00  0.00     0.173 A 
ATOM     67  F   UNL A   1      40.935  24.534  28.613  1.00  0.00    -0.203 F 
ATOM     68  C   UNL A   1      42.113  24.266  26.593  1.00  0.00     0.198 A 
ATOM     69  C   UNL A   1      43.546  26.018  25.795  1.00  0.00     0.198 A 
ATOM     70  F   UNL A   1      43.807  27.991  27.049  1.00  0.00    -0.203 F 
ATOM     71  F   UNL A   1      41.591  23.039  26.452  1.00  0.00    -0.200 F 
ATOM     72  C   UNL A   1      42.987  24.760  25.636  1.00  0.00     0.200 A 
ATOM     73  F   UNL A   1      44.382  26.501  24.866  1.00  0.00    -0.200 F 
ATOM     74  F   UNL A   1      43.296  24.019  24.562  1.00  0.00    -0.200 F 
ENDBRANCH  50  64
BRANCH  51  75
ATOM     75  C   UNL A   1      39.470  32.009  35.576  1.00  0.00     0.064 A 
ATOM     76  C   UNL A   1      38.596  31.483  36.537  1.00  0.00     0.173 A 
ATOM     77  C   UNL A   1      39.898  33.335  35.741  1.00  0.00     0.173 A 
ATOM     78  F   UNL A   1      38.137  30.229  36.409  1.00  0.00    -0.203 F 
ATOM     79  C   UNL A   1      38.156  32.257  37.609  1.00  0.00     0.198 A 
ATOM     80  C   UNL A   1      39.481  34.099  36.828  1.00  0.00     0.198 A 
ATOM     81  F   UNL A   1      40.732  33.888  34.846  1.00  0.00    -0.203 F 
ATOM     82  F   UNL A   1      37.284  31.745  38.488  1.00  0.00    -0.200 F 
ATOM     83  C   UNL A   1      38.604  33.561  37.758  1.00  0.00     0.200 A 
ATOM     84  F   UNL A   1      39.926  35.354  36.972  1.00  0.00    -0.200 F 
ATOM     85  F   UNL A   1      38.183  34.304  38.790  1.00  0.00    -0.200 F 
ENDBRANCH  51  75
BRANCH  63  86
ATOM     86  C   UNL A   1      44.833  27.684  34.517  1.00  0.00     0.064 A 
ATOM     87  C   UNL A   1      44.731  26.573  35.367  1.00  0.00     0.173 A 
ATOM     88  C   UNL A   1      46.059  28.367  34.473  1.00  0.00     0.173 A 
ATOM     89  F   UNL A   1      43.576  25.896  35.456  1.00  0.00    -0.203 F 
ATOM     90  C   UNL A   1      45.804  26.177  36.160  1.00  0.00     0.198 A 
ATOM     91  C   UNL A   1      47.139  27.949  35.243  1.00  0.00     0.198 A 
ATOM     92  F   UNL A   1      46.212  29.430  33.671  1.00  0.00    -0.203 F 
ATOM     93  F   UNL A   1      45.668  25.143  37.001  1.00  0.00    -0.200 F 
ATOM     94  C   UNL A   1      47.010  26.861  36.093  1.00  0.00     0.200 A 
ATOM     95  F   UNL A   1      48.308  28.602  35.166  1.00  0.00    -0.200 F 
ATOM     96  F   UNL A   1      48.044  26.474  36.851  1.00  0.00    -0.200 F 
ENDBRANCH  63  86
ENDBRANCH  37  38
ENDBRANCH  30  32
ENDBRANCH  29  30
ENDBRANCH  28  29
ENDBRANCH  27  28
ENDBRANCH  26  27
ENDBRANCH   1  26
TORSDOF 18
ENDMDL
