MODEL 1
REMARK VINA RESULT:      -9.7      0.000      0.000
REMARK SMILES CC[N@@H+](C/C(Cl)=C/Cl)C[C@@H](C)C(=O)OCCOCCOC(=O)c1ccc(-c2c3nc(c(-c4c(F)c(F)c(F)c(F)c4F)c4ccc([nH]4)c(-c4c(F)c(F)c(F)c(F)c4F)c4nc(c(-c5c(F)c(F)c(F)c(F)c5F)c5ccc2[nH]5)C=C4)C=C3)cc1
REMARK SMILES IDX 16 1 15 2 14 3 12 4 13 5 10 6 11 7 9 8 3 9 2 11 1 12 4 13
REMARK SMILES IDX 5 14 6 15 7 16 8 17 17 18 18 19 19 20 20 21 21 22 22 23
REMARK SMILES IDX 23 24 24 25 85 26 25 27 84 28 26 29 27 30 28 31 78 32 29 33
REMARK SMILES IDX 83 34 77 35 79 36 30 37 82 38 76 39 75 40 31 42 63 43 43 44
REMARK SMILES IDX 62 45 44 46 47 47 61 48 80 49 45 50 46 51 60 53 81 54 48 55
REMARK SMILES IDX 32 56 33 57 41 58 34 59 35 60 39 61 42 62 36 63 37 64 40 65
REMARK SMILES IDX 38 66 64 67 65 68 73 69 66 70 67 71 71 72 74 73 68 74 69 75
REMARK SMILES IDX 72 76 70 77 49 78 50 79 58 80 51 81 52 82 56 83 59 84 53 85
REMARK SMILES IDX 54 86 57 87 55 88
REMARK H PARENT 3 10 79 41 47 52
REMARK Flexibility Score: inf
ROOT
ATOM      1  C   UNL A   1      33.232  20.508  25.143  1.00  0.00     0.202 C 
ENDROOT
BRANCH   1   2
ATOM      2  C   UNL A   1      32.342  21.523  24.421  1.00  0.00     0.261 C 
BRANCH   2   3
ATOM      3  O   UNL A   1      33.058  22.674  23.935  1.00  0.00    -0.463 OA
BRANCH   3   4
ATOM      4  C   UNL A   1      32.958  23.785  24.716  1.00  0.00     0.314 C 
ATOM      5  O   UNL A   1      32.059  23.992  25.523  1.00  0.00    -0.252 OA
BRANCH   4   6
ATOM      6  C   UNL A   1      34.036  24.816  24.430  1.00  0.00     0.151 C 
ATOM      7  C   UNL A   1      35.354  24.264  24.958  1.00  0.00     0.026 C 
BRANCH   6   8
ATOM      8  C   UNL A   1      33.664  26.234  24.918  1.00  0.00     0.277 C 
BRANCH   8   9
ATOM      9  N   UNL A   1      32.548  26.962  24.297  1.00  0.00    -0.330 N 
ATOM     10  H   UNL A   1      33.039  27.846  24.161  1.00  0.00     0.348 HD
BRANCH   9  11
ATOM     11  C   UNL A   1      32.191  26.682  22.914  1.00  0.00     0.259 C 
ATOM     12  C   UNL A   1      30.994  27.488  22.419  1.00  0.00     0.071 C 
ENDBRANCH   9  11
BRANCH   9  13
ATOM     13  C   UNL A   1      31.420  27.303  25.175  1.00  0.00     0.312 C 
BRANCH  13  14
ATOM     14  C   UNL A   1      31.506  28.564  25.998  1.00  0.00     0.083 C 
ATOM     15  Cl  UNL A   1      31.503  28.304  27.717  1.00  0.00    -0.082 Cl
ATOM     16  C   UNL A   1      31.586  29.792  25.472  1.00  0.00     0.102 C 
ATOM     17  Cl  UNL A   1      31.638  31.263  26.352  1.00  0.00    -0.091 Cl
ENDBRANCH  13  14
ENDBRANCH   9  13
ENDBRANCH   8   9
ENDBRANCH   6   8
ENDBRANCH   4   6
ENDBRANCH   3   4
ENDBRANCH   2   3
ENDBRANCH   1   2
BRANCH   1  18
ATOM     18  O   UNL A   1      34.555  20.327  24.648  1.00  0.00    -0.374 OA
BRANCH  18  19
ATOM     19  C   UNL A   1      35.631  20.811  25.451  1.00  0.00     0.202 C 
BRANCH  19  20
ATOM     20  C   UNL A   1      37.046  20.405  25.020  1.00  0.00     0.261 C 
BRANCH  20  21
ATOM     21  O   UNL A   1      37.979  21.498  25.115  1.00  0.00    -0.460 OA
BRANCH  21  22
ATOM     22  C   UNL A   1      39.046  21.255  25.911  1.00  0.00     0.338 C 
ATOM     23  O   UNL A   1      39.697  20.222  25.985  1.00  0.00    -0.246 OA
BRANCH  22  24
ATOM     24  C   UNL A   1      39.473  22.479  26.611  1.00  0.00     0.060 A 
ATOM     25  C   UNL A   1      38.882  23.682  26.206  1.00  0.00     0.016 A 
ATOM     26  C   UNL A   1      40.529  22.478  27.525  1.00  0.00     0.016 A 
ATOM     27  C   UNL A   1      39.402  24.897  26.643  1.00  0.00     0.010 A 
ATOM     28  C   UNL A   1      41.056  23.702  27.961  1.00  0.00     0.010 A 
ATOM     29  C   UNL A   1      40.533  24.914  27.472  1.00  0.00    -0.014 A 
BRANCH  29  30
ATOM     30  C   UNL A   1      41.277  26.189  27.615  1.00  0.00     0.031 A 
ATOM     31  C   UNL A   1      40.639  27.313  28.390  1.00  0.00     0.074 A 
ATOM     32  C   UNL A   1      42.534  26.320  27.153  1.00  0.00     0.049 A 
ATOM     33  N   UNL A   1      41.130  28.480  28.723  1.00  0.00    -0.248 NA
ATOM     34  C   UNL A   1      39.261  27.086  28.856  1.00  0.00     0.031 C 
ATOM     35  C   UNL A   1      43.275  25.295  26.423  1.00  0.00     0.029 A 
ATOM     36  N   UNL A   1      43.411  27.371  27.249  1.00  0.00    -0.354 N 
ATOM     37  C   UNL A   1      40.125  29.123  29.436  1.00  0.00     0.074 A 
ATOM     38  C   UNL A   1      38.984  28.233  29.457  1.00  0.00     0.031 C 
ATOM     39  C   UNL A   1      44.503  25.765  26.142  1.00  0.00     0.029 A 
ATOM     40  C   UNL A   1      44.627  27.127  26.661  1.00  0.00     0.049 A 
ATOM     41  H   UNL A   1      43.189  28.220  27.696  1.00  0.00     0.167 HD
ATOM     42  C   UNL A   1      40.152  30.338  30.032  1.00  0.00     0.037 A 
ATOM     43  C   UNL A   1      45.716  27.914  26.561  1.00  0.00     0.037 A 
ATOM     44  C   UNL A   1      41.287  31.222  30.023  1.00  0.00     0.049 A 
ATOM     45  C   UNL A   1      45.707  29.280  27.199  1.00  0.00     0.074 A 
ATOM     46  C   UNL A   1      41.416  32.468  30.610  1.00  0.00     0.029 A 
ATOM     47  N   UNL A   1      42.490  30.949  29.391  1.00  0.00    -0.354 N 
ATOM     48  N   UNL A   1      44.765  29.862  27.898  1.00  0.00    -0.248 NA
ATOM     49  C   UNL A   1      46.924  30.090  27.043  1.00  0.00     0.031 C 
ATOM     50  C   UNL A   1      42.686  32.968  30.299  1.00  0.00     0.029 A 
ATOM     51  C   UNL A   1      43.362  32.012  29.558  1.00  0.00     0.049 A 
ATOM     52  H   UNL A   1      42.694  30.123  28.897  1.00  0.00     0.167 HD
ATOM     53  C   UNL A   1      45.286  31.087  28.298  1.00  0.00     0.074 A 
ATOM     54  C   UNL A   1      46.631  31.162  27.766  1.00  0.00     0.031 C 
ATOM     55  C   UNL A   1      44.705  32.061  29.041  1.00  0.00     0.037 A 
BRANCH  42  56
ATOM     56  C   UNL A   1      38.902  30.791  30.728  1.00  0.00     0.064 A 
ATOM     57  C   UNL A   1      37.832  31.362  30.023  1.00  0.00     0.173 A 
ATOM     58  C   UNL A   1      38.765  30.631  32.115  1.00  0.00     0.173 A 
ATOM     59  F   UNL A   1      37.922  31.551  28.698  1.00  0.00    -0.203 F 
ATOM     60  C   UNL A   1      36.681  31.781  30.687  1.00  0.00     0.198 A 
ATOM     61  C   UNL A   1      37.603  31.028  32.771  1.00  0.00     0.198 A 
ATOM     62  F   UNL A   1      39.760  30.088  32.834  1.00  0.00    -0.203 F 
ATOM     63  F   UNL A   1      35.690  32.367  29.999  1.00  0.00    -0.200 F 
ATOM     64  C   UNL A   1      36.566  31.608  32.058  1.00  0.00     0.200 A 
ATOM     65  F   UNL A   1      37.490  30.851  34.094  1.00  0.00    -0.200 F 
ATOM     66  F   UNL A   1      35.457  32.009  32.694  1.00  0.00    -0.200 F 
ENDBRANCH  42  56
BRANCH  43  67
ATOM     67  C   UNL A   1      46.922  27.425  25.844  1.00  0.00     0.064 A 
ATOM     68  C   UNL A   1      47.924  26.713  26.517  1.00  0.00     0.173 A 
ATOM     69  C   UNL A   1      47.107  27.680  24.477  1.00  0.00     0.173 A 
ATOM     70  F   UNL A   1      47.804  26.467  27.830  1.00  0.00    -0.203 F 
ATOM     71  C   UNL A   1      49.076  26.292  25.854  1.00  0.00     0.198 A 
ATOM     72  C   UNL A   1      48.246  27.237  23.810  1.00  0.00     0.198 A 
ATOM     73  F   UNL A   1      46.177  28.360  23.790  1.00  0.00    -0.203 F 
ATOM     74  F   UNL A   1      50.040  25.654  26.530  1.00  0.00    -0.200 F 
ATOM     75  C   UNL A   1      49.233  26.550  24.501  1.00  0.00     0.200 A 
ATOM     76  F   UNL A   1      48.390  27.480  22.501  1.00  0.00    -0.200 F 
ATOM     77  F   UNL A   1      50.340  26.145  23.863  1.00  0.00    -0.200 F 
ENDBRANCH  43  67
BRANCH  55  78
ATOM     78  C   UNL A   1      45.536  33.267  29.370  1.00  0.00     0.064 A 
ATOM     79  C   UNL A   1      46.356  33.312  30.506  1.00  0.00     0.173 A 
ATOM     80  C   UNL A   1      45.536  34.379  28.515  1.00  0.00     0.173 A 
ATOM     81  F   UNL A   1      46.381  32.278  31.361  1.00  0.00    -0.203 F 
ATOM     82  C   UNL A   1      47.124  34.437  30.790  1.00  0.00     0.198 A 
ATOM     83  C   UNL A   1      46.325  35.493  28.787  1.00  0.00     0.198 A 
ATOM     84  F   UNL A   1      44.775  34.383  27.409  1.00  0.00    -0.203 F 
ATOM     85  F   UNL A   1      47.863  34.479  31.907  1.00  0.00    -0.200 F 
ATOM     86  C   UNL A   1      47.112  35.525  29.928  1.00  0.00     0.200 A 
ATOM     87  F   UNL A   1      46.323  36.536  27.946  1.00  0.00    -0.200 F 
ATOM     88  F   UNL A   1      47.854  36.607  30.202  1.00  0.00    -0.200 F 
ENDBRANCH  55  78
ENDBRANCH  29  30
ENDBRANCH  22  24
ENDBRANCH  21  22
ENDBRANCH  20  21
ENDBRANCH  19  20
ENDBRANCH  18  19
ENDBRANCH   1  18
TORSDOF 19
ENDMDL
MODEL 2
REMARK VINA RESULT:      -9.7      1.173      7.587
REMARK SMILES CC[N@@H+](C/C(Cl)=C/Cl)C[C@@H](C)C(=O)OCCOCCOC(=O)c1ccc(-c2c3nc(c(-c4c(F)c(F)c(F)c(F)c4F)c4ccc([nH]4)c(-c4c(F)c(F)c(F)c(F)c4F)c4nc(c(-c5c(F)c(F)c(F)c(F)c5F)c5ccc2[nH]5)C=C4)C=C3)cc1
REMARK SMILES IDX 16 1 15 2 14 3 12 4 13 5 10 6 11 7 9 8 3 9 2 11 1 12 4 13
REMARK SMILES IDX 5 14 6 15 7 16 8 17 17 18 18 19 19 20 20 21 21 22 22 23
REMARK SMILES IDX 23 24 24 25 85 26 25 27 84 28 26 29 27 30 28 31 78 32 29 33
REMARK SMILES IDX 83 34 77 35 79 36 30 37 82 38 76 39 75 40 31 42 63 43 43 44
REMARK SMILES IDX 62 45 44 46 47 47 61 48 80 49 45 50 46 51 60 53 81 54 48 55
REMARK SMILES IDX 32 56 33 57 41 58 34 59 35 60 39 61 42 62 36 63 37 64 40 65
REMARK SMILES IDX 38 66 64 67 65 68 73 69 66 70 67 71 71 72 74 73 68 74 69 75
REMARK SMILES IDX 72 76 70 77 49 78 50 79 58 80 51 81 52 82 56 83 59 84 53 85
REMARK SMILES IDX 54 86 57 87 55 88
REMARK H PARENT 3 10 79 41 47 52
REMARK Flexibility Score: inf
ROOT
ATOM      1  C   UNL A   1      34.417  20.746  25.252  1.00  0.00     0.202 C 
ENDROOT
BRANCH   1   2
ATOM      2  C   UNL A   1      34.000  21.766  26.316  1.00  0.00     0.261 C 
BRANCH   2   3
ATOM      3  O   UNL A   1      33.522  23.008  25.766  1.00  0.00    -0.463 OA
BRANCH   3   4
ATOM      4  C   UNL A   1      32.179  23.207  25.878  1.00  0.00     0.314 C 
ATOM      5  O   UNL A   1      31.522  22.978  26.887  1.00  0.00    -0.252 OA
BRANCH   4   6
ATOM      6  C   UNL A   1      31.532  23.666  24.583  1.00  0.00     0.151 C 
ATOM      7  C   UNL A   1      32.633  23.803  23.540  1.00  0.00     0.026 C 
BRANCH   6   8
ATOM      8  C   UNL A   1      30.627  24.906  24.764  1.00  0.00     0.277 C 
BRANCH   8   9
ATOM      9  N   UNL A   1      31.196  26.258  24.665  1.00  0.00    -0.330 N 
ATOM     10  H   UNL A   1      32.142  25.975  24.410  1.00  0.00     0.348 HD
BRANCH   9  11
ATOM     11  C   UNL A   1      30.884  27.084  23.508  1.00  0.00     0.259 C 
ATOM     12  C   UNL A   1      29.449  27.599  23.496  1.00  0.00     0.071 C 
ENDBRANCH   9  11
BRANCH   9  13
ATOM     13  C   UNL A   1      31.362  26.992  25.927  1.00  0.00     0.312 C 
BRANCH  13  14
ATOM     14  C   UNL A   1      32.746  27.453  26.313  1.00  0.00     0.083 C 
ATOM     15  Cl  UNL A   1      34.031  26.431  25.742  1.00  0.00    -0.082 Cl
ATOM     16  C   UNL A   1      32.989  28.558  27.029  1.00  0.00     0.102 C 
ATOM     17  Cl  UNL A   1      34.532  29.108  27.538  1.00  0.00    -0.091 Cl
ENDBRANCH  13  14
ENDBRANCH   9  13
ENDBRANCH   8   9
ENDBRANCH   6   8
ENDBRANCH   4   6
ENDBRANCH   3   4
ENDBRANCH   2   3
ENDBRANCH   1   2
BRANCH   1  18
ATOM     18  O   UNL A   1      35.744  20.836  24.742  1.00  0.00    -0.374 OA
BRANCH  18  19
ATOM     19  C   UNL A   1      36.624  19.743  25.000  1.00  0.00     0.202 C 
BRANCH  19  20
ATOM     20  C   UNL A   1      38.116  19.989  24.748  1.00  0.00     0.261 C 
BRANCH  20  21
ATOM     21  O   UNL A   1      38.584  21.195  25.382  1.00  0.00    -0.460 OA
BRANCH  21  22
ATOM     22  C   UNL A   1      39.732  21.049  26.084  1.00  0.00     0.338 C 
ATOM     23  O   UNL A   1      40.543  20.137  25.999  1.00  0.00    -0.246 OA
BRANCH  22  24
ATOM     24  C   UNL A   1      40.010  22.246  26.897  1.00  0.00     0.060 A 
ATOM     25  C   UNL A   1      39.257  23.393  26.619  1.00  0.00     0.016 A 
ATOM     26  C   UNL A   1      41.077  22.297  27.797  1.00  0.00     0.016 A 
ATOM     27  C   UNL A   1      39.622  24.617  27.170  1.00  0.00     0.010 A 
ATOM     28  C   UNL A   1      41.448  23.531  28.347  1.00  0.00     0.010 A 
ATOM     29  C   UNL A   1      40.759  24.704  27.986  1.00  0.00    -0.014 A 
BRANCH  29  30
ATOM     30  C   UNL A   1      41.332  26.048  28.248  1.00  0.00     0.031 A 
ATOM     31  C   UNL A   1      42.704  26.364  27.709  1.00  0.00     0.074 A 
ATOM     32  C   UNL A   1      40.617  27.004  28.866  1.00  0.00     0.049 A 
ATOM     33  N   UNL A   1      43.370  27.490  27.732  1.00  0.00    -0.248 NA
ATOM     34  C   UNL A   1      43.417  25.257  27.049  1.00  0.00     0.031 C 
ATOM     35  C   UNL A   1      39.267  26.836  29.399  1.00  0.00     0.029 A 
ATOM     36  N   UNL A   1      40.928  28.314  29.133  1.00  0.00    -0.354 N 
ATOM     37  C   UNL A   1      44.575  27.229  27.092  1.00  0.00     0.074 A 
ATOM     38  C   UNL A   1      44.566  25.830  26.723  1.00  0.00     0.031 C 
ATOM     39  C   UNL A   1      38.860  28.006  29.925  1.00  0.00     0.029 A 
ATOM     40  C   UNL A   1      39.925  28.997  29.775  1.00  0.00     0.049 A 
ATOM     41  H   UNL A   1      41.788  28.725  28.888  1.00  0.00     0.167 HD
ATOM     42  C   UNL A   1      45.594  28.079  26.821  1.00  0.00     0.037 A 
ATOM     43  C   UNL A   1      39.875  30.278  30.189  1.00  0.00     0.037 A 
ATOM     44  C   UNL A   1      45.604  29.473  27.176  1.00  0.00     0.049 A 
ATOM     45  C   UNL A   1      41.039  31.194  29.913  1.00  0.00     0.074 A 
ATOM     46  C   UNL A   1      46.584  30.419  26.935  1.00  0.00     0.029 A 
ATOM     47  N   UNL A   1      44.580  30.119  27.853  1.00  0.00    -0.354 N 
ATOM     48  N   UNL A   1      42.158  30.946  29.277  1.00  0.00    -0.248 NA
ATOM     49  C   UNL A   1      40.922  32.577  30.400  1.00  0.00     0.031 C 
ATOM     50  C   UNL A   1      46.171  31.631  27.501  1.00  0.00     0.029 A 
ATOM     51  C   UNL A   1      44.913  31.448  28.053  1.00  0.00     0.049 A 
ATOM     52  H   UNL A   1      43.743  29.695  28.148  1.00  0.00     0.167 HD
ATOM     53  C   UNL A   1      42.859  32.145  29.254  1.00  0.00     0.074 A 
ATOM     54  C   UNL A   1      42.037  33.123  29.936  1.00  0.00     0.031 C 
ATOM     55  C   UNL A   1      44.074  32.414  28.715  1.00  0.00     0.037 A 
BRANCH  42  56
ATOM     56  C   UNL A   1      46.796  27.514  26.123  1.00  0.00     0.064 A 
ATOM     57  C   UNL A   1      46.957  27.616  24.734  1.00  0.00     0.173 A 
ATOM     58  C   UNL A   1      47.810  26.881  26.858  1.00  0.00     0.173 A 
ATOM     59  F   UNL A   1      46.007  28.198  23.986  1.00  0.00    -0.203 F 
ATOM     60  C   UNL A   1      48.077  27.082  24.102  1.00  0.00     0.198 A 
ATOM     61  C   UNL A   1      48.940  26.370  26.227  1.00  0.00     0.198 A 
ATOM     62  F   UNL A   1      47.704  26.760  28.191  1.00  0.00    -0.203 F 
ATOM     63  F   UNL A   1      48.189  27.150  22.768  1.00  0.00    -0.200 F 
ATOM     64  C   UNL A   1      49.070  26.465  24.849  1.00  0.00     0.200 A 
ATOM     65  F   UNL A   1      49.902  25.783  26.951  1.00  0.00    -0.200 F 
ATOM     66  F   UNL A   1      50.149  25.954  24.241  1.00  0.00    -0.200 F 
ENDBRANCH  42  56
BRANCH  43  67
ATOM     67  C   UNL A   1      38.668  30.783  30.894  1.00  0.00     0.064 A 
ATOM     68  C   UNL A   1      38.600  30.794  32.294  1.00  0.00     0.173 A 
ATOM     69  C   UNL A   1      37.551  31.242  30.181  1.00  0.00     0.173 A 
ATOM     70  F   UNL A   1      39.634  30.340  33.018  1.00  0.00    -0.203 F 
ATOM     71  C   UNL A   1      37.452  31.227  32.955  1.00  0.00     0.198 A 
ATOM     72  C   UNL A   1      36.413  31.698  30.843  1.00  0.00     0.198 A 
ATOM     73  F   UNL A   1      37.566  31.248  28.840  1.00  0.00    -0.203 F 
ATOM     74  F   UNL A   1      37.395  31.185  34.292  1.00  0.00    -0.200 F 
ATOM     75  C   UNL A   1      36.362  31.684  32.229  1.00  0.00     0.200 A 
ATOM     76  F   UNL A   1      35.366  32.147  30.139  1.00  0.00    -0.200 F 
ATOM     77  F   UNL A   1      35.258  32.101  32.864  1.00  0.00    -0.200 F 
ENDBRANCH  43  67
BRANCH  55  78
ATOM     78  C   UNL A   1      44.565  33.830  28.790  1.00  0.00     0.064 A 
ATOM     79  C   UNL A   1      44.255  34.773  27.800  1.00  0.00     0.173 A 
ATOM     80  C   UNL A   1      45.328  34.255  29.888  1.00  0.00     0.173 A 
ATOM     81  F   UNL A   1      43.539  34.411  26.725  1.00  0.00    -0.203 F 
ATOM     82  C   UNL A   1      44.716  36.083  27.892  1.00  0.00     0.198 A 
ATOM     83  C   UNL A   1      45.764  35.573  29.991  1.00  0.00     0.198 A 
ATOM     84  F   UNL A   1      45.644  33.393  30.867  1.00  0.00    -0.203 F 
ATOM     85  F   UNL A   1      44.449  36.956  26.911  1.00  0.00    -0.200 F 
ATOM     86  C   UNL A   1      45.465  36.484  28.990  1.00  0.00     0.200 A 
ATOM     87  F   UNL A   1      46.476  35.962  31.057  1.00  0.00    -0.200 F 
ATOM     88  F   UNL A   1      45.906  37.747  29.077  1.00  0.00    -0.200 F 
ENDBRANCH  55  78
ENDBRANCH  29  30
ENDBRANCH  22  24
ENDBRANCH  21  22
ENDBRANCH  20  21
ENDBRANCH  19  20
ENDBRANCH  18  19
ENDBRANCH   1  18
TORSDOF 19
ENDMDL
MODEL 3
REMARK VINA RESULT:      -9.7      1.182      7.564
REMARK SMILES CC[N@@H+](C/C(Cl)=C/Cl)C[C@@H](C)C(=O)OCCOCCOC(=O)c1ccc(-c2c3nc(c(-c4c(F)c(F)c(F)c(F)c4F)c4ccc([nH]4)c(-c4c(F)c(F)c(F)c(F)c4F)c4nc(c(-c5c(F)c(F)c(F)c(F)c5F)c5ccc2[nH]5)C=C4)C=C3)cc1
REMARK SMILES IDX 16 1 15 2 14 3 12 4 13 5 10 6 11 7 9 8 3 9 2 11 1 12 4 13
REMARK SMILES IDX 5 14 6 15 7 16 8 17 17 18 18 19 19 20 20 21 21 22 22 23
REMARK SMILES IDX 23 24 24 25 85 26 25 27 84 28 26 29 27 30 28 31 78 32 29 33
REMARK SMILES IDX 83 34 77 35 79 36 30 37 82 38 76 39 75 40 31 42 63 43 43 44
REMARK SMILES IDX 62 45 44 46 47 47 61 48 80 49 45 50 46 51 60 53 81 54 48 55
REMARK SMILES IDX 32 56 33 57 41 58 34 59 35 60 39 61 42 62 36 63 37 64 40 65
REMARK SMILES IDX 38 66 64 67 65 68 73 69 66 70 67 71 71 72 74 73 68 74 69 75
REMARK SMILES IDX 72 76 70 77 49 78 50 79 58 80 51 81 52 82 56 83 59 84 53 85
REMARK SMILES IDX 54 86 57 87 55 88
REMARK H PARENT 3 10 79 41 47 52
REMARK Flexibility Score: inf
ROOT
ATOM      1  C   UNL A   1      34.415  21.799  25.117  1.00  0.00     0.202 C 
ENDROOT
BRANCH   1   2
ATOM      2  C   UNL A   1      33.921  23.245  25.018  1.00  0.00     0.261 C 
BRANCH   2   3
ATOM      3  O   UNL A   1      32.719  23.496  25.770  1.00  0.00    -0.463 OA
BRANCH   3   4
ATOM      4  C   UNL A   1      32.033  24.614  25.405  1.00  0.00     0.314 C 
ATOM      5  O   UNL A   1      31.276  24.685  24.443  1.00  0.00    -0.252 OA
BRANCH   4   6
ATOM      6  C   UNL A   1      32.364  25.825  26.259  1.00  0.00     0.151 C 
ATOM      7  C   UNL A   1      31.068  26.589  26.498  1.00  0.00     0.026 C 
BRANCH   6   8
ATOM      8  C   UNL A   1      33.537  26.661  25.699  1.00  0.00     0.277 C 
BRANCH   8   9
ATOM      9  N   UNL A   1      33.541  28.124  25.847  1.00  0.00    -0.330 N 
ATOM     10  H   UNL A   1      32.657  28.198  26.351  1.00  0.00     0.348 HD
BRANCH   9  11
ATOM     11  C   UNL A   1      34.418  28.743  26.830  1.00  0.00     0.259 C 
ATOM     12  C   UNL A   1      33.970  30.139  27.251  1.00  0.00     0.071 C 
ENDBRANCH   9  11
BRANCH   9  13
ATOM     13  C   UNL A   1      33.329  28.905  24.621  1.00  0.00     0.312 C 
BRANCH  13  14
ATOM     14  C   UNL A   1      31.933  28.988  24.054  1.00  0.00     0.083 C 
ATOM     15  Cl  UNL A   1      30.938  30.223  24.768  1.00  0.00    -0.082 Cl
ATOM     16  C   UNL A   1      31.477  28.193  23.079  1.00  0.00     0.102 C 
ATOM     17  Cl  UNL A   1      29.891  28.207  22.427  1.00  0.00    -0.091 Cl
ENDBRANCH  13  14
ENDBRANCH   9  13
ENDBRANCH   8   9
ENDBRANCH   6   8
ENDBRANCH   4   6
ENDBRANCH   3   4
ENDBRANCH   2   3
ENDBRANCH   1   2
BRANCH   1  18
ATOM     18  O   UNL A   1      35.746  21.530  24.690  1.00  0.00    -0.374 OA
BRANCH  18  19
ATOM     19  C   UNL A   1      36.293  20.250  25.004  1.00  0.00     0.202 C 
BRANCH  19  20
ATOM     20  C   UNL A   1      37.822  20.134  24.989  1.00  0.00     0.261 C 
BRANCH  20  21
ATOM     21  O   UNL A   1      38.466  21.361  25.386  1.00  0.00    -0.460 OA
BRANCH  21  22
ATOM     22  C   UNL A   1      39.601  21.189  26.102  1.00  0.00     0.338 C 
ATOM     23  O   UNL A   1      40.392  20.259  26.029  1.00  0.00    -0.246 OA
BRANCH  22  24
ATOM     24  C   UNL A   1      39.896  22.381  26.918  1.00  0.00     0.060 A 
ATOM     25  C   UNL A   1      39.177  23.546  26.625  1.00  0.00     0.016 A 
ATOM     26  C   UNL A   1      40.948  22.406  27.836  1.00  0.00     0.016 A 
ATOM     27  C   UNL A   1      39.564  24.762  27.180  1.00  0.00     0.010 A 
ATOM     28  C   UNL A   1      41.342  23.632  28.389  1.00  0.00     0.010 A 
ATOM     29  C   UNL A   1      40.689  24.822  28.015  1.00  0.00    -0.014 A 
BRANCH  29  30
ATOM     30  C   UNL A   1      41.292  26.151  28.284  1.00  0.00     0.031 A 
ATOM     31  C   UNL A   1      42.671  26.438  27.748  1.00  0.00     0.074 A 
ATOM     32  C   UNL A   1      40.597  27.120  28.905  1.00  0.00     0.049 A 
ATOM     33  N   UNL A   1      43.363  27.549  27.777  1.00  0.00    -0.248 NA
ATOM     34  C   UNL A   1      43.361  25.319  27.084  1.00  0.00     0.031 C 
ATOM     35  C   UNL A   1      39.244  26.980  29.435  1.00  0.00     0.029 A 
ATOM     36  N   UNL A   1      40.938  28.421  29.178  1.00  0.00    -0.354 N 
ATOM     37  C   UNL A   1      44.563  27.264  27.138  1.00  0.00     0.074 A 
ATOM     38  C   UNL A   1      44.523  25.867  26.762  1.00  0.00     0.031 C 
ATOM     39  C   UNL A   1      38.862  28.156  29.964  1.00  0.00     0.029 A 
ATOM     40  C   UNL A   1      39.949  29.124  29.821  1.00  0.00     0.049 A 
ATOM     41  H   UNL A   1      41.807  28.814  28.936  1.00  0.00     0.167 HD
ATOM     42  C   UNL A   1      45.601  28.092  26.873  1.00  0.00     0.037 A 
ATOM     43  C   UNL A   1      39.927  30.404  30.241  1.00  0.00     0.037 A 
ATOM     44  C   UNL A   1      45.642  29.484  27.234  1.00  0.00     0.049 A 
ATOM     45  C   UNL A   1      41.112  31.295  29.970  1.00  0.00     0.074 A 
ATOM     46  C   UNL A   1      46.644  30.408  26.998  1.00  0.00     0.029 A 
ATOM     47  N   UNL A   1      44.632  30.149  27.912  1.00  0.00    -0.354 N 
ATOM     48  N   UNL A   1      42.226  31.025  29.336  1.00  0.00    -0.248 NA
ATOM     49  C   UNL A   1      41.025  32.677  30.464  1.00  0.00     0.031 C 
ATOM     50  C   UNL A   1      46.257  31.627  27.569  1.00  0.00     0.029 A 
ATOM     51  C   UNL A   1      44.994  31.470  28.119  1.00  0.00     0.049 A 
ATOM     52  H   UNL A   1      43.784  29.743  28.203  1.00  0.00     0.167 HD
ATOM     53  C   UNL A   1      42.954  32.207  29.319  1.00  0.00     0.074 A 
ATOM     54  C   UNL A   1      42.153  33.201  30.004  1.00  0.00     0.031 C 
ATOM     55  C   UNL A   1      44.176  32.451  28.783  1.00  0.00     0.037 A 
BRANCH  42  56
ATOM     56  C   UNL A   1      46.791  27.503  26.175  1.00  0.00     0.064 A 
ATOM     57  C   UNL A   1      46.954  27.602  24.785  1.00  0.00     0.173 A 
ATOM     58  C   UNL A   1      47.792  26.849  26.909  1.00  0.00     0.173 A 
ATOM     59  F   UNL A   1      46.016  28.203  24.037  1.00  0.00    -0.203 F 
ATOM     60  C   UNL A   1      48.063  27.045  24.153  1.00  0.00     0.198 A 
ATOM     61  C   UNL A   1      48.912  26.316  26.277  1.00  0.00     0.198 A 
ATOM     62  F   UNL A   1      47.684  26.730  28.241  1.00  0.00    -0.203 F 
ATOM     63  F   UNL A   1      48.176  27.112  22.818  1.00  0.00    -0.200 F 
ATOM     64  C   UNL A   1      49.043  26.408  24.900  1.00  0.00     0.200 A 
ATOM     65  F   UNL A   1      49.862  25.710  27.001  1.00  0.00    -0.200 F 
ATOM     66  F   UNL A   1      50.112  25.876  24.291  1.00  0.00    -0.200 F 
ENDBRANCH  42  56
BRANCH  43  67
ATOM     67  C   UNL A   1      38.731  30.933  30.946  1.00  0.00     0.064 A 
ATOM     68  C   UNL A   1      38.632  30.880  32.343  1.00  0.00     0.173 A 
ATOM     69  C   UNL A   1      37.653  31.480  30.235  1.00  0.00     0.173 A 
ATOM     70  F   UNL A   1      39.627  30.342  33.064  1.00  0.00    -0.203 F 
ATOM     71  C   UNL A   1      37.492  31.337  33.001  1.00  0.00     0.198 A 
ATOM     72  C   UNL A   1      36.524  31.959  30.895  1.00  0.00     0.198 A 
ATOM     73  F   UNL A   1      37.698  31.550  28.896  1.00  0.00    -0.203 F 
ATOM     74  F   UNL A   1      37.404  31.233  34.334  1.00  0.00    -0.200 F 
ATOM     75  C   UNL A   1      36.442  31.881  32.278  1.00  0.00     0.200 A 
ATOM     76  F   UNL A   1      35.515  32.491  30.194  1.00  0.00    -0.200 F 
ATOM     77  F   UNL A   1      35.345  32.320  32.910  1.00  0.00    -0.200 F 
ENDBRANCH  43  67
BRANCH  55  78
ATOM     78  C   UNL A   1      44.699  33.856  28.866  1.00  0.00     0.064 A 
ATOM     79  C   UNL A   1      45.508  34.281  29.929  1.00  0.00     0.173 A 
ATOM     80  C   UNL A   1      44.412  34.777  27.848  1.00  0.00     0.173 A 
ATOM     81  F   UNL A   1      45.800  33.440  30.933  1.00  0.00    -0.203 F 
ATOM     82  C   UNL A   1      45.988  35.586  29.984  1.00  0.00     0.198 A 
ATOM     83  C   UNL A   1      44.915  36.074  27.892  1.00  0.00     0.198 A 
ATOM     84  F   UNL A   1      43.649  34.417  26.804  1.00  0.00    -0.203 F 
ATOM     85  F   UNL A   1      46.719  35.986  31.033  1.00  0.00    -0.200 F 
ATOM     86  C   UNL A   1      45.696  36.480  28.963  1.00  0.00     0.200 A 
ATOM     87  F   UNL A   1      44.644  36.932  26.899  1.00  0.00    -0.200 F 
ATOM     88  F   UNL A   1      46.161  37.736  29.017  1.00  0.00    -0.200 F 
ENDBRANCH  55  78
ENDBRANCH  29  30
ENDBRANCH  22  24
ENDBRANCH  21  22
ENDBRANCH  20  21
ENDBRANCH  19  20
ENDBRANCH  18  19
ENDBRANCH   1  18
TORSDOF 19
ENDMDL
