MODEL 1
REMARK VINA RESULT:     -11.5      0.000      0.000
REMARK SMILES C[C@@H]1C(=O)NC(=O)CN1C(=O)NC1(CC(=O)OCCOCCOC(=O)c2ccc(-c3c4nc(c(-c5c(F)c(F)c(F)c(F)c5F)c5ccc([nH]5)c(-c5c(F)c(F)c(F)c(F)c5F)c5nc(c(-c6c(F)c(F)c(F)c(F)c6F)c6ccc3[nH]6)C=C5)C=C4)cc2)CCC1
REMARK SMILES IDX 19 1 18 2 17 3 15 4 16 5 14 6 13 7 89 8 91 9 90 10 12 11
REMARK SMILES IDX 10 12 11 13 9 15 1 16 2 17 3 18 4 19 5 20 8 21 6 22 7 24
REMARK SMILES IDX 20 25 21 26 22 27 23 28 24 29 25 30 26 31 27 32 88 33 28 34
REMARK SMILES IDX 87 35 29 36 30 37 31 38 81 39 32 40 86 41 80 42 82 43 33 44
REMARK SMILES IDX 85 45 79 46 78 47 34 49 66 50 46 51 65 52 47 53 50 54 64 55
REMARK SMILES IDX 83 56 48 57 49 58 63 60 84 61 51 62 35 63 36 64 44 65 37 66
REMARK SMILES IDX 38 67 42 68 45 69 39 70 40 71 43 72 41 73 67 74 68 75 76 76
REMARK SMILES IDX 69 77 70 78 74 79 77 80 71 81 72 82 75 83 73 84 52 85 53 86
REMARK SMILES IDX 61 87 54 88 55 89 59 90 62 91 56 92 57 93 60 94 58 95
REMARK H PARENT 12 14 5 23 82 48 50 59
REMARK Flexibility Score: inf
ROOT
ATOM      1  C   UNL A   1      34.232  19.120  24.602  1.00  0.00     0.202 C 
ENDROOT
BRANCH   1   2
ATOM      2  C   UNL A   1      33.644  20.517  24.850  1.00  0.00     0.261 C 
BRANCH   2   3
ATOM      3  O   UNL A   1      32.648  20.917  23.893  1.00  0.00    -0.463 OA
BRANCH   3   4
ATOM      4  C   UNL A   1      32.823  22.164  23.384  1.00  0.00     0.308 C 
ATOM      5  O   UNL A   1      32.724  22.454  22.196  1.00  0.00    -0.252 OA
BRANCH   4   6
ATOM      6  C   UNL A   1      33.081  23.229  24.417  1.00  0.00     0.151 C 
BRANCH   6   7
ATOM      7  C   UNL A   1      34.164  24.311  24.151  1.00  0.00     0.052 C 
ATOM      8  C   UNL A   1      35.556  23.631  23.896  1.00  0.00     0.029 C 
ATOM      9  C   UNL A   1      34.784  24.856  25.466  1.00  0.00     0.029 C 
ATOM     10  C   UNL A   1      35.826  23.715  25.404  1.00  0.00     0.005 C 
BRANCH   7  11
ATOM     11  N   UNL A   1      33.779  25.039  22.916  1.00  0.00    -0.332 N 
ATOM     12  C   UNL A   1      33.028  25.971  22.323  1.00  0.00     0.318 C 
ATOM     13  O   UNL A   1      33.171  25.974  21.091  1.00  0.00    -0.249 OA
ATOM     14  H   UNL A   1      34.336  24.655  22.201  1.00  0.00     0.165 HD
BRANCH  12  15
ATOM     15  N   UNL A   1      32.200  26.861  22.909  1.00  0.00    -0.304 N 
ATOM     16  C   UNL A   1      31.324  26.571  25.194  1.00  0.00     0.042 C 
ATOM     17  C   UNL A   1      32.272  27.339  24.275  1.00  0.00     0.174 C 
ATOM     18  C   UNL A   1      31.995  28.836  24.423  1.00  0.00     0.249 C 
ATOM     19  O   UNL A   1      32.351  29.471  25.414  1.00  0.00    -0.272 OA
ATOM     20  N   UNL A   1      31.151  29.400  23.508  1.00  0.00    -0.293 N 
ATOM     21  C   UNL A   1      31.115  27.395  22.075  1.00  0.00     0.222 C 
ATOM     22  C   UNL A   1      30.551  28.754  22.465  1.00  0.00     0.246 C 
ATOM     23  H   UNL A   1      30.958  30.360  23.611  1.00  0.00     0.173 HD
ATOM     24  O   UNL A   1      29.596  29.264  21.883  1.00  0.00    -0.273 OA
ENDBRANCH  12  15
ENDBRANCH   7  11
ENDBRANCH   6   7
ENDBRANCH   4   6
ENDBRANCH   3   4
ENDBRANCH   2   3
ENDBRANCH   1   2
BRANCH   1  25
ATOM     25  O   UNL A   1      35.633  18.964  24.804  1.00  0.00    -0.374 OA
BRANCH  25  26
ATOM     26  C   UNL A   1      36.413  20.160  24.924  1.00  0.00     0.202 C 
BRANCH  26  27
ATOM     27  C   UNL A   1      37.927  19.961  25.044  1.00  0.00     0.261 C 
BRANCH  27  28
ATOM     28  O   UNL A   1      38.577  21.202  25.383  1.00  0.00    -0.460 OA
BRANCH  28  29
ATOM     29  C   UNL A   1      39.600  21.068  26.254  1.00  0.00     0.338 C 
ATOM     30  O   UNL A   1      40.206  20.049  26.547  1.00  0.00    -0.246 OA
BRANCH  29  31
ATOM     31  C   UNL A   1      39.974  22.398  26.755  1.00  0.00     0.060 A 
ATOM     32  C   UNL A   1      39.336  23.529  26.239  1.00  0.00     0.016 A 
ATOM     33  C   UNL A   1      41.020  22.530  27.666  1.00  0.00     0.016 A 
ATOM     34  C   UNL A   1      39.771  24.801  26.618  1.00  0.00     0.010 A 
ATOM     35  C   UNL A   1      41.414  23.798  28.089  1.00  0.00     0.010 A 
ATOM     36  C   UNL A   1      40.826  24.945  27.534  1.00  0.00    -0.014 A 
BRANCH  36  37
ATOM     37  C   UNL A   1      41.423  26.274  27.820  1.00  0.00     0.031 A 
ATOM     38  C   UNL A   1      42.830  26.560  27.365  1.00  0.00     0.074 A 
ATOM     39  C   UNL A   1      40.734  27.201  28.510  1.00  0.00     0.049 A 
ATOM     40  N   UNL A   1      43.572  27.619  27.570  1.00  0.00    -0.248 NA
ATOM     41  C   UNL A   1      43.503  25.499  26.595  1.00  0.00     0.031 C 
ATOM     42  C   UNL A   1      39.378  27.033  29.032  1.00  0.00     0.029 A 
ATOM     43  N   UNL A   1      41.091  28.466  28.906  1.00  0.00    -0.354 N 
ATOM     44  C   UNL A   1      44.796  27.346  26.969  1.00  0.00     0.074 A 
ATOM     45  C   UNL A   1      44.718  26.003  26.438  1.00  0.00     0.031 C 
ATOM     46  C   UNL A   1      39.017  28.154  29.680  1.00  0.00     0.029 A 
ATOM     47  C   UNL A   1      40.123  29.107  29.640  1.00  0.00     0.049 A 
ATOM     48  H   UNL A   1      41.959  28.875  28.685  1.00  0.00     0.167 HD
ATOM     49  C   UNL A   1      45.877  28.151  26.845  1.00  0.00     0.037 A 
ATOM     50  C   UNL A   1      40.136  30.323  30.221  1.00  0.00     0.037 A 
ATOM     51  C   UNL A   1      45.943  29.497  27.345  1.00  0.00     0.049 A 
ATOM     52  C   UNL A   1      41.354  31.197  30.074  1.00  0.00     0.074 A 
ATOM     53  C   UNL A   1      46.971  30.414  27.223  1.00  0.00     0.029 A 
ATOM     54  N   UNL A   1      44.933  30.119  28.062  1.00  0.00    -0.354 N 
ATOM     55  N   UNL A   1      42.481  30.950  29.451  1.00  0.00    -0.248 NA
ATOM     56  C   UNL A   1      41.297  32.525  30.702  1.00  0.00     0.031 C 
ATOM     57  C   UNL A   1      46.597  31.581  27.896  1.00  0.00     0.029 A 
ATOM     58  C   UNL A   1      45.319  31.404  28.403  1.00  0.00     0.049 A 
ATOM     59  H   UNL A   1      44.069  29.708  28.293  1.00  0.00     0.167 HD
ATOM     60  C   UNL A   1      43.256  32.092  29.595  1.00  0.00     0.074 A 
ATOM     61  C   UNL A   1      42.464  33.044  30.347  1.00  0.00     0.031 C 
ATOM     62  C   UNL A   1      44.512  32.334  29.147  1.00  0.00     0.037 A 
BRANCH  49  63
ATOM     63  C   UNL A   1      47.074  27.603  26.124  1.00  0.00     0.064 A 
ATOM     64  C   UNL A   1      47.209  27.726  24.733  1.00  0.00     0.173 A 
ATOM     65  C   UNL A   1      48.120  26.995  26.834  1.00  0.00     0.173 A 
ATOM     66  F   UNL A   1      46.231  28.288  24.007  1.00  0.00    -0.203 F 
ATOM     67  C   UNL A   1      48.338  27.243  24.077  1.00  0.00     0.198 A 
ATOM     68  C   UNL A   1      49.259  26.536  26.178  1.00  0.00     0.198 A 
ATOM     69  F   UNL A   1      48.042  26.857  28.166  1.00  0.00    -0.203 F 
ATOM     70  F   UNL A   1      48.428  27.338  22.743  1.00  0.00    -0.200 F 
ATOM     71  C   UNL A   1      49.365  26.656  24.801  1.00  0.00     0.200 A 
ATOM     72  F   UNL A   1      50.257  25.980  26.879  1.00  0.00    -0.200 F 
ATOM     73  F   UNL A   1      50.457  26.203  24.169  1.00  0.00    -0.200 F 
ENDBRANCH  49  63
BRANCH  50  74
ATOM     74  C   UNL A   1      38.955  30.792  30.991  1.00  0.00     0.064 A 
ATOM     75  C   UNL A   1      38.878  30.604  32.378  1.00  0.00     0.173 A 
ATOM     76  C   UNL A   1      37.876  31.421  30.357  1.00  0.00     0.173 A 
ATOM     77  F   UNL A   1      39.876  29.986  33.027  1.00  0.00    -0.203 F 
ATOM     78  C   UNL A   1      37.755  31.009  33.098  1.00  0.00     0.198 A 
ATOM     79  C   UNL A   1      36.765  31.850  31.081  1.00  0.00     0.198 A 
ATOM     80  F   UNL A   1      37.902  31.627  29.032  1.00  0.00    -0.203 F 
ATOM     81  F   UNL A   1      37.687  30.775  34.416  1.00  0.00    -0.200 F 
ATOM     82  C   UNL A   1      36.702  31.636  32.449  1.00  0.00     0.200 A 
ATOM     83  F   UNL A   1      35.755  32.466  30.452  1.00  0.00    -0.200 F 
ATOM     84  F   UNL A   1      35.623  32.026  33.142  1.00  0.00    -0.200 F 
ENDBRANCH  50  74
BRANCH  62  85
ATOM     85  C   UNL A   1      45.098  33.683  29.441  1.00  0.00     0.064 A 
ATOM     86  C   UNL A   1      44.887  34.773  28.583  1.00  0.00     0.173 A 
ATOM     87  C   UNL A   1      45.840  33.899  30.611  1.00  0.00     0.173 A 
ATOM     88  F   UNL A   1      44.196  34.613  27.444  1.00  0.00    -0.203 F 
ATOM     89  C   UNL A   1      45.419  36.026  28.877  1.00  0.00     0.198 A 
ATOM     90  C   UNL A   1      46.347  35.158  30.916  1.00  0.00     0.198 A 
ATOM     91  F   UNL A   1      46.061  32.888  31.466  1.00  0.00    -0.203 F 
ATOM     92  F   UNL A   1      45.241  37.043  28.025  1.00  0.00    -0.200 F 
ATOM     93  C   UNL A   1      46.141  36.219  30.046  1.00  0.00     0.200 A 
ATOM     94  F   UNL A   1      47.035  35.346  32.051  1.00  0.00    -0.200 F 
ATOM     95  F   UNL A   1      46.647  37.427  30.331  1.00  0.00    -0.200 F 
ENDBRANCH  62  85
ENDBRANCH  36  37
ENDBRANCH  29  31
ENDBRANCH  28  29
ENDBRANCH  27  28
ENDBRANCH  26  27
ENDBRANCH  25  26
ENDBRANCH   1  25
TORSDOF 17
ENDMDL
MODEL 2
REMARK VINA RESULT:     -11.4      4.199     10.150
REMARK SMILES C[C@@H]1C(=O)NC(=O)CN1C(=O)NC1(CC(=O)OCCOCCOC(=O)c2ccc(-c3c4nc(c(-c5c(F)c(F)c(F)c(F)c5F)c5ccc([nH]5)c(-c5c(F)c(F)c(F)c(F)c5F)c5nc(c(-c6c(F)c(F)c(F)c(F)c6F)c6ccc3[nH]6)C=C5)C=C4)cc2)CCC1
REMARK SMILES IDX 19 1 18 2 17 3 15 4 16 5 14 6 13 7 89 8 91 9 90 10 12 11
REMARK SMILES IDX 10 12 11 13 9 15 1 16 2 17 3 18 4 19 5 20 8 21 6 22 7 24
REMARK SMILES IDX 20 25 21 26 22 27 23 28 24 29 25 30 26 31 27 32 88 33 28 34
REMARK SMILES IDX 87 35 29 36 30 37 31 38 81 39 32 40 86 41 80 42 82 43 33 44
REMARK SMILES IDX 85 45 79 46 78 47 34 49 66 50 46 51 65 52 47 53 50 54 64 55
REMARK SMILES IDX 83 56 48 57 49 58 63 60 84 61 51 62 35 63 36 64 44 65 37 66
REMARK SMILES IDX 38 67 42 68 45 69 39 70 40 71 43 72 41 73 67 74 68 75 76 76
REMARK SMILES IDX 69 77 70 78 74 79 77 80 71 81 72 82 75 83 73 84 52 85 53 86
REMARK SMILES IDX 61 87 54 88 55 89 59 90 62 91 56 92 57 93 60 94 58 95
REMARK H PARENT 12 14 5 23 82 48 50 59
REMARK Flexibility Score: inf
ROOT
ATOM      1  C   UNL A   1      31.909  29.706  25.982  1.00  0.00     0.202 C 
ENDROOT
BRANCH   1   2
ATOM      2  C   UNL A   1      32.956  28.608  25.745  1.00  0.00     0.261 C 
BRANCH   2   3
ATOM      3  O   UNL A   1      33.257  28.367  24.359  1.00  0.00    -0.463 OA
BRANCH   3   4
ATOM      4  C   UNL A   1      33.239  27.058  23.997  1.00  0.00     0.308 C 
ATOM      5  O   UNL A   1      33.563  26.634  22.892  1.00  0.00    -0.252 OA
BRANCH   4   6
ATOM      6  C   UNL A   1      32.853  26.110  25.103  1.00  0.00     0.151 C 
BRANCH   6   7
ATOM      7  C   UNL A   1      31.774  25.024  24.841  1.00  0.00     0.052 C 
ATOM      8  C   UNL A   1      30.450  25.691  24.322  1.00  0.00     0.029 C 
ATOM      9  C   UNL A   1      30.973  24.672  26.125  1.00  0.00     0.029 C 
ATOM     10  C   UNL A   1      29.990  25.815  25.780  1.00  0.00     0.005 C 
BRANCH   7  11
ATOM     11  N   UNL A   1      32.284  24.130  23.772  1.00  0.00    -0.332 N 
ATOM     12  C   UNL A   1      32.907  23.001  23.423  1.00  0.00     0.318 C 
ATOM     13  O   UNL A   1      33.110  22.935  22.202  1.00  0.00    -0.249 OA
ATOM     14  H   UNL A   1      32.059  24.579  22.926  1.00  0.00     0.165 HD
BRANCH  12  15
ATOM     15  N   UNL A   1      33.291  21.987  24.227  1.00  0.00    -0.304 N 
ATOM     16  C   UNL A   1      35.648  21.552  24.800  1.00  0.00     0.042 C 
ATOM     17  C   UNL A   1      34.286  22.048  25.279  1.00  0.00     0.174 C 
ATOM     18  C   UNL A   1      33.899  21.277  26.542  1.00  0.00     0.249 C 
ATOM     19  O   UNL A   1      34.426  21.499  27.630  1.00  0.00    -0.272 OA
ATOM     20  N   UNL A   1      33.095  20.184  26.375  1.00  0.00    -0.293 N 
ATOM     21  C   UNL A   1      32.634  20.691  24.008  1.00  0.00     0.222 C 
ATOM     22  C   UNL A   1      32.591  19.732  25.189  1.00  0.00     0.246 C 
ATOM     23  H   UNL A   1      32.858  19.676  27.186  1.00  0.00     0.173 HD
ATOM     24  O   UNL A   1      32.130  18.596  25.100  1.00  0.00    -0.273 OA
ENDBRANCH  12  15
ENDBRANCH   7  11
ENDBRANCH   6   7
ENDBRANCH   4   6
ENDBRANCH   3   4
ENDBRANCH   2   3
ENDBRANCH   1   2
BRANCH   1  25
ATOM     25  O   UNL A   1      32.352  30.892  26.632  1.00  0.00    -0.374 OA
BRANCH  25  26
ATOM     26  C   UNL A   1      31.516  32.051  26.522  1.00  0.00     0.202 C 
BRANCH  26  27
ATOM     27  C   UNL A   1      32.093  33.348  27.098  1.00  0.00     0.261 C 
BRANCH  27  28
ATOM     28  O   UNL A   1      33.139  33.061  28.047  1.00  0.00    -0.460 OA
BRANCH  28  29
ATOM     29  C   UNL A   1      34.292  33.722  27.811  1.00  0.00     0.338 C 
ATOM     30  O   UNL A   1      34.432  34.852  27.368  1.00  0.00    -0.246 OA
BRANCH  29  31
ATOM     31  C   UNL A   1      35.416  32.896  28.273  1.00  0.00     0.060 A 
ATOM     32  C   UNL A   1      35.187  31.563  28.622  1.00  0.00     0.016 A 
ATOM     33  C   UNL A   1      36.674  33.468  28.452  1.00  0.00     0.016 A 
ATOM     34  C   UNL A   1      36.222  30.807  29.180  1.00  0.00     0.010 A 
ATOM     35  C   UNL A   1      37.721  32.697  28.953  1.00  0.00     0.010 A 
ATOM     36  C   UNL A   1      37.493  31.375  29.365  1.00  0.00    -0.014 A 
BRANCH  36  37
ATOM     37  C   UNL A   1      38.557  30.657  30.112  1.00  0.00     0.031 A 
ATOM     38  C   UNL A   1      38.783  30.986  31.565  1.00  0.00     0.074 A 
ATOM     39  C   UNL A   1      39.337  29.751  29.495  1.00  0.00     0.049 A 
ATOM     40  N   UNL A   1      39.699  30.539  32.386  1.00  0.00    -0.248 NA
ATOM     41  C   UNL A   1      37.869  31.971  32.169  1.00  0.00     0.031 C 
ATOM     42  C   UNL A   1      39.237  29.370  28.086  1.00  0.00     0.029 A 
ATOM     43  N   UNL A   1      40.380  28.999  29.973  1.00  0.00    -0.354 N 
ATOM     44  C   UNL A   1      39.480  31.196  33.592  1.00  0.00     0.074 A 
ATOM     45  C   UNL A   1      38.380  32.111  33.383  1.00  0.00     0.031 C 
ATOM     46  C   UNL A   1      40.183  28.453  27.814  1.00  0.00     0.029 A 
ATOM     47  C   UNL A   1      40.969  28.203  29.020  1.00  0.00     0.049 A 
ATOM     48  H   UNL A   1      40.680  29.028  30.910  1.00  0.00     0.167 HD
ATOM     49  C   UNL A   1      40.117  31.031  34.775  1.00  0.00     0.037 A 
ATOM     50  C   UNL A   1      42.027  27.375  29.112  1.00  0.00     0.037 A 
ATOM     51  C   UNL A   1      41.190  30.099  34.991  1.00  0.00     0.049 A 
ATOM     52  C   UNL A   1      42.723  27.214  30.439  1.00  0.00     0.074 A 
ATOM     53  C   UNL A   1      41.865  29.816  36.165  1.00  0.00     0.029 A 
ATOM     54  N   UNL A   1      41.741  29.293  34.007  1.00  0.00    -0.354 N 
ATOM     55  N   UNL A   1      42.467  27.796  31.585  1.00  0.00    -0.248 NA
ATOM     56  C   UNL A   1      43.851  26.272  30.485  1.00  0.00     0.031 C 
ATOM     57  C   UNL A   1      42.849  28.863  35.883  1.00  0.00     0.029 A 
ATOM     58  C   UNL A   1      42.759  28.523  34.543  1.00  0.00     0.049 A 
ATOM     59  H   UNL A   1      41.449  29.271  33.066  1.00  0.00     0.167 HD
ATOM     60  C   UNL A   1      43.383  27.278  32.490  1.00  0.00     0.074 A 
ATOM     61  C   UNL A   1      44.191  26.320  31.766  1.00  0.00     0.031 C 
ATOM     62  C   UNL A   1      43.546  27.572  33.803  1.00  0.00     0.037 A 
BRANCH  49  63
ATOM     63  C   UNL A   1      39.660  31.867  35.934  1.00  0.00     0.064 A 
ATOM     64  C   UNL A   1      40.288  33.079  36.254  1.00  0.00     0.173 A 
ATOM     65  C   UNL A   1      38.551  31.479  36.701  1.00  0.00     0.173 A 
ATOM     66  F   UNL A   1      41.360  33.488  35.559  1.00  0.00    -0.203 F 
ATOM     67  C   UNL A   1      39.836  33.863  37.312  1.00  0.00     0.198 A 
ATOM     68  C   UNL A   1      38.086  32.278  37.743  1.00  0.00     0.198 A 
ATOM     69  F   UNL A   1      37.912  30.330  36.434  1.00  0.00    -0.203 F 
ATOM     70  F   UNL A   1      40.476  34.999  37.624  1.00  0.00    -0.200 F 
ATOM     71  C   UNL A   1      38.731  33.466  38.050  1.00  0.00     0.200 A 
ATOM     72  F   UNL A   1      37.011  31.899  38.447  1.00  0.00    -0.200 F 
ATOM     73  F   UNL A   1      38.290  34.228  39.061  1.00  0.00    -0.200 F 
ENDBRANCH  49  63
BRANCH  50  74
ATOM     74  C   UNL A   1      42.492  26.626  27.916  1.00  0.00     0.064 A 
ATOM     75  C   UNL A   1      43.414  27.192  27.025  1.00  0.00     0.173 A 
ATOM     76  C   UNL A   1      42.014  25.340  27.632  1.00  0.00     0.173 A 
ATOM     77  F   UNL A   1      43.882  28.430  27.242  1.00  0.00    -0.203 F 
ATOM     78  C   UNL A   1      43.823  26.507  25.882  1.00  0.00     0.198 A 
ATOM     79  C   UNL A   1      42.445  24.645  26.503  1.00  0.00     0.198 A 
ATOM     80  F   UNL A   1      41.133  24.752  28.455  1.00  0.00    -0.203 F 
ATOM     81  F   UNL A   1      44.669  27.090  25.022  1.00  0.00    -0.200 F 
ATOM     82  C   UNL A   1      43.341  25.232  25.625  1.00  0.00     0.200 A 
ATOM     83  F   UNL A   1      41.986  23.408  26.265  1.00  0.00    -0.200 F 
ATOM     84  F   UNL A   1      43.737  24.573  24.527  1.00  0.00    -0.200 F 
ENDBRANCH  50  74
BRANCH  62  85
ATOM     85  C   UNL A   1      44.621  26.834  34.544  1.00  0.00     0.064 A 
ATOM     86  C   UNL A   1      45.915  27.361  34.670  1.00  0.00     0.173 A 
ATOM     87  C   UNL A   1      44.343  25.610  35.170  1.00  0.00     0.173 A 
ATOM     88  F   UNL A   1      46.232  28.522  34.076  1.00  0.00    -0.203 F 
ATOM     89  C   UNL A   1      46.898  26.677  35.378  1.00  0.00     0.198 A 
ATOM     90  C   UNL A   1      45.322  24.942  35.900  1.00  0.00     0.198 A 
ATOM     91  F   UNL A   1      43.118  25.070  35.085  1.00  0.00    -0.203 F 
ATOM     92  F   UNL A   1      48.139  27.177  35.451  1.00  0.00    -0.200 F 
ATOM     93  C   UNL A   1      46.599  25.472  35.998  1.00  0.00     0.200 A 
ATOM     94  F   UNL A   1      45.028  23.784  36.508  1.00  0.00    -0.200 F 
ATOM     95  F   UNL A   1      47.546  24.817  36.685  1.00  0.00    -0.200 F 
ENDBRANCH  62  85
ENDBRANCH  36  37
ENDBRANCH  29  31
ENDBRANCH  28  29
ENDBRANCH  27  28
ENDBRANCH  26  27
ENDBRANCH  25  26
ENDBRANCH   1  25
TORSDOF 17
ENDMDL
MODEL 3
REMARK VINA RESULT:     -11.3      2.944      8.637
REMARK SMILES C[C@@H]1C(=O)NC(=O)CN1C(=O)NC1(CC(=O)OCCOCCOC(=O)c2ccc(-c3c4nc(c(-c5c(F)c(F)c(F)c(F)c5F)c5ccc([nH]5)c(-c5c(F)c(F)c(F)c(F)c5F)c5nc(c(-c6c(F)c(F)c(F)c(F)c6F)c6ccc3[nH]6)C=C5)C=C4)cc2)CCC1
REMARK SMILES IDX 19 1 18 2 17 3 15 4 16 5 14 6 13 7 89 8 91 9 90 10 12 11
REMARK SMILES IDX 10 12 11 13 9 15 1 16 2 17 3 18 4 19 5 20 8 21 6 22 7 24
REMARK SMILES IDX 20 25 21 26 22 27 23 28 24 29 25 30 26 31 27 32 88 33 28 34
REMARK SMILES IDX 87 35 29 36 30 37 31 38 81 39 32 40 86 41 80 42 82 43 33 44
REMARK SMILES IDX 85 45 79 46 78 47 34 49 66 50 46 51 65 52 47 53 50 54 64 55
REMARK SMILES IDX 83 56 48 57 49 58 63 60 84 61 51 62 35 63 36 64 44 65 37 66
REMARK SMILES IDX 38 67 42 68 45 69 39 70 40 71 43 72 41 73 67 74 68 75 76 76
REMARK SMILES IDX 69 77 70 78 74 79 77 80 71 81 72 82 75 83 73 84 52 85 53 86
REMARK SMILES IDX 61 87 54 88 55 89 59 90 62 91 56 92 57 93 60 94 58 95
REMARK H PARENT 12 14 5 23 82 48 50 59
REMARK Flexibility Score: inf
ROOT
ATOM      1  C   UNL A   1      34.666  33.348  28.300  1.00  0.00     0.202 C 
ENDROOT
BRANCH   1   2
ATOM      2  C   UNL A   1      35.321  32.047  27.812  1.00  0.00     0.261 C 
BRANCH   2   3
ATOM      3  O   UNL A   1      34.756  30.852  28.378  1.00  0.00    -0.463 OA
BRANCH   3   4
ATOM      4  C   UNL A   1      34.885  29.744  27.602  1.00  0.00     0.308 C 
ATOM      5  O   UNL A   1      35.892  29.453  26.964  1.00  0.00    -0.252 OA
BRANCH   4   6
ATOM      6  C   UNL A   1      33.697  28.819  27.632  1.00  0.00     0.151 C 
BRANCH   6   7
ATOM      7  C   UNL A   1      32.976  28.452  26.305  1.00  0.00     0.052 C 
ATOM      8  C   UNL A   1      33.128  29.620  25.267  1.00  0.00     0.029 C 
ATOM      9  C   UNL A   1      31.466  28.816  26.340  1.00  0.00     0.029 C 
ATOM     10  C   UNL A   1      31.832  30.225  25.820  1.00  0.00     0.005 C 
BRANCH   7  11
ATOM     11  N   UNL A   1      33.646  27.253  25.745  1.00  0.00    -0.332 N 
ATOM     12  C   UNL A   1      33.668  26.272  24.838  1.00  0.00     0.318 C 
ATOM     13  O   UNL A   1      34.580  25.459  25.049  1.00  0.00    -0.249 OA
ATOM     14  H   UNL A   1      34.446  27.116  26.301  1.00  0.00     0.165 HD
BRANCH  12  15
ATOM     15  N   UNL A   1      32.852  26.111  23.775  1.00  0.00    -0.304 N 
ATOM     16  C   UNL A   1      30.501  25.407  23.987  1.00  0.00     0.042 C 
ATOM     17  C   UNL A   1      31.473  26.541  23.672  1.00  0.00     0.174 C 
ATOM     18  C   UNL A   1      31.110  27.135  22.310  1.00  0.00     0.249 C 
ATOM     19  O   UNL A   1      30.127  27.858  22.153  1.00  0.00    -0.272 OA
ATOM     20  N   UNL A   1      31.798  26.662  21.228  1.00  0.00    -0.293 N 
ATOM     21  C   UNL A   1      33.424  25.427  22.607  1.00  0.00     0.222 C 
ATOM     22  C   UNL A   1      32.791  25.725  21.255  1.00  0.00     0.246 C 
ATOM     23  H   UNL A   1      31.554  27.031  20.348  1.00  0.00     0.173 HD
ATOM     24  O   UNL A   1      33.141  25.157  20.223  1.00  0.00    -0.273 OA
ENDBRANCH  12  15
ENDBRANCH   7  11
ENDBRANCH   6   7
ENDBRANCH   4   6
ENDBRANCH   3   4
ENDBRANCH   2   3
ENDBRANCH   1   2
BRANCH   1  25
ATOM     25  O   UNL A   1      35.164  33.905  29.512  1.00  0.00    -0.374 OA
BRANCH  25  26
ATOM     26  C   UNL A   1      34.207  34.196  30.539  1.00  0.00     0.202 C 
BRANCH  26  27
ATOM     27  C   UNL A   1      34.637  33.852  31.969  1.00  0.00     0.261 C 
BRANCH  27  28
ATOM     28  O   UNL A   1      35.003  32.462  32.068  1.00  0.00    -0.460 OA
BRANCH  28  29
ATOM     29  C   UNL A   1      36.033  32.223  32.908  1.00  0.00     0.338 C 
ATOM     30  O   UNL A   1      36.100  32.472  34.102  1.00  0.00    -0.246 OA
BRANCH  29  31
ATOM     31  C   UNL A   1      37.081  31.496  32.179  1.00  0.00     0.060 A 
ATOM     32  C   UNL A   1      38.096  30.856  32.895  1.00  0.00     0.016 A 
ATOM     33  C   UNL A   1      37.112  31.529  30.786  1.00  0.00     0.016 A 
ATOM     34  C   UNL A   1      39.163  30.269  32.208  1.00  0.00     0.010 A 
ATOM     35  C   UNL A   1      38.144  30.892  30.100  1.00  0.00     0.010 A 
ATOM     36  C   UNL A   1      39.203  30.299  30.805  1.00  0.00    -0.014 A 
BRANCH  36  37
ATOM     37  C   UNL A   1      40.402  29.842  30.058  1.00  0.00     0.031 A 
ATOM     38  C   UNL A   1      41.518  30.819  29.794  1.00  0.00     0.074 A 
ATOM     39  C   UNL A   1      40.480  28.583  29.589  1.00  0.00     0.049 A 
ATOM     40  N   UNL A   1      42.618  30.659  29.102  1.00  0.00    -0.248 NA
ATOM     41  C   UNL A   1      41.363  32.169  30.364  1.00  0.00     0.031 C 
ATOM     42  C   UNL A   1      39.453  27.555  29.752  1.00  0.00     0.029 A 
ATOM     43  N   UNL A   1      41.464  27.963  28.861  1.00  0.00    -0.354 N 
ATOM     44  C   UNL A   1      43.274  31.883  29.145  1.00  0.00     0.074 A 
ATOM     45  C   UNL A   1      42.427  32.794  29.882  1.00  0.00     0.031 C 
ATOM     46  C   UNL A   1      39.861  26.429  29.142  1.00  0.00     0.029 A 
ATOM     47  C   UNL A   1      41.165  26.665  28.525  1.00  0.00     0.049 A 
ATOM     48  H   UNL A   1      42.305  28.405  28.605  1.00  0.00     0.167 HD
ATOM     49  C   UNL A   1      44.486  32.213  28.639  1.00  0.00     0.037 A 
ATOM     50  C   UNL A   1      41.862  25.774  27.794  1.00  0.00     0.037 A 
ATOM     51  C   UNL A   1      45.342  31.300  27.934  1.00  0.00     0.049 A 
ATOM     52  C   UNL A   1      43.206  26.167  27.238  1.00  0.00     0.074 A 
ATOM     53  C   UNL A   1      46.612  31.520  27.430  1.00  0.00     0.029 A 
ATOM     54  N   UNL A   1      45.014  29.987  27.634  1.00  0.00    -0.354 N 
ATOM     55  N   UNL A   1      43.840  27.310  27.337  1.00  0.00    -0.248 NA
ATOM     56  C   UNL A   1      43.933  25.142  26.476  1.00  0.00     0.031 C 
ATOM     57  C   UNL A   1      47.039  30.349  26.796  1.00  0.00     0.029 A 
ATOM     58  C   UNL A   1      46.051  29.388  26.939  1.00  0.00     0.049 A 
ATOM     59  H   UNL A   1      44.169  29.546  27.881  1.00  0.00     0.167 HD
ATOM     60  C   UNL A   1      45.046  27.136  26.671  1.00  0.00     0.074 A 
ATOM     61  C   UNL A   1      45.064  25.771  26.187  1.00  0.00     0.031 C 
ATOM     62  C   UNL A   1      46.048  28.027  26.473  1.00  0.00     0.037 A 
BRANCH  49  63
ATOM     63  C   UNL A   1      44.968  33.620  28.848  1.00  0.00     0.064 A 
ATOM     64  C   UNL A   1      45.743  33.969  29.963  1.00  0.00     0.173 A 
ATOM     65  C   UNL A   1      44.696  34.616  27.898  1.00  0.00     0.173 A 
ATOM     66  F   UNL A   1      46.020  33.055  30.905  1.00  0.00    -0.203 F 
ATOM     67  C   UNL A   1      46.212  35.269  30.131  1.00  0.00     0.198 A 
ATOM     68  C   UNL A   1      45.188  35.909  28.056  1.00  0.00     0.198 A 
ATOM     69  F   UNL A   1      43.963  34.333  26.811  1.00  0.00    -0.203 F 
ATOM     70  F   UNL A   1      46.919  35.589  31.223  1.00  0.00    -0.200 F 
ATOM     71  C   UNL A   1      45.941  36.235  29.174  1.00  0.00     0.200 A 
ATOM     72  F   UNL A   1      44.937  36.839  27.124  1.00  0.00    -0.200 F 
ATOM     73  F   UNL A   1      46.404  37.483  29.330  1.00  0.00    -0.200 F 
ENDBRANCH  49  63
BRANCH  50  74
ATOM     74  C   UNL A   1      41.308  24.417  27.549  1.00  0.00     0.064 A 
ATOM     75  C   UNL A   1      41.844  23.293  28.193  1.00  0.00     0.173 A 
ATOM     76  C   UNL A   1      40.246  24.213  26.658  1.00  0.00     0.173 A 
ATOM     77  F   UNL A   1      42.877  23.434  29.037  1.00  0.00    -0.203 F 
ATOM     78  C   UNL A   1      41.352  22.014  27.938  1.00  0.00     0.198 A 
ATOM     79  C   UNL A   1      39.737  22.938  26.423  1.00  0.00     0.198 A 
ATOM     80  F   UNL A   1      39.696  25.256  26.019  1.00  0.00    -0.203 F 
ATOM     81  F   UNL A   1      41.914  20.952  28.531  1.00  0.00    -0.200 F 
ATOM     82  C   UNL A   1      40.296  21.838  27.056  1.00  0.00     0.200 A 
ATOM     83  F   UNL A   1      38.708  22.774  25.580  1.00  0.00    -0.200 F 
ATOM     84  F   UNL A   1      39.822  20.609  26.812  1.00  0.00    -0.200 F 
ENDBRANCH  50  74
BRANCH  62  85
ATOM     85  C   UNL A   1      47.254  27.547  25.721  1.00  0.00     0.064 A 
ATOM     86  C   UNL A   1      47.337  27.656  24.325  1.00  0.00     0.173 A 
ATOM     87  C   UNL A   1      48.356  27.015  26.407  1.00  0.00     0.173 A 
ATOM     88  F   UNL A   1      46.302  28.146  23.624  1.00  0.00    -0.203 F 
ATOM     89  C   UNL A   1      48.470  27.227  23.641  1.00  0.00     0.198 A 
ATOM     90  C   UNL A   1      49.498  26.612  25.723  1.00  0.00     0.198 A 
ATOM     91  F   UNL A   1      48.328  26.899  27.744  1.00  0.00    -0.203 F 
ATOM     92  F   UNL A   1      48.512  27.301  22.304  1.00  0.00    -0.200 F 
ATOM     93  C   UNL A   1      49.552  26.712  24.340  1.00  0.00     0.200 A 
ATOM     94  F   UNL A   1      50.547  26.126  26.401  1.00  0.00    -0.200 F 
ATOM     95  F   UNL A   1      50.645  26.305  23.681  1.00  0.00    -0.200 F 
ENDBRANCH  62  85
ENDBRANCH  36  37
ENDBRANCH  29  31
ENDBRANCH  28  29
ENDBRANCH  27  28
ENDBRANCH  26  27
ENDBRANCH  25  26
ENDBRANCH   1  25
TORSDOF 17
ENDMDL
