MODEL 1
REMARK VINA RESULT:     -11.1      0.000      0.000
REMARK SMILES C=CC[N@H+](CC(=O)OCCOCCOC(=O)c1ccc(-c2c3nc(c(-c4c(F)c(F)c(F)c(F)c4F)c4ccc([nH]4)c(-c4c(F)c(F)c(F)c(F)c4F)c4nc(c(-c5c(F)c(F)c(F)c(F)c5F)c5ccc2[nH]5)C=C4)C=C3)cc1)[C@H]1CC(=O)N(c2ccccc2)C1=O
REMARK SMILES IDX 10 1 9 2 8 3 6 4 7 5 5 6 4 7 3 9 2 10 1 11 80 12 81 13 91 14
REMARK SMILES IDX 82 15 84 16 92 17 83 18 85 19 86 20 90 21 87 22 89 23 88 24
REMARK SMILES IDX 11 25 12 26 13 27 14 28 15 29 16 30 17 31 18 32 79 33 19 34
REMARK SMILES IDX 78 35 20 36 21 37 22 38 72 39 23 40 77 41 71 42 73 43 24 44
REMARK SMILES IDX 76 45 70 46 69 47 25 49 57 50 37 51 56 52 38 53 41 54 55 55
REMARK SMILES IDX 74 56 39 57 40 58 54 60 75 61 42 62 26 63 27 64 35 65 28 66
REMARK SMILES IDX 29 67 33 68 36 69 30 70 31 71 34 72 32 73 58 74 59 75 67 76
REMARK SMILES IDX 60 77 61 78 65 79 68 80 62 81 63 82 66 83 64 84 43 85 44 86
REMARK SMILES IDX 52 87 45 88 46 89 50 90 53 91 47 92 48 93 51 94 49 95
REMARK H PARENT 4 8 73 48 41 59
REMARK Flexibility Score: inf
ROOT
ATOM      1  C   UNL A   1      33.615  19.502  25.174  1.00  0.00     0.202 C 
ENDROOT
BRANCH   1   2
ATOM      2  C   UNL A   1      32.533  19.765  24.127  1.00  0.00     0.261 C 
BRANCH   2   3
ATOM      3  O   UNL A   1      32.246  21.170  23.996  1.00  0.00    -0.459 OA
BRANCH   3   4
ATOM      4  C   UNL A   1      32.241  21.665  22.732  1.00  0.00     0.361 C 
ATOM      5  O   UNL A   1      31.776  21.074  21.762  1.00  0.00    -0.245 OA
BRANCH   4   6
ATOM      6  C   UNL A   1      32.964  23.002  22.583  1.00  0.00     0.387 C 
BRANCH   6   7
ATOM      7  N   UNL A   1      33.155  23.840  23.817  1.00  0.00    -0.312 N 
ATOM      8  H   UNL A   1      33.007  23.314  24.679  1.00  0.00     0.349 HD
BRANCH   7   9
ATOM      9  C   UNL A   1      34.551  24.313  23.906  1.00  0.00     0.291 C 
BRANCH   9  10
ATOM     10  C   UNL A   1      35.177  24.061  25.253  1.00  0.00     0.025 C 
ATOM     11  C   UNL A   1      34.481  23.675  26.330  1.00  0.00     0.010 C 
ENDBRANCH   9  10
ENDBRANCH   7   9
BRANCH   7  12
ATOM     12  C   UNL A   1      32.127  24.946  23.740  1.00  0.00     0.285 C 
ATOM     13  C   UNL A   1      31.077  24.752  24.817  1.00  0.00     0.176 C 
ATOM     14  C   UNL A   1      32.602  26.370  23.972  1.00  0.00     0.292 C 
ATOM     15  C   UNL A   1      31.285  25.898  25.761  1.00  0.00     0.240 C 
ATOM     16  N   UNL A   1      32.177  26.793  25.215  1.00  0.00    -0.245 N 
ATOM     17  O   UNL A   1      33.263  26.975  23.136  1.00  0.00    -0.267 OA
ATOM     18  O   UNL A   1      30.647  25.984  26.802  1.00  0.00    -0.274 OA
BRANCH  16  19
ATOM     19  C   UNL A   1      32.605  28.001  25.851  1.00  0.00     0.052 A 
ATOM     20  C   UNL A   1      33.843  28.091  26.509  1.00  0.00     0.027 A 
ATOM     21  C   UNL A   1      31.778  29.135  25.885  1.00  0.00     0.027 A 
ATOM     22  C   UNL A   1      34.234  29.261  27.175  1.00  0.00     0.002 A 
ATOM     23  C   UNL A   1      32.160  30.301  26.561  1.00  0.00     0.002 A 
ATOM     24  C   UNL A   1      33.389  30.363  27.206  1.00  0.00     0.000 A 
ENDBRANCH  16  19
ENDBRANCH   7  12
ENDBRANCH   6   7
ENDBRANCH   4   6
ENDBRANCH   3   4
ENDBRANCH   2   3
ENDBRANCH   1   2
BRANCH   1  25
ATOM     25  O   UNL A   1      34.950  19.392  24.687  1.00  0.00    -0.374 OA
BRANCH  25  26
ATOM     26  C   UNL A   1      35.849  20.457  24.997  1.00  0.00     0.202 C 
BRANCH  26  27
ATOM     27  C   UNL A   1      37.343  20.107  25.005  1.00  0.00     0.261 C 
BRANCH  27  28
ATOM     28  O   UNL A   1      38.182  21.262  25.169  1.00  0.00    -0.460 OA
BRANCH  28  29
ATOM     29  C   UNL A   1      39.257  21.091  25.972  1.00  0.00     0.338 C 
ATOM     30  O   UNL A   1      39.927  20.075  26.119  1.00  0.00    -0.246 OA
BRANCH  29  31
ATOM     31  C   UNL A   1      39.637  22.384  26.564  1.00  0.00     0.060 A 
ATOM     32  C   UNL A   1      38.953  23.534  26.153  1.00  0.00     0.016 A 
ATOM     33  C   UNL A   1      40.694  22.478  27.469  1.00  0.00     0.016 A 
ATOM     34  C   UNL A   1      39.350  24.786  26.621  1.00  0.00     0.010 A 
ATOM     35  C   UNL A   1      41.074  23.730  27.960  1.00  0.00     0.010 A 
ATOM     36  C   UNL A   1      40.433  24.898  27.505  1.00  0.00    -0.014 A 
BRANCH  36  37
ATOM     37  C   UNL A   1      41.013  26.232  27.811  1.00  0.00     0.031 A 
ATOM     38  C   UNL A   1      42.434  26.517  27.396  1.00  0.00     0.074 A 
ATOM     39  C   UNL A   1      40.292  27.184  28.430  1.00  0.00     0.049 A 
ATOM     40  N   UNL A   1      43.168  27.579  27.609  1.00  0.00    -0.248 NA
ATOM     41  C   UNL A   1      43.124  25.451  26.652  1.00  0.00     0.031 C 
ATOM     42  C   UNL A   1      38.904  27.047  28.866  1.00  0.00     0.029 A 
ATOM     43  N   UNL A   1      40.636  28.461  28.804  1.00  0.00    -0.354 N 
ATOM     44  C   UNL A   1      44.407  27.299  27.046  1.00  0.00     0.074 A 
ATOM     45  C   UNL A   1      44.342  25.953  26.523  1.00  0.00     0.031 C 
ATOM     46  C   UNL A   1      38.513  28.196  29.446  1.00  0.00     0.029 A 
ATOM     47  C   UNL A   1      39.631  29.136  29.452  1.00  0.00     0.049 A 
ATOM     48  H   UNL A   1      41.521  28.855  28.625  1.00  0.00     0.167 HD
ATOM     49  C   UNL A   1      45.497  28.098  26.954  1.00  0.00     0.037 A 
ATOM     50  C   UNL A   1      39.623  30.367  30.002  1.00  0.00     0.037 A 
ATOM     51  C   UNL A   1      45.555  29.449  27.445  1.00  0.00     0.049 A 
ATOM     52  C   UNL A   1      40.863  31.223  29.923  1.00  0.00     0.074 A 
ATOM     53  C   UNL A   1      46.600  30.351  27.367  1.00  0.00     0.029 A 
ATOM     54  N   UNL A   1      44.519  30.092  28.106  1.00  0.00    -0.354 N 
ATOM     55  N   UNL A   1      42.019  30.960  29.361  1.00  0.00    -0.248 NA
ATOM     56  C   UNL A   1      40.793  32.552  30.550  1.00  0.00     0.031 C 
ATOM     57  C   UNL A   1      46.215  31.525  28.022  1.00  0.00     0.029 A 
ATOM     58  C   UNL A   1      44.908  31.373  28.459  1.00  0.00     0.049 A 
ATOM     59  H   UNL A   1      43.637  29.696  28.295  1.00  0.00     0.167 HD
ATOM     60  C   UNL A   1      42.798  32.097  29.540  1.00  0.00     0.074 A 
ATOM     61  C   UNL A   1      41.980  33.057  30.248  1.00  0.00     0.031 C 
ATOM     62  C   UNL A   1      44.077  32.325  29.150  1.00  0.00     0.037 A 
BRANCH  49  63
ATOM     63  C   UNL A   1      46.724  27.523  26.306  1.00  0.00     0.064 A 
ATOM     64  C   UNL A   1      46.944  27.621  24.924  1.00  0.00     0.173 A 
ATOM     65  C   UNL A   1      47.706  26.891  27.084  1.00  0.00     0.173 A 
ATOM     66  F   UNL A   1      46.029  28.203  24.134  1.00  0.00    -0.203 F 
ATOM     67  C   UNL A   1      48.087  27.079  24.340  1.00  0.00     0.198 A 
ATOM     68  C   UNL A   1      48.863  26.380  26.501  1.00  0.00     0.198 A 
ATOM     69  F   UNL A   1      47.549  26.775  28.411  1.00  0.00    -0.203 F 
ATOM     70  F   UNL A   1      48.249  27.136  23.012  1.00  0.00    -0.200 F 
ATOM     71  C   UNL A   1      49.048  26.466  25.130  1.00  0.00     0.200 A 
ATOM     72  F   UNL A   1      49.797  25.800  27.267  1.00  0.00    -0.200 F 
ATOM     73  F   UNL A   1      50.150  25.950  24.568  1.00  0.00    -0.200 F 
ENDBRANCH  49  63
BRANCH  50  74
ATOM     74  C   UNL A   1      38.401  30.874  30.681  1.00  0.00     0.064 A 
ATOM     75  C   UNL A   1      37.351  31.446  29.948  1.00  0.00     0.173 A 
ATOM     76  C   UNL A   1      38.269  30.826  32.077  1.00  0.00     0.173 A 
ATOM     77  F   UNL A   1      37.440  31.540  28.614  1.00  0.00    -0.203 F 
ATOM     78  C   UNL A   1      36.228  31.972  30.587  1.00  0.00     0.198 A 
ATOM     79  C   UNL A   1      37.134  31.325  32.712  1.00  0.00     0.198 A 
ATOM     80  F   UNL A   1      39.246  30.292  32.825  1.00  0.00    -0.203 F 
ATOM     81  F   UNL A   1      35.266  32.561  29.866  1.00  0.00    -0.200 F 
ATOM     82  C   UNL A   1      36.119  31.907  31.967  1.00  0.00     0.200 A 
ATOM     83  F   UNL A   1      37.027  31.249  34.045  1.00  0.00    -0.200 F 
ATOM     84  F   UNL A   1      35.040  32.412  32.580  1.00  0.00    -0.200 F 
ENDBRANCH  50  74
BRANCH  62  85
ATOM     85  C   UNL A   1      44.661  33.679  29.439  1.00  0.00     0.064 A 
ATOM     86  C   UNL A   1      45.393  33.934  30.608  1.00  0.00     0.173 A 
ATOM     87  C   UNL A   1      44.528  34.719  28.507  1.00  0.00     0.173 A 
ATOM     88  F   UNL A   1      45.538  32.975  31.536  1.00  0.00    -0.203 F 
ATOM     89  C   UNL A   1      45.948  35.188  30.845  1.00  0.00     0.198 A 
ATOM     90  C   UNL A   1      45.112  35.963  28.733  1.00  0.00     0.198 A 
ATOM     91  F   UNL A   1      43.846  34.526  27.369  1.00  0.00    -0.203 F 
ATOM     92  F   UNL A   1      46.603  35.423  31.990  1.00  0.00    -0.200 F 
ATOM     93  C   UNL A   1      45.814  36.199  29.904  1.00  0.00     0.200 A 
ATOM     94  F   UNL A   1      44.995  36.933  27.815  1.00  0.00    -0.200 F 
ATOM     95  F   UNL A   1      46.358  37.402  30.130  1.00  0.00    -0.200 F 
ENDBRANCH  62  85
ENDBRANCH  36  37
ENDBRANCH  29  31
ENDBRANCH  28  29
ENDBRANCH  27  28
ENDBRANCH  26  27
ENDBRANCH  25  26
ENDBRANCH   1  25
TORSDOF 19
ENDMDL
MODEL 2
REMARK VINA RESULT:     -11.0      4.099      9.666
REMARK SMILES C=CC[N@H+](CC(=O)OCCOCCOC(=O)c1ccc(-c2c3nc(c(-c4c(F)c(F)c(F)c(F)c4F)c4ccc([nH]4)c(-c4c(F)c(F)c(F)c(F)c4F)c4nc(c(-c5c(F)c(F)c(F)c(F)c5F)c5ccc2[nH]5)C=C4)C=C3)cc1)[C@H]1CC(=O)N(c2ccccc2)C1=O
REMARK SMILES IDX 10 1 9 2 8 3 6 4 7 5 5 6 4 7 3 9 2 10 1 11 80 12 81 13 91 14
REMARK SMILES IDX 82 15 84 16 92 17 83 18 85 19 86 20 90 21 87 22 89 23 88 24
REMARK SMILES IDX 11 25 12 26 13 27 14 28 15 29 16 30 17 31 18 32 79 33 19 34
REMARK SMILES IDX 78 35 20 36 21 37 22 38 72 39 23 40 77 41 71 42 73 43 24 44
REMARK SMILES IDX 76 45 70 46 69 47 25 49 57 50 37 51 56 52 38 53 41 54 55 55
REMARK SMILES IDX 74 56 39 57 40 58 54 60 75 61 42 62 26 63 27 64 35 65 28 66
REMARK SMILES IDX 29 67 33 68 36 69 30 70 31 71 34 72 32 73 58 74 59 75 67 76
REMARK SMILES IDX 60 77 61 78 65 79 68 80 62 81 63 82 66 83 64 84 43 85 44 86
REMARK SMILES IDX 52 87 45 88 46 89 50 90 53 91 47 92 48 93 51 94 49 95
REMARK H PARENT 4 8 73 48 41 59
REMARK Flexibility Score: inf
ROOT
ATOM      1  C   UNL A   1      31.091  28.537  24.463  1.00  0.00     0.202 C 
ENDROOT
BRANCH   1   2
ATOM      2  C   UNL A   1      31.522  28.080  23.069  1.00  0.00     0.261 C 
BRANCH   2   3
ATOM      3  O   UNL A   1      32.907  27.684  23.041  1.00  0.00    -0.459 OA
BRANCH   3   4
ATOM      4  C   UNL A   1      33.173  26.474  22.488  1.00  0.00     0.361 C 
ATOM      5  O   UNL A   1      33.622  26.317  21.356  1.00  0.00    -0.245 OA
BRANCH   4   6
ATOM      6  C   UNL A   1      32.767  25.287  23.359  1.00  0.00     0.387 C 
BRANCH   6   7
ATOM      7  N   UNL A   1      33.501  25.083  24.655  1.00  0.00    -0.312 N 
ATOM      8  H   UNL A   1      34.313  25.694  24.751  1.00  0.00     0.349 HD
BRANCH   7   9
ATOM      9  C   UNL A   1      32.635  25.436  25.798  1.00  0.00     0.291 C 
BRANCH   9  10
ATOM     10  C   UNL A   1      31.305  24.729  25.773  1.00  0.00     0.025 C 
ATOM     11  C   UNL A   1      30.128  25.368  25.808  1.00  0.00     0.010 C 
ENDBRANCH   9  10
ENDBRANCH   7   9
BRANCH   7  12
ATOM     12  C   UNL A   1      33.973  23.647  24.653  1.00  0.00     0.285 C 
ATOM     13  C   UNL A   1      34.580  23.304  23.306  1.00  0.00     0.176 C 
ATOM     14  C   UNL A   1      35.067  23.260  25.634  1.00  0.00     0.292 C 
ATOM     15  C   UNL A   1      36.037  23.099  23.587  1.00  0.00     0.240 C 
ATOM     16  N   UNL A   1      36.251  23.086  24.947  1.00  0.00    -0.245 N 
ATOM     17  O   UNL A   1      34.848  23.149  26.834  1.00  0.00    -0.267 OA
ATOM     18  O   UNL A   1      36.834  22.894  22.680  1.00  0.00    -0.274 OA
BRANCH  16  19
ATOM     19  C   UNL A   1      37.529  22.915  25.565  1.00  0.00     0.052 A 
ATOM     20  C   UNL A   1      38.205  21.684  25.541  1.00  0.00     0.027 A 
ATOM     21  C   UNL A   1      38.141  23.966  26.269  1.00  0.00     0.027 A 
ATOM     22  C   UNL A   1      39.433  21.510  26.193  1.00  0.00     0.002 A 
ATOM     23  C   UNL A   1      39.361  23.791  26.933  1.00  0.00     0.002 A 
ATOM     24  C   UNL A   1      40.007  22.562  26.896  1.00  0.00     0.000 A 
ENDBRANCH  16  19
ENDBRANCH   7  12
ENDBRANCH   6   7
ENDBRANCH   4   6
ENDBRANCH   3   4
ENDBRANCH   2   3
ENDBRANCH   1   2
BRANCH   1  25
ATOM     25  O   UNL A   1      32.140  28.803  25.392  1.00  0.00    -0.374 OA
BRANCH  25  26
ATOM     26  C   UNL A   1      31.767  29.328  26.665  1.00  0.00     0.202 C 
BRANCH  26  27
ATOM     27  C   UNL A   1      32.015  30.827  26.882  1.00  0.00     0.261 C 
BRANCH  27  28
ATOM     28  O   UNL A   1      33.387  31.198  26.666  1.00  0.00    -0.460 OA
BRANCH  28  29
ATOM     29  C   UNL A   1      33.918  32.026  27.594  1.00  0.00     0.338 C 
ATOM     30  O   UNL A   1      33.391  33.002  28.115  1.00  0.00    -0.246 OA
BRANCH  29  31
ATOM     31  C   UNL A   1      35.217  31.495  28.038  1.00  0.00     0.060 A 
ATOM     32  C   UNL A   1      35.324  30.124  28.298  1.00  0.00     0.016 A 
ATOM     33  C   UNL A   1      36.304  32.341  28.255  1.00  0.00     0.016 A 
ATOM     34  C   UNL A   1      36.512  29.602  28.812  1.00  0.00     0.010 A 
ATOM     35  C   UNL A   1      37.503  31.814  28.742  1.00  0.00     0.010 A 
ATOM     36  C   UNL A   1      37.601  30.448  29.066  1.00  0.00    -0.014 A 
BRANCH  36  37
ATOM     37  C   UNL A   1      38.772  29.948  29.835  1.00  0.00     0.031 A 
ATOM     38  C   UNL A   1      38.974  30.437  31.246  1.00  0.00     0.074 A 
ATOM     39  C   UNL A   1      39.633  29.061  29.303  1.00  0.00     0.049 A 
ATOM     40  N   UNL A   1      39.949  30.190  32.083  1.00  0.00    -0.248 NA
ATOM     41  C   UNL A   1      37.942  31.341  31.779  1.00  0.00     0.031 C 
ATOM     42  C   UNL A   1      39.542  28.494  27.959  1.00  0.00     0.029 A 
ATOM     43  N   UNL A   1      40.762  28.487  29.834  1.00  0.00    -0.354 N 
ATOM     44  C   UNL A   1      39.658  30.923  33.227  1.00  0.00     0.074 A 
ATOM     45  C   UNL A   1      38.442  31.658  32.962  1.00  0.00     0.031 C 
ATOM     46  C   UNL A   1      40.571  27.648  27.772  1.00  0.00     0.029 A 
ATOM     47  C   UNL A   1      41.411  27.641  28.969  1.00  0.00     0.049 A 
ATOM     48  H   UNL A   1      41.077  28.666  30.750  1.00  0.00     0.167 HD
ATOM     49  C   UNL A   1      40.332  30.964  34.401  1.00  0.00     0.037 A 
ATOM     50  C   UNL A   1      42.560  26.954  29.121  1.00  0.00     0.037 A 
ATOM     51  C   UNL A   1      41.524  30.209  34.679  1.00  0.00     0.049 A 
ATOM     52  C   UNL A   1      43.315  27.048  30.424  1.00  0.00     0.074 A 
ATOM     53  C   UNL A   1      42.258  30.155  35.850  1.00  0.00     0.029 A 
ATOM     54  N   UNL A   1      42.155  29.373  33.771  1.00  0.00    -0.354 N 
ATOM     55  N   UNL A   1      43.014  27.720  31.510  1.00  0.00    -0.248 NA
ATOM     56  C   UNL A   1      44.566  26.283  30.523  1.00  0.00     0.031 C 
ATOM     57  C   UNL A   1      43.361  29.323  35.637  1.00  0.00     0.029 A 
ATOM     58  C   UNL A   1      43.283  28.814  34.350  1.00  0.00     0.049 A 
ATOM     59  H   UNL A   1      41.847  29.201  32.851  1.00  0.00     0.167 HD
ATOM     60  C   UNL A   1      44.018  27.434  32.427  1.00  0.00     0.074 A 
ATOM     61  C   UNL A   1      44.929  26.517  31.776  1.00  0.00     0.031 C 
ATOM     62  C   UNL A   1      44.171  27.889  33.695  1.00  0.00     0.037 A 
BRANCH  49  63
ATOM     63  C   UNL A   1      39.798  31.870  35.474  1.00  0.00     0.064 A 
ATOM     64  C   UNL A   1      40.260  33.186  35.628  1.00  0.00     0.173 A 
ATOM     65  C   UNL A   1      38.789  31.424  36.341  1.00  0.00     0.173 A 
ATOM     66  F   UNL A   1      41.235  33.656  34.835  1.00  0.00    -0.203 F 
ATOM     67  C   UNL A   1      39.756  34.010  36.631  1.00  0.00     0.198 A 
ATOM     68  C   UNL A   1      38.263  32.262  37.321  1.00  0.00     0.198 A 
ATOM     69  F   UNL A   1      38.306  30.177  36.234  1.00  0.00    -0.203 F 
ATOM     70  F   UNL A   1      40.252  35.244  36.794  1.00  0.00    -0.200 F 
ATOM     71  C   UNL A   1      38.753  33.550  37.471  1.00  0.00     0.200 A 
ATOM     72  F   UNL A   1      37.285  31.821  38.123  1.00  0.00    -0.200 F 
ATOM     73  F   UNL A   1      38.264  34.347  38.432  1.00  0.00    -0.200 F 
ENDBRANCH  49  63
BRANCH  50  74
ATOM     74  C   UNL A   1      43.080  26.111  28.010  1.00  0.00     0.064 A 
ATOM     75  C   UNL A   1      42.860  24.726  27.990  1.00  0.00     0.173 A 
ATOM     76  C   UNL A   1      43.831  26.665  26.964  1.00  0.00     0.173 A 
ATOM     77  F   UNL A   1      42.171  24.143  28.982  1.00  0.00    -0.203 F 
ATOM     78  C   UNL A   1      43.392  23.926  26.980  1.00  0.00     0.198 A 
ATOM     79  C   UNL A   1      44.338  25.869  25.939  1.00  0.00     0.198 A 
ATOM     80  F   UNL A   1      44.073  27.984  26.936  1.00  0.00    -0.203 F 
ATOM     81  F   UNL A   1      43.212  22.599  27.016  1.00  0.00    -0.200 F 
ATOM     82  C   UNL A   1      44.126  24.498  25.953  1.00  0.00     0.200 A 
ATOM     83  F   UNL A   1      45.036  26.428  24.942  1.00  0.00    -0.200 F 
ATOM     84  F   UNL A   1      44.637  23.729  24.983  1.00  0.00    -0.200 F 
ENDBRANCH  50  74
BRANCH  62  85
ATOM     85  C   UNL A   1      45.341  27.371  34.483  1.00  0.00     0.064 A 
ATOM     86  C   UNL A   1      46.572  28.043  34.508  1.00  0.00     0.173 A 
ATOM     87  C   UNL A   1      45.210  26.212  35.264  1.00  0.00     0.173 A 
ATOM     88  F   UNL A   1      46.752  29.148  33.768  1.00  0.00    -0.203 F 
ATOM     89  C   UNL A   1      47.636  27.560  35.266  1.00  0.00     0.198 A 
ATOM     90  C   UNL A   1      46.265  25.751  36.046  1.00  0.00     0.198 A 
ATOM     91  F   UNL A   1      44.051  25.537  35.284  1.00  0.00    -0.203 F 
ATOM     92  F   UNL A   1      48.817  28.193  35.238  1.00  0.00    -0.200 F 
ATOM     93  C   UNL A   1      47.479  26.420  36.040  1.00  0.00     0.200 A 
ATOM     94  F   UNL A   1      46.107  24.658  36.806  1.00  0.00    -0.200 F 
ATOM     95  F   UNL A   1      48.501  25.963  36.776  1.00  0.00    -0.200 F 
ENDBRANCH  62  85
ENDBRANCH  36  37
ENDBRANCH  29  31
ENDBRANCH  28  29
ENDBRANCH  27  28
ENDBRANCH  26  27
ENDBRANCH  25  26
ENDBRANCH   1  25
TORSDOF 19
ENDMDL
MODEL 3
REMARK VINA RESULT:     -10.9      1.985      2.839
REMARK SMILES C=CC[N@H+](CC(=O)OCCOCCOC(=O)c1ccc(-c2c3nc(c(-c4c(F)c(F)c(F)c(F)c4F)c4ccc([nH]4)c(-c4c(F)c(F)c(F)c(F)c4F)c4nc(c(-c5c(F)c(F)c(F)c(F)c5F)c5ccc2[nH]5)C=C4)C=C3)cc1)[C@H]1CC(=O)N(c2ccccc2)C1=O
REMARK SMILES IDX 10 1 9 2 8 3 6 4 7 5 5 6 4 7 3 9 2 10 1 11 80 12 81 13 91 14
REMARK SMILES IDX 82 15 84 16 92 17 83 18 85 19 86 20 90 21 87 22 89 23 88 24
REMARK SMILES IDX 11 25 12 26 13 27 14 28 15 29 16 30 17 31 18 32 79 33 19 34
REMARK SMILES IDX 78 35 20 36 21 37 22 38 72 39 23 40 77 41 71 42 73 43 24 44
REMARK SMILES IDX 76 45 70 46 69 47 25 49 57 50 37 51 56 52 38 53 41 54 55 55
REMARK SMILES IDX 74 56 39 57 40 58 54 60 75 61 42 62 26 63 27 64 35 65 28 66
REMARK SMILES IDX 29 67 33 68 36 69 30 70 31 71 34 72 32 73 58 74 59 75 67 76
REMARK SMILES IDX 60 77 61 78 65 79 68 80 62 81 63 82 66 83 64 84 43 85 44 86
REMARK SMILES IDX 52 87 45 88 46 89 50 90 53 91 47 92 48 93 51 94 49 95
REMARK H PARENT 4 8 73 48 41 59
REMARK Flexibility Score: inf
ROOT
ATOM      1  C   UNL A   1      33.575  22.682  24.817  1.00  0.00     0.202 C 
ENDROOT
BRANCH   1   2
ATOM      2  C   UNL A   1      32.124  22.512  25.268  1.00  0.00     0.261 C 
BRANCH   2   3
ATOM      3  O   UNL A   1      31.346  23.698  25.020  1.00  0.00    -0.459 OA
BRANCH   3   4
ATOM      4  C   UNL A   1      30.946  24.392  26.116  1.00  0.00     0.361 C 
ATOM      5  O   UNL A   1      31.314  24.144  27.262  1.00  0.00    -0.245 OA
BRANCH   4   6
ATOM      6  C   UNL A   1      29.900  25.467  25.827  1.00  0.00     0.387 C 
BRANCH   6   7
ATOM      7  N   UNL A   1      30.377  26.778  25.268  1.00  0.00    -0.312 N 
ATOM      8  H   UNL A   1      30.045  27.581  25.803  1.00  0.00     0.349 HD
BRANCH   7   9
ATOM      9  C   UNL A   1      31.849  26.865  25.343  1.00  0.00     0.291 C 
BRANCH   9  10
ATOM     10  C   UNL A   1      32.332  28.021  26.181  1.00  0.00     0.025 C 
ATOM     11  C   UNL A   1      31.819  28.330  27.379  1.00  0.00     0.010 C 
ENDBRANCH   9  10
ENDBRANCH   7   9
BRANCH   7  12
ATOM     12  C   UNL A   1      29.820  26.867  23.865  1.00  0.00     0.285 C 
ATOM     13  C   UNL A   1      28.318  26.664  23.891  1.00  0.00     0.176 C 
ATOM     14  C   UNL A   1      29.979  28.184  23.123  1.00  0.00     0.292 C 
ATOM     15  C   UNL A   1      27.748  27.994  23.501  1.00  0.00     0.240 C 
ATOM     16  N   UNL A   1      28.758  28.824  23.071  1.00  0.00    -0.245 N 
ATOM     17  O   UNL A   1      31.061  28.548  22.679  1.00  0.00    -0.267 OA
ATOM     18  O   UNL A   1      26.539  28.194  23.514  1.00  0.00    -0.274 OA
BRANCH  16  19
ATOM     19  C   UNL A   1      28.567  30.171  22.628  1.00  0.00     0.052 A 
ATOM     20  C   UNL A   1      28.189  30.471  21.309  1.00  0.00     0.027 A 
ATOM     21  C   UNL A   1      28.800  31.257  23.488  1.00  0.00     0.027 A 
ATOM     22  C   UNL A   1      28.055  31.794  20.868  1.00  0.00     0.002 A 
ATOM     23  C   UNL A   1      28.680  32.581  23.047  1.00  0.00     0.002 A 
ATOM     24  C   UNL A   1      28.308  32.849  21.736  1.00  0.00     0.000 A 
ENDBRANCH  16  19
ENDBRANCH   7  12
ENDBRANCH   6   7
ENDBRANCH   4   6
ENDBRANCH   3   4
ENDBRANCH   2   3
ENDBRANCH   1   2
BRANCH   1  25
ATOM     25  O   UNL A   1      34.409  21.531  24.929  1.00  0.00    -0.374 OA
BRANCH  25  26
ATOM     26  C   UNL A   1      35.768  21.666  24.514  1.00  0.00     0.202 C 
BRANCH  26  27
ATOM     27  C   UNL A   1      36.835  21.275  25.544  1.00  0.00     0.261 C 
BRANCH  27  28
ATOM     28  O   UNL A   1      38.158  21.679  25.152  1.00  0.00    -0.460 OA
BRANCH  28  29
ATOM     29  C   UNL A   1      39.136  21.422  26.051  1.00  0.00     0.338 C 
ATOM     30  O   UNL A   1      39.693  20.352  26.264  1.00  0.00    -0.246 OA
BRANCH  29  31
ATOM     31  C   UNL A   1      39.578  22.683  26.668  1.00  0.00     0.060 A 
ATOM     32  C   UNL A   1      38.913  23.865  26.322  1.00  0.00     0.016 A 
ATOM     33  C   UNL A   1      40.672  22.716  27.532  1.00  0.00     0.016 A 
ATOM     34  C   UNL A   1      39.366  25.090  26.812  1.00  0.00     0.010 A 
ATOM     35  C   UNL A   1      41.108  23.940  28.047  1.00  0.00     0.010 A 
ATOM     36  C   UNL A   1      40.486  25.140  27.655  1.00  0.00    -0.014 A 
BRANCH  36  37
ATOM     37  C   UNL A   1      41.118  26.446  27.981  1.00  0.00     0.031 A 
ATOM     38  C   UNL A   1      42.537  26.694  27.541  1.00  0.00     0.074 A 
ATOM     39  C   UNL A   1      40.443  27.406  28.639  1.00  0.00     0.049 A 
ATOM     40  N   UNL A   1      43.312  27.725  27.762  1.00  0.00    -0.248 NA
ATOM     41  C   UNL A   1      43.174  25.624  26.755  1.00  0.00     0.031 C 
ATOM     42  C   UNL A   1      39.061  27.304  29.104  1.00  0.00     0.029 A 
ATOM     43  N   UNL A   1      40.838  28.660  29.036  1.00  0.00    -0.354 N 
ATOM     44  C   UNL A   1      44.528  27.418  27.164  1.00  0.00     0.074 A 
ATOM     45  C   UNL A   1      44.405  26.088  26.610  1.00  0.00     0.031 C 
ATOM     46  C   UNL A   1      38.722  28.450  29.720  1.00  0.00     0.029 A 
ATOM     47  C   UNL A   1      39.872  29.353  29.724  1.00  0.00     0.049 A 
ATOM     48  H   UNL A   1      41.732  29.029  28.846  1.00  0.00     0.167 HD
ATOM     49  C   UNL A   1      45.642  28.182  27.067  1.00  0.00     0.037 A 
ATOM     50  C   UNL A   1      39.918  30.569  30.303  1.00  0.00     0.037 A 
ATOM     51  C   UNL A   1      45.757  29.517  27.589  1.00  0.00     0.049 A 
ATOM     52  C   UNL A   1      41.184  31.385  30.216  1.00  0.00     0.074 A 
ATOM     53  C   UNL A   1      46.830  30.386  27.508  1.00  0.00     0.029 A 
ATOM     54  N   UNL A   1      44.758  30.178  28.289  1.00  0.00    -0.354 N 
ATOM     55  N   UNL A   1      42.317  31.098  29.622  1.00  0.00    -0.248 NA
ATOM     56  C   UNL A   1      41.173  32.699  30.877  1.00  0.00     0.031 C 
ATOM     57  C   UNL A   1      46.499  31.556  28.200  1.00  0.00     0.029 A 
ATOM     58  C   UNL A   1      45.199  31.436  28.663  1.00  0.00     0.049 A 
ATOM     59  H   UNL A   1      43.868  29.808  28.488  1.00  0.00     0.167 HD
ATOM     60  C   UNL A   1      43.139  32.203  29.810  1.00  0.00     0.074 A 
ATOM     61  C   UNL A   1      42.370  33.172  30.560  1.00  0.00     0.031 C 
ATOM     62  C   UNL A   1      44.415  32.397  29.396  1.00  0.00     0.037 A 
BRANCH  49  63
ATOM     63  C   UNL A   1      46.834  27.583  26.376  1.00  0.00     0.064 A 
ATOM     64  C   UNL A   1      46.989  27.644  24.984  1.00  0.00     0.173 A 
ATOM     65  C   UNL A   1      47.849  26.965  27.123  1.00  0.00     0.173 A 
ATOM     66  F   UNL A   1      46.041  28.210  24.223  1.00  0.00    -0.203 F 
ATOM     67  C   UNL A   1      48.100  27.079  24.361  1.00  0.00     0.198 A 
ATOM     68  C   UNL A   1      48.974  26.432  26.500  1.00  0.00     0.198 A 
ATOM     69  F   UNL A   1      47.754  26.885  28.459  1.00  0.00    -0.203 F 
ATOM     70  F   UNL A   1      48.200  27.101  23.025  1.00  0.00    -0.200 F 
ATOM     71  C   UNL A   1      49.094  26.481  25.120  1.00  0.00     0.200 A 
ATOM     72  F   UNL A   1      49.940  25.866  27.236  1.00  0.00    -0.200 F 
ATOM     73  F   UNL A   1      50.166  25.944  24.520  1.00  0.00    -0.200 F 
ENDBRANCH  49  63
BRANCH  50  74
ATOM     74  C   UNL A   1      38.729  31.099  31.023  1.00  0.00     0.064 A 
ATOM     75  C   UNL A   1      37.735  31.820  30.344  1.00  0.00     0.173 A 
ATOM     76  C   UNL A   1      38.576  30.924  32.406  1.00  0.00     0.173 A 
ATOM     77  F   UNL A   1      37.849  32.038  29.026  1.00  0.00    -0.203 F 
ATOM     78  C   UNL A   1      36.648  32.365  31.026  1.00  0.00     0.198 A 
ATOM     79  C   UNL A   1      37.473  31.444  33.081  1.00  0.00     0.198 A 
ATOM     80  F   UNL A   1      39.499  30.245  33.103  1.00  0.00    -0.203 F 
ATOM     81  F   UNL A   1      35.742  33.095  30.361  1.00  0.00    -0.200 F 
ATOM     82  C   UNL A   1      36.515  32.173  32.392  1.00  0.00     0.200 A 
ATOM     83  F   UNL A   1      37.343  31.246  34.399  1.00  0.00    -0.200 F 
ATOM     84  F   UNL A   1      35.470  32.697  33.046  1.00  0.00    -0.200 F 
ENDBRANCH  50  74
BRANCH  62  85
ATOM     85  C   UNL A   1      45.051  33.723  29.705  1.00  0.00     0.064 A 
ATOM     86  C   UNL A   1      44.930  34.821  28.841  1.00  0.00     0.173 A 
ATOM     87  C   UNL A   1      45.748  33.910  30.909  1.00  0.00     0.173 A 
ATOM     88  F   UNL A   1      44.283  34.691  27.672  1.00  0.00    -0.203 F 
ATOM     89  C   UNL A   1      45.504  36.049  29.159  1.00  0.00     0.198 A 
ATOM     90  C   UNL A   1      46.294  35.148  31.238  1.00  0.00     0.198 A 
ATOM     91  F   UNL A   1      45.885  32.896  31.776  1.00  0.00    -0.203 F 
ATOM     92  F   UNL A   1      45.415  37.071  28.296  1.00  0.00    -0.200 F 
ATOM     93  C   UNL A   1      46.178  36.214  30.359  1.00  0.00     0.200 A 
ATOM     94  F   UNL A   1      46.930  35.309  32.407  1.00  0.00    -0.200 F 
ATOM     95  F   UNL A   1      46.721  37.399  30.667  1.00  0.00    -0.200 F 
ENDBRANCH  62  85
ENDBRANCH  36  37
ENDBRANCH  29  31
ENDBRANCH  28  29
ENDBRANCH  27  28
ENDBRANCH  26  27
ENDBRANCH  25  26
ENDBRANCH   1  25
TORSDOF 19
ENDMDL
