MODEL 1
REMARK VINA RESULT:     -13.6      0.000      0.000
REMARK SMILES Cc1ccccc1NC(=S)NN1C(=O)CS[C@H]1c1ccccc1C(=O)OCCOCCOC(=O)c1ccc(-c2c3nc(c(-c4c(F)c(F)c(F)c(F)c4F)c4ccc([nH]4)c(-c4c(F)c(F)c(F)c(F)c4F)c4nc(c(-c5c(F)c(F)c(F)c(F)c5F)c5ccc2[nH]5)C=C4)C=C3)cc1
REMARK SMILES IDX 27 1 26 2 24 3 25 4 23 5 18 6 19 7 20 8 22 9 21 10 17 11
REMARK SMILES IDX 12 12 13 13 14 14 15 15 16 16 11 17 9 19 10 20 8 21 7 23
REMARK SMILES IDX 1 24 2 25 3 26 4 27 6 28 5 29 28 30 29 31 30 32 31 33 32 34
REMARK SMILES IDX 33 35 34 36 35 37 36 38 97 39 37 40 96 41 38 42 39 43 40 44
REMARK SMILES IDX 90 45 41 46 95 47 89 48 91 49 42 50 94 51 88 52 87 53 43 55
REMARK SMILES IDX 75 56 55 57 74 58 56 59 59 60 73 61 92 62 57 63 58 64 72 66
REMARK SMILES IDX 93 67 60 68 44 69 45 70 53 71 46 72 47 73 51 74 54 75 48 76
REMARK SMILES IDX 49 77 52 78 50 79 76 80 77 81 85 82 78 83 79 84 83 85 86 86
REMARK SMILES IDX 80 87 81 88 84 89 82 90 61 91 62 92 70 93 63 94 64 95 68 96
REMARK SMILES IDX 71 97 65 98 66 99 69 100 67 101
REMARK H PARENT 11 18 8 22 91 54 59 65
REMARK Flexibility Score: inf
ROOT
ATOM      1  C   UNL A   1      33.478  28.977  24.745  1.00  0.00     0.261 C 
ENDROOT
BRANCH   1   2
ATOM      2  O   UNL A   1      34.074  27.331  24.822  1.00  0.00    -0.460 OA
BRANCH   2   3
ATOM      3  C   UNL A   1      34.128  26.040  25.463  1.00  0.00     0.338 C 
ATOM      4  O   UNL A   1      33.463  25.902  26.497  1.00  0.00    -0.246 OA
BRANCH   3   5
ATOM      5  C   UNL A   1      34.809  24.624  25.150  1.00  0.00     0.066 A 
ATOM      6  C   UNL A   1      34.371  23.621  24.257  1.00  0.00     0.001 A 
ATOM      7  C   UNL A   1      35.286  22.755  23.620  1.00  0.00     0.008 A 
ATOM      8  C   UNL A   1      36.525  22.541  24.188  1.00  0.00     0.000 A 
ATOM      9  C   UNL A   1      36.035  24.304  25.779  1.00  0.00     0.016 A 
ATOM     10  C   UNL A   1      36.843  23.226  25.351  1.00  0.00     0.001 A 
BRANCH   6  11
ATOM     11  C   UNL A   1      32.945  23.120  24.399  1.00  0.00     0.197 C 
ATOM     12  N   UNL A   1      32.196  23.802  23.409  1.00  0.00    -0.236 N 
ATOM     13  C   UNL A   1      32.711  23.114  22.175  1.00  0.00     0.252 C 
ATOM     14  O   UNL A   1      33.392  23.482  21.228  1.00  0.00    -0.272 OA
ATOM     15  C   UNL A   1      32.321  21.671  22.305  1.00  0.00     0.174 C 
ATOM     16  S   UNL A   1      32.716  21.339  24.027  1.00  0.00    -0.120 SA
BRANCH  12  17
ATOM     17  N   UNL A   1      31.753  25.410  23.861  1.00  0.00    -0.270 N 
ATOM     18  H   UNL A   1      32.562  25.965  23.777  1.00  0.00     0.191 HD
BRANCH  17  19
ATOM     19  C   UNL A   1      30.682  26.293  24.316  1.00  0.00     0.189 C 
ATOM     20  S   UNL A   1      29.976  25.365  25.564  1.00  0.00    -0.039 S 
BRANCH  19  21
ATOM     21  N   UNL A   1      30.195  27.672  24.052  1.00  0.00    -0.331 N 
ATOM     22  H   UNL A   1      30.529  28.223  24.796  1.00  0.00     0.169 HD
BRANCH  21  23
ATOM     23  C   UNL A   1      29.346  28.697  23.075  1.00  0.00     0.043 A 
ATOM     24  C   UNL A   1      26.721  28.211  23.511  1.00  0.00     0.046 C 
ATOM     25  C   UNL A   1      27.934  29.014  23.110  1.00  0.00    -0.028 A 
ATOM     26  C   UNL A   1      27.415  30.229  22.496  1.00  0.00     0.005 A 
ATOM     27  C   UNL A   1      28.188  31.134  21.823  1.00  0.00     0.000 A 
ATOM     28  C   UNL A   1      29.904  29.453  22.028  1.00  0.00     0.026 A 
ATOM     29  C   UNL A   1      29.436  30.693  21.514  1.00  0.00     0.002 A 
ENDBRANCH  21  23
ENDBRANCH  19  21
ENDBRANCH  17  19
ENDBRANCH  12  17
ENDBRANCH   6  11
ENDBRANCH   3   5
ENDBRANCH   2   3
ENDBRANCH   1   2
BRANCH   1  30
ATOM     30  C   UNL A   1      32.967  30.066  26.144  1.00  0.00     0.202 C 
BRANCH  30  31
ATOM     31  O   UNL A   1      33.839  30.424  27.279  1.00  0.00    -0.374 OA
BRANCH  31  32
ATOM     32  C   UNL A   1      34.151  31.678  27.898  1.00  0.00     0.202 C 
BRANCH  32  33
ATOM     33  C   UNL A   1      35.698  31.924  27.917  1.00  0.00     0.261 C 
BRANCH  33  34
ATOM     34  O   UNL A   1      36.413  30.717  28.327  1.00  0.00    -0.460 OA
BRANCH  34  35
ATOM     35  C   UNL A   1      37.219  30.755  29.433  1.00  0.00     0.338 C 
ATOM     36  O   UNL A   1      37.366  31.698  30.180  1.00  0.00    -0.246 OA
BRANCH  35  37
ATOM     37  C   UNL A   1      38.091  29.522  29.440  1.00  0.00     0.060 A 
ATOM     38  C   UNL A   1      38.961  29.306  30.506  1.00  0.00     0.016 A 
ATOM     39  C   UNL A   1      38.283  28.741  28.314  1.00  0.00     0.016 A 
ATOM     40  C   UNL A   1      40.203  28.653  30.298  1.00  0.00     0.010 A 
ATOM     41  C   UNL A   1      39.538  28.126  28.122  1.00  0.00     0.010 A 
ATOM     42  C   UNL A   1      40.601  28.306  29.028  1.00  0.00    -0.014 A 
BRANCH  42  43
ATOM     43  C   UNL A   1      42.028  28.192  28.557  1.00  0.00     0.031 A 
ATOM     44  C   UNL A   1      42.665  26.820  28.661  1.00  0.00     0.074 A 
ATOM     45  C   UNL A   1      42.805  29.074  27.820  1.00  0.00     0.049 A 
ATOM     46  N   UNL A   1      43.898  26.533  28.354  1.00  0.00    -0.248 NA
ATOM     47  C   UNL A   1      41.950  25.647  29.164  1.00  0.00     0.031 C 
ATOM     48  C   UNL A   1      43.573  28.505  26.706  1.00  0.00     0.029 A 
ATOM     49  N   UNL A   1      43.042  30.482  27.617  1.00  0.00    -0.354 N 
ATOM     50  C   UNL A   1      43.916  25.185  28.094  1.00  0.00     0.074 A 
ATOM     51  C   UNL A   1      42.808  24.669  28.856  1.00  0.00     0.031 C 
ATOM     52  C   UNL A   1      44.407  29.393  26.191  1.00  0.00     0.029 A 
ATOM     53  C   UNL A   1      44.280  30.645  26.877  1.00  0.00     0.049 A 
ATOM     54  H   UNL A   1      42.460  31.212  27.930  1.00  0.00     0.167 HD
ATOM     55  C   UNL A   1      44.694  24.682  27.091  1.00  0.00     0.037 A 
ATOM     56  C   UNL A   1      45.242  31.615  26.723  1.00  0.00     0.037 A 
ATOM     57  C   UNL A   1      45.644  25.648  26.517  1.00  0.00     0.049 A 
ATOM     58  C   UNL A   1      46.646  31.093  26.561  1.00  0.00     0.074 A 
ATOM     59  C   UNL A   1      45.881  26.089  25.226  1.00  0.00     0.029 A 
ATOM     60  N   UNL A   1      46.475  26.411  27.340  1.00  0.00    -0.354 N 
ATOM     61  N   UNL A   1      46.911  29.877  26.202  1.00  0.00    -0.248 NA
ATOM     62  C   UNL A   1      47.849  31.790  27.027  1.00  0.00     0.031 C 
ATOM     63  C   UNL A   1      46.899  27.074  25.273  1.00  0.00     0.029 A 
ATOM     64  C   UNL A   1      47.273  27.265  26.594  1.00  0.00     0.049 A 
ATOM     65  H   UNL A   1      46.493  26.351  28.323  1.00  0.00     0.167 HD
ATOM     66  C   UNL A   1      48.048  29.504  26.855  1.00  0.00     0.074 A 
ATOM     67  C   UNL A   1      48.699  30.757  27.171  1.00  0.00     0.031 C 
ATOM     68  C   UNL A   1      48.215  28.198  27.218  1.00  0.00     0.037 A 
BRANCH  55  69
ATOM     69  C   UNL A   1      44.508  23.304  26.458  1.00  0.00     0.064 A 
ATOM     70  C   UNL A   1      45.627  22.588  25.969  1.00  0.00     0.173 A 
ATOM     71  C   UNL A   1      43.270  22.668  26.225  1.00  0.00     0.173 A 
ATOM     72  F   UNL A   1      46.871  23.075  26.085  1.00  0.00    -0.203 F 
ATOM     73  C   UNL A   1      45.515  21.345  25.336  1.00  0.00     0.198 A 
ATOM     74  C   UNL A   1      43.166  21.389  25.667  1.00  0.00     0.198 A 
ATOM     75  F   UNL A   1      42.100  23.272  26.459  1.00  0.00    -0.203 F 
ATOM     76  F   UNL A   1      46.607  20.747  24.841  1.00  0.00    -0.200 F 
ATOM     77  C   UNL A   1      44.287  20.730  25.214  1.00  0.00     0.200 A 
ATOM     78  F   UNL A   1      41.960  20.813  25.551  1.00  0.00    -0.200 F 
ATOM     79  F   UNL A   1      44.181  19.522  24.646  1.00  0.00    -0.200 F 
ENDBRANCH  55  69
BRANCH  56  80
ATOM     80  C   UNL A   1      44.987  32.985  27.151  1.00  0.00     0.064 A 
ATOM     81  C   UNL A   1      44.439  33.904  26.248  1.00  0.00     0.173 A 
ATOM     82  C   UNL A   1      44.835  33.185  28.510  1.00  0.00     0.173 A 
ATOM     83  F   UNL A   1      44.780  33.891  24.952  1.00  0.00    -0.203 F 
ATOM     84  C   UNL A   1      43.461  34.778  26.690  1.00  0.00     0.198 A 
ATOM     85  C   UNL A   1      43.838  34.026  28.942  1.00  0.00     0.198 A 
ATOM     86  F   UNL A   1      45.514  32.436  29.388  1.00  0.00    -0.203 F 
ATOM     87  F   UNL A   1      42.790  35.552  25.826  1.00  0.00    -0.200 F 
ATOM     88  C   UNL A   1      43.086  34.748  28.023  1.00  0.00     0.200 A 
ATOM     89  F   UNL A   1      43.572  34.052  30.248  1.00  0.00    -0.200 F 
ATOM     90  F   UNL A   1      41.961  35.369  28.389  1.00  0.00    -0.200 F 
ENDBRANCH  56  80
BRANCH  68  91
ATOM     91  C   UNL A   1      49.304  27.727  28.138  1.00  0.00     0.064 A 
ATOM     92  C   UNL A   1      50.539  27.210  27.709  1.00  0.00     0.173 A 
ATOM     93  C   UNL A   1      49.130  27.821  29.534  1.00  0.00     0.173 A 
ATOM     94  F   UNL A   1      50.898  27.230  26.418  1.00  0.00    -0.203 F 
ATOM     95  C   UNL A   1      51.470  26.685  28.608  1.00  0.00     0.198 A 
ATOM     96  C   UNL A   1      50.086  27.351  30.432  1.00  0.00     0.198 A 
ATOM     97  F   UNL A   1      48.030  28.376  30.062  1.00  0.00    -0.203 F 
ATOM     98  F   UNL A   1      52.595  26.121  28.147  1.00  0.00    -0.200 F 
ATOM     99  C   UNL A   1      51.238  26.747  29.969  1.00  0.00     0.200 A 
ATOM    100  F   UNL A   1      49.881  27.479  31.750  1.00  0.00    -0.200 F 
ATOM    101  F   UNL A   1      52.131  26.243  30.830  1.00  0.00    -0.200 F 
ENDBRANCH  68  91
ENDBRANCH  42  43
ENDBRANCH  35  37
ENDBRANCH  34  35
ENDBRANCH  33  34
ENDBRANCH  32  33
ENDBRANCH  31  32
ENDBRANCH  30  31
ENDBRANCH   1  30
TORSDOF 19
ENDMDL
MODEL 2
REMARK VINA RESULT:     -13.4      4.125      8.565
REMARK SMILES Cc1ccccc1NC(=S)NN1C(=O)CS[C@H]1c1ccccc1C(=O)OCCOCCOC(=O)c1ccc(-c2c3nc(c(-c4c(F)c(F)c(F)c(F)c4F)c4ccc([nH]4)c(-c4c(F)c(F)c(F)c(F)c4F)c4nc(c(-c5c(F)c(F)c(F)c(F)c5F)c5ccc2[nH]5)C=C4)C=C3)cc1
REMARK SMILES IDX 27 1 26 2 24 3 25 4 23 5 18 6 19 7 20 8 22 9 21 10 17 11
REMARK SMILES IDX 12 12 13 13 14 14 15 15 16 16 11 17 9 19 10 20 8 21 7 23
REMARK SMILES IDX 1 24 2 25 3 26 4 27 6 28 5 29 28 30 29 31 30 32 31 33 32 34
REMARK SMILES IDX 33 35 34 36 35 37 36 38 97 39 37 40 96 41 38 42 39 43 40 44
REMARK SMILES IDX 90 45 41 46 95 47 89 48 91 49 42 50 94 51 88 52 87 53 43 55
REMARK SMILES IDX 75 56 55 57 74 58 56 59 59 60 73 61 92 62 57 63 58 64 72 66
REMARK SMILES IDX 93 67 60 68 44 69 45 70 53 71 46 72 47 73 51 74 54 75 48 76
REMARK SMILES IDX 49 77 52 78 50 79 76 80 77 81 85 82 78 83 79 84 83 85 86 86
REMARK SMILES IDX 80 87 81 88 84 89 82 90 61 91 62 92 70 93 63 94 64 95 68 96
REMARK SMILES IDX 71 97 65 98 66 99 69 100 67 101
REMARK H PARENT 11 18 8 22 91 54 59 65
REMARK Flexibility Score: inf
ROOT
ATOM      1  C   UNL A   1      33.760  27.245  25.491  1.00  0.00     0.261 C 
ENDROOT
BRANCH   1   2
ATOM      2  O   UNL A   1      34.014  26.085  24.203  1.00  0.00    -0.460 OA
BRANCH   2   3
ATOM      3  C   UNL A   1      34.435  24.783  23.745  1.00  0.00     0.338 C 
ATOM      4  O   UNL A   1      34.177  24.495  22.571  1.00  0.00    -0.246 OA
BRANCH   3   5
ATOM      5  C   UNL A   1      35.251  23.551  24.364  1.00  0.00     0.066 A 
ATOM      6  C   UNL A   1      34.761  22.282  24.747  1.00  0.00     0.001 A 
ATOM      7  C   UNL A   1      35.579  21.133  24.691  1.00  0.00     0.008 A 
ATOM      8  C   UNL A   1      36.951  21.275  24.731  1.00  0.00     0.000 A 
ATOM      9  C   UNL A   1      36.651  23.672  24.521  1.00  0.00     0.016 A 
ATOM     10  C   UNL A   1      37.480  22.556  24.779  1.00  0.00     0.001 A 
BRANCH   6  11
ATOM     11  C   UNL A   1      33.588  22.237  25.709  1.00  0.00     0.197 C 
ATOM     12  N   UNL A   1      32.444  21.992  24.910  1.00  0.00    -0.236 N 
ATOM     13  C   UNL A   1      32.685  20.553  24.548  1.00  0.00     0.252 C 
ATOM     14  O   UNL A   1      32.946  19.981  23.498  1.00  0.00    -0.272 OA
ATOM     15  C   UNL A   1      32.665  19.786  25.838  1.00  0.00     0.174 C 
ATOM     16  S   UNL A   1      33.634  20.854  26.913  1.00  0.00    -0.120 SA
BRANCH  12  17
ATOM     17  N   UNL A   1      31.836  23.404  24.121  1.00  0.00    -0.270 N 
ATOM     18  H   UNL A   1      32.283  23.458  23.245  1.00  0.00     0.191 HD
BRANCH  17  19
ATOM     19  C   UNL A   1      30.937  24.552  24.207  1.00  0.00     0.189 C 
ATOM     20  S   UNL A   1      30.478  24.508  25.852  1.00  0.00    -0.039 S 
BRANCH  19  21
ATOM     21  N   UNL A   1      30.473  25.665  23.338  1.00  0.00    -0.331 N 
ATOM     22  H   UNL A   1      30.614  25.361  22.413  1.00  0.00     0.169 HD
BRANCH  21  23
ATOM     23  C   UNL A   1      29.829  27.181  23.224  1.00  0.00     0.043 A 
ATOM     24  C   UNL A   1      31.889  28.885  22.811  1.00  0.00     0.046 C 
ATOM     25  C   UNL A   1      30.462  28.397  22.760  1.00  0.00    -0.028 A 
ATOM     26  C   UNL A   1      29.673  29.536  22.308  1.00  0.00     0.005 A 
ATOM     27  C   UNL A   1      28.306  29.569  22.315  1.00  0.00     0.000 A 
ATOM     28  C   UNL A   1      28.507  27.519  23.567  1.00  0.00     0.026 A 
ATOM     29  C   UNL A   1      27.721  28.576  23.035  1.00  0.00     0.002 A 
ENDBRANCH  21  23
ENDBRANCH  19  21
ENDBRANCH  17  19
ENDBRANCH  12  17
ENDBRANCH   6  11
ENDBRANCH   3   5
ENDBRANCH   2   3
ENDBRANCH   1   2
BRANCH   1  30
ATOM     30  C   UNL A   1      32.223  27.535  26.470  1.00  0.00     0.202 C 
BRANCH  30  31
ATOM     31  O   UNL A   1      31.782  28.858  26.952  1.00  0.00    -0.374 OA
BRANCH  31  32
ATOM     32  C   UNL A   1      31.794  30.158  26.347  1.00  0.00     0.202 C 
BRANCH  32  33
ATOM     33  C   UNL A   1      33.196  30.839  26.512  1.00  0.00     0.261 C 
BRANCH  33  34
ATOM     34  O   UNL A   1      33.316  31.474  27.822  1.00  0.00    -0.460 OA
BRANCH  34  35
ATOM     35  C   UNL A   1      33.129  32.826  27.935  1.00  0.00     0.338 C 
ATOM     36  O   UNL A   1      32.268  33.478  27.385  1.00  0.00    -0.246 OA
BRANCH  35  37
ATOM     37  C   UNL A   1      34.316  33.422  28.654  1.00  0.00     0.060 A 
ATOM     38  C   UNL A   1      35.494  33.657  27.949  1.00  0.00     0.016 A 
ATOM     39  C   UNL A   1      34.394  33.484  30.034  1.00  0.00     0.016 A 
ATOM     40  C   UNL A   1      36.752  33.540  28.596  1.00  0.00     0.010 A 
ATOM     41  C   UNL A   1      35.656  33.338  30.648  1.00  0.00     0.010 A 
ATOM     42  C   UNL A   1      36.826  33.106  29.899  1.00  0.00    -0.014 A 
BRANCH  42  43
ATOM     43  C   UNL A   1      37.987  32.370  30.513  1.00  0.00     0.031 A 
ATOM     44  C   UNL A   1      38.696  33.064  31.660  1.00  0.00     0.074 A 
ATOM     45  C   UNL A   1      38.392  31.050  30.373  1.00  0.00     0.049 A 
ATOM     46  N   UNL A   1      39.748  32.614  32.285  1.00  0.00    -0.248 NA
ATOM     47  C   UNL A   1      38.281  34.368  32.179  1.00  0.00     0.031 C 
ATOM     48  C   UNL A   1      38.733  30.329  31.605  1.00  0.00     0.029 A 
ATOM     49  N   UNL A   1      38.458  29.980  29.409  1.00  0.00    -0.354 N 
ATOM     50  C   UNL A   1      39.746  33.228  33.512  1.00  0.00     0.074 A 
ATOM     51  C   UNL A   1      39.023  34.453  33.288  1.00  0.00     0.031 C 
ATOM     52  C   UNL A   1      39.271  29.150  31.342  1.00  0.00     0.029 A 
ATOM     53  C   UNL A   1      39.331  28.941  29.925  1.00  0.00     0.049 A 
ATOM     54  H   UNL A   1      37.989  29.958  28.544  1.00  0.00     0.167 HD
ATOM     55  C   UNL A   1      40.134  32.546  34.630  1.00  0.00     0.037 A 
ATOM     56  C   UNL A   1      40.114  27.934  29.411  1.00  0.00     0.037 A 
ATOM     57  C   UNL A   1      40.753  31.239  34.358  1.00  0.00     0.049 A 
ATOM     58  C   UNL A   1      41.391  27.676  30.168  1.00  0.00     0.074 A 
ATOM     59  C   UNL A   1      40.479  29.953  34.794  1.00  0.00     0.029 A 
ATOM     60  N   UNL A   1      41.782  31.115  33.422  1.00  0.00    -0.354 N 
ATOM     61  N   UNL A   1      41.576  28.059  31.392  1.00  0.00    -0.248 NA
ATOM     62  C   UNL A   1      42.639  27.211  29.556  1.00  0.00     0.031 C 
ATOM     63  C   UNL A   1      41.387  29.068  34.161  1.00  0.00     0.029 A 
ATOM     64  C   UNL A   1      42.204  29.799  33.312  1.00  0.00     0.049 A 
ATOM     65  H   UNL A   1      42.160  31.864  32.906  1.00  0.00     0.167 HD
ATOM     66  C   UNL A   1      42.892  28.394  31.514  1.00  0.00     0.074 A 
ATOM     67  C   UNL A   1      43.541  27.663  30.447  1.00  0.00     0.031 C 
ATOM     68  C   UNL A   1      43.254  29.390  32.375  1.00  0.00     0.037 A 
BRANCH  55  69
ATOM     69  C   UNL A   1      39.810  32.971  36.061  1.00  0.00     0.064 A 
ATOM     70  C   UNL A   1      38.516  32.756  36.591  1.00  0.00     0.173 A 
ATOM     71  C   UNL A   1      40.682  33.661  36.929  1.00  0.00     0.173 A 
ATOM     72  F   UNL A   1      37.562  32.142  35.877  1.00  0.00    -0.203 F 
ATOM     73  C   UNL A   1      38.145  33.168  37.877  1.00  0.00     0.198 A 
ATOM     74  C   UNL A   1      40.336  33.998  38.243  1.00  0.00     0.198 A 
ATOM     75  F   UNL A   1      41.881  34.105  36.536  1.00  0.00    -0.203 F 
ATOM     76  F   UNL A   1      36.885  32.988  38.297  1.00  0.00    -0.200 F 
ATOM     77  C   UNL A   1      39.065  33.760  38.715  1.00  0.00     0.200 A 
ATOM     78  F   UNL A   1      41.246  34.581  39.039  1.00  0.00    -0.200 F 
ATOM     79  F   UNL A   1      38.725  34.118  39.960  1.00  0.00    -0.200 F 
ENDBRANCH  55  69
BRANCH  56  80
ATOM     80  C   UNL A   1      39.955  27.506  28.026  1.00  0.00     0.064 A 
ATOM     81  C   UNL A   1      40.552  28.245  26.998  1.00  0.00     0.173 A 
ATOM     82  C   UNL A   1      39.656  26.172  27.828  1.00  0.00     0.173 A 
ATOM     83  F   UNL A   1      40.618  29.582  27.054  1.00  0.00    -0.203 F 
ATOM     84  C   UNL A   1      41.162  27.571  25.955  1.00  0.00     0.198 A 
ATOM     85  C   UNL A   1      40.293  25.500  26.813  1.00  0.00     0.198 A 
ATOM     86  F   UNL A   1      38.909  25.502  28.715  1.00  0.00    -0.203 F 
ATOM     87  F   UNL A   1      41.891  28.231  25.044  1.00  0.00    -0.200 F 
ATOM     88  C   UNL A   1      41.125  26.187  25.936  1.00  0.00     0.200 A 
ATOM     89  F   UNL A   1      40.151  24.176  26.759  1.00  0.00    -0.200 F 
ATOM     90  F   UNL A   1      41.945  25.532  25.109  1.00  0.00    -0.200 F 
ENDBRANCH  56  80
BRANCH  68  91
ATOM     91  C   UNL A   1      44.628  29.995  32.412  1.00  0.00     0.064 A 
ATOM     92  C   UNL A   1      45.030  31.101  31.643  1.00  0.00     0.173 A 
ATOM     93  C   UNL A   1      45.601  29.468  33.285  1.00  0.00     0.173 A 
ATOM     94  F   UNL A   1      44.155  31.801  30.907  1.00  0.00    -0.203 F 
ATOM     95  C   UNL A   1      46.351  31.552  31.637  1.00  0.00     0.198 A 
ATOM     96  C   UNL A   1      46.905  29.958  33.321  1.00  0.00     0.198 A 
ATOM     97  F   UNL A   1      45.310  28.467  34.128  1.00  0.00    -0.203 F 
ATOM     98  F   UNL A   1      46.709  32.554  30.821  1.00  0.00    -0.200 F 
ATOM     99  C   UNL A   1      47.291  30.973  32.469  1.00  0.00     0.200 A 
ATOM    100  F   UNL A   1      47.789  29.433  34.181  1.00  0.00    -0.200 F 
ATOM    101  F   UNL A   1      48.558  31.406  32.462  1.00  0.00    -0.200 F 
ENDBRANCH  68  91
ENDBRANCH  42  43
ENDBRANCH  35  37
ENDBRANCH  34  35
ENDBRANCH  33  34
ENDBRANCH  32  33
ENDBRANCH  31  32
ENDBRANCH  30  31
ENDBRANCH   1  30
TORSDOF 19
ENDMDL
MODEL 3
REMARK VINA RESULT:     -13.3      4.468      6.682
REMARK SMILES Cc1ccccc1NC(=S)NN1C(=O)CS[C@H]1c1ccccc1C(=O)OCCOCCOC(=O)c1ccc(-c2c3nc(c(-c4c(F)c(F)c(F)c(F)c4F)c4ccc([nH]4)c(-c4c(F)c(F)c(F)c(F)c4F)c4nc(c(-c5c(F)c(F)c(F)c(F)c5F)c5ccc2[nH]5)C=C4)C=C3)cc1
REMARK SMILES IDX 27 1 26 2 24 3 25 4 23 5 18 6 19 7 20 8 22 9 21 10 17 11
REMARK SMILES IDX 12 12 13 13 14 14 15 15 16 16 11 17 9 19 10 20 8 21 7 23
REMARK SMILES IDX 1 24 2 25 3 26 4 27 6 28 5 29 28 30 29 31 30 32 31 33 32 34
REMARK SMILES IDX 33 35 34 36 35 37 36 38 97 39 37 40 96 41 38 42 39 43 40 44
REMARK SMILES IDX 90 45 41 46 95 47 89 48 91 49 42 50 94 51 88 52 87 53 43 55
REMARK SMILES IDX 75 56 55 57 74 58 56 59 59 60 73 61 92 62 57 63 58 64 72 66
REMARK SMILES IDX 93 67 60 68 44 69 45 70 53 71 46 72 47 73 51 74 54 75 48 76
REMARK SMILES IDX 49 77 52 78 50 79 76 80 77 81 85 82 78 83 79 84 83 85 86 86
REMARK SMILES IDX 80 87 81 88 84 89 82 90 61 91 62 92 70 93 63 94 64 95 68 96
REMARK SMILES IDX 71 97 65 98 66 99 69 100 67 101
REMARK H PARENT 11 18 8 22 91 54 59 65
REMARK Flexibility Score: inf
ROOT
ATOM      1  C   UNL A   1      31.420  27.877  27.054  1.00  0.00     0.261 C 
ENDROOT
BRANCH   1   2
ATOM      2  O   UNL A   1      31.273  26.142  26.859  1.00  0.00    -0.460 OA
BRANCH   2   3
ATOM      3  C   UNL A   1      31.868  24.836  26.719  1.00  0.00     0.338 C 
ATOM      4  O   UNL A   1      31.315  23.904  27.315  1.00  0.00    -0.246 OA
BRANCH   3   5
ATOM      5  C   UNL A   1      33.094  24.208  25.900  1.00  0.00     0.066 A 
ATOM      6  C   UNL A   1      33.368  24.314  24.518  1.00  0.00     0.001 A 
ATOM      7  C   UNL A   1      34.691  24.273  24.028  1.00  0.00     0.008 A 
ATOM      8  C   UNL A   1      35.675  23.666  24.782  1.00  0.00     0.000 A 
ATOM      9  C   UNL A   1      34.087  23.488  26.605  1.00  0.00     0.016 A 
ATOM     10  C   UNL A   1      35.331  23.155  26.024  1.00  0.00     0.001 A 
BRANCH   6  11
ATOM     11  C   UNL A   1      32.269  23.926  23.546  1.00  0.00     0.197 C 
ATOM     12  N   UNL A   1      31.910  25.119  22.874  1.00  0.00    -0.236 N 
ATOM     13  C   UNL A   1      33.125  25.304  22.008  1.00  0.00     0.252 C 
ATOM     14  O   UNL A   1      34.025  26.132  21.985  1.00  0.00    -0.272 OA
ATOM     15  C   UNL A   1      33.174  24.116  21.092  1.00  0.00     0.174 C 
ATOM     16  S   UNL A   1      32.789  22.769  22.220  1.00  0.00    -0.120 SA
BRANCH  12  17
ATOM     17  N   UNL A   1      30.847  26.133  23.783  1.00  0.00    -0.270 N 
ATOM     18  H   UNL A   1      30.996  25.925  24.734  1.00  0.00     0.191 HD
BRANCH  17  19
ATOM     19  C   UNL A   1      29.819  27.170  23.734  1.00  0.00     0.189 C 
ATOM     20  S   UNL A   1      28.408  26.274  24.083  1.00  0.00    -0.039 S 
BRANCH  19  21
ATOM     21  N   UNL A   1      29.740  28.646  23.577  1.00  0.00    -0.331 N 
ATOM     22  H   UNL A   1      30.432  29.017  24.169  1.00  0.00     0.169 HD
BRANCH  21  23
ATOM     23  C   UNL A   1      29.015  29.944  22.858  1.00  0.00     0.043 A 
ATOM     24  C   UNL A   1      29.485  32.087  24.441  1.00  0.00     0.046 C 
ATOM     25  C   UNL A   1      29.179  31.350  23.160  1.00  0.00    -0.028 A 
ATOM     26  C   UNL A   1      28.830  32.378  22.189  1.00  0.00     0.005 A 
ATOM     27  C   UNL A   1      28.298  32.115  20.957  1.00  0.00     0.000 A 
ATOM     28  C   UNL A   1      28.100  29.863  21.793  1.00  0.00     0.026 A 
ATOM     29  C   UNL A   1      27.850  30.843  20.794  1.00  0.00     0.002 A 
ENDBRANCH  21  23
ENDBRANCH  19  21
ENDBRANCH  17  19
ENDBRANCH  12  17
ENDBRANCH   6  11
ENDBRANCH   3   5
ENDBRANCH   2   3
ENDBRANCH   1   2
BRANCH   1  30
ATOM     30  C   UNL A   1      32.443  29.048  26.059  1.00  0.00     0.202 C 
BRANCH  30  31
ATOM     31  O   UNL A   1      33.908  29.179  26.179  1.00  0.00    -0.374 OA
BRANCH  31  32
ATOM     32  C   UNL A   1      34.760  29.508  27.283  1.00  0.00     0.202 C 
BRANCH  32  33
ATOM     33  C   UNL A   1      34.821  31.059  27.499  1.00  0.00     0.261 C 
BRANCH  33  34
ATOM     34  O   UNL A   1      33.608  31.543  28.154  1.00  0.00    -0.460 OA
BRANCH  34  35
ATOM     35  C   UNL A   1      33.385  32.890  28.250  1.00  0.00     0.338 C 
ATOM     36  O   UNL A   1      32.587  33.531  27.602  1.00  0.00    -0.246 OA
BRANCH  35  37
ATOM     37  C   UNL A   1      34.464  33.501  29.111  1.00  0.00     0.060 A 
ATOM     38  C   UNL A   1      35.599  34.038  28.508  1.00  0.00     0.016 A 
ATOM     39  C   UNL A   1      34.522  33.304  30.480  1.00  0.00     0.016 A 
ATOM     40  C   UNL A   1      36.856  33.981  29.166  1.00  0.00     0.010 A 
ATOM     41  C   UNL A   1      35.787  33.227  31.100  1.00  0.00     0.010 A 
ATOM     42  C   UNL A   1      36.984  33.318  30.363  1.00  0.00    -0.014 A 
BRANCH  42  43
ATOM     43  C   UNL A   1      38.238  32.653  30.867  1.00  0.00     0.031 A 
ATOM     44  C   UNL A   1      38.373  31.169  30.588  1.00  0.00     0.074 A 
ATOM     45  C   UNL A   1      39.417  33.203  31.348  1.00  0.00     0.049 A 
ATOM     46  N   UNL A   1      39.355  30.409  30.985  1.00  0.00    -0.248 NA
ATOM     47  C   UNL A   1      37.368  30.404  29.849  1.00  0.00     0.031 C 
ATOM     48  C   UNL A   1      40.669  32.637  30.830  1.00  0.00     0.029 A 
ATOM     49  N   UNL A   1      39.923  34.319  32.107  1.00  0.00    -0.354 N 
ATOM     50  C   UNL A   1      39.370  29.337  30.128  1.00  0.00     0.074 A 
ATOM     51  C   UNL A   1      38.011  29.247  29.658  1.00  0.00     0.031 C 
ATOM     52  C   UNL A   1      41.719  33.108  31.482  1.00  0.00     0.029 A 
ATOM     53  C   UNL A   1      41.298  34.045  32.483  1.00  0.00     0.049 A 
ATOM     54  H   UNL A   1      39.417  35.133  32.335  1.00  0.00     0.167 HD
ATOM     55  C   UNL A   1      40.554  28.793  29.718  1.00  0.00     0.037 A 
ATOM     56  C   UNL A   1      42.169  34.432  33.472  1.00  0.00     0.037 A 
ATOM     57  C   UNL A   1      41.733  29.289  30.445  1.00  0.00     0.049 A 
ATOM     58  C   UNL A   1      43.118  33.357  33.936  1.00  0.00     0.074 A 
ATOM     59  C   UNL A   1      42.921  29.871  30.035  1.00  0.00     0.029 A 
ATOM     60  N   UNL A   1      41.754  29.318  31.841  1.00  0.00    -0.354 N 
ATOM     61  N   UNL A   1      43.386  32.300  33.236  1.00  0.00    -0.248 NA
ATOM     62  C   UNL A   1      43.637  33.241  35.302  1.00  0.00     0.031 C 
ATOM     63  C   UNL A   1      43.679  30.192  31.189  1.00  0.00     0.029 A 
ATOM     64  C   UNL A   1      42.950  29.837  32.314  1.00  0.00     0.049 A 
ATOM     65  H   UNL A   1      41.017  29.011  32.416  1.00  0.00     0.167 HD
ATOM     66  C   UNL A   1      43.570  31.273  34.112  1.00  0.00     0.074 A 
ATOM     67  C   UNL A   1      43.927  31.929  35.352  1.00  0.00     0.031 C 
ATOM     68  C   UNL A   1      43.217  30.006  33.745  1.00  0.00     0.037 A 
BRANCH  55  69
ATOM     69  C   UNL A   1      40.716  27.888  28.498  1.00  0.00     0.064 A 
ATOM     70  C   UNL A   1      41.271  28.400  27.301  1.00  0.00     0.173 A 
ATOM     71  C   UNL A   1      40.276  26.550  28.405  1.00  0.00     0.173 A 
ATOM     72  F   UNL A   1      41.706  29.664  27.219  1.00  0.00    -0.203 F 
ATOM     73  C   UNL A   1      41.399  27.634  26.137  1.00  0.00     0.198 A 
ATOM     74  C   UNL A   1      40.480  25.762  27.267  1.00  0.00     0.198 A 
ATOM     75  F   UNL A   1      39.570  25.959  29.375  1.00  0.00    -0.203 F 
ATOM     76  F   UNL A   1      41.879  28.195  25.018  1.00  0.00    -0.200 F 
ATOM     77  C   UNL A   1      41.033  26.305  26.129  1.00  0.00     0.200 A 
ATOM     78  F   UNL A   1      40.109  24.472  27.279  1.00  0.00    -0.200 F 
ATOM     79  F   UNL A   1      41.193  25.558  25.028  1.00  0.00    -0.200 F 
ENDBRANCH  55  69
BRANCH  56  80
ATOM     80  C   UNL A   1      41.879  35.595  34.302  1.00  0.00     0.064 A 
ATOM     81  C   UNL A   1      41.050  35.460  35.422  1.00  0.00     0.173 A 
ATOM     82  C   UNL A   1      42.790  36.633  34.244  1.00  0.00     0.173 A 
ATOM     83  F   UNL A   1      39.991  34.639  35.405  1.00  0.00    -0.203 F 
ATOM     84  C   UNL A   1      41.390  36.117  36.591  1.00  0.00     0.198 A 
ATOM     85  C   UNL A   1      43.149  37.257  35.414  1.00  0.00     0.198 A 
ATOM     86  F   UNL A   1      43.447  36.900  33.108  1.00  0.00    -0.203 F 
ATOM     87  F   UNL A   1      40.725  35.880  37.731  1.00  0.00    -0.200 F 
ATOM     88  C   UNL A   1      42.514  36.925  36.605  1.00  0.00     0.200 A 
ATOM     89  F   UNL A   1      44.171  38.112  35.373  1.00  0.00    -0.200 F 
ATOM     90  F   UNL A   1      43.007  37.322  37.783  1.00  0.00    -0.200 F 
ENDBRANCH  56  80
BRANCH  68  91
ATOM     91  C   UNL A   1      43.155  28.852  34.704  1.00  0.00     0.064 A 
ATOM     92  C   UNL A   1      41.997  28.455  35.395  1.00  0.00     0.173 A 
ATOM     93  C   UNL A   1      44.305  28.068  34.931  1.00  0.00     0.173 A 
ATOM     94  F   UNL A   1      40.802  29.004  35.136  1.00  0.00    -0.203 F 
ATOM     95  C   UNL A   1      42.024  27.443  36.356  1.00  0.00     0.198 A 
ATOM     96  C   UNL A   1      44.315  27.020  35.849  1.00  0.00     0.198 A 
ATOM     97  F   UNL A   1      45.445  28.298  34.265  1.00  0.00    -0.203 F 
ATOM     98  F   UNL A   1      40.916  27.159  37.055  1.00  0.00    -0.200 F 
ATOM     99  C   UNL A   1      43.186  26.733  36.590  1.00  0.00     0.200 A 
ATOM    100  F   UNL A   1      45.429  26.294  36.016  1.00  0.00    -0.200 F 
ATOM    101  F   UNL A   1      43.212  25.763  37.513  1.00  0.00    -0.200 F 
ENDBRANCH  68  91
ENDBRANCH  42  43
ENDBRANCH  35  37
ENDBRANCH  34  35
ENDBRANCH  33  34
ENDBRANCH  32  33
ENDBRANCH  31  32
ENDBRANCH  30  31
ENDBRANCH   1  30
TORSDOF 19
ENDMDL
