MODEL 1
REMARK VINA RESULT:     -12.4      0.000      0.000
REMARK SMILES CCn1nc(-c2cccnc2)c2cc(C(=O)OCCOCCOC(=O)c3ccc(-c4c5nc(c(-c6c(F)c(F)c(F)c(F)c6F)c6ccc([nH]6)c(-c6c(F)c(F)c(F)c(F)c6F)c6nc(c(-c7c(F)c(F)c(F)c(F)c7F)c7ccc4[nH]7)C=C6)C=C5)cc3)sc21
REMARK SMILES IDX 21 1 20 2 19 3 18 4 17 5 15 6 16 7 14 8 3 9 4 10 90 11 5 12
REMARK SMILES IDX 12 13 89 14 13 15 2 16 1 17 6 18 7 19 11 20 8 21 10 22 9 23
REMARK SMILES IDX 22 24 23 25 24 26 25 27 26 28 27 29 88 30 28 31 87 32 29 33
REMARK SMILES IDX 30 34 31 35 81 36 32 37 86 38 80 39 82 40 33 41 85 42 79 43
REMARK SMILES IDX 78 44 34 46 66 47 46 48 65 49 47 50 50 51 64 52 83 53 48 54
REMARK SMILES IDX 49 55 63 57 84 58 51 59 35 60 36 61 44 62 37 63 38 64 42 65
REMARK SMILES IDX 45 66 39 67 40 68 43 69 41 70 67 71 68 72 76 73 69 74 70 75
REMARK SMILES IDX 74 76 77 77 71 78 72 79 75 80 73 81 52 82 53 83 61 84 54 85
REMARK SMILES IDX 55 86 59 87 62 88 56 89 57 90 60 91 58 92
REMARK H PARENT 82 45 50 56
REMARK Flexibility Score: inf
ROOT
ATOM      1  C   UNL A   1      42.211  19.836  27.290  1.00  0.00     0.202 C 
ENDROOT
BRANCH   1   2
ATOM      2  O   UNL A   1      41.348  20.966  27.201  1.00  0.00    -0.374 OA
BRANCH   2   3
ATOM      3  C   UNL A   1      40.126  20.862  26.471  1.00  0.00     0.202 C 
BRANCH   3   4
ATOM      4  C   UNL A   1      39.361  22.159  26.201  1.00  0.00     0.261 C 
BRANCH   4   5
ATOM      5  O   UNL A   1      38.059  21.903  25.656  1.00  0.00    -0.459 OA
BRANCH   5   6
ATOM      6  C   UNL A   1      37.139  22.906  25.788  1.00  0.00     0.348 C 
ATOM      7  O   UNL A   1      37.410  24.093  25.866  1.00  0.00    -0.245 OA
BRANCH   6   8
ATOM      8  C   UNL A   1      35.795  22.371  25.660  1.00  0.00     0.115 A 
ATOM      9  N   UNL A   1      32.087  21.877  25.422  1.00  0.00    -0.254 N 
ATOM     10  N   UNL A   1      31.841  20.551  25.216  1.00  0.00    -0.171 NA
ATOM     11  C   UNL A   1      33.409  22.122  25.533  1.00  0.00     0.122 A 
ATOM     12  C   UNL A   1      33.065  19.965  25.214  1.00  0.00     0.103 A 
ATOM     13  C   UNL A   1      34.035  20.950  25.416  1.00  0.00     0.040 A 
ATOM     14  S   UNL A   1      34.408  23.429  25.724  1.00  0.00    -0.109 S 
ATOM     15  C   UNL A   1      35.424  21.031  25.480  1.00  0.00     0.040 A 
BRANCH   9  16
ATOM     16  C   UNL A   1      31.007  22.840  25.394  1.00  0.00     0.142 C 
ATOM     17  C   UNL A   1      30.442  23.147  26.772  1.00  0.00     0.029 C 
ENDBRANCH   9  16
BRANCH  12  18
ATOM     18  C   UNL A   1      33.205  18.545  24.959  1.00  0.00     0.021 A 
ATOM     19  C   UNL A   1      33.936  18.091  23.858  1.00  0.00     0.013 A 
ATOM     20  C   UNL A   1      32.590  17.593  25.760  1.00  0.00     0.121 A 
ATOM     21  C   UNL A   1      34.028  16.724  23.606  1.00  0.00     0.021 A 
ATOM     22  N   UNL A   1      32.666  16.254  25.544  1.00  0.00    -0.264 NA
ATOM     23  C   UNL A   1      33.380  15.854  24.467  1.00  0.00     0.111 A 
ENDBRANCH  12  18
ENDBRANCH   6   8
ENDBRANCH   5   6
ENDBRANCH   4   5
ENDBRANCH   3   4
ENDBRANCH   2   3
ENDBRANCH   1   2
BRANCH   1  24
ATOM     24  C   UNL A   1      42.701  19.221  25.988  1.00  0.00     0.261 C 
BRANCH  24  25
ATOM     25  O   UNL A   1      43.116  20.232  25.086  1.00  0.00    -0.460 OA
BRANCH  25  26
ATOM     26  C   UNL A   1      44.457  20.368  24.961  1.00  0.00     0.338 C 
ATOM     27  O   UNL A   1      45.303  19.501  25.042  1.00  0.00    -0.246 OA
BRANCH  26  28
ATOM     28  C   UNL A   1      44.747  21.806  24.862  1.00  0.00     0.060 A 
ATOM     29  C   UNL A   1      45.838  22.242  25.615  1.00  0.00     0.016 A 
ATOM     30  C   UNL A   1      43.736  22.674  24.429  1.00  0.00     0.016 A 
ATOM     31  C   UNL A   1      45.727  23.459  26.239  1.00  0.00     0.010 A 
ATOM     32  C   UNL A   1      43.619  23.880  25.063  1.00  0.00     0.010 A 
ATOM     33  C   UNL A   1      44.548  24.187  26.051  1.00  0.00    -0.014 A 
BRANCH  33  34
ATOM     34  C   UNL A   1      44.301  25.327  26.899  1.00  0.00     0.031 A 
ATOM     35  C   UNL A   1      45.335  26.366  26.739  1.00  0.00     0.074 A 
ATOM     36  C   UNL A   1      43.185  25.423  27.645  1.00  0.00     0.049 A 
ATOM     37  N   UNL A   1      46.247  26.707  27.585  1.00  0.00    -0.248 NA
ATOM     38  C   UNL A   1      45.514  26.932  25.392  1.00  0.00     0.031 C 
ATOM     39  C   UNL A   1      41.998  24.561  27.654  1.00  0.00     0.029 A 
ATOM     40  N   UNL A   1      42.850  26.409  28.518  1.00  0.00    -0.354 N 
ATOM     41  C   UNL A   1      47.000  27.676  26.934  1.00  0.00     0.074 A 
ATOM     42  C   UNL A   1      46.659  27.595  25.542  1.00  0.00     0.031 C 
ATOM     43  C   UNL A   1      40.994  25.186  28.316  1.00  0.00     0.029 A 
ATOM     44  C   UNL A   1      41.507  26.419  28.886  1.00  0.00     0.049 A 
ATOM     45  H   UNL A   1      43.502  27.061  28.863  1.00  0.00     0.167 HD
ATOM     46  C   UNL A   1      47.635  28.655  27.630  1.00  0.00     0.037 A 
ATOM     47  C   UNL A   1      40.894  27.447  29.528  1.00  0.00     0.037 A 
ATOM     48  C   UNL A   1      47.767  28.300  29.020  1.00  0.00     0.049 A 
ATOM     49  C   UNL A   1      41.971  28.264  30.158  1.00  0.00     0.074 A 
ATOM     50  C   UNL A   1      48.438  27.302  29.698  1.00  0.00     0.029 A 
ATOM     51  N   UNL A   1      46.818  28.776  29.894  1.00  0.00    -0.354 N 
ATOM     52  N   UNL A   1      42.723  27.828  31.133  1.00  0.00    -0.248 NA
ATOM     53  C   UNL A   1      42.543  29.341  29.359  1.00  0.00     0.031 C 
ATOM     54  C   UNL A   1      47.557  26.909  30.747  1.00  0.00     0.029 A 
ATOM     55  C   UNL A   1      46.433  27.735  30.701  1.00  0.00     0.049 A 
ATOM     56  H   UNL A   1      46.476  29.697  29.932  1.00  0.00     0.167 HD
ATOM     57  C   UNL A   1      44.002  28.273  30.823  1.00  0.00     0.074 A 
ATOM     58  C   UNL A   1      43.821  29.237  29.740  1.00  0.00     0.031 C 
ATOM     59  C   UNL A   1      45.109  27.605  31.262  1.00  0.00     0.037 A 
BRANCH  46  60
ATOM     60  C   UNL A   1      47.790  30.067  27.130  1.00  0.00     0.064 A 
ATOM     61  C   UNL A   1      49.064  30.662  27.158  1.00  0.00     0.173 A 
ATOM     62  C   UNL A   1      46.711  30.949  26.889  1.00  0.00     0.173 A 
ATOM     63  F   UNL A   1      50.158  29.923  27.395  1.00  0.00    -0.203 F 
ATOM     64  C   UNL A   1      49.233  32.043  27.031  1.00  0.00     0.198 A 
ATOM     65  C   UNL A   1      46.891  32.317  26.703  1.00  0.00     0.198 A 
ATOM     66  F   UNL A   1      45.434  30.557  26.933  1.00  0.00    -0.203 F 
ATOM     67  F   UNL A   1      50.451  32.578  27.190  1.00  0.00    -0.200 F 
ATOM     68  C   UNL A   1      48.147  32.869  26.809  1.00  0.00     0.200 A 
ATOM     69  F   UNL A   1      45.821  33.098  26.504  1.00  0.00    -0.200 F 
ATOM     70  F   UNL A   1      48.301  34.198  26.745  1.00  0.00    -0.200 F 
ENDBRANCH  46  60
BRANCH  47  71
ATOM     71  C   UNL A   1      39.533  27.985  29.278  1.00  0.00     0.064 A 
ATOM     72  C   UNL A   1      38.611  28.163  30.324  1.00  0.00     0.173 A 
ATOM     73  C   UNL A   1      39.209  28.601  28.052  1.00  0.00     0.173 A 
ATOM     74  F   UNL A   1      38.869  27.659  31.540  1.00  0.00    -0.203 F 
ATOM     75  C   UNL A   1      37.444  28.919  30.156  1.00  0.00     0.198 A 
ATOM     76  C   UNL A   1      38.045  29.353  27.885  1.00  0.00     0.198 A 
ATOM     77  F   UNL A   1      40.065  28.566  27.021  1.00  0.00    -0.203 F 
ATOM     78  F   UNL A   1      36.615  29.112  31.192  1.00  0.00    -0.200 F 
ATOM     79  C   UNL A   1      37.168  29.521  28.939  1.00  0.00     0.200 A 
ATOM     80  F   UNL A   1      37.814  29.967  26.716  1.00  0.00    -0.200 F 
ATOM     81  F   UNL A   1      36.083  30.295  28.794  1.00  0.00    -0.200 F 
ENDBRANCH  47  71
BRANCH  59  82
ATOM     82  C   UNL A   1      44.905  26.491  32.254  1.00  0.00     0.064 A 
ATOM     83  C   UNL A   1      44.761  26.690  33.639  1.00  0.00     0.173 A 
ATOM     84  C   UNL A   1      44.677  25.199  31.764  1.00  0.00     0.173 A 
ATOM     85  F   UNL A   1      44.865  27.914  34.172  1.00  0.00    -0.203 F 
ATOM     86  C   UNL A   1      44.437  25.636  34.494  1.00  0.00     0.198 A 
ATOM     87  C   UNL A   1      44.319  24.156  32.615  1.00  0.00     0.198 A 
ATOM     88  F   UNL A   1      44.743  24.962  30.446  1.00  0.00    -0.203 F 
ATOM     89  F   UNL A   1      44.307  25.853  35.812  1.00  0.00    -0.200 F 
ATOM     90  C   UNL A   1      44.207  24.371  33.978  1.00  0.00     0.200 A 
ATOM     91  F   UNL A   1      44.046  22.947  32.104  1.00  0.00    -0.200 F 
ATOM     92  F   UNL A   1      43.848  23.368  34.791  1.00  0.00    -0.200 F 
ENDBRANCH  59  82
ENDBRANCH  33  34
ENDBRANCH  26  28
ENDBRANCH  25  26
ENDBRANCH  24  25
ENDBRANCH   1  24
TORSDOF 16
ENDMDL
MODEL 2
REMARK VINA RESULT:     -12.1      4.402      7.456
REMARK SMILES CCn1nc(-c2cccnc2)c2cc(C(=O)OCCOCCOC(=O)c3ccc(-c4c5nc(c(-c6c(F)c(F)c(F)c(F)c6F)c6ccc([nH]6)c(-c6c(F)c(F)c(F)c(F)c6F)c6nc(c(-c7c(F)c(F)c(F)c(F)c7F)c7ccc4[nH]7)C=C6)C=C5)cc3)sc21
REMARK SMILES IDX 21 1 20 2 19 3 18 4 17 5 15 6 16 7 14 8 3 9 4 10 90 11 5 12
REMARK SMILES IDX 12 13 89 14 13 15 2 16 1 17 6 18 7 19 11 20 8 21 10 22 9 23
REMARK SMILES IDX 22 24 23 25 24 26 25 27 26 28 27 29 88 30 28 31 87 32 29 33
REMARK SMILES IDX 30 34 31 35 81 36 32 37 86 38 80 39 82 40 33 41 85 42 79 43
REMARK SMILES IDX 78 44 34 46 66 47 46 48 65 49 47 50 50 51 64 52 83 53 48 54
REMARK SMILES IDX 49 55 63 57 84 58 51 59 35 60 36 61 44 62 37 63 38 64 42 65
REMARK SMILES IDX 45 66 39 67 40 68 43 69 41 70 67 71 68 72 76 73 69 74 70 75
REMARK SMILES IDX 74 76 77 77 71 78 72 79 75 80 73 81 52 82 53 83 61 84 54 85
REMARK SMILES IDX 55 86 59 87 62 88 56 89 57 90 60 91 58 92
REMARK H PARENT 82 45 50 56
REMARK Flexibility Score: inf
ROOT
ATOM      1  C   UNL A   1      40.954  19.818  26.713  1.00  0.00     0.202 C 
ENDROOT
BRANCH   1   2
ATOM      2  O   UNL A   1      41.638  19.017  25.754  1.00  0.00    -0.374 OA
BRANCH   2   3
ATOM      3  C   UNL A   1      43.023  18.727  25.940  1.00  0.00     0.202 C 
BRANCH   3   4
ATOM      4  C   UNL A   1      43.988  19.191  24.848  1.00  0.00     0.261 C 
BRANCH   4   5
ATOM      5  O   UNL A   1      44.211  20.606  24.902  1.00  0.00    -0.459 OA
BRANCH   5   6
ATOM      6  C   UNL A   1      45.441  21.010  25.344  1.00  0.00     0.348 C 
ATOM      7  O   UNL A   1      46.470  20.366  25.221  1.00  0.00    -0.245 OA
BRANCH   6   8
ATOM      8  C   UNL A   1      45.374  22.377  25.830  1.00  0.00     0.115 A 
ATOM      9  N   UNL A   1      45.138  26.101  26.185  1.00  0.00    -0.254 N 
ATOM     10  N   UNL A   1      45.151  26.409  27.514  1.00  0.00    -0.171 NA
ATOM     11  C   UNL A   1      45.236  24.770  25.986  1.00  0.00     0.122 A 
ATOM     12  C   UNL A   1      45.275  25.215  28.148  1.00  0.00     0.103 A 
ATOM     13  C   UNL A   1      45.332  24.201  27.189  1.00  0.00     0.040 A 
ATOM     14  S   UNL A   1      45.229  23.711  24.713  1.00  0.00    -0.109 S 
ATOM     15  C   UNL A   1      45.412  22.811  27.163  1.00  0.00     0.040 A 
BRANCH   9  16
ATOM     16  C   UNL A   1      44.926  27.132  25.192  1.00  0.00     0.142 C 
ATOM     17  C   UNL A   1      46.216  27.625  24.555  1.00  0.00     0.029 C 
ENDBRANCH   9  16
BRANCH  12  18
ATOM     18  C   UNL A   1      45.263  25.142  29.596  1.00  0.00     0.021 A 
ATOM     19  C   UNL A   1      44.485  24.185  30.251  1.00  0.00     0.013 A 
ATOM     20  C   UNL A   1      45.980  26.036  30.380  1.00  0.00     0.121 A 
ATOM     21  C   UNL A   1      44.457  24.153  31.643  1.00  0.00     0.021 A 
ATOM     22  N   UNL A   1      45.976  26.027  31.738  1.00  0.00    -0.264 NA
ATOM     23  C   UNL A   1      45.209  25.088  32.336  1.00  0.00     0.111 A 
ENDBRANCH  12  18
ENDBRANCH   6   8
ENDBRANCH   5   6
ENDBRANCH   4   5
ENDBRANCH   3   4
ENDBRANCH   2   3
ENDBRANCH   1   2
BRANCH   1  24
ATOM     24  C   UNL A   1      40.262  21.077  26.214  1.00  0.00     0.261 C 
BRANCH  24  25
ATOM     25  O   UNL A   1      40.642  22.196  26.997  1.00  0.00    -0.460 OA
BRANCH  25  26
ATOM     26  C   UNL A   1      39.895  23.308  26.801  1.00  0.00     0.338 C 
ATOM     27  O   UNL A   1      38.727  23.372  26.478  1.00  0.00    -0.246 OA
BRANCH  26  28
ATOM     28  C   UNL A   1      40.796  24.466  26.893  1.00  0.00     0.060 A 
ATOM     29  C   UNL A   1      41.554  24.534  28.062  1.00  0.00     0.016 A 
ATOM     30  C   UNL A   1      40.541  25.591  26.096  1.00  0.00     0.016 A 
ATOM     31  C   UNL A   1      41.742  25.773  28.621  1.00  0.00     0.010 A 
ATOM     32  C   UNL A   1      40.715  26.824  26.661  1.00  0.00     0.010 A 
ATOM     33  C   UNL A   1      41.191  26.878  27.966  1.00  0.00    -0.014 A 
BRANCH  33  34
ATOM     34  C   UNL A   1      41.144  28.139  28.665  1.00  0.00     0.031 A 
ATOM     35  C   UNL A   1      42.293  28.999  28.324  1.00  0.00     0.074 A 
ATOM     36  C   UNL A   1      40.096  28.480  29.437  1.00  0.00     0.049 A 
ATOM     37  N   UNL A   1      43.290  29.316  29.079  1.00  0.00    -0.248 NA
ATOM     38  C   UNL A   1      42.465  29.360  26.908  1.00  0.00     0.031 C 
ATOM     39  C   UNL A   1      38.810  27.796  29.610  1.00  0.00     0.029 A 
ATOM     40  N   UNL A   1      39.944  29.605  30.184  1.00  0.00    -0.354 N 
ATOM     41  C   UNL A   1      44.123  30.083  28.274  1.00  0.00     0.074 A 
ATOM     42  C   UNL A   1      43.693  29.874  26.920  1.00  0.00     0.031 C 
ATOM     43  C   UNL A   1      37.937  28.631  30.224  1.00  0.00     0.029 A 
ATOM     44  C   UNL A   1      38.638  29.844  30.603  1.00  0.00     0.049 A 
ATOM     45  H   UNL A   1      40.694  30.200  30.411  1.00  0.00     0.167 HD
ATOM     46  C   UNL A   1      44.919  31.047  28.807  1.00  0.00     0.037 A 
ATOM     47  C   UNL A   1      38.202  31.020  31.126  1.00  0.00     0.037 A 
ATOM     48  C   UNL A   1      45.086  30.856  30.225  1.00  0.00     0.049 A 
ATOM     49  C   UNL A   1      39.411  31.756  31.597  1.00  0.00     0.074 A 
ATOM     50  C   UNL A   1      45.661  29.869  31.001  1.00  0.00     0.029 A 
ATOM     51  N   UNL A   1      44.260  31.563  31.066  1.00  0.00    -0.354 N 
ATOM     52  N   UNL A   1      40.157  31.348  32.589  1.00  0.00    -0.248 NA
ATOM     53  C   UNL A   1      40.071  32.634  30.638  1.00  0.00     0.031 C 
ATOM     54  C   UNL A   1      44.800  29.736  32.129  1.00  0.00     0.029 A 
ATOM     55  C   UNL A   1      43.792  30.695  32.020  1.00  0.00     0.049 A 
ATOM     56  H   UNL A   1      44.044  32.521  30.995  1.00  0.00     0.167 HD
ATOM     57  C   UNL A   1      41.462  31.571  32.170  1.00  0.00     0.074 A 
ATOM     58  C   UNL A   1      41.344  32.406  30.976  1.00  0.00     0.031 C 
ATOM     59  C   UNL A   1      42.497  30.819  32.647  1.00  0.00     0.037 A 
BRANCH  46  60
ATOM     60  C   UNL A   1      45.227  32.350  28.116  1.00  0.00     0.064 A 
ATOM     61  C   UNL A   1      44.186  33.274  27.916  1.00  0.00     0.173 A 
ATOM     62  C   UNL A   1      46.418  32.610  27.401  1.00  0.00     0.173 A 
ATOM     63  F   UNL A   1      43.004  33.117  28.532  1.00  0.00    -0.203 F 
ATOM     64  C   UNL A   1      44.307  34.333  27.012  1.00  0.00     0.198 A 
ATOM     65  C   UNL A   1      46.555  33.700  26.547  1.00  0.00     0.198 A 
ATOM     66  F   UNL A   1      47.460  31.772  27.404  1.00  0.00    -0.203 F 
ATOM     67  F   UNL A   1      43.247  35.114  26.761  1.00  0.00    -0.200 F 
ATOM     68  C   UNL A   1      45.488  34.541  26.325  1.00  0.00     0.200 A 
ATOM     69  F   UNL A   1      47.705  33.872  25.880  1.00  0.00    -0.200 F 
ATOM     70  F   UNL A   1      45.586  35.520  25.415  1.00  0.00    -0.200 F 
ENDBRANCH  46  60
BRANCH  47  71
ATOM     71  C   UNL A   1      36.910  31.702  30.864  1.00  0.00     0.064 A 
ATOM     72  C   UNL A   1      36.006  31.984  31.902  1.00  0.00     0.173 A 
ATOM     73  C   UNL A   1      36.665  32.345  29.634  1.00  0.00     0.173 A 
ATOM     74  F   UNL A   1      36.197  31.459  33.121  1.00  0.00    -0.203 F 
ATOM     75  C   UNL A   1      34.930  32.862  31.722  1.00  0.00     0.198 A 
ATOM     76  C   UNL A   1      35.592  33.219  29.454  1.00  0.00     0.198 A 
ATOM     77  F   UNL A   1      37.521  32.213  28.609  1.00  0.00    -0.203 F 
ATOM     78  F   UNL A   1      34.118  33.149  32.750  1.00  0.00    -0.200 F 
ATOM     79  C   UNL A   1      34.730  33.486  30.501  1.00  0.00     0.200 A 
ATOM     80  F   UNL A   1      35.438  33.850  28.281  1.00  0.00    -0.200 F 
ATOM     81  F   UNL A   1      33.738  34.373  30.345  1.00  0.00    -0.200 F 
ENDBRANCH  47  71
BRANCH  59  82
ATOM     82  C   UNL A   1      42.209  29.878  33.787  1.00  0.00     0.064 A 
ATOM     83  C   UNL A   1      41.773  28.551  33.618  1.00  0.00     0.173 A 
ATOM     84  C   UNL A   1      42.551  30.281  35.083  1.00  0.00     0.173 A 
ATOM     85  F   UNL A   1      41.522  28.060  32.398  1.00  0.00    -0.203 F 
ATOM     86  C   UNL A   1      41.655  27.682  34.704  1.00  0.00     0.198 A 
ATOM     87  C   UNL A   1      42.467  29.402  36.160  1.00  0.00     0.198 A 
ATOM     88  F   UNL A   1      43.028  31.517  35.296  1.00  0.00    -0.203 F 
ATOM     89  F   UNL A   1      41.235  26.422  34.516  1.00  0.00    -0.200 F 
ATOM     90  C   UNL A   1      42.011  28.108  35.973  1.00  0.00     0.200 A 
ATOM     91  F   UNL A   1      42.863  29.803  37.377  1.00  0.00    -0.200 F 
ATOM     92  F   UNL A   1      41.945  27.261  37.010  1.00  0.00    -0.200 F 
ENDBRANCH  59  82
ENDBRANCH  33  34
ENDBRANCH  26  28
ENDBRANCH  25  26
ENDBRANCH  24  25
ENDBRANCH   1  24
TORSDOF 16
ENDMDL
MODEL 3
REMARK VINA RESULT:     -12.1      2.724      4.002
REMARK SMILES CCn1nc(-c2cccnc2)c2cc(C(=O)OCCOCCOC(=O)c3ccc(-c4c5nc(c(-c6c(F)c(F)c(F)c(F)c6F)c6ccc([nH]6)c(-c6c(F)c(F)c(F)c(F)c6F)c6nc(c(-c7c(F)c(F)c(F)c(F)c7F)c7ccc4[nH]7)C=C6)C=C5)cc3)sc21
REMARK SMILES IDX 21 1 20 2 19 3 18 4 17 5 15 6 16 7 14 8 3 9 4 10 90 11 5 12
REMARK SMILES IDX 12 13 89 14 13 15 2 16 1 17 6 18 7 19 11 20 8 21 10 22 9 23
REMARK SMILES IDX 22 24 23 25 24 26 25 27 26 28 27 29 88 30 28 31 87 32 29 33
REMARK SMILES IDX 30 34 31 35 81 36 32 37 86 38 80 39 82 40 33 41 85 42 79 43
REMARK SMILES IDX 78 44 34 46 66 47 46 48 65 49 47 50 50 51 64 52 83 53 48 54
REMARK SMILES IDX 49 55 63 57 84 58 51 59 35 60 36 61 44 62 37 63 38 64 42 65
REMARK SMILES IDX 45 66 39 67 40 68 43 69 41 70 67 71 68 72 76 73 69 74 70 75
REMARK SMILES IDX 74 76 77 77 71 78 72 79 75 80 73 81 52 82 53 83 61 84 54 85
REMARK SMILES IDX 55 86 59 87 62 88 56 89 57 90 60 91 58 92
REMARK H PARENT 82 45 50 56
REMARK Flexibility Score: inf
ROOT
ATOM      1  C   UNL A   1      43.047  20.682  26.000  1.00  0.00     0.202 C 
ENDROOT
BRANCH   1   2
ATOM      2  O   UNL A   1      41.669  20.499  25.691  1.00  0.00    -0.374 OA
BRANCH   2   3
ATOM      3  C   UNL A   1      40.691  20.649  26.720  1.00  0.00     0.202 C 
BRANCH   3   4
ATOM      4  C   UNL A   1      39.810  21.899  26.671  1.00  0.00     0.261 C 
BRANCH   4   5
ATOM      5  O   UNL A   1      38.693  21.726  25.790  1.00  0.00    -0.459 OA
BRANCH   5   6
ATOM      6  C   UNL A   1      37.794  22.756  25.741  1.00  0.00     0.348 C 
ATOM      7  O   UNL A   1      38.067  23.928  25.945  1.00  0.00    -0.245 OA
BRANCH   6   8
ATOM      8  C   UNL A   1      36.511  22.277  25.256  1.00  0.00     0.115 A 
ATOM      9  N   UNL A   1      33.111  21.916  23.721  1.00  0.00    -0.254 N 
ATOM     10  N   UNL A   1      32.718  20.615  23.845  1.00  0.00    -0.171 NA
ATOM     11  C   UNL A   1      34.327  22.118  24.270  1.00  0.00     0.122 A 
ATOM     12  C   UNL A   1      33.733  20.005  24.508  1.00  0.00     0.103 A 
ATOM     13  C   UNL A   1      34.728  20.950  24.773  1.00  0.00     0.040 A 
ATOM     14  S   UNL A   1      35.411  23.358  24.439  1.00  0.00    -0.109 S 
ATOM     15  C   UNL A   1      35.992  20.978  25.357  1.00  0.00     0.040 A 
BRANCH   9  16
ATOM     16  C   UNL A   1      32.307  22.861  22.975  1.00  0.00     0.142 C 
ATOM     17  C   UNL A   1      31.122  23.393  23.765  1.00  0.00     0.029 C 
ENDBRANCH   9  16
BRANCH  12  18
ATOM     18  C   UNL A   1      33.694  18.581  24.772  1.00  0.00     0.021 A 
ATOM     19  C   UNL A   1      34.658  17.732  24.223  1.00  0.00     0.013 A 
ATOM     20  C   UNL A   1      32.685  18.004  25.532  1.00  0.00     0.121 A 
ATOM     21  C   UNL A   1      34.583  16.360  24.456  1.00  0.00     0.021 A 
ATOM     22  N   UNL A   1      32.588  16.672  25.780  1.00  0.00    -0.264 NA
ATOM     23  C   UNL A   1      33.538  15.883  25.230  1.00  0.00     0.111 A 
ENDBRANCH  12  18
ENDBRANCH   6   8
ENDBRANCH   5   6
ENDBRANCH   4   5
ENDBRANCH   3   4
ENDBRANCH   2   3
ENDBRANCH   1   2
BRANCH   1  24
ATOM     24  C   UNL A   1      43.746  21.896  25.409  1.00  0.00     0.261 C 
BRANCH  24  25
ATOM     25  O   UNL A   1      43.582  23.024  26.253  1.00  0.00    -0.460 OA
BRANCH  25  26
ATOM     26  C   UNL A   1      43.081  24.123  25.643  1.00  0.00     0.338 C 
ATOM     27  O   UNL A   1      43.446  24.627  24.601  1.00  0.00    -0.246 OA
BRANCH  26  28
ATOM     28  C   UNL A   1      42.091  24.719  26.552  1.00  0.00     0.060 A 
ATOM     29  C   UNL A   1      41.220  25.634  25.960  1.00  0.00     0.016 A 
ATOM     30  C   UNL A   1      42.338  24.699  27.932  1.00  0.00     0.016 A 
ATOM     31  C   UNL A   1      40.885  26.748  26.688  1.00  0.00     0.010 A 
ATOM     32  C   UNL A   1      42.017  25.817  28.652  1.00  0.00     0.010 A 
ATOM     33  C   UNL A   1      41.413  26.872  27.977  1.00  0.00    -0.014 A 
BRANCH  33  34
ATOM     34  C   UNL A   1      41.297  28.143  28.648  1.00  0.00     0.031 A 
ATOM     35  C   UNL A   1      42.410  29.048  28.307  1.00  0.00     0.074 A 
ATOM     36  C   UNL A   1      40.222  28.450  29.398  1.00  0.00     0.049 A 
ATOM     37  N   UNL A   1      43.379  29.427  29.069  1.00  0.00    -0.248 NA
ATOM     38  C   UNL A   1      42.586  29.388  26.886  1.00  0.00     0.031 C 
ATOM     39  C   UNL A   1      38.967  27.711  29.567  1.00  0.00     0.029 A 
ATOM     40  N   UNL A   1      40.007  29.582  30.119  1.00  0.00    -0.354 N 
ATOM     41  C   UNL A   1      44.188  30.216  28.260  1.00  0.00     0.074 A 
ATOM     42  C   UNL A   1      43.788  29.960  26.904  1.00  0.00     0.031 C 
ATOM     43  C   UNL A   1      38.047  28.516  30.151  1.00  0.00     0.029 A 
ATOM     44  C   UNL A   1      38.685  29.768  30.515  1.00  0.00     0.049 A 
ATOM     45  H   UNL A   1      40.726  30.216  30.345  1.00  0.00     0.167 HD
ATOM     46  C   UNL A   1      44.931  31.226  28.784  1.00  0.00     0.037 A 
ATOM     47  C   UNL A   1      38.188  30.932  31.008  1.00  0.00     0.037 A 
ATOM     48  C   UNL A   1      45.085  31.071  30.208  1.00  0.00     0.049 A 
ATOM     49  C   UNL A   1      39.354  31.733  31.480  1.00  0.00     0.074 A 
ATOM     50  C   UNL A   1      45.692  30.128  31.012  1.00  0.00     0.029 A 
ATOM     51  N   UNL A   1      44.214  31.756  31.022  1.00  0.00    -0.354 N 
ATOM     52  N   UNL A   1      40.103  31.380  32.491  1.00  0.00    -0.248 NA
ATOM     53  C   UNL A   1      39.987  32.622  30.513  1.00  0.00     0.031 C 
ATOM     54  C   UNL A   1      44.821  29.978  32.130  1.00  0.00     0.029 A 
ATOM     55  C   UNL A   1      43.772  30.886  31.987  1.00  0.00     0.049 A 
ATOM     56  H   UNL A   1      43.955  32.701  30.928  1.00  0.00     0.167 HD
ATOM     57  C   UNL A   1      41.402  31.655  32.085  1.00  0.00     0.074 A 
ATOM     58  C   UNL A   1      41.264  32.460  30.874  1.00  0.00     0.031 C 
ATOM     59  C   UNL A   1      42.463  30.962  32.593  1.00  0.00     0.037 A 
BRANCH  46  60
ATOM     60  C   UNL A   1      45.188  32.528  28.071  1.00  0.00     0.064 A 
ATOM     61  C   UNL A   1      46.498  32.831  27.661  1.00  0.00     0.173 A 
ATOM     62  C   UNL A   1      44.271  33.603  28.022  1.00  0.00     0.173 A 
ATOM     63  F   UNL A   1      47.456  31.891  27.683  1.00  0.00    -0.203 F 
ATOM     64  C   UNL A   1      46.876  34.127  27.304  1.00  0.00     0.198 A 
ATOM     65  C   UNL A   1      44.637  34.880  27.607  1.00  0.00     0.198 A 
ATOM     66  F   UNL A   1      43.016  33.503  28.474  1.00  0.00    -0.203 F 
ATOM     67  F   UNL A   1      48.162  34.394  27.042  1.00  0.00    -0.200 F 
ATOM     68  C   UNL A   1      45.947  35.151  27.282  1.00  0.00     0.200 A 
ATOM     69  F   UNL A   1      43.722  35.859  27.609  1.00  0.00    -0.200 F 
ATOM     70  F   UNL A   1      46.318  36.406  26.996  1.00  0.00    -0.200 F 
ENDBRANCH  46  60
BRANCH  47  71
ATOM     71  C   UNL A   1      36.870  31.548  30.713  1.00  0.00     0.064 A 
ATOM     72  C   UNL A   1      35.950  31.837  31.735  1.00  0.00     0.173 A 
ATOM     73  C   UNL A   1      36.603  32.126  29.455  1.00  0.00     0.173 A 
ATOM     74  F   UNL A   1      36.158  31.375  32.977  1.00  0.00    -0.203 F 
ATOM     75  C   UNL A   1      34.839  32.661  31.515  1.00  0.00     0.198 A 
ATOM     76  C   UNL A   1      35.495  32.946  29.235  1.00  0.00     0.198 A 
ATOM     77  F   UNL A   1      37.467  31.985  28.439  1.00  0.00    -0.203 F 
ATOM     78  F   UNL A   1      34.013  32.959  32.528  1.00  0.00    -0.200 F 
ATOM     79  C   UNL A   1      34.619  33.223  30.267  1.00  0.00     0.200 A 
ATOM     80  F   UNL A   1      35.320  33.518  28.036  1.00  0.00    -0.200 F 
ATOM     81  F   UNL A   1      33.591  34.060  30.070  1.00  0.00    -0.200 F 
ENDBRANCH  47  71
BRANCH  59  82
ATOM     82  C   UNL A   1      42.202  30.032  33.748  1.00  0.00     0.064 A 
ATOM     83  C   UNL A   1      41.810  28.689  33.601  1.00  0.00     0.173 A 
ATOM     84  C   UNL A   1      42.527  30.468  35.038  1.00  0.00     0.173 A 
ATOM     85  F   UNL A   1      41.578  28.170  32.389  1.00  0.00    -0.203 F 
ATOM     86  C   UNL A   1      41.716  27.835  34.701  1.00  0.00     0.198 A 
ATOM     87  C   UNL A   1      42.467  29.605  36.129  1.00  0.00     0.198 A 
ATOM     88  F   UNL A   1      42.964  31.721  35.231  1.00  0.00    -0.203 F 
ATOM     89  F   UNL A   1      41.337  26.559  34.532  1.00  0.00    -0.200 F 
ATOM     90  C   UNL A   1      42.054  28.293  35.963  1.00  0.00     0.200 A 
ATOM     91  F   UNL A   1      42.846  30.038  37.340  1.00  0.00    -0.200 F 
ATOM     92  F   UNL A   1      42.011  27.462  37.014  1.00  0.00    -0.200 F 
ENDBRANCH  59  82
ENDBRANCH  33  34
ENDBRANCH  26  28
ENDBRANCH  25  26
ENDBRANCH  24  25
ENDBRANCH   1  24
TORSDOF 16
ENDMDL
