MODEL 1
REMARK VINA RESULT:     -10.9      0.000      0.000
REMARK SMILES C[C@H](C(=O)OCCOCCOC(=O)c1ccc(-c2c3nc(c(-c4c(F)c(F)c(F)c(F)c4F)c4ccc([nH]4)c(-c4c(F)c(F)c(F)c(F)c4F)c4nc(c(-c5c(F)c(F)c(F)c(F)c5F)c5ccc2[nH]5)C=C4)C=C3)cc1)c1ccc(C[C@H]2CCC[C@@H]2O)cc1
REMARK SMILES IDX 7 1 6 2 5 3 3 4 4 5 2 6 1 7 77 8 78 9 89 10 79 11 88 12
REMARK SMILES IDX 80 13 81 14 82 15 83 16 86 17 84 18 85 19 87 20 8 22 9 23
REMARK SMILES IDX 10 24 11 25 12 26 13 27 14 28 15 29 76 30 16 31 75 32 17 33
REMARK SMILES IDX 18 34 19 35 69 36 20 37 74 38 68 39 70 40 21 41 73 42 67 43
REMARK SMILES IDX 66 44 22 46 54 47 34 48 53 49 35 50 38 51 52 52 71 53 36 54
REMARK SMILES IDX 37 55 51 57 72 58 39 59 23 60 24 61 32 62 25 63 26 64 30 65
REMARK SMILES IDX 33 66 27 67 28 68 31 69 29 70 55 71 56 72 64 73 57 74 58 75
REMARK SMILES IDX 62 76 65 77 59 78 60 79 63 80 61 81 40 82 41 83 49 84 42 85
REMARK SMILES IDX 43 86 47 87 50 88 44 89 45 90 48 91 46 92
REMARK H PARENT 87 21 70 45 38 56
REMARK Flexibility Score: inf
ROOT
ATOM      1  C   UNL A   1      44.721  19.186  25.427  1.00  0.00     0.202 C 
ENDROOT
BRANCH   1   2
ATOM      2  C   UNL A   1      43.191  19.132  25.490  1.00  0.00     0.261 C 
BRANCH   2   3
ATOM      3  O   UNL A   1      42.641  19.939  26.548  1.00  0.00    -0.463 OA
BRANCH   3   4
ATOM      4  C   UNL A   1      41.845  20.971  26.141  1.00  0.00     0.313 C 
ATOM      5  O   UNL A   1      42.098  21.694  25.184  1.00  0.00    -0.252 OA
BRANCH   4   6
ATOM      6  C   UNL A   1      40.648  21.185  27.064  1.00  0.00     0.126 C 
ATOM      7  C   UNL A   1      41.138  21.824  28.374  1.00  0.00     0.025 C 
BRANCH   6   8
ATOM      8  C   UNL A   1      39.489  21.981  26.472  1.00  0.00    -0.034 A 
ATOM      9  C   UNL A   1      39.183  23.283  26.898  1.00  0.00     0.005 A 
ATOM     10  C   UNL A   1      38.662  21.397  25.502  1.00  0.00     0.005 A 
ATOM     11  C   UNL A   1      38.057  23.954  26.415  1.00  0.00     0.004 A 
ATOM     12  C   UNL A   1      37.516  22.059  25.041  1.00  0.00     0.004 A 
ATOM     13  C   UNL A   1      37.179  23.330  25.526  1.00  0.00    -0.048 A 
BRANCH  13  14
ATOM     14  C   UNL A   1      35.885  23.995  25.114  1.00  0.00     0.041 C 
BRANCH  14  15
ATOM     15  C   UNL A   1      34.591  23.189  25.353  1.00  0.00     0.022 C 
ATOM     16  C   UNL A   1      33.976  22.506  24.118  1.00  0.00     0.007 C 
ATOM     17  C   UNL A   1      34.683  22.078  26.404  1.00  0.00     0.117 C 
ATOM     18  C   UNL A   1      33.467  21.142  24.594  1.00  0.00     0.003 C 
ATOM     19  C   UNL A   1      33.457  21.223  26.112  1.00  0.00     0.032 C 
BRANCH  17  20
ATOM     20  O   UNL A   1      34.674  22.591  27.722  1.00  0.00    -0.393 OA
ATOM     21  H   UNL A   1      34.658  23.560  27.692  1.00  0.00     0.210 HD
ENDBRANCH  17  20
ENDBRANCH  14  15
ENDBRANCH  13  14
ENDBRANCH   6   8
ENDBRANCH   4   6
ENDBRANCH   3   4
ENDBRANCH   2   3
ENDBRANCH   1   2
BRANCH   1  22
ATOM     22  O   UNL A   1      45.299  19.820  24.289  1.00  0.00    -0.374 OA
BRANCH  22  23
ATOM     23  C   UNL A   1      45.236  21.246  24.247  1.00  0.00     0.202 C 
BRANCH  23  24
ATOM     24  C   UNL A   1      45.759  21.992  25.479  1.00  0.00     0.261 C 
BRANCH  24  25
ATOM     25  O   UNL A   1      44.762  22.874  26.028  1.00  0.00    -0.460 OA
BRANCH  25  26
ATOM     26  C   UNL A   1      44.846  24.155  25.612  1.00  0.00     0.338 C 
ATOM     27  O   UNL A   1      45.415  24.580  24.613  1.00  0.00    -0.246 OA
BRANCH  26  28
ATOM     28  C   UNL A   1      43.984  25.016  26.440  1.00  0.00     0.060 A 
ATOM     29  C   UNL A   1      44.399  26.340  26.634  1.00  0.00     0.016 A 
ATOM     30  C   UNL A   1      42.845  24.527  27.084  1.00  0.00     0.016 A 
ATOM     31  C   UNL A   1      43.718  27.161  27.526  1.00  0.00     0.010 A 
ATOM     32  C   UNL A   1      42.166  25.352  27.989  1.00  0.00     0.010 A 
ATOM     33  C   UNL A   1      42.626  26.657  28.244  1.00  0.00    -0.014 A 
BRANCH  33  34
ATOM     34  C   UNL A   1      42.086  27.444  29.378  1.00  0.00     0.031 A 
ATOM     35  C   UNL A   1      42.801  27.397  30.701  1.00  0.00     0.074 A 
ATOM     36  C   UNL A   1      41.010  28.236  29.219  1.00  0.00     0.049 A 
ATOM     37  N   UNL A   1      42.518  28.008  31.823  1.00  0.00    -0.248 NA
ATOM     38  C   UNL A   1      44.001  26.547  30.766  1.00  0.00     0.031 C 
ATOM     39  C   UNL A   1      40.262  28.399  27.975  1.00  0.00     0.029 A 
ATOM     40  N   UNL A   1      40.364  29.051  30.113  1.00  0.00    -0.354 N 
ATOM     41  C   UNL A   1      43.498  27.613  32.725  1.00  0.00     0.074 A 
ATOM     42  C   UNL A   1      44.367  26.689  32.031  1.00  0.00     0.031 C 
ATOM     43  C   UNL A   1      39.253  29.263  28.186  1.00  0.00     0.029 A 
ATOM     44  C   UNL A   1      39.271  29.689  29.584  1.00  0.00     0.049 A 
ATOM     45  H   UNL A   1      40.658  29.168  31.046  1.00  0.00     0.167 HD
ATOM     46  C   UNL A   1      43.662  27.996  34.014  1.00  0.00     0.037 A 
ATOM     47  C   UNL A   1      38.378  30.510  30.171  1.00  0.00     0.037 A 
ATOM     48  C   UNL A   1      42.802  28.923  34.700  1.00  0.00     0.049 A 
ATOM     49  C   UNL A   1      38.546  30.868  31.624  1.00  0.00     0.074 A 
ATOM     50  C   UNL A   1      42.901  29.393  35.998  1.00  0.00     0.029 A 
ATOM     51  N   UNL A   1      41.678  29.515  34.143  1.00  0.00    -0.354 N 
ATOM     52  N   UNL A   1      39.490  30.513  32.461  1.00  0.00    -0.248 NA
ATOM     53  C   UNL A   1      37.523  31.743  32.215  1.00  0.00     0.031 C 
ATOM     54  C   UNL A   1      41.809  30.233  36.242  1.00  0.00     0.029 A 
ATOM     55  C   UNL A   1      41.058  30.326  35.081  1.00  0.00     0.049 A 
ATOM     56  H   UNL A   1      41.367  29.380  33.219  1.00  0.00     0.167 HD
ATOM     57  C   UNL A   1      39.193  31.142  33.664  1.00  0.00     0.074 A 
ATOM     58  C   UNL A   1      37.985  31.910  33.446  1.00  0.00     0.031 C 
ATOM     59  C   UNL A   1      39.861  31.090  34.843  1.00  0.00     0.037 A 
BRANCH  46  60
ATOM     60  C   UNL A   1      44.804  27.391  34.776  1.00  0.00     0.064 A 
ATOM     61  C   UNL A   1      44.647  26.225  35.538  1.00  0.00     0.173 A 
ATOM     62  C   UNL A   1      46.081  27.968  34.711  1.00  0.00     0.173 A 
ATOM     63  F   UNL A   1      43.443  25.644  35.643  1.00  0.00    -0.203 F 
ATOM     64  C   UNL A   1      45.724  25.670  36.227  1.00  0.00     0.198 A 
ATOM     65  C   UNL A   1      47.161  27.396  35.379  1.00  0.00     0.198 A 
ATOM     66  F   UNL A   1      46.285  29.082  33.993  1.00  0.00    -0.203 F 
ATOM     67  F   UNL A   1      45.543  24.578  36.983  1.00  0.00    -0.200 F 
ATOM     68  C   UNL A   1      46.979  26.251  36.140  1.00  0.00     0.200 A 
ATOM     69  F   UNL A   1      48.375  27.953  35.286  1.00  0.00    -0.200 F 
ATOM     70  F   UNL A   1      48.016  25.713  36.798  1.00  0.00    -0.200 F 
ENDBRANCH  46  60
BRANCH  47  71
ATOM     71  C   UNL A   1      37.238  31.050  29.385  1.00  0.00     0.064 A 
ATOM     72  C   UNL A   1      37.214  32.389  28.971  1.00  0.00     0.173 A 
ATOM     73  C   UNL A   1      36.142  30.243  29.050  1.00  0.00     0.173 A 
ATOM     74  F   UNL A   1      38.227  33.208  29.291  1.00  0.00    -0.203 F 
ATOM     75  C   UNL A   1      36.127  32.905  28.266  1.00  0.00     0.198 A 
ATOM     76  C   UNL A   1      35.068  30.752  28.323  1.00  0.00     0.198 A 
ATOM     77  F   UNL A   1      36.114  28.956  29.426  1.00  0.00    -0.203 F 
ATOM     78  F   UNL A   1      36.108  34.199  27.922  1.00  0.00    -0.200 F 
ATOM     79  C   UNL A   1      35.058  32.084  27.938  1.00  0.00     0.200 A 
ATOM     80  F   UNL A   1      34.042  29.953  27.999  1.00  0.00    -0.200 F 
ATOM     81  F   UNL A   1      34.014  32.579  27.259  1.00  0.00    -0.200 F 
ENDBRANCH  47  71
BRANCH  59  82
ATOM     82  C   UNL A   1      39.322  31.912  35.978  1.00  0.00     0.064 A 
ATOM     83  C   UNL A   1      39.762  33.223  36.209  1.00  0.00     0.173 A 
ATOM     84  C   UNL A   1      38.323  31.395  36.816  1.00  0.00     0.173 A 
ATOM     85  F   UNL A   1      40.725  33.757  35.444  1.00  0.00    -0.203 F 
ATOM     86  C   UNL A   1      39.234  33.979  37.253  1.00  0.00     0.198 A 
ATOM     87  C   UNL A   1      37.779  32.163  37.840  1.00  0.00     0.198 A 
ATOM     88  F   UNL A   1      37.864  30.148  36.631  1.00  0.00    -0.203 F 
ATOM     89  F   UNL A   1      39.699  35.215  37.484  1.00  0.00    -0.200 F 
ATOM     90  C   UNL A   1      38.240  33.452  38.063  1.00  0.00     0.200 A 
ATOM     91  F   UNL A   1      36.808  31.657  38.614  1.00  0.00    -0.200 F 
ATOM     92  F   UNL A   1      37.729  34.183  39.063  1.00  0.00    -0.200 F 
ENDBRANCH  59  82
ENDBRANCH  33  34
ENDBRANCH  26  28
ENDBRANCH  25  26
ENDBRANCH  24  25
ENDBRANCH  23  24
ENDBRANCH  22  23
ENDBRANCH   1  22
TORSDOF 18
ENDMDL
MODEL 2
REMARK VINA RESULT:     -10.8      2.275      3.626
REMARK SMILES C[C@H](C(=O)OCCOCCOC(=O)c1ccc(-c2c3nc(c(-c4c(F)c(F)c(F)c(F)c4F)c4ccc([nH]4)c(-c4c(F)c(F)c(F)c(F)c4F)c4nc(c(-c5c(F)c(F)c(F)c(F)c5F)c5ccc2[nH]5)C=C4)C=C3)cc1)c1ccc(C[C@H]2CCC[C@@H]2O)cc1
REMARK SMILES IDX 7 1 6 2 5 3 3 4 4 5 2 6 1 7 77 8 78 9 89 10 79 11 88 12
REMARK SMILES IDX 80 13 81 14 82 15 83 16 86 17 84 18 85 19 87 20 8 22 9 23
REMARK SMILES IDX 10 24 11 25 12 26 13 27 14 28 15 29 76 30 16 31 75 32 17 33
REMARK SMILES IDX 18 34 19 35 69 36 20 37 74 38 68 39 70 40 21 41 73 42 67 43
REMARK SMILES IDX 66 44 22 46 54 47 34 48 53 49 35 50 38 51 52 52 71 53 36 54
REMARK SMILES IDX 37 55 51 57 72 58 39 59 23 60 24 61 32 62 25 63 26 64 30 65
REMARK SMILES IDX 33 66 27 67 28 68 31 69 29 70 55 71 56 72 64 73 57 74 58 75
REMARK SMILES IDX 62 76 65 77 59 78 60 79 63 80 61 81 40 82 41 83 49 84 42 85
REMARK SMILES IDX 43 86 47 87 50 88 44 89 45 90 48 91 46 92
REMARK H PARENT 87 21 70 45 38 56
REMARK Flexibility Score: inf
ROOT
ATOM      1  C   UNL A   1      39.560  21.413  25.993  1.00  0.00     0.202 C 
ENDROOT
BRANCH   1   2
ATOM      2  C   UNL A   1      38.555  22.570  25.983  1.00  0.00     0.261 C 
BRANCH   2   3
ATOM      3  O   UNL A   1      37.514  22.405  25.003  1.00  0.00    -0.463 OA
BRANCH   3   4
ATOM      4  C   UNL A   1      36.255  22.713  25.433  1.00  0.00     0.313 C 
ATOM      5  O   UNL A   1      35.940  22.812  26.613  1.00  0.00    -0.252 OA
BRANCH   4   6
ATOM      6  C   UNL A   1      35.257  22.832  24.283  1.00  0.00     0.126 C 
ATOM      7  C   UNL A   1      34.225  21.698  24.402  1.00  0.00     0.025 C 
BRANCH   6   8
ATOM      8  C   UNL A   1      34.564  24.184  24.145  1.00  0.00    -0.034 A 
ATOM      9  C   UNL A   1      34.103  24.664  22.909  1.00  0.00     0.005 A 
ATOM     10  C   UNL A   1      34.414  25.012  25.267  1.00  0.00     0.005 A 
ATOM     11  C   UNL A   1      33.564  25.947  22.790  1.00  0.00     0.004 A 
ATOM     12  C   UNL A   1      33.902  26.309  25.140  1.00  0.00     0.004 A 
ATOM     13  C   UNL A   1      33.510  26.806  23.890  1.00  0.00    -0.048 A 
BRANCH  13  14
ATOM     14  C   UNL A   1      33.064  28.243  23.735  1.00  0.00     0.041 C 
BRANCH  14  15
ATOM     15  C   UNL A   1      31.542  28.498  23.770  1.00  0.00     0.022 C 
ATOM     16  C   UNL A   1      31.063  29.629  24.697  1.00  0.00     0.007 C 
ATOM     17  C   UNL A   1      30.886  28.800  22.419  1.00  0.00     0.117 C 
ATOM     18  C   UNL A   1      29.935  30.345  23.948  1.00  0.00     0.003 C 
ATOM     19  C   UNL A   1      29.548  29.411  22.813  1.00  0.00     0.032 C 
BRANCH  17  20
ATOM     20  O   UNL A   1      30.730  27.636  21.631  1.00  0.00    -0.393 OA
ATOM     21  H   UNL A   1      30.281  27.864  20.802  1.00  0.00     0.210 HD
ENDBRANCH  17  20
ENDBRANCH  14  15
ENDBRANCH  13  14
ENDBRANCH   6   8
ENDBRANCH   4   6
ENDBRANCH   3   4
ENDBRANCH   2   3
ENDBRANCH   1   2
BRANCH   1  22
ATOM     22  O   UNL A   1      40.814  21.651  26.627  1.00  0.00    -0.374 OA
BRANCH  22  23
ATOM     23  C   UNL A   1      41.941  20.946  26.107  1.00  0.00     0.202 C 
BRANCH  23  24
ATOM     24  C   UNL A   1      43.130  21.797  25.650  1.00  0.00     0.261 C 
BRANCH  24  25
ATOM     25  O   UNL A   1      42.705  22.918  24.853  1.00  0.00    -0.460 OA
BRANCH  25  26
ATOM     26  C   UNL A   1      43.467  24.025  24.979  1.00  0.00     0.338 C 
ATOM     27  O   UNL A   1      44.503  24.290  24.379  1.00  0.00    -0.246 OA
BRANCH  26  28
ATOM     28  C   UNL A   1      42.787  25.016  25.831  1.00  0.00     0.060 A 
ATOM     29  C   UNL A   1      43.497  26.182  26.147  1.00  0.00     0.016 A 
ATOM     30  C   UNL A   1      41.526  24.779  26.384  1.00  0.00     0.016 A 
ATOM     31  C   UNL A   1      42.979  27.085  27.069  1.00  0.00     0.010 A 
ATOM     32  C   UNL A   1      41.011  25.685  27.319  1.00  0.00     0.010 A 
ATOM     33  C   UNL A   1      41.755  26.818  27.696  1.00  0.00    -0.014 A 
BRANCH  33  34
ATOM     34  C   UNL A   1      41.351  27.639  28.863  1.00  0.00     0.031 A 
ATOM     35  C   UNL A   1      42.161  27.551  30.128  1.00  0.00     0.074 A 
ATOM     36  C   UNL A   1      40.316  28.493  28.781  1.00  0.00     0.049 A 
ATOM     37  N   UNL A   1      42.001  28.179  31.264  1.00  0.00    -0.248 NA
ATOM     38  C   UNL A   1      43.309  26.630  30.106  1.00  0.00     0.031 C 
ATOM     39  C   UNL A   1      39.486  28.699  27.596  1.00  0.00     0.029 A 
ATOM     40  N   UNL A   1      39.790  29.348  29.716  1.00  0.00    -0.354 N 
ATOM     41  C   UNL A   1      43.021  27.729  32.091  1.00  0.00     0.074 A 
ATOM     42  C   UNL A   1      43.779  26.753  31.340  1.00  0.00     0.031 C 
ATOM     43  C   UNL A   1      38.549  29.622  27.878  1.00  0.00     0.029 A 
ATOM     44  C   UNL A   1      38.699  30.049  29.268  1.00  0.00     0.049 A 
ATOM     45  H   UNL A   1      40.160  29.448  30.623  1.00  0.00     0.167 HD
ATOM     46  C   UNL A   1      43.305  28.103  33.361  1.00  0.00     0.037 A 
ATOM     47  C   UNL A   1      37.904  30.923  29.915  1.00  0.00     0.037 A 
ATOM     48  C   UNL A   1      42.558  29.081  34.105  1.00  0.00     0.049 A 
ATOM     49  C   UNL A   1      38.203  31.272  31.349  1.00  0.00     0.074 A 
ATOM     50  C   UNL A   1      42.783  29.547  35.389  1.00  0.00     0.029 A 
ATOM     51  N   UNL A   1      41.432  29.739  33.631  1.00  0.00    -0.354 N 
ATOM     52  N   UNL A   1      39.186  30.863  32.115  1.00  0.00    -0.248 NA
ATOM     53  C   UNL A   1      37.282  32.209  32.010  1.00  0.00     0.031 C 
ATOM     54  C   UNL A   1      41.765  30.451  35.710  1.00  0.00     0.029 A 
ATOM     55  C   UNL A   1      40.935  30.587  34.609  1.00  0.00     0.049 A 
ATOM     56  H   UNL A   1      41.044  29.621  32.734  1.00  0.00     0.167 HD
ATOM     57  C   UNL A   1      39.019  31.511  33.332  1.00  0.00     0.074 A 
ATOM     58  C   UNL A   1      37.846  32.350  33.201  1.00  0.00     0.031 C 
ATOM     59  C   UNL A   1      39.771  31.421  34.458  1.00  0.00     0.037 A 
BRANCH  46  60
ATOM     60  C   UNL A   1      44.465  27.432  34.038  1.00  0.00     0.064 A 
ATOM     61  C   UNL A   1      44.315  26.220  34.729  1.00  0.00     0.173 A 
ATOM     62  C   UNL A   1      45.748  27.992  33.963  1.00  0.00     0.173 A 
ATOM     63  F   UNL A   1      43.106  25.652  34.841  1.00  0.00    -0.203 F 
ATOM     64  C   UNL A   1      45.406  25.605  35.338  1.00  0.00     0.198 A 
ATOM     65  C   UNL A   1      46.841  27.361  34.551  1.00  0.00     0.198 A 
ATOM     66  F   UNL A   1      45.945  29.148  33.312  1.00  0.00    -0.203 F 
ATOM     67  F   UNL A   1      45.234  24.469  36.027  1.00  0.00    -0.200 F 
ATOM     68  C   UNL A   1      46.668  26.172  35.242  1.00  0.00     0.200 A 
ATOM     69  F   UNL A   1      48.061  27.904  34.448  1.00  0.00    -0.200 F 
ATOM     70  F   UNL A   1      47.718  25.575  35.823  1.00  0.00    -0.200 F 
ENDBRANCH  46  60
BRANCH  47  71
ATOM     71  C   UNL A   1      36.742  31.530  29.215  1.00  0.00     0.064 A 
ATOM     72  C   UNL A   1      36.728  32.890  28.879  1.00  0.00     0.173 A 
ATOM     73  C   UNL A   1      35.614  30.764  28.885  1.00  0.00     0.173 A 
ATOM     74  F   UNL A   1      37.772  33.670  29.198  1.00  0.00    -0.203 F 
ATOM     75  C   UNL A   1      35.622  33.466  28.256  1.00  0.00     0.198 A 
ATOM     76  C   UNL A   1      34.521  31.335  28.238  1.00  0.00     0.198 A 
ATOM     77  F   UNL A   1      35.576  29.458  29.188  1.00  0.00    -0.203 F 
ATOM     78  F   UNL A   1      35.616  34.779  27.987  1.00  0.00    -0.200 F 
ATOM     79  C   UNL A   1      34.522  32.687  27.930  1.00  0.00     0.200 A 
ATOM     80  F   UNL A   1      33.464  30.576  27.918  1.00  0.00    -0.200 F 
ATOM     81  F   UNL A   1      33.460  33.240  27.330  1.00  0.00    -0.200 F 
ENDBRANCH  47  71
BRANCH  59  82
ATOM     82  C   UNL A   1      39.370  32.276  35.625  1.00  0.00     0.064 A 
ATOM     83  C   UNL A   1      38.527  31.791  36.635  1.00  0.00     0.173 A 
ATOM     84  C   UNL A   1      39.872  33.579  35.756  1.00  0.00     0.173 A 
ATOM     85  F   UNL A   1      38.010  30.556  36.549  1.00  0.00    -0.203 F 
ATOM     86  C   UNL A   1      38.183  32.590  37.723  1.00  0.00     0.198 A 
ATOM     87  C   UNL A   1      39.550  34.364  36.857  1.00  0.00     0.198 A 
ATOM     88  F   UNL A   1      40.689  34.086  34.820  1.00  0.00    -0.203 F 
ATOM     89  F   UNL A   1      37.341  32.123  38.655  1.00  0.00    -0.200 F 
ATOM     90  C   UNL A   1      38.699  33.872  37.837  1.00  0.00     0.200 A 
ATOM     91  F   UNL A   1      40.059  35.598  36.973  1.00  0.00    -0.200 F 
ATOM     92  F   UNL A   1      38.373  34.637  38.888  1.00  0.00    -0.200 F 
ENDBRANCH  59  82
ENDBRANCH  33  34
ENDBRANCH  26  28
ENDBRANCH  25  26
ENDBRANCH  24  25
ENDBRANCH  23  24
ENDBRANCH  22  23
ENDBRANCH   1  22
TORSDOF 18
ENDMDL
MODEL 3
REMARK VINA RESULT:     -10.7      5.017      7.781
REMARK SMILES C[C@H](C(=O)OCCOCCOC(=O)c1ccc(-c2c3nc(c(-c4c(F)c(F)c(F)c(F)c4F)c4ccc([nH]4)c(-c4c(F)c(F)c(F)c(F)c4F)c4nc(c(-c5c(F)c(F)c(F)c(F)c5F)c5ccc2[nH]5)C=C4)C=C3)cc1)c1ccc(C[C@H]2CCC[C@@H]2O)cc1
REMARK SMILES IDX 7 1 6 2 5 3 3 4 4 5 2 6 1 7 77 8 78 9 89 10 79 11 88 12
REMARK SMILES IDX 80 13 81 14 82 15 83 16 86 17 84 18 85 19 87 20 8 22 9 23
REMARK SMILES IDX 10 24 11 25 12 26 13 27 14 28 15 29 76 30 16 31 75 32 17 33
REMARK SMILES IDX 18 34 19 35 69 36 20 37 74 38 68 39 70 40 21 41 73 42 67 43
REMARK SMILES IDX 66 44 22 46 54 47 34 48 53 49 35 50 38 51 52 52 71 53 36 54
REMARK SMILES IDX 37 55 51 57 72 58 39 59 23 60 24 61 32 62 25 63 26 64 30 65
REMARK SMILES IDX 33 66 27 67 28 68 31 69 29 70 55 71 56 72 64 73 57 74 58 75
REMARK SMILES IDX 62 76 65 77 59 78 60 79 63 80 61 81 40 82 41 83 49 84 42 85
REMARK SMILES IDX 43 86 47 87 50 88 44 89 45 90 48 91 46 92
REMARK H PARENT 87 21 70 45 38 56
REMARK Flexibility Score: inf
ROOT
ATOM      1  C   UNL A   1      37.476  21.935  25.625  1.00  0.00     0.202 C 
ENDROOT
BRANCH   1   2
ATOM      2  C   UNL A   1      36.332  21.240  24.879  1.00  0.00     0.261 C 
BRANCH   2   3
ATOM      3  O   UNL A   1      35.166  22.072  24.733  1.00  0.00    -0.463 OA
BRANCH   3   4
ATOM      4  C   UNL A   1      35.043  22.698  23.526  1.00  0.00     0.313 C 
ATOM      5  O   UNL A   1      35.961  23.281  22.961  1.00  0.00    -0.252 OA
BRANCH   4   6
ATOM      6  C   UNL A   1      33.612  22.670  22.995  1.00  0.00     0.126 C 
ATOM      7  C   UNL A   1      32.822  21.591  23.755  1.00  0.00     0.025 C 
BRANCH   6   8
ATOM      8  C   UNL A   1      32.871  24.003  23.018  1.00  0.00    -0.034 A 
ATOM      9  C   UNL A   1      33.188  25.048  22.137  1.00  0.00     0.005 A 
ATOM     10  C   UNL A   1      31.868  24.230  23.972  1.00  0.00     0.005 A 
ATOM     11  C   UNL A   1      32.566  26.295  22.244  1.00  0.00     0.004 A 
ATOM     12  C   UNL A   1      31.267  25.489  24.097  1.00  0.00     0.004 A 
ATOM     13  C   UNL A   1      31.641  26.548  23.260  1.00  0.00    -0.048 A 
BRANCH  13  14
ATOM     14  C   UNL A   1      31.075  27.935  23.469  1.00  0.00     0.041 C 
BRANCH  14  15
ATOM     15  C   UNL A   1      29.827  28.301  22.638  1.00  0.00     0.022 C 
ATOM     16  C   UNL A   1      28.468  27.893  23.235  1.00  0.00     0.007 C 
ATOM     17  C   UNL A   1      29.668  29.785  22.292  1.00  0.00     0.117 C 
ATOM     18  C   UNL A   1      27.507  29.047  22.933  1.00  0.00     0.003 C 
ATOM     19  C   UNL A   1      28.206  29.890  21.880  1.00  0.00     0.032 C 
BRANCH  17  20
ATOM     20  O   UNL A   1      30.545  30.187  21.257  1.00  0.00    -0.393 OA
ATOM     21  H   UNL A   1      30.828  31.101  21.410  1.00  0.00     0.210 HD
ENDBRANCH  17  20
ENDBRANCH  14  15
ENDBRANCH  13  14
ENDBRANCH   6   8
ENDBRANCH   4   6
ENDBRANCH   3   4
ENDBRANCH   2   3
ENDBRANCH   1   2
BRANCH   1  22
ATOM     22  O   UNL A   1      38.773  21.358  25.501  1.00  0.00    -0.374 OA
BRANCH  22  23
ATOM     23  C   UNL A   1      38.831  19.945  25.301  1.00  0.00     0.202 C 
BRANCH  23  24
ATOM     24  C   UNL A   1      39.955  19.196  26.026  1.00  0.00     0.261 C 
BRANCH  24  25
ATOM     25  O   UNL A   1      41.198  19.280  25.305  1.00  0.00    -0.460 OA
BRANCH  25  26
ATOM     26  C   UNL A   1      42.276  19.569  26.064  1.00  0.00     0.338 C 
ATOM     27  O   UNL A   1      43.258  18.862  26.266  1.00  0.00    -0.246 OA
BRANCH  26  28
ATOM     28  C   UNL A   1      42.226  20.973  26.506  1.00  0.00     0.060 A 
ATOM     29  C   UNL A   1      42.196  21.956  25.509  1.00  0.00     0.016 A 
ATOM     30  C   UNL A   1      42.296  21.330  27.854  1.00  0.00     0.016 A 
ATOM     31  C   UNL A   1      42.303  23.300  25.851  1.00  0.00     0.010 A 
ATOM     32  C   UNL A   1      42.413  22.682  28.197  1.00  0.00     0.010 A 
ATOM     33  C   UNL A   1      42.461  23.668  27.193  1.00  0.00    -0.014 A 
BRANCH  33  34
ATOM     34  C   UNL A   1      42.846  25.063  27.516  1.00  0.00     0.031 A 
ATOM     35  C   UNL A   1      44.236  25.529  27.179  1.00  0.00     0.074 A 
ATOM     36  C   UNL A   1      41.955  25.919  28.047  1.00  0.00     0.049 A 
ATOM     37  N   UNL A   1      44.788  26.702  27.361  1.00  0.00    -0.248 NA
ATOM     38  C   UNL A   1      45.124  24.538  26.551  1.00  0.00     0.031 C 
ATOM     39  C   UNL A   1      40.568  25.597  28.374  1.00  0.00     0.029 A 
ATOM     40  N   UNL A   1      42.089  27.238  28.401  1.00  0.00    -0.354 N 
ATOM     41  C   UNL A   1      46.083  26.588  26.874  1.00  0.00     0.074 A 
ATOM     42  C   UNL A   1      46.248  25.227  26.416  1.00  0.00     0.031 C 
ATOM     43  C   UNL A   1      39.977  26.691  28.886  1.00  0.00     0.029 A 
ATOM     44  C   UNL A   1      40.952  27.778  28.946  1.00  0.00     0.049 A 
ATOM     45  H   UNL A   1      42.922  27.747  28.276  1.00  0.00     0.167 HD
ATOM     46  C   UNL A   1      47.046  27.538  26.807  1.00  0.00     0.037 A 
ATOM     47  C   UNL A   1      40.733  29.008  29.451  1.00  0.00     0.037 A 
ATOM     48  C   UNL A   1      46.878  28.895  27.253  1.00  0.00     0.049 A 
ATOM     49  C   UNL A   1      41.842  30.027  29.425  1.00  0.00     0.074 A 
ATOM     50  C   UNL A   1      47.786  29.940  27.204  1.00  0.00     0.029 A 
ATOM     51  N   UNL A   1      45.724  29.395  27.841  1.00  0.00    -0.354 N 
ATOM     52  N   UNL A   1      43.054  29.920  28.938  1.00  0.00    -0.248 NA
ATOM     53  C   UNL A   1      41.550  31.341  30.018  1.00  0.00     0.031 C 
ATOM     54  C   UNL A   1      47.198  31.058  27.805  1.00  0.00     0.029 A 
ATOM     55  C   UNL A   1      45.907  30.725  28.183  1.00  0.00     0.049 A 
ATOM     56  H   UNL A   1      44.898  28.880  27.991  1.00  0.00     0.167 HD
ATOM     57  C   UNL A   1      43.658  31.155  29.138  1.00  0.00     0.074 A 
ATOM     58  C   UNL A   1      42.675  32.001  29.782  1.00  0.00     0.031 C 
ATOM     59  C   UNL A   1      44.914  31.554  28.816  1.00  0.00     0.037 A 
BRANCH  46  60
ATOM     60  C   UNL A   1      48.380  27.135  26.250  1.00  0.00     0.064 A 
ATOM     61  C   UNL A   1      49.411  26.663  27.075  1.00  0.00     0.173 A 
ATOM     62  C   UNL A   1      48.615  27.189  24.868  1.00  0.00     0.173 A 
ATOM     63  F   UNL A   1      49.240  26.605  28.403  1.00  0.00    -0.203 F 
ATOM     64  C   UNL A   1      50.637  26.279  26.537  1.00  0.00     0.198 A 
ATOM     65  C   UNL A   1      49.833  26.780  24.332  1.00  0.00     0.198 A 
ATOM     66  F   UNL A   1      47.660  27.631  24.036  1.00  0.00    -0.203 F 
ATOM     67  F   UNL A   1      51.623  25.868  27.347  1.00  0.00    -0.200 F 
ATOM     68  C   UNL A   1      50.844  26.331  25.167  1.00  0.00     0.200 A 
ATOM     69  F   UNL A   1      50.027  26.822  23.007  1.00  0.00    -0.200 F 
ATOM     70  F   UNL A   1      52.022  25.955  24.650  1.00  0.00    -0.200 F 
ENDBRANCH  46  60
BRANCH  47  71
ATOM     71  C   UNL A   1      39.407  29.347  30.031  1.00  0.00     0.064 A 
ATOM     72  C   UNL A   1      38.413  29.960  29.256  1.00  0.00     0.173 A 
ATOM     73  C   UNL A   1      39.116  29.083  31.377  1.00  0.00     0.173 A 
ATOM     74  F   UNL A   1      38.653  30.257  27.970  1.00  0.00    -0.203 F 
ATOM     75  C   UNL A   1      37.182  30.311  29.811  1.00  0.00     0.198 A 
ATOM     76  C   UNL A   1      37.877  29.411  31.923  1.00  0.00     0.198 A 
ATOM     77  F   UNL A   1      40.035  28.502  32.163  1.00  0.00    -0.203 F 
ATOM     78  F   UNL A   1      36.267  30.937  29.060  1.00  0.00    -0.200 F 
ATOM     79  C   UNL A   1      36.914  30.030  31.142  1.00  0.00     0.200 A 
ATOM     80  F   UNL A   1      37.618  29.129  33.208  1.00  0.00    -0.200 F 
ATOM     81  F   UNL A   1      35.731  30.367  31.674  1.00  0.00    -0.200 F 
ENDBRANCH  47  71
BRANCH  59  82
ATOM     82  C   UNL A   1      45.286  32.976  29.122  1.00  0.00     0.064 A 
ATOM     83  C   UNL A   1      45.892  33.331  30.336  1.00  0.00     0.173 A 
ATOM     84  C   UNL A   1      45.073  33.985  28.172  1.00  0.00     0.173 A 
ATOM     85  F   UNL A   1      46.104  32.405  31.281  1.00  0.00    -0.203 F 
ATOM     86  C   UNL A   1      46.251  34.652  30.594  1.00  0.00     0.198 A 
ATOM     87  C   UNL A   1      45.459  35.298  28.422  1.00  0.00     0.198 A 
ATOM     88  F   UNL A   1      44.503  33.695  26.992  1.00  0.00    -0.203 F 
ATOM     89  F   UNL A   1      46.789  34.979  31.777  1.00  0.00    -0.200 F 
ATOM     90  C   UNL A   1      46.041  35.633  29.636  1.00  0.00     0.200 A 
ATOM     91  F   UNL A   1      45.267  36.242  27.490  1.00  0.00    -0.200 F 
ATOM     92  F   UNL A   1      46.393  36.901  29.884  1.00  0.00    -0.200 F 
ENDBRANCH  59  82
ENDBRANCH  33  34
ENDBRANCH  26  28
ENDBRANCH  25  26
ENDBRANCH  24  25
ENDBRANCH  23  24
ENDBRANCH  22  23
ENDBRANCH   1  22
TORSDOF 18
ENDMDL
