MODEL 1
REMARK VINA RESULT:     -11.1      0.000      0.000
REMARK SMILES COc1ccc(CCN2/C(=[NH+]/C(=O)CCC(=O)OCCOCCOC(=O)c3ccc(-c4c5nc(c(-c6c(F)c(F)c(F)c(F)c6F)c6ccc([nH]6)c(-c6c(F)c(F)c(F)c(F)c6F)c6nc(c(-c7c(F)c(F)c(F)c(F)c7F)c7ccc4[nH]7)C=C6)C=C5)cc3)S[C@@H]3CS(=O)(=O)C[C@@H]32)cc1
REMARK SMILES IDX 19 1 18 2 16 3 17 4 15 5 14 6 12 7 9 8 10 9 97 10 11 11
REMARK SMILES IDX 90 12 91 13 96 14 92 16 93 17 13 18 94 19 95 20 8 21 7 22
REMARK SMILES IDX 6 23 3 24 4 25 99 26 5 27 98 28 2 29 1 30 20 31 21 32 22 33
REMARK SMILES IDX 23 34 24 35 25 36 26 37 27 38 28 39 89 40 29 41 88 42 30 43
REMARK SMILES IDX 31 44 32 45 82 46 33 47 87 48 81 49 83 50 34 51 86 52 80 53
REMARK SMILES IDX 79 54 35 56 67 57 47 58 66 59 48 60 51 61 65 62 84 63 49 64
REMARK SMILES IDX 50 65 64 67 85 68 52 69 36 70 37 71 45 72 38 73 39 74 43 75
REMARK SMILES IDX 46 76 40 77 41 78 44 79 42 80 68 81 69 82 77 83 70 84 71 85
REMARK SMILES IDX 75 86 78 87 72 88 73 89 76 90 74 91 53 92 54 93 62 94 55 95
REMARK SMILES IDX 56 96 60 97 63 98 57 99 58 100 61 101 59 102
REMARK H PARENT 11 15 83 55 51 66
REMARK Flexibility Score: inf
ROOT
ATOM      1  C   UNL A   1      40.520  22.803  27.129  1.00  0.00     0.261 C 
ENDROOT
BRANCH   1   2
ATOM      2  O   UNL A   1      39.296  22.897  26.380  1.00  0.00    -0.463 OA
BRANCH   2   3
ATOM      3  C   UNL A   1      38.539  24.008  26.533  1.00  0.00     0.306 C 
ATOM      4  O   UNL A   1      38.878  25.024  27.119  1.00  0.00    -0.252 OA
BRANCH   3   5
ATOM      5  C   UNL A   1      37.223  23.843  25.817  1.00  0.00     0.135 C 
BRANCH   5   6
ATOM      6  C   UNL A   1      36.319  22.807  26.463  1.00  0.00     0.139 C 
BRANCH   6   7
ATOM      7  C   UNL A   1      34.911  22.626  25.893  1.00  0.00     0.308 C 
ATOM      8  N   UNL A   1      32.079  24.897  25.063  1.00  0.00    -0.251 N 
ATOM      9  C   UNL A   1      33.013  23.832  25.196  1.00  0.00     0.314 C 
ATOM     10  C   UNL A   1      31.482  25.005  23.727  1.00  0.00     0.206 C 
ATOM     11  N   UNL A   1      34.006  23.683  26.017  1.00  0.00    -0.205 N 
ATOM     12  S   UNL A   1      32.732  22.686  23.865  1.00  0.00    -0.030 SA
ATOM     13  C   UNL A   1      32.188  23.994  22.801  1.00  0.00     0.120 C 
ATOM     14  C   UNL A   1      31.603  26.379  23.087  1.00  0.00     0.187 C 
ATOM     15  H   UNL A   1      34.125  24.332  26.747  1.00  0.00     0.316 HD
ATOM     16  C   UNL A   1      33.368  24.669  22.153  1.00  0.00     0.156 C 
ATOM     17  S   UNL A   1      32.642  26.202  21.666  1.00  0.00     0.155 S 
ATOM     18  O   UNL A   1      34.653  21.500  25.463  1.00  0.00    -0.247 OA
ATOM     19  O   UNL A   1      33.644  27.234  21.674  1.00  0.00    -0.229 OA
ATOM     20  O   UNL A   1      31.771  25.949  20.527  1.00  0.00    -0.229 OA
BRANCH   8  21
ATOM     21  C   UNL A   1      31.553  25.757  26.161  1.00  0.00     0.242 C 
BRANCH  21  22
ATOM     22  C   UNL A   1      31.444  27.339  26.049  1.00  0.00     0.081 C 
BRANCH  22  23
ATOM     23  C   UNL A   1      32.491  28.363  26.492  1.00  0.00    -0.044 A 
ATOM     24  C   UNL A   1      34.482  30.245  27.334  1.00  0.00     0.118 A 
ATOM     25  C   UNL A   1      33.151  30.627  27.225  1.00  0.00     0.046 A 
ATOM     26  C   UNL A   1      34.835  28.958  26.929  1.00  0.00     0.046 A 
ATOM     27  C   UNL A   1      32.173  29.699  26.791  1.00  0.00     0.007 A 
ATOM     28  C   UNL A   1      33.860  28.035  26.502  1.00  0.00     0.007 A 
BRANCH  24  29
ATOM     29  O   UNL A   1      35.480  30.952  27.936  1.00  0.00    -0.497 OA
ATOM     30  C   UNL A   1      35.372  32.367  28.028  1.00  0.00     0.278 C 
ENDBRANCH  24  29
ENDBRANCH  22  23
ENDBRANCH  21  22
ENDBRANCH   8  21
ENDBRANCH   6   7
ENDBRANCH   5   6
ENDBRANCH   3   5
ENDBRANCH   2   3
ENDBRANCH   1   2
BRANCH   1  31
ATOM     31  C   UNL A   1      40.797  21.350  27.570  1.00  0.00     0.202 C 
BRANCH  31  32
ATOM     32  O   UNL A   1      41.202  20.459  26.533  1.00  0.00    -0.374 OA
BRANCH  32  33
ATOM     33  C   UNL A   1      42.173  19.499  26.942  1.00  0.00     0.202 C 
BRANCH  33  34
ATOM     34  C   UNL A   1      42.816  18.670  25.818  1.00  0.00     0.261 C 
BRANCH  34  35
ATOM     35  O   UNL A   1      44.257  18.827  25.719  1.00  0.00    -0.460 OA
BRANCH  35  36
ATOM     36  C   UNL A   1      44.709  19.402  24.578  1.00  0.00     0.338 C 
ATOM     37  O   UNL A   1      44.898  18.816  23.521  1.00  0.00    -0.246 OA
BRANCH  36  38
ATOM     38  C   UNL A   1      44.855  20.890  24.673  1.00  0.00     0.060 A 
ATOM     39  C   UNL A   1      45.468  21.367  25.827  1.00  0.00     0.016 A 
ATOM     40  C   UNL A   1      44.438  21.835  23.725  1.00  0.00     0.016 A 
ATOM     41  C   UNL A   1      45.737  22.731  25.979  1.00  0.00     0.010 A 
ATOM     42  C   UNL A   1      44.688  23.232  23.911  1.00  0.00     0.010 A 
ATOM     43  C   UNL A   1      45.381  23.704  25.032  1.00  0.00    -0.014 A 
BRANCH  43  44
ATOM     44  C   UNL A   1      45.650  25.151  25.416  1.00  0.00     0.031 A 
ATOM     45  C   UNL A   1      44.578  25.878  26.158  1.00  0.00     0.074 A 
ATOM     46  C   UNL A   1      46.852  25.772  25.354  1.00  0.00     0.049 A 
ATOM     47  N   UNL A   1      44.632  27.055  26.722  1.00  0.00    -0.248 NA
ATOM     48  C   UNL A   1      43.279  25.201  26.267  1.00  0.00     0.031 C 
ATOM     49  C   UNL A   1      47.979  25.216  24.665  1.00  0.00     0.029 A 
ATOM     50  N   UNL A   1      47.388  26.921  25.914  1.00  0.00    -0.354 N 
ATOM     51  C   UNL A   1      43.370  27.262  27.239  1.00  0.00     0.074 A 
ATOM     52  C   UNL A   1      42.587  26.077  26.973  1.00  0.00     0.031 C 
ATOM     53  C   UNL A   1      49.112  25.847  25.013  1.00  0.00     0.029 A 
ATOM     54  C   UNL A   1      48.769  27.023  25.793  1.00  0.00     0.049 A 
ATOM     55  H   UNL A   1      46.838  27.606  26.358  1.00  0.00     0.167 HD
ATOM     56  C   UNL A   1      42.891  28.375  27.833  1.00  0.00     0.037 A 
ATOM     57  C   UNL A   1      49.660  27.964  26.196  1.00  0.00     0.037 A 
ATOM     58  C   UNL A   1      43.639  29.582  28.025  1.00  0.00     0.049 A 
ATOM     59  C   UNL A   1      49.080  29.226  26.782  1.00  0.00     0.074 A 
ATOM     60  C   UNL A   1      43.185  30.806  28.478  1.00  0.00     0.029 A 
ATOM     61  N   UNL A   1      44.993  29.726  27.762  1.00  0.00    -0.354 N 
ATOM     62  N   UNL A   1      47.849  29.452  27.170  1.00  0.00    -0.248 NA
ATOM     63  C   UNL A   1      49.969  30.392  26.898  1.00  0.00     0.031 C 
ATOM     64  C   UNL A   1      44.257  31.701  28.460  1.00  0.00     0.029 A 
ATOM     65  C   UNL A   1      45.393  31.020  28.053  1.00  0.00     0.049 A 
ATOM     66  H   UNL A   1      45.583  29.015  27.421  1.00  0.00     0.167 HD
ATOM     67  C   UNL A   1      47.808  30.787  27.543  1.00  0.00     0.074 A 
ATOM     68  C   UNL A   1      49.151  31.306  27.401  1.00  0.00     0.031 C 
ATOM     69  C   UNL A   1      46.739  31.520  27.930  1.00  0.00     0.037 A 
BRANCH  56  70
ATOM     70  C   UNL A   1      41.445  28.342  28.185  1.00  0.00     0.064 A 
ATOM     71  C   UNL A   1      40.466  28.834  27.311  1.00  0.00     0.173 A 
ATOM     72  C   UNL A   1      41.048  27.882  29.448  1.00  0.00     0.173 A 
ATOM     73  F   UNL A   1      40.817  29.332  26.115  1.00  0.00    -0.203 F 
ATOM     74  C   UNL A   1      39.133  28.882  27.702  1.00  0.00     0.198 A 
ATOM     75  C   UNL A   1      39.712  27.907  29.822  1.00  0.00     0.198 A 
ATOM     76  F   UNL A   1      41.962  27.436  30.323  1.00  0.00    -0.203 F 
ATOM     77  F   UNL A   1      38.216  29.413  26.882  1.00  0.00    -0.200 F 
ATOM     78  C   UNL A   1      38.757  28.412  28.953  1.00  0.00     0.200 A 
ATOM     79  F   UNL A   1      39.351  27.459  31.033  1.00  0.00    -0.200 F 
ATOM     80  F   UNL A   1      37.472  28.463  29.328  1.00  0.00    -0.200 F 
ENDBRANCH  56  70
BRANCH  57  81
ATOM     81  C   UNL A   1      51.149  27.863  25.963  1.00  0.00     0.064 A 
ATOM     82  C   UNL A   1      51.724  28.165  24.712  1.00  0.00     0.173 A 
ATOM     83  C   UNL A   1      52.031  27.369  26.942  1.00  0.00     0.173 A 
ATOM     84  F   UNL A   1      50.946  28.589  23.703  1.00  0.00    -0.203 F 
ATOM     85  C   UNL A   1      53.086  27.968  24.455  1.00  0.00     0.198 A 
ATOM     86  C   UNL A   1      53.402  27.231  26.706  1.00  0.00     0.198 A 
ATOM     87  F   UNL A   1      51.562  26.990  28.139  1.00  0.00    -0.203 F 
ATOM     88  F   UNL A   1      53.574  28.180  23.224  1.00  0.00    -0.200 F 
ATOM     89  C   UNL A   1      53.928  27.516  25.459  1.00  0.00     0.200 A 
ATOM     90  F   UNL A   1      54.203  26.788  27.685  1.00  0.00    -0.200 F 
ATOM     91  F   UNL A   1      55.231  27.322  25.213  1.00  0.00    -0.200 F 
ENDBRANCH  57  81
BRANCH  69  92
ATOM     92  C   UNL A   1      46.974  32.958  28.277  1.00  0.00     0.064 A 
ATOM     93  C   UNL A   1      47.336  33.357  29.572  1.00  0.00     0.173 A 
ATOM     94  C   UNL A   1      46.913  33.937  27.276  1.00  0.00     0.173 A 
ATOM     95  F   UNL A   1      47.390  32.457  30.566  1.00  0.00    -0.203 F 
ATOM     96  C   UNL A   1      47.623  34.689  29.852  1.00  0.00     0.198 A 
ATOM     97  C   UNL A   1      47.230  35.263  27.552  1.00  0.00     0.198 A 
ATOM     98  F   UNL A   1      46.573  33.601  26.022  1.00  0.00    -0.203 F 
ATOM     99  F   UNL A   1      47.937  35.056  31.102  1.00  0.00    -0.200 F 
ATOM    100  C   UNL A   1      47.582  35.637  28.841  1.00  0.00     0.200 A 
ATOM    101  F   UNL A   1      47.205  36.173  26.571  1.00  0.00    -0.200 F 
ATOM    102  F   UNL A   1      47.879  36.916  29.108  1.00  0.00    -0.200 F 
ENDBRANCH  69  92
ENDBRANCH  43  44
ENDBRANCH  36  38
ENDBRANCH  35  36
ENDBRANCH  34  35
ENDBRANCH  33  34
ENDBRANCH  32  33
ENDBRANCH  31  32
ENDBRANCH   1  31
TORSDOF 20
ENDMDL
MODEL 2
REMARK VINA RESULT:     -10.6      1.050      7.090
REMARK SMILES COc1ccc(CCN2/C(=[NH+]/C(=O)CCC(=O)OCCOCCOC(=O)c3ccc(-c4c5nc(c(-c6c(F)c(F)c(F)c(F)c6F)c6ccc([nH]6)c(-c6c(F)c(F)c(F)c(F)c6F)c6nc(c(-c7c(F)c(F)c(F)c(F)c7F)c7ccc4[nH]7)C=C6)C=C5)cc3)S[C@@H]3CS(=O)(=O)C[C@@H]32)cc1
REMARK SMILES IDX 19 1 18 2 16 3 17 4 15 5 14 6 12 7 9 8 10 9 97 10 11 11
REMARK SMILES IDX 90 12 91 13 96 14 92 16 93 17 13 18 94 19 95 20 8 21 7 22
REMARK SMILES IDX 6 23 3 24 4 25 99 26 5 27 98 28 2 29 1 30 20 31 21 32 22 33
REMARK SMILES IDX 23 34 24 35 25 36 26 37 27 38 28 39 89 40 29 41 88 42 30 43
REMARK SMILES IDX 31 44 32 45 82 46 33 47 87 48 81 49 83 50 34 51 86 52 80 53
REMARK SMILES IDX 79 54 35 56 67 57 47 58 66 59 48 60 51 61 65 62 84 63 49 64
REMARK SMILES IDX 50 65 64 67 85 68 52 69 36 70 37 71 45 72 38 73 39 74 43 75
REMARK SMILES IDX 46 76 40 77 41 78 44 79 42 80 68 81 69 82 77 83 70 84 71 85
REMARK SMILES IDX 75 86 78 87 72 88 73 89 76 90 74 91 53 92 54 93 62 94 55 95
REMARK SMILES IDX 56 96 60 97 63 98 57 99 58 100 61 101 59 102
REMARK H PARENT 11 15 83 55 51 66
REMARK Flexibility Score: inf
ROOT
ATOM      1  C   UNL A   1      40.199  22.730  26.475  1.00  0.00     0.261 C 
ENDROOT
BRANCH   1   2
ATOM      2  O   UNL A   1      38.905  22.138  26.683  1.00  0.00    -0.463 OA
BRANCH   2   3
ATOM      3  C   UNL A   1      38.322  21.500  25.643  1.00  0.00     0.306 C 
ATOM      4  O   UNL A   1      38.808  20.571  25.016  1.00  0.00    -0.252 OA
BRANCH   3   5
ATOM      5  C   UNL A   1      36.943  22.055  25.398  1.00  0.00     0.135 C 
BRANCH   5   6
ATOM      6  C   UNL A   1      35.870  20.981  25.331  1.00  0.00     0.139 C 
BRANCH   6   7
ATOM      7  C   UNL A   1      34.411  21.428  25.236  1.00  0.00     0.308 C 
ATOM      8  N   UNL A   1      32.637  24.703  25.250  1.00  0.00    -0.251 N 
ATOM      9  C   UNL A   1      33.052  23.347  25.124  1.00  0.00     0.314 C 
ATOM     10  C   UNL A   1      31.765  25.165  24.164  1.00  0.00     0.206 C 
ATOM     11  N   UNL A   1      34.095  22.740  25.598  1.00  0.00    -0.205 N 
ATOM     12  S   UNL A   1      31.946  22.539  23.989  1.00  0.00    -0.030 SA
ATOM     13  C   UNL A   1      31.688  24.050  23.102  1.00  0.00     0.120 C 
ATOM     14  C   UNL A   1      32.236  26.433  23.469  1.00  0.00     0.187 C 
ATOM     15  H   UNL A   1      34.680  23.217  26.231  1.00  0.00     0.316 HD
ATOM     16  C   UNL A   1      32.786  24.261  22.093  1.00  0.00     0.156 C 
ATOM     17  S   UNL A   1      32.635  25.995  21.802  1.00  0.00     0.155 S 
ATOM     18  O   UNL A   1      33.602  20.542  24.950  1.00  0.00    -0.247 OA
ATOM     19  O   UNL A   1      33.921  26.540  21.460  1.00  0.00    -0.229 OA
ATOM     20  O   UNL A   1      31.439  26.217  21.002  1.00  0.00    -0.229 OA
BRANCH   8  21
ATOM     21  C   UNL A   1      32.862  25.592  26.426  1.00  0.00     0.242 C 
BRANCH  21  22
ATOM     22  C   UNL A   1      32.058  26.943  26.658  1.00  0.00     0.081 C 
BRANCH  22  23
ATOM     23  C   UNL A   1      32.652  28.329  26.916  1.00  0.00    -0.044 A 
ATOM     24  C   UNL A   1      33.731  30.945  27.372  1.00  0.00     0.118 A 
ATOM     25  C   UNL A   1      34.513  29.815  27.571  1.00  0.00     0.046 A 
ATOM     26  C   UNL A   1      32.386  30.769  27.046  1.00  0.00     0.046 A 
ATOM     27  C   UNL A   1      33.972  28.523  27.362  1.00  0.00     0.007 A 
ATOM     28  C   UNL A   1      31.850  29.483  26.834  1.00  0.00     0.007 A 
BRANCH  24  29
ATOM     29  O   UNL A   1      34.169  32.235  27.323  1.00  0.00    -0.497 OA
ATOM     30  C   UNL A   1      35.429  32.563  27.896  1.00  0.00     0.278 C 
ENDBRANCH  24  29
ENDBRANCH  22  23
ENDBRANCH  21  22
ENDBRANCH   8  21
ENDBRANCH   6   7
ENDBRANCH   5   6
ENDBRANCH   3   5
ENDBRANCH   2   3
ENDBRANCH   1   2
BRANCH   1  31
ATOM     31  C   UNL A   1      41.318  21.861  27.087  1.00  0.00     0.202 C 
BRANCH  31  32
ATOM     32  O   UNL A   1      40.904  20.595  27.598  1.00  0.00    -0.374 OA
BRANCH  32  33
ATOM     33  C   UNL A   1      41.827  19.539  27.343  1.00  0.00     0.202 C 
BRANCH  33  34
ATOM     34  C   UNL A   1      42.135  19.257  25.864  1.00  0.00     0.261 C 
BRANCH  34  35
ATOM     35  O   UNL A   1      43.459  18.707  25.631  1.00  0.00    -0.460 OA
BRANCH  35  36
ATOM     36  C   UNL A   1      44.239  19.397  24.762  1.00  0.00     0.338 C 
ATOM     37  O   UNL A   1      44.736  18.937  23.744  1.00  0.00    -0.246 OA
BRANCH  36  38
ATOM     38  C   UNL A   1      44.355  20.855  25.089  1.00  0.00     0.060 A 
ATOM     39  C   UNL A   1      45.029  21.161  26.267  1.00  0.00     0.016 A 
ATOM     40  C   UNL A   1      43.857  21.926  24.332  1.00  0.00     0.016 A 
ATOM     41  C   UNL A   1      45.274  22.492  26.622  1.00  0.00     0.010 A 
ATOM     42  C   UNL A   1      44.085  23.282  24.728  1.00  0.00     0.010 A 
ATOM     43  C   UNL A   1      44.836  23.591  25.868  1.00  0.00    -0.014 A 
BRANCH  43  44
ATOM     44  C   UNL A   1      45.094  24.965  26.465  1.00  0.00     0.031 A 
ATOM     45  C   UNL A   1      46.384  25.635  26.122  1.00  0.00     0.074 A 
ATOM     46  C   UNL A   1      44.174  25.738  27.091  1.00  0.00     0.049 A 
ATOM     47  N   UNL A   1      46.759  26.859  26.381  1.00  0.00    -0.248 NA
ATOM     48  C   UNL A   1      47.378  24.822  25.410  1.00  0.00     0.031 C 
ATOM     49  C   UNL A   1      42.894  25.242  27.502  1.00  0.00     0.029 A 
ATOM     50  N   UNL A   1      44.088  27.081  27.420  1.00  0.00    -0.354 N 
ATOM     51  C   UNL A   1      48.039  26.955  25.875  1.00  0.00     0.074 A 
ATOM     52  C   UNL A   1      48.359  25.691  25.249  1.00  0.00     0.031 C 
ATOM     53  C   UNL A   1      42.061  26.252  27.798  1.00  0.00     0.029 A 
ATOM     54  C   UNL A   1      42.820  27.491  27.817  1.00  0.00     0.049 A 
ATOM     55  H   UNL A   1      44.859  27.693  27.377  1.00  0.00     0.167 HD
ATOM     56  C   UNL A   1      48.896  27.992  25.979  1.00  0.00     0.037 A 
ATOM     57  C   UNL A   1      42.323  28.691  28.209  1.00  0.00     0.037 A 
ATOM     58  C   UNL A   1      48.613  29.216  26.670  1.00  0.00     0.049 A 
ATOM     59  C   UNL A   1      43.325  29.803  28.390  1.00  0.00     0.074 A 
ATOM     60  C   UNL A   1      49.478  30.255  26.955  1.00  0.00     0.029 A 
ATOM     61  N   UNL A   1      47.378  29.561  27.198  1.00  0.00    -0.354 N 
ATOM     62  N   UNL A   1      44.575  29.842  28.002  1.00  0.00    -0.248 NA
ATOM     63  C   UNL A   1      42.892  30.992  29.141  1.00  0.00     0.031 C 
ATOM     64  C   UNL A   1      48.774  31.217  27.684  1.00  0.00     0.029 A 
ATOM     65  C   UNL A   1      47.457  30.805  27.802  1.00  0.00     0.049 A 
ATOM     66  H   UNL A   1      46.567  29.005  27.151  1.00  0.00     0.167 HD
ATOM     67  C   UNL A   1      45.086  31.037  28.487  1.00  0.00     0.074 A 
ATOM     68  C   UNL A   1      43.995  31.727  29.140  1.00  0.00     0.031 C 
ATOM     69  C   UNL A   1      46.358  31.494  28.428  1.00  0.00     0.037 A 
BRANCH  56  70
ATOM     70  C   UNL A   1      50.260  27.756  25.430  1.00  0.00     0.064 A 
ATOM     71  C   UNL A   1      50.523  27.849  24.057  1.00  0.00     0.173 A 
ATOM     72  C   UNL A   1      51.293  27.354  26.287  1.00  0.00     0.173 A 
ATOM     73  F   UNL A   1      49.544  28.179  23.202  1.00  0.00    -0.203 F 
ATOM     74  C   UNL A   1      51.781  27.530  23.558  1.00  0.00     0.198 A 
ATOM     75  C   UNL A   1      52.555  27.063  25.787  1.00  0.00     0.198 A 
ATOM     76  F   UNL A   1      51.067  27.221  27.603  1.00  0.00    -0.203 F 
ATOM     77  F   UNL A   1      52.003  27.562  22.237  1.00  0.00    -0.200 F 
ATOM     78  C   UNL A   1      52.795  27.144  24.424  1.00  0.00     0.200 A 
ATOM     79  F   UNL A   1      53.532  26.684  26.622  1.00  0.00    -0.200 F 
ATOM     80  F   UNL A   1      54.006  26.833  23.940  1.00  0.00    -0.200 F 
ENDBRANCH  56  70
BRANCH  57  81
ATOM     81  C   UNL A   1      40.879  28.915  28.593  1.00  0.00     0.064 A 
ATOM     82  C   UNL A   1      40.431  28.738  29.917  1.00  0.00     0.173 A 
ATOM     83  C   UNL A   1      39.886  29.212  27.642  1.00  0.00     0.173 A 
ATOM     84  F   UNL A   1      41.303  28.397  30.879  1.00  0.00    -0.203 F 
ATOM     85  C   UNL A   1      39.076  28.835  30.260  1.00  0.00     0.198 A 
ATOM     86  C   UNL A   1      38.542  29.371  27.994  1.00  0.00     0.198 A 
ATOM     87  F   UNL A   1      40.210  29.329  26.346  1.00  0.00    -0.203 F 
ATOM     88  F   UNL A   1      38.681  28.567  31.513  1.00  0.00    -0.200 F 
ATOM     89  C   UNL A   1      38.135  29.168  29.300  1.00  0.00     0.200 A 
ATOM     90  F   UNL A   1      37.642  29.688  27.053  1.00  0.00    -0.200 F 
ATOM     91  F   UNL A   1      36.837  29.256  29.625  1.00  0.00    -0.200 F 
ENDBRANCH  57  81
BRANCH  69  92
ATOM     92  C   UNL A   1      46.642  32.830  29.043  1.00  0.00     0.064 A 
ATOM     93  C   UNL A   1      46.469  34.025  28.330  1.00  0.00     0.173 A 
ATOM     94  C   UNL A   1      47.016  32.912  30.392  1.00  0.00     0.173 A 
ATOM     95  F   UNL A   1      46.130  33.994  27.032  1.00  0.00    -0.203 F 
ATOM     96  C   UNL A   1      46.668  35.256  28.946  1.00  0.00     0.198 A 
ATOM     97  C   UNL A   1      47.183  34.145  31.013  1.00  0.00     0.198 A 
ATOM     98  F   UNL A   1      47.190  31.795  31.114  1.00  0.00    -0.203 F 
ATOM     99  F   UNL A   1      46.528  36.386  28.240  1.00  0.00    -0.200 F 
ATOM    100  C   UNL A   1      47.012  35.315  30.288  1.00  0.00     0.200 A 
ATOM    101  F   UNL A   1      47.500  34.200  32.313  1.00  0.00    -0.200 F 
ATOM    102  F   UNL A   1      47.182  36.503  30.886  1.00  0.00    -0.200 F 
ENDBRANCH  69  92
ENDBRANCH  43  44
ENDBRANCH  36  38
ENDBRANCH  35  36
ENDBRANCH  34  35
ENDBRANCH  33  34
ENDBRANCH  32  33
ENDBRANCH  31  32
ENDBRANCH   1  31
TORSDOF 20
ENDMDL
MODEL 3
REMARK VINA RESULT:     -10.1      1.374      2.450
REMARK SMILES COc1ccc(CCN2/C(=[NH+]/C(=O)CCC(=O)OCCOCCOC(=O)c3ccc(-c4c5nc(c(-c6c(F)c(F)c(F)c(F)c6F)c6ccc([nH]6)c(-c6c(F)c(F)c(F)c(F)c6F)c6nc(c(-c7c(F)c(F)c(F)c(F)c7F)c7ccc4[nH]7)C=C6)C=C5)cc3)S[C@@H]3CS(=O)(=O)C[C@@H]32)cc1
REMARK SMILES IDX 19 1 18 2 16 3 17 4 15 5 14 6 12 7 9 8 10 9 97 10 11 11
REMARK SMILES IDX 90 12 91 13 96 14 92 16 93 17 13 18 94 19 95 20 8 21 7 22
REMARK SMILES IDX 6 23 3 24 4 25 99 26 5 27 98 28 2 29 1 30 20 31 21 32 22 33
REMARK SMILES IDX 23 34 24 35 25 36 26 37 27 38 28 39 89 40 29 41 88 42 30 43
REMARK SMILES IDX 31 44 32 45 82 46 33 47 87 48 81 49 83 50 34 51 86 52 80 53
REMARK SMILES IDX 79 54 35 56 67 57 47 58 66 59 48 60 51 61 65 62 84 63 49 64
REMARK SMILES IDX 50 65 64 67 85 68 52 69 36 70 37 71 45 72 38 73 39 74 43 75
REMARK SMILES IDX 46 76 40 77 41 78 44 79 42 80 68 81 69 82 77 83 70 84 71 85
REMARK SMILES IDX 75 86 78 87 72 88 73 89 76 90 74 91 53 92 54 93 62 94 55 95
REMARK SMILES IDX 56 96 60 97 63 98 57 99 58 100 61 101 59 102
REMARK H PARENT 11 15 83 55 51 66
REMARK Flexibility Score: inf
ROOT
ATOM      1  C   UNL A   1      40.690  22.559  27.566  1.00  0.00     0.261 C 
ENDROOT
BRANCH   1   2
ATOM      2  O   UNL A   1      39.497  22.721  26.779  1.00  0.00    -0.463 OA
BRANCH   2   3
ATOM      3  C   UNL A   1      38.961  23.960  26.682  1.00  0.00     0.306 C 
ATOM      4  O   UNL A   1      39.440  24.981  27.150  1.00  0.00    -0.252 OA
BRANCH   3   5
ATOM      5  C   UNL A   1      37.705  23.919  25.851  1.00  0.00     0.135 C 
BRANCH   5   6
ATOM      6  C   UNL A   1      36.492  23.434  26.626  1.00  0.00     0.139 C 
BRANCH   6   7
ATOM      7  C   UNL A   1      35.329  22.830  25.838  1.00  0.00     0.308 C 
ATOM      8  N   UNL A   1      32.099  24.101  24.490  1.00  0.00    -0.251 N 
ATOM      9  C   UNL A   1      33.288  23.386  24.806  1.00  0.00     0.314 C 
ATOM     10  C   UNL A   1      31.727  24.048  23.072  1.00  0.00     0.206 C 
ATOM     11  N   UNL A   1      34.127  23.540  25.782  1.00  0.00    -0.205 N 
ATOM     12  S   UNL A   1      33.610  22.245  23.479  1.00  0.00    -0.030 SA
ATOM     13  C   UNL A   1      32.861  23.339  22.304  1.00  0.00     0.120 C 
ATOM     14  C   UNL A   1      31.508  25.405  22.422  1.00  0.00     0.187 C 
ATOM     15  H   UNL A   1      33.911  24.174  26.503  1.00  0.00     0.316 HD
ATOM     16  C   UNL A   1      33.855  24.370  21.839  1.00  0.00     0.156 C 
ATOM     17  S   UNL A   1      32.769  25.604  21.197  1.00  0.00     0.155 S 
ATOM     18  O   UNL A   1      35.518  21.691  25.404  1.00  0.00    -0.247 OA
ATOM     19  O   UNL A   1      33.374  26.901  21.340  1.00  0.00    -0.229 OA
ATOM     20  O   UNL A   1      32.224  25.117  19.937  1.00  0.00    -0.229 OA
BRANCH   8  21
ATOM     21  C   UNL A   1      31.154  24.721  25.463  1.00  0.00     0.242 C 
BRANCH  21  22
ATOM     22  C   UNL A   1      31.022  26.291  25.665  1.00  0.00     0.081 C 
BRANCH  22  23
ATOM     23  C   UNL A   1      30.537  27.310  24.632  1.00  0.00    -0.044 A 
ATOM     24  C   UNL A   1      29.600  29.184  22.675  1.00  0.00     0.118 A 
ATOM     25  C   UNL A   1      30.765  29.433  23.390  1.00  0.00     0.046 A 
ATOM     26  C   UNL A   1      28.851  28.055  23.005  1.00  0.00     0.046 A 
ATOM     27  C   UNL A   1      31.215  28.513  24.369  1.00  0.00     0.007 A 
ATOM     28  C   UNL A   1      29.302  27.138  23.976  1.00  0.00     0.007 A 
BRANCH  24  29
ATOM     29  O   UNL A   1      29.169  29.856  21.570  1.00  0.00    -0.497 OA
ATOM     30  C   UNL A   1      27.953  30.591  21.635  1.00  0.00     0.278 C 
ENDBRANCH  24  29
ENDBRANCH  22  23
ENDBRANCH  21  22
ENDBRANCH   8  21
ENDBRANCH   6   7
ENDBRANCH   5   6
ENDBRANCH   3   5
ENDBRANCH   2   3
ENDBRANCH   1   2
BRANCH   1  31
ATOM     31  C   UNL A   1      41.048  21.068  27.740  1.00  0.00     0.202 C 
BRANCH  31  32
ATOM     32  O   UNL A   1      41.893  20.516  26.733  1.00  0.00    -0.374 OA
BRANCH  32  33
ATOM     33  C   UNL A   1      42.020  19.098  26.798  1.00  0.00     0.202 C 
BRANCH  33  34
ATOM     34  C   UNL A   1      42.954  18.457  25.759  1.00  0.00     0.261 C 
BRANCH  34  35
ATOM     35  O   UNL A   1      44.310  18.976  25.783  1.00  0.00    -0.460 OA
BRANCH  35  36
ATOM     36  C   UNL A   1      44.745  19.539  24.629  1.00  0.00     0.338 C 
ATOM     37  O   UNL A   1      44.879  18.950  23.565  1.00  0.00    -0.246 OA
BRANCH  36  38
ATOM     38  C   UNL A   1      44.946  21.022  24.723  1.00  0.00     0.060 A 
ATOM     39  C   UNL A   1      45.496  21.485  25.913  1.00  0.00     0.016 A 
ATOM     40  C   UNL A   1      44.635  21.973  23.740  1.00  0.00     0.016 A 
ATOM     41  C   UNL A   1      45.809  22.839  26.073  1.00  0.00     0.010 A 
ATOM     42  C   UNL A   1      44.930  23.360  23.933  1.00  0.00     0.010 A 
ATOM     43  C   UNL A   1      45.561  23.815  25.096  1.00  0.00    -0.014 A 
BRANCH  43  44
ATOM     44  C   UNL A   1      45.862  25.253  25.487  1.00  0.00     0.031 A 
ATOM     45  C   UNL A   1      44.818  25.992  26.257  1.00  0.00     0.074 A 
ATOM     46  C   UNL A   1      47.073  25.855  25.404  1.00  0.00     0.049 A 
ATOM     47  N   UNL A   1      44.904  27.163  26.830  1.00  0.00    -0.248 NA
ATOM     48  C   UNL A   1      43.511  25.335  26.388  1.00  0.00     0.031 C 
ATOM     49  C   UNL A   1      48.176  25.287  24.687  1.00  0.00     0.029 A 
ATOM     50  N   UNL A   1      47.639  26.990  25.962  1.00  0.00    -0.354 N 
ATOM     51  C   UNL A   1      43.657  27.386  27.376  1.00  0.00     0.074 A 
ATOM     52  C   UNL A   1      42.849  26.216  27.116  1.00  0.00     0.031 C 
ATOM     53  C   UNL A   1      49.327  25.896  25.015  1.00  0.00     0.029 A 
ATOM     54  C   UNL A   1      49.020  27.071  25.813  1.00  0.00     0.049 A 
ATOM     55  H   UNL A   1      47.111  27.680  26.424  1.00  0.00     0.167 HD
ATOM     56  C   UNL A   1      43.209  28.501  27.989  1.00  0.00     0.037 A 
ATOM     57  C   UNL A   1      49.934  27.993  26.205  1.00  0.00     0.037 A 
ATOM     58  C   UNL A   1      43.981  29.694  28.176  1.00  0.00     0.049 A 
ATOM     59  C   UNL A   1      49.387  29.260  26.814  1.00  0.00     0.074 A 
ATOM     60  C   UNL A   1      43.557  30.921  28.649  1.00  0.00     0.029 A 
ATOM     61  N   UNL A   1      45.332  29.818  27.886  1.00  0.00    -0.354 N 
ATOM     62  N   UNL A   1      48.169  29.502  27.230  1.00  0.00    -0.248 NA
ATOM     63  C   UNL A   1      50.298  30.410  26.922  1.00  0.00     0.031 C 
ATOM     64  C   UNL A   1      44.644  31.798  28.616  1.00  0.00     0.029 A 
ATOM     65  C   UNL A   1      45.759  31.103  28.179  1.00  0.00     0.049 A 
ATOM     66  H   UNL A   1      45.902  29.100  27.525  1.00  0.00     0.167 HD
ATOM     67  C   UNL A   1      48.158  30.834  27.616  1.00  0.00     0.074 A 
ATOM     68  C   UNL A   1      49.506  31.332  27.450  1.00  0.00     0.031 C 
ATOM     69  C   UNL A   1      47.110  31.581  28.032  1.00  0.00     0.037 A 
BRANCH  56  70
ATOM     70  C   UNL A   1      41.770  28.489  28.372  1.00  0.00     0.064 A 
ATOM     71  C   UNL A   1      41.346  28.003  29.615  1.00  0.00     0.173 A 
ATOM     72  C   UNL A   1      40.803  28.899  27.444  1.00  0.00     0.173 A 
ATOM     73  F   UNL A   1      42.243  27.553  30.506  1.00  0.00    -0.203 F 
ATOM     74  C   UNL A   1      39.991  27.912  29.911  1.00  0.00     0.198 A 
ATOM     75  C   UNL A   1      39.451  28.832  27.756  1.00  0.00     0.198 A 
ATOM     76  F   UNL A   1      41.171  29.338  26.231  1.00  0.00    -0.203 F 
ATOM     77  F   UNL A   1      39.597  27.387  31.079  1.00  0.00    -0.200 F 
ATOM     78  C   UNL A   1      39.047  28.333  28.984  1.00  0.00     0.200 A 
ATOM     79  F   UNL A   1      38.540  29.232  26.858  1.00  0.00    -0.200 F 
ATOM     80  F   UNL A   1      37.741  28.241  29.271  1.00  0.00    -0.200 F 
ENDBRANCH  56  70
BRANCH  57  81
ATOM     81  C   UNL A   1      51.416  27.870  25.940  1.00  0.00     0.064 A 
ATOM     82  C   UNL A   1      51.982  28.266  24.711  1.00  0.00     0.173 A 
ATOM     83  C   UNL A   1      52.296  27.265  26.856  1.00  0.00     0.173 A 
ATOM     84  F   UNL A   1      51.204  28.800  23.757  1.00  0.00    -0.203 F 
ATOM     85  C   UNL A   1      53.334  28.052  24.415  1.00  0.00     0.198 A 
ATOM     86  C   UNL A   1      53.659  27.109  26.587  1.00  0.00     0.198 A 
ATOM     87  F   UNL A   1      51.832  26.795  28.022  1.00  0.00    -0.203 F 
ATOM     88  F   UNL A   1      53.812  28.358  23.200  1.00  0.00    -0.200 F 
ATOM     89  C   UNL A   1      54.176  27.488  25.361  1.00  0.00     0.200 A 
ATOM     90  F   UNL A   1      54.459  26.557  27.508  1.00  0.00    -0.200 F 
ATOM     91  F   UNL A   1      55.469  27.278  25.078  1.00  0.00    -0.200 F 
ENDBRANCH  57  81
BRANCH  69  92
ATOM     92  C   UNL A   1      47.377  33.012  28.386  1.00  0.00     0.064 A 
ATOM     93  C   UNL A   1      47.251  34.043  27.445  1.00  0.00     0.173 A 
ATOM     94  C   UNL A   1      47.684  33.358  29.710  1.00  0.00     0.173 A 
ATOM     95  F   UNL A   1      46.976  33.757  26.163  1.00  0.00    -0.203 F 
ATOM     96  C   UNL A   1      47.431  35.372  27.816  1.00  0.00     0.198 A 
ATOM     97  C   UNL A   1      47.832  34.689  30.084  1.00  0.00     0.198 A 
ATOM     98  F   UNL A   1      47.811  32.404  30.645  1.00  0.00    -0.203 F 
ATOM     99  F   UNL A   1      47.338  36.341  26.896  1.00  0.00    -0.200 F 
ATOM    100  C   UNL A   1      47.709  35.694  29.137  1.00  0.00     0.200 A 
ATOM    101  F   UNL A   1      48.084  34.998  31.363  1.00  0.00    -0.200 F 
ATOM    102  F   UNL A   1      47.860  36.976  29.497  1.00  0.00    -0.200 F 
ENDBRANCH  69  92
ENDBRANCH  43  44
ENDBRANCH  36  38
ENDBRANCH  35  36
ENDBRANCH  34  35
ENDBRANCH  33  34
ENDBRANCH  32  33
ENDBRANCH  31  32
ENDBRANCH   1  31
TORSDOF 20
ENDMDL
