MODEL 1
REMARK VINA RESULT:     -12.4      0.000      0.000
REMARK SMILES CCc1cc(/C=C/C(=O)OCCOCCOC(=O)c2ccc(-c3c4nc(c(-c5c(F)c(F)c(F)c(F)c5F)c5ccc([nH]5)c(-c5c(F)c(F)c(F)c(F)c5F)c5nc(c(-c6c(F)c(F)c(F)c(F)c6F)c6ccc3[nH]6)C=C5)C=C4)cc2)cc(C(=O)c2ccccc2)c1
REMARK SMILES IDX 12 1 11 2 10 3 8 4 9 5 7 6 6 7 5 8 3 9 4 10 92 11 83 12
REMARK SMILES IDX 82 13 2 14 1 15 84 16 85 17 86 18 87 19 91 20 88 21 90 22
REMARK SMILES IDX 89 23 13 24 14 25 15 26 16 27 17 28 18 29 19 30 20 31 81 32
REMARK SMILES IDX 21 33 80 34 22 35 23 36 24 37 74 38 25 39 79 40 73 41 75 42
REMARK SMILES IDX 26 43 78 44 72 45 71 46 27 48 59 49 39 50 58 51 40 52 43 53
REMARK SMILES IDX 57 54 76 55 41 56 42 57 56 59 77 60 44 61 28 62 29 63 37 64
REMARK SMILES IDX 30 65 31 66 35 67 38 68 32 69 33 70 36 71 34 72 60 73 61 74
REMARK SMILES IDX 69 75 62 76 63 77 67 78 70 79 64 80 65 81 68 82 66 83 45 84
REMARK SMILES IDX 46 85 54 86 47 87 48 88 52 89 55 90 49 91 50 92 53 93 51 94
REMARK H PARENT 75 47 43 58
REMARK Flexibility Score: inf
ROOT
ATOM      1  C   UNL A   1      31.301  28.919  23.067  1.00  0.00     0.202 C 
ENDROOT
BRANCH   1   2
ATOM      2  C   UNL A   1      31.365  27.430  22.719  1.00  0.00     0.261 C 
BRANCH   2   3
ATOM      3  O   UNL A   1      32.572  26.830  23.220  1.00  0.00    -0.460 OA
BRANCH   3   4
ATOM      4  C   UNL A   1      33.240  26.063  22.328  1.00  0.00     0.330 C 
ATOM      5  O   UNL A   1      33.617  26.400  21.216  1.00  0.00    -0.247 OA
BRANCH   4   6
ATOM      6  C   UNL A   1      33.593  24.738  22.876  1.00  0.00     0.094 C 
ATOM      7  C   UNL A   1      34.528  24.466  23.802  1.00  0.00     0.015 C 
BRANCH   7   8
ATOM      8  C   UNL A   1      34.836  23.087  24.233  1.00  0.00    -0.024 A 
ATOM      9  C   UNL A   1      36.462  21.366  24.873  1.00  0.00    -0.047 A 
ATOM     10  C   UNL A   1      36.154  22.682  24.506  1.00  0.00     0.011 A 
ATOM     11  C   UNL A   1      35.412  20.440  24.978  1.00  0.00     0.016 A 
ATOM     12  C   UNL A   1      34.081  20.833  24.786  1.00  0.00     0.023 A 
ATOM     13  C   UNL A   1      33.803  22.158  24.407  1.00  0.00     0.020 A 
BRANCH   9  14
ATOM     14  C   UNL A   1      37.877  20.882  25.112  1.00  0.00     0.032 C 
ATOM     15  C   UNL A   1      38.821  21.852  25.813  1.00  0.00     0.009 C 
ENDBRANCH   9  14
BRANCH  12  16
ATOM     16  C   UNL A   1      32.941  19.874  24.901  1.00  0.00     0.193 C 
ATOM     17  O   UNL A   1      31.802  20.304  25.071  1.00  0.00    -0.289 OA
BRANCH  16  18
ATOM     18  C   UNL A   1      33.119  18.405  24.779  1.00  0.00     0.022 A 
ATOM     19  C   UNL A   1      32.674  17.598  25.833  1.00  0.00     0.012 A 
ATOM     20  C   UNL A   1      33.745  17.822  23.672  1.00  0.00     0.012 A 
ATOM     21  C   UNL A   1      32.811  16.211  25.758  1.00  0.00     0.001 A 
ATOM     22  C   UNL A   1      33.874  16.432  23.598  1.00  0.00     0.001 A 
ATOM     23  C   UNL A   1      33.402  15.629  24.637  1.00  0.00     0.000 A 
ENDBRANCH  16  18
ENDBRANCH  12  16
ENDBRANCH   7   8
ENDBRANCH   4   6
ENDBRANCH   3   4
ENDBRANCH   2   3
ENDBRANCH   1   2
BRANCH   1  24
ATOM     24  O   UNL A   1      30.946  29.229  24.413  1.00  0.00    -0.374 OA
BRANCH  24  25
ATOM     25  C   UNL A   1      32.006  29.624  25.288  1.00  0.00     0.202 C 
BRANCH  25  26
ATOM     26  C   UNL A   1      31.739  30.868  26.145  1.00  0.00     0.261 C 
BRANCH  26  27
ATOM     27  O   UNL A   1      32.594  30.912  27.304  1.00  0.00    -0.460 OA
BRANCH  27  28
ATOM     28  C   UNL A   1      33.357  32.022  27.422  1.00  0.00     0.338 C 
ATOM     29  O   UNL A   1      33.008  33.186  27.286  1.00  0.00    -0.246 OA
BRANCH  28  30
ATOM     30  C   UNL A   1      34.687  31.646  27.933  1.00  0.00     0.060 A 
ATOM     31  C   UNL A   1      34.902  30.310  28.300  1.00  0.00     0.016 A 
ATOM     32  C   UNL A   1      35.693  32.599  28.099  1.00  0.00     0.016 A 
ATOM     33  C   UNL A   1      36.116  29.926  28.868  1.00  0.00     0.010 A 
ATOM     34  C   UNL A   1      36.903  32.216  28.680  1.00  0.00     0.010 A 
ATOM     35  C   UNL A   1      37.109  30.885  29.093  1.00  0.00    -0.014 A 
BRANCH  35  36
ATOM     36  C   UNL A   1      38.312  30.560  29.893  1.00  0.00     0.031 A 
ATOM     37  C   UNL A   1      39.322  29.610  29.316  1.00  0.00     0.074 A 
ATOM     38  C   UNL A   1      38.482  31.066  31.127  1.00  0.00     0.049 A 
ATOM     39  N   UNL A   1      40.348  29.036  29.888  1.00  0.00    -0.248 NA
ATOM     40  C   UNL A   1      39.141  29.251  27.900  1.00  0.00     0.031 C 
ATOM     41  C   UNL A   1      37.601  32.037  31.769  1.00  0.00     0.029 A 
ATOM     42  N   UNL A   1      39.443  30.802  32.071  1.00  0.00    -0.354 N 
ATOM     43  C   UNL A   1      40.920  28.231  28.912  1.00  0.00     0.074 A 
ATOM     44  C   UNL A   1      40.121  28.379  27.715  1.00  0.00     0.031 C 
ATOM     45  C   UNL A   1      38.046  32.267  33.017  1.00  0.00     0.029 A 
ATOM     46  C   UNL A   1      39.211  31.423  33.273  1.00  0.00     0.049 A 
ATOM     47  H   UNL A   1      40.223  30.225  31.902  1.00  0.00     0.167 HD
ATOM     48  C   UNL A   1      42.013  27.439  29.010  1.00  0.00     0.037 A 
ATOM     49  C   UNL A   1      39.843  31.286  34.456  1.00  0.00     0.037 A 
ATOM     50  C   UNL A   1      42.803  27.301  30.205  1.00  0.00     0.049 A 
ATOM     51  C   UNL A   1      41.010  30.338  34.565  1.00  0.00     0.074 A 
ATOM     52  C   UNL A   1      43.937  26.534  30.406  1.00  0.00     0.029 A 
ATOM     53  N   UNL A   1      42.534  27.943  31.405  1.00  0.00    -0.354 N 
ATOM     54  N   UNL A   1      41.553  29.582  33.640  1.00  0.00    -0.248 NA
ATOM     55  C   UNL A   1      41.650  30.217  35.883  1.00  0.00     0.031 C 
ATOM     56  C   UNL A   1      44.325  26.673  31.741  1.00  0.00     0.029 A 
ATOM     57  C   UNL A   1      43.469  27.573  32.357  1.00  0.00     0.049 A 
ATOM     58  H   UNL A   1      41.789  28.569  31.557  1.00  0.00     0.167 HD
ATOM     59  C   UNL A   1      42.618  28.932  34.250  1.00  0.00     0.074 A 
ATOM     60  C   UNL A   1      42.644  29.376  35.627  1.00  0.00     0.031 C 
ATOM     61  C   UNL A   1      43.498  28.052  33.714  1.00  0.00     0.037 A 
BRANCH  48  62
ATOM     62  C   UNL A   1      42.400  26.633  27.806  1.00  0.00     0.064 A 
ATOM     63  C   UNL A   1      41.837  25.375  27.546  1.00  0.00     0.173 A 
ATOM     64  C   UNL A   1      43.321  27.144  26.878  1.00  0.00     0.173 A 
ATOM     65  F   UNL A   1      40.962  24.836  28.409  1.00  0.00    -0.203 F 
ATOM     66  C   UNL A   1      42.199  24.647  26.416  1.00  0.00     0.198 A 
ATOM     67  C   UNL A   1      43.660  26.426  25.734  1.00  0.00     0.198 A 
ATOM     68  F   UNL A   1      43.886  28.344  27.077  1.00  0.00    -0.203 F 
ATOM     69  F   UNL A   1      41.683  23.428  26.211  1.00  0.00    -0.200 F 
ATOM     70  C   UNL A   1      43.105  25.177  25.507  1.00  0.00     0.200 A 
ATOM     71  F   UNL A   1      44.523  26.946  24.851  1.00  0.00    -0.200 F 
ATOM     72  F   UNL A   1      43.446  24.479  24.415  1.00  0.00    -0.200 F 
ENDBRANCH  48  62
BRANCH  49  73
ATOM     73  C   UNL A   1      39.372  32.049  35.642  1.00  0.00     0.064 A 
ATOM     74  C   UNL A   1      39.881  33.324  35.928  1.00  0.00     0.173 A 
ATOM     75  C   UNL A   1      38.415  31.516  36.519  1.00  0.00     0.173 A 
ATOM     76  F   UNL A   1      40.816  33.864  35.133  1.00  0.00    -0.203 F 
ATOM     77  C   UNL A   1      39.463  34.029  37.055  1.00  0.00     0.198 A 
ATOM     78  C   UNL A   1      37.977  32.234  37.631  1.00  0.00     0.198 A 
ATOM     79  F   UNL A   1      37.900  30.300  36.293  1.00  0.00    -0.203 F 
ATOM     80  F   UNL A   1      39.999  35.225  37.329  1.00  0.00    -0.200 F 
ATOM     81  C   UNL A   1      38.507  33.487  37.901  1.00  0.00     0.200 A 
ATOM     82  F   UNL A   1      37.047  31.712  38.440  1.00  0.00    -0.200 F 
ATOM     83  F   UNL A   1      38.104  34.167  38.983  1.00  0.00    -0.200 F 
ENDBRANCH  49  73
BRANCH  61  84
ATOM     84  C   UNL A   1      44.614  27.558  34.588  1.00  0.00     0.064 A 
ATOM     85  C   UNL A   1      45.850  28.213  34.654  1.00  0.00     0.173 A 
ATOM     86  C   UNL A   1      44.403  26.462  35.440  1.00  0.00     0.173 A 
ATOM     87  F   UNL A   1      46.105  29.257  33.851  1.00  0.00    -0.203 F 
ATOM     88  C   UNL A   1      46.839  27.785  35.537  1.00  0.00     0.198 A 
ATOM     89  C   UNL A   1      45.383  26.054  36.340  1.00  0.00     0.198 A 
ATOM     90  F   UNL A   1      43.232  25.806  35.420  1.00  0.00    -0.203 F 
ATOM     91  F   UNL A   1      48.025  28.410  35.566  1.00  0.00    -0.200 F 
ATOM     92  C   UNL A   1      46.600  26.715  36.387  1.00  0.00     0.200 A 
ATOM     93  F   UNL A   1      45.143  25.031  37.171  1.00  0.00    -0.200 F 
ATOM     94  F   UNL A   1      47.545  26.320  37.251  1.00  0.00    -0.200 F 
ENDBRANCH  61  84
ENDBRANCH  35  36
ENDBRANCH  28  30
ENDBRANCH  27  28
ENDBRANCH  26  27
ENDBRANCH  25  26
ENDBRANCH  24  25
ENDBRANCH   1  24
TORSDOF 18
ENDMDL
MODEL 2
REMARK VINA RESULT:     -12.2      4.320     10.507
REMARK SMILES CCc1cc(/C=C/C(=O)OCCOCCOC(=O)c2ccc(-c3c4nc(c(-c5c(F)c(F)c(F)c(F)c5F)c5ccc([nH]5)c(-c5c(F)c(F)c(F)c(F)c5F)c5nc(c(-c6c(F)c(F)c(F)c(F)c6F)c6ccc3[nH]6)C=C5)C=C4)cc2)cc(C(=O)c2ccccc2)c1
REMARK SMILES IDX 12 1 11 2 10 3 8 4 9 5 7 6 6 7 5 8 3 9 4 10 92 11 83 12
REMARK SMILES IDX 82 13 2 14 1 15 84 16 85 17 86 18 87 19 91 20 88 21 90 22
REMARK SMILES IDX 89 23 13 24 14 25 15 26 16 27 17 28 18 29 19 30 20 31 81 32
REMARK SMILES IDX 21 33 80 34 22 35 23 36 24 37 74 38 25 39 79 40 73 41 75 42
REMARK SMILES IDX 26 43 78 44 72 45 71 46 27 48 59 49 39 50 58 51 40 52 43 53
REMARK SMILES IDX 57 54 76 55 41 56 42 57 56 59 77 60 44 61 28 62 29 63 37 64
REMARK SMILES IDX 30 65 31 66 35 67 38 68 32 69 33 70 36 71 34 72 60 73 61 74
REMARK SMILES IDX 69 75 62 76 63 77 67 78 70 79 64 80 65 81 68 82 66 83 45 84
REMARK SMILES IDX 46 85 54 86 47 87 48 88 52 89 55 90 49 91 50 92 53 93 51 94
REMARK H PARENT 75 47 43 58
REMARK Flexibility Score: inf
ROOT
ATOM      1  C   UNL A   1      33.096  20.277  25.387  1.00  0.00     0.202 C 
ENDROOT
BRANCH   1   2
ATOM      2  C   UNL A   1      32.290  21.575  25.309  1.00  0.00     0.261 C 
BRANCH   2   3
ATOM      3  O   UNL A   1      32.217  22.220  26.593  1.00  0.00    -0.460 OA
BRANCH   3   4
ATOM      4  C   UNL A   1      31.161  23.050  26.754  1.00  0.00     0.330 C 
ATOM      5  O   UNL A   1      30.297  22.972  27.614  1.00  0.00    -0.247 OA
BRANCH   4   6
ATOM      6  C   UNL A   1      31.194  24.192  25.818  1.00  0.00     0.094 C 
ATOM      7  C   UNL A   1      30.226  25.102  25.613  1.00  0.00     0.015 C 
BRANCH   7   8
ATOM      8  C   UNL A   1      30.349  26.172  24.602  1.00  0.00    -0.024 A 
ATOM      9  C   UNL A   1      31.712  27.484  23.041  1.00  0.00    -0.047 A 
ATOM     10  C   UNL A   1      31.574  26.443  23.968  1.00  0.00     0.011 A 
ATOM     11  C   UNL A   1      30.583  28.262  22.739  1.00  0.00     0.016 A 
ATOM     12  C   UNL A   1      29.332  27.967  23.297  1.00  0.00     0.023 A 
ATOM     13  C   UNL A   1      29.227  26.923  24.234  1.00  0.00     0.020 A 
BRANCH   9  14
ATOM     14  C   UNL A   1      33.030  27.843  22.389  1.00  0.00     0.032 C 
ATOM     15  C   UNL A   1      34.133  28.349  23.311  1.00  0.00     0.009 C 
ENDBRANCH   9  14
BRANCH  12  16
ATOM     16  C   UNL A   1      28.110  28.768  22.988  1.00  0.00     0.193 C 
ATOM     17  O   UNL A   1      27.001  28.255  23.115  1.00  0.00    -0.289 OA
BRANCH  16  18
ATOM     18  C   UNL A   1      28.175  30.189  22.563  1.00  0.00     0.022 A 
ATOM     19  C   UNL A   1      28.060  30.474  21.197  1.00  0.00     0.012 A 
ATOM     20  C   UNL A   1      28.384  31.229  23.476  1.00  0.00     0.012 A 
ATOM     21  C   UNL A   1      28.104  31.797  20.752  1.00  0.00     0.001 A 
ATOM     22  C   UNL A   1      28.421  32.552  23.026  1.00  0.00     0.001 A 
ATOM     23  C   UNL A   1      28.275  32.834  21.668  1.00  0.00     0.000 A 
ENDBRANCH  16  18
ENDBRANCH  12  16
ENDBRANCH   7   8
ENDBRANCH   4   6
ENDBRANCH   3   4
ENDBRANCH   2   3
ENDBRANCH   1   2
BRANCH   1  24
ATOM     24  O   UNL A   1      34.363  20.290  24.732  1.00  0.00    -0.374 OA
BRANCH  24  25
ATOM     25  C   UNL A   1      35.397  21.071  25.336  1.00  0.00     0.202 C 
BRANCH  25  26
ATOM     26  C   UNL A   1      36.835  20.639  25.019  1.00  0.00     0.261 C 
BRANCH  26  27
ATOM     27  O   UNL A   1      37.778  21.699  25.267  1.00  0.00    -0.460 OA
BRANCH  27  28
ATOM     28  C   UNL A   1      38.890  21.342  25.947  1.00  0.00     0.338 C 
ATOM     29  O   UNL A   1      39.442  20.251  25.955  1.00  0.00    -0.246 OA
BRANCH  28  30
ATOM     30  C   UNL A   1      39.484  22.538  26.570  1.00  0.00     0.060 A 
ATOM     31  C   UNL A   1      38.997  23.796  26.186  1.00  0.00     0.016 A 
ATOM     32  C   UNL A   1      40.538  22.432  27.479  1.00  0.00     0.016 A 
ATOM     33  C   UNL A   1      39.585  24.957  26.685  1.00  0.00     0.010 A 
ATOM     34  C   UNL A   1      41.134  23.595  27.967  1.00  0.00     0.010 A 
ATOM     35  C   UNL A   1      40.681  24.862  27.551  1.00  0.00    -0.014 A 
BRANCH  35  36
ATOM     36  C   UNL A   1      41.466  26.062  27.918  1.00  0.00     0.031 A 
ATOM     37  C   UNL A   1      40.783  27.160  28.682  1.00  0.00     0.074 A 
ATOM     38  C   UNL A   1      42.750  26.193  27.541  1.00  0.00     0.049 A 
ATOM     39  N   UNL A   1      41.199  28.369  28.956  1.00  0.00    -0.248 NA
ATOM     40  C   UNL A   1      39.440  26.852  29.201  1.00  0.00     0.031 C 
ATOM     41  C   UNL A   1      43.533  25.175  26.847  1.00  0.00     0.029 A 
ATOM     42  N   UNL A   1      43.608  27.257  27.666  1.00  0.00    -0.354 N 
ATOM     43  C   UNL A   1      40.163  28.973  29.655  1.00  0.00     0.074 A 
ATOM     44  C   UNL A   1      39.093  28.004  29.753  1.00  0.00     0.031 C 
ATOM     45  C   UNL A   1      44.752  25.675  26.577  1.00  0.00     0.029 A 
ATOM     46  C   UNL A   1      44.814  27.061  27.039  1.00  0.00     0.049 A 
ATOM     47  H   UNL A   1      43.382  28.080  28.157  1.00  0.00     0.167 HD
ATOM     48  C   UNL A   1      40.112  30.225  30.166  1.00  0.00     0.037 A 
ATOM     49  C   UNL A   1      45.830  27.920  26.824  1.00  0.00     0.037 A 
ATOM     50  C   UNL A   1      41.183  31.181  30.065  1.00  0.00     0.049 A 
ATOM     51  C   UNL A   1      45.719  29.336  27.332  1.00  0.00     0.074 A 
ATOM     52  C   UNL A   1      41.238  32.472  30.558  1.00  0.00     0.029 A 
ATOM     53  N   UNL A   1      42.388  30.947  29.418  1.00  0.00    -0.354 N 
ATOM     54  N   UNL A   1      44.742  29.903  27.997  1.00  0.00    -0.248 NA
ATOM     55  C   UNL A   1      46.850  30.234  27.054  1.00  0.00     0.031 C 
ATOM     56  C   UNL A   1      42.455  33.036  30.167  1.00  0.00     0.029 A 
ATOM     57  C   UNL A   1      43.184  32.078  29.481  1.00  0.00     0.049 A 
ATOM     58  H   UNL A   1      42.640  30.102  28.978  1.00  0.00     0.167 HD
ATOM     59  C   UNL A   1      45.156  31.205  28.253  1.00  0.00     0.074 A 
ATOM     60  C   UNL A   1      46.471  31.347  27.667  1.00  0.00     0.031 C 
ATOM     61  C   UNL A   1      44.506  32.189  28.920  1.00  0.00     0.037 A 
BRANCH  48  62
ATOM     62  C   UNL A   1      38.846  30.648  30.849  1.00  0.00     0.064 A 
ATOM     63  C   UNL A   1      38.702  30.587  32.243  1.00  0.00     0.173 A 
ATOM     64  C   UNL A   1      37.773  31.155  30.099  1.00  0.00     0.173 A 
ATOM     65  F   UNL A   1      39.693  30.097  33.003  1.00  0.00    -0.203 F 
ATOM     66  C   UNL A   1      37.522  30.995  32.860  1.00  0.00     0.198 A 
ATOM     67  C   UNL A   1      36.605  31.590  30.722  1.00  0.00     0.198 A 
ATOM     68  F   UNL A   1      37.860  31.239  28.764  1.00  0.00    -0.203 F 
ATOM     69  F   UNL A   1      37.389  30.886  34.188  1.00  0.00    -0.200 F 
ATOM     70  C   UNL A   1      36.478  31.504  32.099  1.00  0.00     0.200 A 
ATOM     71  F   UNL A   1      35.605  32.093  29.987  1.00  0.00    -0.200 F 
ATOM     72  F   UNL A   1      35.347  31.905  32.695  1.00  0.00    -0.200 F 
ENDBRANCH  48  62
BRANCH  49  73
ATOM     73  C   UNL A   1      47.032  27.475  26.072  1.00  0.00     0.064 A 
ATOM     74  C   UNL A   1      48.136  26.926  26.738  1.00  0.00     0.173 A 
ATOM     75  C   UNL A   1      47.108  27.601  24.676  1.00  0.00     0.173 A 
ATOM     76  F   UNL A   1      48.122  26.810  28.074  1.00  0.00    -0.203 F 
ATOM     77  C   UNL A   1      49.277  26.535  26.039  1.00  0.00     0.198 A 
ATOM     78  C   UNL A   1      48.238  27.184  23.976  1.00  0.00     0.198 A 
ATOM     79  F   UNL A   1      46.080  28.123  23.992  1.00  0.00    -0.203 F 
ATOM     80  F   UNL A   1      50.336  26.056  26.705  1.00  0.00    -0.200 F 
ATOM     81  C   UNL A   1      49.325  26.658  24.659  1.00  0.00     0.200 A 
ATOM     82  F   UNL A   1      48.276  27.295  22.641  1.00  0.00    -0.200 F 
ATOM     83  F   UNL A   1      50.421  26.280  23.987  1.00  0.00    -0.200 F 
ENDBRANCH  49  73
BRANCH  61  84
ATOM     84  C   UNL A   1      45.225  33.491  29.123  1.00  0.00     0.064 A 
ATOM     85  C   UNL A   1      45.007  34.596  28.290  1.00  0.00     0.173 A 
ATOM     86  C   UNL A   1      46.077  33.656  30.227  1.00  0.00     0.173 A 
ATOM     87  F   UNL A   1      44.212  34.485  27.215  1.00  0.00    -0.203 F 
ATOM     88  C   UNL A   1      45.621  35.819  28.550  1.00  0.00     0.198 A 
ATOM     89  C   UNL A   1      46.667  34.887  30.500  1.00  0.00     0.198 A 
ATOM     90  F   UNL A   1      46.312  32.630  31.059  1.00  0.00    -0.203 F 
ATOM     91  F   UNL A   1      45.419  36.857  27.726  1.00  0.00    -0.200 F 
ATOM     92  C   UNL A   1      46.440  35.966  29.661  1.00  0.00     0.200 A 
ATOM     93  F   UNL A   1      47.444  35.030  31.582  1.00  0.00    -0.200 F 
ATOM     94  F   UNL A   1      47.011  37.150  29.921  1.00  0.00    -0.200 F 
ENDBRANCH  61  84
ENDBRANCH  35  36
ENDBRANCH  28  30
ENDBRANCH  27  28
ENDBRANCH  26  27
ENDBRANCH  25  26
ENDBRANCH  24  25
ENDBRANCH   1  24
TORSDOF 18
ENDMDL
MODEL 3
REMARK VINA RESULT:     -12.1      1.100      2.873
REMARK SMILES CCc1cc(/C=C/C(=O)OCCOCCOC(=O)c2ccc(-c3c4nc(c(-c5c(F)c(F)c(F)c(F)c5F)c5ccc([nH]5)c(-c5c(F)c(F)c(F)c(F)c5F)c5nc(c(-c6c(F)c(F)c(F)c(F)c6F)c6ccc3[nH]6)C=C5)C=C4)cc2)cc(C(=O)c2ccccc2)c1
REMARK SMILES IDX 12 1 11 2 10 3 8 4 9 5 7 6 6 7 5 8 3 9 4 10 92 11 83 12
REMARK SMILES IDX 82 13 2 14 1 15 84 16 85 17 86 18 87 19 91 20 88 21 90 22
REMARK SMILES IDX 89 23 13 24 14 25 15 26 16 27 17 28 18 29 19 30 20 31 81 32
REMARK SMILES IDX 21 33 80 34 22 35 23 36 24 37 74 38 25 39 79 40 73 41 75 42
REMARK SMILES IDX 26 43 78 44 72 45 71 46 27 48 59 49 39 50 58 51 40 52 43 53
REMARK SMILES IDX 57 54 76 55 41 56 42 57 56 59 77 60 44 61 28 62 29 63 37 64
REMARK SMILES IDX 30 65 31 66 35 67 38 68 32 69 33 70 36 71 34 72 60 73 61 74
REMARK SMILES IDX 69 75 62 76 63 77 67 78 70 79 64 80 65 81 68 82 66 83 45 84
REMARK SMILES IDX 46 85 54 86 47 87 48 88 52 89 55 90 49 91 50 92 53 93 51 94
REMARK H PARENT 75 47 43 58
REMARK Flexibility Score: inf
ROOT
ATOM      1  C   UNL A   1      31.669  27.820  23.543  1.00  0.00     0.202 C 
ENDROOT
BRANCH   1   2
ATOM      2  C   UNL A   1      31.018  26.445  23.375  1.00  0.00     0.261 C 
BRANCH   2   3
ATOM      3  O   UNL A   1      29.940  26.263  24.308  1.00  0.00    -0.460 OA
BRANCH   3   4
ATOM      4  C   UNL A   1      30.255  25.541  25.408  1.00  0.00     0.330 C 
ATOM      5  O   UNL A   1      29.707  25.598  26.498  1.00  0.00    -0.247 OA
BRANCH   4   6
ATOM      6  C   UNL A   1      31.307  24.540  25.144  1.00  0.00     0.094 C 
ATOM      7  C   UNL A   1      31.150  23.213  25.004  1.00  0.00     0.015 C 
BRANCH   7   8
ATOM      8  C   UNL A   1      32.291  22.298  24.799  1.00  0.00    -0.024 A 
ATOM      9  C   UNL A   1      33.236  20.035  24.799  1.00  0.00    -0.047 A 
ATOM     10  C   UNL A   1      32.151  20.907  24.948  1.00  0.00     0.011 A 
ATOM     11  C   UNL A   1      34.490  20.579  24.480  1.00  0.00     0.016 A 
ATOM     12  C   UNL A   1      34.644  21.953  24.251  1.00  0.00     0.023 A 
ATOM     13  C   UNL A   1      33.539  22.806  24.419  1.00  0.00     0.020 A 
BRANCH   9  14
ATOM     14  C   UNL A   1      33.133  18.540  25.014  1.00  0.00     0.032 C 
ATOM     15  C   UNL A   1      34.237  17.684  24.404  1.00  0.00     0.009 C 
ENDBRANCH   9  14
BRANCH  12  16
ATOM     16  C   UNL A   1      35.963  22.561  23.900  1.00  0.00     0.193 C 
ATOM     17  O   UNL A   1      36.165  22.949  22.751  1.00  0.00    -0.289 OA
BRANCH  16  18
ATOM     18  C   UNL A   1      37.043  22.756  24.900  1.00  0.00     0.022 A 
ATOM     19  C   UNL A   1      37.932  21.698  25.125  1.00  0.00     0.012 A 
ATOM     20  C   UNL A   1      37.167  23.938  25.638  1.00  0.00     0.012 A 
ATOM     21  C   UNL A   1      38.969  21.839  26.048  1.00  0.00     0.001 A 
ATOM     22  C   UNL A   1      38.211  24.078  26.557  1.00  0.00     0.001 A 
ATOM     23  C   UNL A   1      39.114  23.032  26.755  1.00  0.00     0.000 A 
ENDBRANCH  16  18
ENDBRANCH  12  16
ENDBRANCH   7   8
ENDBRANCH   4   6
ENDBRANCH   3   4
ENDBRANCH   2   3
ENDBRANCH   1   2
BRANCH   1  24
ATOM     24  O   UNL A   1      30.936  28.766  24.317  1.00  0.00    -0.374 OA
BRANCH  24  25
ATOM     25  C   UNL A   1      31.417  29.037  25.636  1.00  0.00     0.202 C 
BRANCH  25  26
ATOM     26  C   UNL A   1      32.168  30.363  25.817  1.00  0.00     0.261 C 
BRANCH  26  27
ATOM     27  O   UNL A   1      32.808  30.442  27.105  1.00  0.00    -0.460 OA
BRANCH  27  28
ATOM     28  C   UNL A   1      33.499  31.580  27.342  1.00  0.00     0.338 C 
ATOM     29  O   UNL A   1      33.087  32.730  27.282  1.00  0.00    -0.246 OA
BRANCH  28  30
ATOM     30  C   UNL A   1      34.828  31.240  27.880  1.00  0.00     0.060 A 
ATOM     31  C   UNL A   1      35.052  29.922  28.304  1.00  0.00     0.016 A 
ATOM     32  C   UNL A   1      35.822  32.209  28.017  1.00  0.00     0.016 A 
ATOM     33  C   UNL A   1      36.265  29.574  28.898  1.00  0.00     0.010 A 
ATOM     34  C   UNL A   1      37.031  31.862  28.624  1.00  0.00     0.010 A 
ATOM     35  C   UNL A   1      37.246  30.552  29.093  1.00  0.00    -0.014 A 
BRANCH  35  36
ATOM     36  C   UNL A   1      38.445  30.273  29.917  1.00  0.00     0.031 A 
ATOM     37  C   UNL A   1      39.487  29.339  29.372  1.00  0.00     0.074 A 
ATOM     38  C   UNL A   1      38.582  30.804  31.144  1.00  0.00     0.049 A 
ATOM     39  N   UNL A   1      40.520  28.803  29.969  1.00  0.00    -0.248 NA
ATOM     40  C   UNL A   1      39.338  28.951  27.960  1.00  0.00     0.031 C 
ATOM     41  C   UNL A   1      37.666  31.763  31.755  1.00  0.00     0.029 A 
ATOM     42  N   UNL A   1      39.535  30.582  32.107  1.00  0.00    -0.354 N 
ATOM     43  C   UNL A   1      41.127  27.997  29.017  1.00  0.00     0.074 A 
ATOM     44  C   UNL A   1      40.343  28.102  27.805  1.00  0.00     0.031 C 
ATOM     45  C   UNL A   1      38.085  32.026  33.006  1.00  0.00     0.029 A 
ATOM     46  C   UNL A   1      39.268  31.217  33.294  1.00  0.00     0.049 A 
ATOM     47  H   UNL A   1      40.332  30.023  31.960  1.00  0.00     0.167 HD
ATOM     48  C   UNL A   1      42.239  27.235  29.145  1.00  0.00     0.037 A 
ATOM     49  C   UNL A   1      39.885  31.118  34.489  1.00  0.00     0.037 A 
ATOM     50  C   UNL A   1      43.013  27.139  30.354  1.00  0.00     0.049 A 
ATOM     51  C   UNL A   1      41.074  30.202  34.632  1.00  0.00     0.074 A 
ATOM     52  C   UNL A   1      44.163  26.406  30.586  1.00  0.00     0.029 A 
ATOM     53  N   UNL A   1      42.709  27.794  31.538  1.00  0.00    -0.354 N 
ATOM     54  N   UNL A   1      41.651  29.446  33.729  1.00  0.00    -0.248 NA
ATOM     55  C   UNL A   1      41.697  30.121  35.961  1.00  0.00     0.031 C 
ATOM     56  C   UNL A   1      44.527  26.578  31.924  1.00  0.00     0.029 A 
ATOM     57  C   UNL A   1      43.638  27.465  32.511  1.00  0.00     0.049 A 
ATOM     58  H   UNL A   1      41.946  28.403  31.668  1.00  0.00     0.167 HD
ATOM     59  C   UNL A   1      42.723  28.835  34.366  1.00  0.00     0.074 A 
ATOM     60  C   UNL A   1      42.716  29.303  35.736  1.00  0.00     0.031 C 
ATOM     61  C   UNL A   1      43.634  27.969  33.860  1.00  0.00     0.037 A 
BRANCH  48  62
ATOM     62  C   UNL A   1      42.665  26.419  27.961  1.00  0.00     0.064 A 
ATOM     63  C   UNL A   1      42.215  25.104  27.770  1.00  0.00     0.173 A 
ATOM     64  C   UNL A   1      43.507  26.974  26.986  1.00  0.00     0.173 A 
ATOM     65  F   UNL A   1      41.420  24.523  28.681  1.00  0.00    -0.203 F 
ATOM     66  C   UNL A   1      42.612  24.366  26.658  1.00  0.00     0.198 A 
ATOM     67  C   UNL A   1      43.879  26.243  25.860  1.00  0.00     0.198 A 
ATOM     68  F   UNL A   1      43.962  28.228  27.119  1.00  0.00    -0.203 F 
ATOM     69  F   UNL A   1      42.208  23.097  26.518  1.00  0.00    -0.200 F 
ATOM     70  C   UNL A   1      43.438  24.939  25.700  1.00  0.00     0.200 A 
ATOM     71  F   UNL A   1      44.664  26.803  24.930  1.00  0.00    -0.200 F 
ATOM     72  F   UNL A   1      43.812  24.231  24.626  1.00  0.00    -0.200 F 
ENDBRANCH  48  62
BRANCH  49  73
ATOM     73  C   UNL A   1      39.376  31.889  35.653  1.00  0.00     0.064 A 
ATOM     74  C   UNL A   1      38.449  31.325  36.541  1.00  0.00     0.173 A 
ATOM     75  C   UNL A   1      39.794  33.206  35.896  1.00  0.00     0.173 A 
ATOM     76  F   UNL A   1      37.999  30.079  36.335  1.00  0.00    -0.203 F 
ATOM     77  C   UNL A   1      37.947  32.055  37.617  1.00  0.00     0.198 A 
ATOM     78  C   UNL A   1      39.313  33.925  36.989  1.00  0.00     0.198 A 
ATOM     79  F   UNL A   1      40.677  33.792  35.076  1.00  0.00    -0.203 F 
ATOM     80  F   UNL A   1      37.027  31.508  38.423  1.00  0.00    -0.200 F 
ATOM     81  C   UNL A   1      38.384  33.351  37.844  1.00  0.00     0.200 A 
ATOM     82  F   UNL A   1      39.745  35.173  37.211  1.00  0.00    -0.200 F 
ATOM     83  F   UNL A   1      37.903  34.051  38.881  1.00  0.00    -0.200 F 
ENDBRANCH  49  73
BRANCH  61  84
ATOM     84  C   UNL A   1      44.748  27.519  34.759  1.00  0.00     0.064 A 
ATOM     85  C   UNL A   1      45.922  28.268  34.917  1.00  0.00     0.173 A 
ATOM     86  C   UNL A   1      44.593  26.364  35.542  1.00  0.00     0.173 A 
ATOM     87  F   UNL A   1      46.123  29.372  34.182  1.00  0.00    -0.203 F 
ATOM     88  C   UNL A   1      46.904  27.874  35.823  1.00  0.00     0.198 A 
ATOM     89  C   UNL A   1      45.564  25.988  36.466  1.00  0.00     0.198 A 
ATOM     90  F   UNL A   1      43.484  25.617  35.433  1.00  0.00    -0.203 F 
ATOM     91  F   UNL A   1      48.031  28.591  35.941  1.00  0.00    -0.200 F 
ATOM     92  C   UNL A   1      46.719  26.742  36.604  1.00  0.00     0.200 A 
ATOM     93  F   UNL A   1      45.375  24.904  37.230  1.00  0.00    -0.200 F 
ATOM     94  F   UNL A   1      47.655  26.378  37.491  1.00  0.00    -0.200 F 
ENDBRANCH  61  84
ENDBRANCH  35  36
ENDBRANCH  28  30
ENDBRANCH  27  28
ENDBRANCH  26  27
ENDBRANCH  25  26
ENDBRANCH  24  25
ENDBRANCH   1  24
TORSDOF 18
ENDMDL
