MODEL 1
REMARK VINA RESULT:     -13.0      0.000      0.000
REMARK SMILES C[C@H]1CCCC[C@H]1[N@H+]1[C@@H](C(=O)OCCOCCOC(=O)c2ccc(-c3c4nc(c(-c5c(F)c(F)c(F)c(F)c5F)c5ccc([nH]5)c(-c5c(F)c(F)c(F)c(F)c5F)c5nc(c(-c6c(F)c(F)c(F)c(F)c6F)c6ccc3[nH]6)C=C5)C=C4)cc2)CC[C@H]2CCCC[C@H]21
REMARK SMILES IDX 16 1 15 2 14 3 13 4 12 5 10 6 11 7 9 8 8 9 91 10 84 12 86 13
REMARK SMILES IDX 90 14 85 15 87 16 89 17 88 18 7 19 1 20 2 21 3 22 4 23 6 24
REMARK SMILES IDX 5 25 17 26 18 27 19 28 20 29 21 30 22 31 83 32 23 33 82 34
REMARK SMILES IDX 24 35 25 36 26 37 76 38 27 39 81 40 75 41 77 42 28 43 80 44
REMARK SMILES IDX 74 45 73 46 29 48 61 49 41 50 60 51 42 52 45 53 59 54 78 55
REMARK SMILES IDX 43 56 44 57 58 59 79 60 46 61 30 62 31 63 39 64 32 65 33 66
REMARK SMILES IDX 37 67 40 68 34 69 35 70 38 71 36 72 62 73 63 74 71 75 64 76
REMARK SMILES IDX 65 77 69 78 72 79 66 80 67 81 70 82 68 83 47 84 48 85 56 86
REMARK SMILES IDX 49 87 50 88 54 89 57 90 51 91 52 92 55 93 53 94
REMARK H PARENT 8 11 77 47 45 58
REMARK Flexibility Score: inf
ROOT
ATOM      1  C   UNL A   1      31.411  29.870  25.220  1.00  0.00     0.202 C 
ENDROOT
BRANCH   1   2
ATOM      2  O   UNL A   1      32.499  29.338  24.446  1.00  0.00    -0.374 OA
BRANCH   2   3
ATOM      3  C   UNL A   1      32.331  28.662  23.190  1.00  0.00     0.202 C 
BRANCH   3   4
ATOM      4  C   UNL A   1      31.180  27.618  23.075  1.00  0.00     0.261 C 
BRANCH   4   5
ATOM      5  O   UNL A   1      31.658  26.337  22.526  1.00  0.00    -0.459 OA
BRANCH   5   6
ATOM      6  C   UNL A   1      31.055  25.197  22.982  1.00  0.00     0.365 C 
ATOM      7  O   UNL A   1      29.875  25.193  23.340  1.00  0.00    -0.245 OA
BRANCH   6   8
ATOM      8  C   UNL A   1      31.906  23.880  23.028  1.00  0.00     0.295 C 
ATOM      9  N   UNL A   1      31.926  22.966  24.208  1.00  0.00    -0.318 N 
ATOM     10  C   UNL A   1      32.581  21.597  23.511  1.00  0.00     0.188 C 
ATOM     11  H   UNL A   1      31.043  22.742  24.667  1.00  0.00     0.349 HD
ATOM     12  C   UNL A   1      33.401  24.018  22.686  1.00  0.00     0.078 C 
ATOM     13  C   UNL A   1      33.852  21.617  24.252  1.00  0.00     0.048 C 
ATOM     14  C   UNL A   1      32.381  20.043  23.279  1.00  0.00     0.065 C 
ATOM     15  C   UNL A   1      34.387  22.907  23.341  1.00  0.00     0.016 C 
ATOM     16  C   UNL A   1      33.089  21.082  25.657  1.00  0.00     0.010 C 
ATOM     17  C   UNL A   1      32.534  19.005  24.400  1.00  0.00     0.006 C 
ATOM     18  C   UNL A   1      32.904  19.575  25.745  1.00  0.00     0.001 C 
BRANCH   9  19
ATOM     19  C   UNL A   1      32.771  23.701  25.498  1.00  0.00     0.187 C 
ATOM     20  C   UNL A   1      35.580  24.453  25.327  1.00  0.00     0.014 C 
ATOM     21  C   UNL A   1      34.114  24.729  25.751  1.00  0.00     0.044 C 
ATOM     22  C   UNL A   1      33.837  26.259  25.695  1.00  0.00     0.009 C 
ATOM     23  C   UNL A   1      32.690  26.632  26.612  1.00  0.00     0.001 C 
ATOM     24  C   UNL A   1      31.808  24.242  26.552  1.00  0.00     0.065 C 
ATOM     25  C   UNL A   1      31.526  25.716  26.334  1.00  0.00     0.006 C 
ENDBRANCH   9  19
ENDBRANCH   6   8
ENDBRANCH   5   6
ENDBRANCH   4   5
ENDBRANCH   3   4
ENDBRANCH   2   3
ENDBRANCH   1   2
BRANCH   1  26
ATOM     26  C   UNL A   1      31.578  31.077  26.182  1.00  0.00     0.261 C 
BRANCH  26  27
ATOM     27  O   UNL A   1      32.521  30.869  27.230  1.00  0.00    -0.460 OA
BRANCH  27  28
ATOM     28  C   UNL A   1      33.278  31.945  27.479  1.00  0.00     0.338 C 
ATOM     29  O   UNL A   1      32.885  33.109  27.621  1.00  0.00    -0.246 OA
BRANCH  28  30
ATOM     30  C   UNL A   1      34.647  31.536  27.794  1.00  0.00     0.060 A 
ATOM     31  C   UNL A   1      34.842  30.166  27.982  1.00  0.00     0.016 A 
ATOM     32  C   UNL A   1      35.687  32.447  28.004  1.00  0.00     0.016 A 
ATOM     33  C   UNL A   1      36.035  29.705  28.516  1.00  0.00     0.010 A 
ATOM     34  C   UNL A   1      36.894  31.979  28.536  1.00  0.00     0.010 A 
ATOM     35  C   UNL A   1      37.039  30.617  28.865  1.00  0.00    -0.014 A 
BRANCH  35  36
ATOM     36  C   UNL A   1      38.107  30.155  29.787  1.00  0.00     0.031 A 
ATOM     37  C   UNL A   1      39.150  29.204  29.259  1.00  0.00     0.074 A 
ATOM     38  C   UNL A   1      38.225  30.665  31.025  1.00  0.00     0.049 A 
ATOM     39  N   UNL A   1      40.187  28.682  29.866  1.00  0.00    -0.248 NA
ATOM     40  C   UNL A   1      39.011  28.792  27.852  1.00  0.00     0.031 C 
ATOM     41  C   UNL A   1      37.333  31.657  31.618  1.00  0.00     0.029 A 
ATOM     42  N   UNL A   1      39.159  30.422  32.001  1.00  0.00    -0.354 N 
ATOM     43  C   UNL A   1      40.809  27.873  28.923  1.00  0.00     0.074 A 
ATOM     44  C   UNL A   1      40.021  27.947  27.714  1.00  0.00     0.031 C 
ATOM     45  C   UNL A   1      37.763  31.943  32.858  1.00  0.00     0.029 A 
ATOM     46  C   UNL A   1      38.935  31.122  33.161  1.00  0.00     0.049 A 
ATOM     47  H   UNL A   1      39.917  29.806  31.882  1.00  0.00     0.167 HD
ATOM     48  C   UNL A   1      41.941  27.142  29.052  1.00  0.00     0.037 A 
ATOM     49  C   UNL A   1      39.589  31.083  34.338  1.00  0.00     0.037 A 
ATOM     50  C   UNL A   1      42.732  27.083  30.252  1.00  0.00     0.049 A 
ATOM     51  C   UNL A   1      40.791  30.185  34.487  1.00  0.00     0.074 A 
ATOM     52  C   UNL A   1      43.899  26.376  30.481  1.00  0.00     0.029 A 
ATOM     53  N   UNL A   1      42.433  27.755  31.428  1.00  0.00    -0.354 N 
ATOM     54  N   UNL A   1      41.371  29.420  33.594  1.00  0.00    -0.248 NA
ATOM     55  C   UNL A   1      41.432  30.147  35.810  1.00  0.00     0.031 C 
ATOM     56  C   UNL A   1      44.270  26.567  31.815  1.00  0.00     0.029 A 
ATOM     57  C   UNL A   1      43.378  27.454  32.395  1.00  0.00     0.049 A 
ATOM     58  H   UNL A   1      41.664  28.357  31.556  1.00  0.00     0.167 HD
ATOM     59  C   UNL A   1      42.465  28.847  34.232  1.00  0.00     0.074 A 
ATOM     60  C   UNL A   1      42.469  29.352  35.588  1.00  0.00     0.031 C 
ATOM     61  C   UNL A   1      43.386  27.985  33.735  1.00  0.00     0.037 A 
BRANCH  48  62
ATOM     62  C   UNL A   1      42.369  26.307  27.879  1.00  0.00     0.064 A 
ATOM     63  C   UNL A   1      43.335  26.748  26.961  1.00  0.00     0.173 A 
ATOM     64  C   UNL A   1      41.824  25.027  27.692  1.00  0.00     0.173 A 
ATOM     65  F   UNL A   1      43.877  27.968  27.086  1.00  0.00    -0.203 F 
ATOM     66  C   UNL A   1      43.717  25.949  25.886  1.00  0.00     0.198 A 
ATOM     67  C   UNL A   1      42.234  24.219  26.636  1.00  0.00     0.198 A 
ATOM     68  F   UNL A   1      40.900  24.553  28.541  1.00  0.00    -0.203 F 
ATOM     69  F   UNL A   1      44.603  26.412  24.993  1.00  0.00    -0.200 F 
ATOM     70  C   UNL A   1      43.174  24.683  25.729  1.00  0.00     0.200 A 
ATOM     71  F   UNL A   1      41.719  22.989  26.496  1.00  0.00    -0.200 F 
ATOM     72  F   UNL A   1      43.550  23.913  24.698  1.00  0.00    -0.200 F 
ENDBRANCH  48  62
BRANCH  49  73
ATOM     73  C   UNL A   1      39.109  31.905  35.481  1.00  0.00     0.064 A 
ATOM     74  C   UNL A   1      39.494  33.245  35.625  1.00  0.00     0.173 A 
ATOM     75  C   UNL A   1      38.278  31.357  36.469  1.00  0.00     0.173 A 
ATOM     76  F   UNL A   1      40.311  33.808  34.722  1.00  0.00    -0.203 F 
ATOM     77  C   UNL A   1      39.083  33.998  36.723  1.00  0.00     0.198 A 
ATOM     78  C   UNL A   1      37.840  32.120  37.549  1.00  0.00     0.198 A 
ATOM     79  F   UNL A   1      37.883  30.078  36.382  1.00  0.00    -0.203 F 
ATOM     80  F   UNL A   1      39.511  35.260  36.865  1.00  0.00    -0.200 F 
ATOM     81  C   UNL A   1      38.251  33.437  37.681  1.00  0.00     0.200 A 
ATOM     82  F   UNL A   1      37.027  31.577  38.464  1.00  0.00    -0.200 F 
ATOM     83  F   UNL A   1      37.856  34.162  38.736  1.00  0.00    -0.200 F 
ENDBRANCH  49  73
BRANCH  61  84
ATOM     84  C   UNL A   1      44.523  27.580  34.630  1.00  0.00     0.064 A 
ATOM     85  C   UNL A   1      45.704  28.332  34.722  1.00  0.00     0.173 A 
ATOM     86  C   UNL A   1      44.394  26.458  35.464  1.00  0.00     0.173 A 
ATOM     87  F   UNL A   1      45.884  29.406  33.939  1.00  0.00    -0.203 F 
ATOM     88  C   UNL A   1      46.720  27.962  35.599  1.00  0.00     0.198 A 
ATOM     89  C   UNL A   1      45.397  26.112  36.365  1.00  0.00     0.198 A 
ATOM     90  F   UNL A   1      43.281  25.710  35.425  1.00  0.00    -0.203 F 
ATOM     91  F   UNL A   1      47.858  28.670  35.640  1.00  0.00    -0.200 F 
ATOM     92  C   UNL A   1      46.563  26.860  36.428  1.00  0.00     0.200 A 
ATOM     93  F   UNL A   1      45.234  25.058  37.177  1.00  0.00    -0.200 F 
ATOM     94  F   UNL A   1      47.535  26.517  37.283  1.00  0.00    -0.200 F 
ENDBRANCH  61  84
ENDBRANCH  35  36
ENDBRANCH  28  30
ENDBRANCH  27  28
ENDBRANCH  26  27
ENDBRANCH   1  26
TORSDOF 15
ENDMDL
MODEL 2
REMARK VINA RESULT:     -12.8      4.307      9.780
REMARK SMILES C[C@H]1CCCC[C@H]1[N@H+]1[C@@H](C(=O)OCCOCCOC(=O)c2ccc(-c3c4nc(c(-c5c(F)c(F)c(F)c(F)c5F)c5ccc([nH]5)c(-c5c(F)c(F)c(F)c(F)c5F)c5nc(c(-c6c(F)c(F)c(F)c(F)c6F)c6ccc3[nH]6)C=C5)C=C4)cc2)CC[C@H]2CCCC[C@H]21
REMARK SMILES IDX 16 1 15 2 14 3 13 4 12 5 10 6 11 7 9 8 8 9 91 10 84 12 86 13
REMARK SMILES IDX 90 14 85 15 87 16 89 17 88 18 7 19 1 20 2 21 3 22 4 23 6 24
REMARK SMILES IDX 5 25 17 26 18 27 19 28 20 29 21 30 22 31 83 32 23 33 82 34
REMARK SMILES IDX 24 35 25 36 26 37 76 38 27 39 81 40 75 41 77 42 28 43 80 44
REMARK SMILES IDX 74 45 73 46 29 48 61 49 41 50 60 51 42 52 45 53 59 54 78 55
REMARK SMILES IDX 43 56 44 57 58 59 79 60 46 61 30 62 31 63 39 64 32 65 33 66
REMARK SMILES IDX 37 67 40 68 34 69 35 70 38 71 36 72 62 73 63 74 71 75 64 76
REMARK SMILES IDX 65 77 69 78 72 79 66 80 67 81 70 82 68 83 47 84 48 85 56 86
REMARK SMILES IDX 49 87 50 88 54 89 57 90 51 91 52 92 55 93 53 94
REMARK H PARENT 8 11 77 47 45 58
REMARK Flexibility Score: inf
ROOT
ATOM      1  C   UNL A   1      35.541  22.424  24.351  1.00  0.00     0.202 C 
ENDROOT
BRANCH   1   2
ATOM      2  O   UNL A   1      34.586  23.184  25.110  1.00  0.00    -0.374 OA
BRANCH   2   3
ATOM      3  C   UNL A   1      33.594  24.039  24.519  1.00  0.00     0.202 C 
BRANCH   3   4
ATOM      4  C   UNL A   1      34.064  25.412  23.952  1.00  0.00     0.261 C 
BRANCH   4   5
ATOM      5  O   UNL A   1      33.184  25.884  22.867  1.00  0.00    -0.459 OA
BRANCH   5   6
ATOM      6  C   UNL A   1      33.124  27.234  22.654  1.00  0.00     0.365 C 
ATOM      7  O   UNL A   1      34.146  27.921  22.588  1.00  0.00    -0.245 OA
BRANCH   6   8
ATOM      8  C   UNL A   1      31.710  27.891  22.480  1.00  0.00     0.295 C 
ATOM      9  N   UNL A   1      31.327  29.179  23.130  1.00  0.00    -0.318 N 
ATOM     10  C   UNL A   1      29.971  29.570  22.236  1.00  0.00     0.188 C 
ATOM     11  H   UNL A   1      31.995  29.950  23.116  1.00  0.00     0.349 HD
ATOM     12  C   UNL A   1      30.496  26.992  22.777  1.00  0.00     0.078 C 
ATOM     13  C   UNL A   1      28.995  29.414  23.326  1.00  0.00     0.048 C 
ATOM     14  C   UNL A   1      29.282  30.694  21.360  1.00  0.00     0.065 C 
ATOM     15  C   UNL A   1      29.143  27.756  23.250  1.00  0.00     0.016 C 
ATOM     16  C   UNL A   1      29.495  30.860  24.036  1.00  0.00     0.010 C 
ATOM     17  C   UNL A   1      28.715  31.990  21.958  1.00  0.00     0.006 C 
ATOM     18  C   UNL A   1      28.852  32.109  23.454  1.00  0.00     0.001 C 
BRANCH   9  19
ATOM     19  C   UNL A   1      31.149  28.950  24.814  1.00  0.00     0.187 C 
ATOM     20  C   UNL A   1      30.577  26.355  26.007  1.00  0.00     0.014 C 
ATOM     21  C   UNL A   1      31.326  27.713  25.981  1.00  0.00     0.044 C 
ATOM     22  C   UNL A   1      32.745  27.534  26.593  1.00  0.00     0.009 C 
ATOM     23  C   UNL A   1      33.273  28.854  27.119  1.00  0.00     0.001 C 
ATOM     24  C   UNL A   1      31.692  30.144  25.594  1.00  0.00     0.065 C 
ATOM     25  C   UNL A   1      33.118  29.902  26.047  1.00  0.00     0.006 C 
ENDBRANCH   9  19
ENDBRANCH   6   8
ENDBRANCH   5   6
ENDBRANCH   4   5
ENDBRANCH   3   4
ENDBRANCH   2   3
ENDBRANCH   1   2
BRANCH   1  26
ATOM     26  C   UNL A   1      36.616  21.524  25.018  1.00  0.00     0.261 C 
BRANCH  26  27
ATOM     27  O   UNL A   1      37.958  21.961  24.816  1.00  0.00    -0.460 OA
BRANCH  27  28
ATOM     28  C   UNL A   1      38.802  21.520  25.757  1.00  0.00     0.338 C 
ATOM     29  O   UNL A   1      39.266  20.378  25.858  1.00  0.00    -0.246 OA
BRANCH  28  30
ATOM     30  C   UNL A   1      39.303  22.642  26.552  1.00  0.00     0.060 A 
ATOM     31  C   UNL A   1      38.687  23.874  26.317  1.00  0.00     0.016 A 
ATOM     32  C   UNL A   1      40.397  22.538  27.416  1.00  0.00     0.016 A 
ATOM     33  C   UNL A   1      39.242  25.033  26.832  1.00  0.00     0.010 A 
ATOM     34  C   UNL A   1      40.952  23.710  27.943  1.00  0.00     0.010 A 
ATOM     35  C   UNL A   1      40.420  24.964  27.587  1.00  0.00    -0.014 A 
BRANCH  35  36
ATOM     36  C   UNL A   1      41.199  26.214  27.774  1.00  0.00     0.031 A 
ATOM     37  C   UNL A   1      40.580  27.335  28.568  1.00  0.00     0.074 A 
ATOM     38  C   UNL A   1      42.475  26.307  27.360  1.00  0.00     0.049 A 
ATOM     39  N   UNL A   1      41.073  28.507  28.881  1.00  0.00    -0.248 NA
ATOM     40  C   UNL A   1      39.222  27.099  29.087  1.00  0.00     0.031 C 
ATOM     41  C   UNL A   1      43.214  25.258  26.662  1.00  0.00     0.029 A 
ATOM     42  N   UNL A   1      43.377  27.334  27.484  1.00  0.00    -0.354 N 
ATOM     43  C   UNL A   1      40.083  29.149  29.616  1.00  0.00     0.074 A 
ATOM     44  C   UNL A   1      38.951  28.252  29.679  1.00  0.00     0.031 C 
ATOM     45  C   UNL A   1      44.461  25.695  26.419  1.00  0.00     0.029 A 
ATOM     46  C   UNL A   1      44.594  27.067  26.907  1.00  0.00     0.049 A 
ATOM     47  H   UNL A   1      43.172  28.180  27.942  1.00  0.00     0.167 HD
ATOM     48  C   UNL A   1      40.119  30.372  30.195  1.00  0.00     0.037 A 
ATOM     49  C   UNL A   1      45.679  27.853  26.769  1.00  0.00     0.037 A 
ATOM     50  C   UNL A   1      41.254  31.255  30.146  1.00  0.00     0.049 A 
ATOM     51  C   UNL A   1      45.660  29.248  27.338  1.00  0.00     0.074 A 
ATOM     52  C   UNL A   1      41.392  32.513  30.706  1.00  0.00     0.029 A 
ATOM     53  N   UNL A   1      42.445  30.974  29.493  1.00  0.00    -0.354 N 
ATOM     54  N   UNL A   1      44.721  29.851  28.028  1.00  0.00    -0.248 NA
ATOM     55  C   UNL A   1      46.854  30.075  27.111  1.00  0.00     0.031 C 
ATOM     56  C   UNL A   1      42.640  33.021  30.336  1.00  0.00     0.029 A 
ATOM     57  C   UNL A   1      43.311  32.049  29.610  1.00  0.00     0.049 A 
ATOM     58  H   UNL A   1      42.645  30.136  29.017  1.00  0.00     0.167 HD
ATOM     59  C   UNL A   1      45.227  31.104  28.353  1.00  0.00     0.074 A 
ATOM     60  C   UNL A   1      46.555  31.177  27.785  1.00  0.00     0.031 C 
ATOM     61  C   UNL A   1      44.643  32.100  29.064  1.00  0.00     0.037 A 
BRANCH  48  62
ATOM     62  C   UNL A   1      38.879  30.849  30.896  1.00  0.00     0.064 A 
ATOM     63  C   UNL A   1      38.704  30.713  32.281  1.00  0.00     0.173 A 
ATOM     64  C   UNL A   1      37.862  31.486  30.166  1.00  0.00     0.173 A 
ATOM     65  F   UNL A   1      39.639  30.100  33.022  1.00  0.00    -0.203 F 
ATOM     66  C   UNL A   1      37.546  31.170  32.905  1.00  0.00     0.198 A 
ATOM     67  C   UNL A   1      36.722  31.972  30.798  1.00  0.00     0.198 A 
ATOM     68  F   UNL A   1      37.979  31.647  28.840  1.00  0.00    -0.203 F 
ATOM     69  F   UNL A   1      37.378  30.983  34.221  1.00  0.00    -0.200 F 
ATOM     70  C   UNL A   1      36.560  31.808  32.165  1.00  0.00     0.200 A 
ATOM     71  F   UNL A   1      35.779  32.602  30.084  1.00  0.00    -0.200 F 
ATOM     72  F   UNL A   1      35.451  32.255  32.769  1.00  0.00    -0.200 F 
ENDBRANCH  48  62
BRANCH  49  73
ATOM     73  C   UNL A   1      46.874  27.347  26.041  1.00  0.00     0.064 A 
ATOM     74  C   UNL A   1      47.890  26.648  26.707  1.00  0.00     0.173 A 
ATOM     75  C   UNL A   1      47.036  27.577  24.666  1.00  0.00     0.173 A 
ATOM     76  F   UNL A   1      47.796  26.426  28.027  1.00  0.00    -0.203 F 
ATOM     77  C   UNL A   1      49.031  26.219  26.032  1.00  0.00     0.198 A 
ATOM     78  C   UNL A   1      48.161  27.118  23.985  1.00  0.00     0.198 A 
ATOM     79  F   UNL A   1      46.096  28.244  23.981  1.00  0.00    -0.203 F 
ATOM     80  F   UNL A   1      50.013  25.602  26.704  1.00  0.00    -0.200 F 
ATOM     81  C   UNL A   1      49.162  26.448  24.670  1.00  0.00     0.200 A 
ATOM     82  F   UNL A   1      48.277  27.331  22.668  1.00  0.00    -0.200 F 
ATOM     83  F   UNL A   1      50.259  26.034  24.022  1.00  0.00    -0.200 F 
ENDBRANCH  49  73
BRANCH  61  84
ATOM     84  C   UNL A   1      45.455  33.335  29.337  1.00  0.00     0.064 A 
ATOM     85  C   UNL A   1      46.321  33.429  30.436  1.00  0.00     0.173 A 
ATOM     86  C   UNL A   1      45.415  34.414  28.439  1.00  0.00     0.173 A 
ATOM     87  F   UNL A   1      46.389  32.432  31.330  1.00  0.00    -0.203 F 
ATOM     88  C   UNL A   1      47.101  34.566  30.635  1.00  0.00     0.198 A 
ATOM     89  C   UNL A   1      46.222  35.533  28.623  1.00  0.00     0.198 A 
ATOM     90  F   UNL A   1      44.611  34.371  27.366  1.00  0.00    -0.203 F 
ATOM     91  F   UNL A   1      47.891  34.653  31.715  1.00  0.00    -0.200 F 
ATOM     92  C   UNL A   1      47.059  35.612  29.724  1.00  0.00     0.200 A 
ATOM     93  F   UNL A   1      46.193  36.533  27.731  1.00  0.00    -0.200 F 
ATOM     94  F   UNL A   1      47.824  36.696  29.910  1.00  0.00    -0.200 F 
ENDBRANCH  61  84
ENDBRANCH  35  36
ENDBRANCH  28  30
ENDBRANCH  27  28
ENDBRANCH  26  27
ENDBRANCH   1  26
TORSDOF 15
ENDMDL
MODEL 3
REMARK VINA RESULT:     -12.7      4.628      7.634
REMARK SMILES C[C@H]1CCCC[C@H]1[N@H+]1[C@@H](C(=O)OCCOCCOC(=O)c2ccc(-c3c4nc(c(-c5c(F)c(F)c(F)c(F)c5F)c5ccc([nH]5)c(-c5c(F)c(F)c(F)c(F)c5F)c5nc(c(-c6c(F)c(F)c(F)c(F)c6F)c6ccc3[nH]6)C=C5)C=C4)cc2)CC[C@H]2CCCC[C@H]21
REMARK SMILES IDX 16 1 15 2 14 3 13 4 12 5 10 6 11 7 9 8 8 9 91 10 84 12 86 13
REMARK SMILES IDX 90 14 85 15 87 16 89 17 88 18 7 19 1 20 2 21 3 22 4 23 6 24
REMARK SMILES IDX 5 25 17 26 18 27 19 28 20 29 21 30 22 31 83 32 23 33 82 34
REMARK SMILES IDX 24 35 25 36 26 37 76 38 27 39 81 40 75 41 77 42 28 43 80 44
REMARK SMILES IDX 74 45 73 46 29 48 61 49 41 50 60 51 42 52 45 53 59 54 78 55
REMARK SMILES IDX 43 56 44 57 58 59 79 60 46 61 30 62 31 63 39 64 32 65 33 66
REMARK SMILES IDX 37 67 40 68 34 69 35 70 38 71 36 72 62 73 63 74 71 75 64 76
REMARK SMILES IDX 65 77 69 78 72 79 66 80 67 81 70 82 68 83 47 84 48 85 56 86
REMARK SMILES IDX 49 87 50 88 54 89 57 90 51 91 52 92 55 93 53 94
REMARK H PARENT 8 11 77 47 45 58
REMARK Flexibility Score: inf
ROOT
ATOM      1  C   UNL A   1      38.027  19.960  25.012  1.00  0.00     0.202 C 
ENDROOT
BRANCH   1   2
ATOM      2  O   UNL A   1      37.738  21.363  24.896  1.00  0.00    -0.374 OA
BRANCH   2   3
ATOM      3  C   UNL A   1      36.812  22.060  25.745  1.00  0.00     0.202 C 
BRANCH   3   4
ATOM      4  C   UNL A   1      36.774  23.615  25.657  1.00  0.00     0.261 C 
BRANCH   4   5
ATOM      5  O   UNL A   1      35.852  24.080  24.605  1.00  0.00    -0.459 OA
BRANCH   5   6
ATOM      6  C   UNL A   1      34.682  24.661  25.012  1.00  0.00     0.365 C 
ATOM      7  O   UNL A   1      34.260  24.521  26.162  1.00  0.00    -0.245 OA
BRANCH   6   8
ATOM      8  C   UNL A   1      33.888  25.527  23.973  1.00  0.00     0.295 C 
ATOM      9  N   UNL A   1      32.499  26.016  24.214  1.00  0.00    -0.318 N 
ATOM     10  C   UNL A   1      32.394  27.201  23.042  1.00  0.00     0.188 C 
ATOM     11  H   UNL A   1      32.270  26.403  25.130  1.00  0.00     0.349 HD
ATOM     12  C   UNL A   1      33.803  24.970  22.540  1.00  0.00     0.078 C 
ATOM     13  C   UNL A   1      31.379  26.532  22.211  1.00  0.00     0.048 C 
ATOM     14  C   UNL A   1      32.061  28.725  22.772  1.00  0.00     0.065 C 
ATOM     15  C   UNL A   1      32.514  25.438  21.670  1.00  0.00     0.016 C 
ATOM     16  C   UNL A   1      30.167  26.897  23.326  1.00  0.00     0.010 C 
ATOM     17  C   UNL A   1      30.636  29.295  22.844  1.00  0.00     0.006 C 
ATOM     18  C   UNL A   1      29.568  28.286  23.180  1.00  0.00     0.001 C 
BRANCH   9  19
ATOM     19  C   UNL A   1      31.402  24.708  24.144  1.00  0.00     0.187 C 
ATOM     20  C   UNL A   1      32.009  22.204  22.787  1.00  0.00     0.014 C 
ATOM     21  C   UNL A   1      31.421  23.006  23.976  1.00  0.00     0.044 C 
ATOM     22  C   UNL A   1      31.576  22.181  25.286  1.00  0.00     0.009 C 
ATOM     23  C   UNL A   1      30.551  22.611  26.316  1.00  0.00     0.001 C 
ATOM     24  C   UNL A   1      30.283  24.870  25.169  1.00  0.00     0.065 C 
ATOM     25  C   UNL A   1      30.591  24.112  26.446  1.00  0.00     0.006 C 
ENDBRANCH   9  19
ENDBRANCH   6   8
ENDBRANCH   5   6
ENDBRANCH   4   5
ENDBRANCH   3   4
ENDBRANCH   2   3
ENDBRANCH   1   2
BRANCH   1  26
ATOM     26  C   UNL A   1      39.420  19.425  25.443  1.00  0.00     0.261 C 
BRANCH  26  27
ATOM     27  O   UNL A   1      39.930  20.007  26.640  1.00  0.00    -0.460 OA
BRANCH  27  28
ATOM     28  C   UNL A   1      41.124  20.588  26.474  1.00  0.00     0.338 C 
ATOM     29  O   UNL A   1      42.024  20.225  25.708  1.00  0.00    -0.246 OA
BRANCH  28  30
ATOM     30  C   UNL A   1      41.158  21.877  27.166  1.00  0.00     0.060 A 
ATOM     31  C   UNL A   1      40.456  22.915  26.548  1.00  0.00     0.016 A 
ATOM     32  C   UNL A   1      41.922  22.109  28.313  1.00  0.00     0.016 A 
ATOM     33  C   UNL A   1      40.622  24.219  26.986  1.00  0.00     0.010 A 
ATOM     34  C   UNL A   1      42.084  23.426  28.759  1.00  0.00     0.010 A 
ATOM     35  C   UNL A   1      41.495  24.489  28.047  1.00  0.00    -0.014 A 
BRANCH  35  36
ATOM     36  C   UNL A   1      41.960  25.888  28.225  1.00  0.00     0.031 A 
ATOM     37  C   UNL A   1      43.275  26.292  27.611  1.00  0.00     0.074 A 
ATOM     38  C   UNL A   1      41.177  26.812  28.808  1.00  0.00     0.049 A 
ATOM     39  N   UNL A   1      43.875  27.456  27.614  1.00  0.00    -0.248 NA
ATOM     40  C   UNL A   1      44.011  25.242  26.886  1.00  0.00     0.031 C 
ATOM     41  C   UNL A   1      39.848  26.566  29.361  1.00  0.00     0.029 A 
ATOM     42  N   UNL A   1      41.388  28.152  29.017  1.00  0.00    -0.354 N 
ATOM     43  C   UNL A   1      45.059  27.272  26.909  1.00  0.00     0.074 A 
ATOM     44  C   UNL A   1      45.110  25.882  26.517  1.00  0.00     0.031 C 
ATOM     45  C   UNL A   1      39.358  27.719  29.846  1.00  0.00     0.029 A 
ATOM     46  C   UNL A   1      40.357  28.773  29.676  1.00  0.00     0.049 A 
ATOM     47  H   UNL A   1      42.201  28.623  28.724  1.00  0.00     0.167 HD
ATOM     48  C   UNL A   1      46.013  28.184  26.607  1.00  0.00     0.037 A 
ATOM     49  C   UNL A   1      40.246  30.044  30.112  1.00  0.00     0.037 A 
ATOM     50  C   UNL A   1      45.952  29.571  26.984  1.00  0.00     0.049 A 
ATOM     51  C   UNL A   1      41.366  31.017  29.849  1.00  0.00     0.074 A 
ATOM     52  C   UNL A   1      46.865  30.577  26.721  1.00  0.00     0.029 A 
ATOM     53  N   UNL A   1      44.920  30.147  27.710  1.00  0.00    -0.354 N 
ATOM     54  N   UNL A   1      42.483  30.837  29.186  1.00  0.00    -0.248 NA
ATOM     55  C   UNL A   1      41.209  32.374  30.393  1.00  0.00     0.031 C 
ATOM     56  C   UNL A   1      46.420  31.745  27.344  1.00  0.00     0.029 A 
ATOM     57  C   UNL A   1      45.190  31.488  27.930  1.00  0.00     0.049 A 
ATOM     58  H   UNL A   1      44.115  29.674  28.022  1.00  0.00     0.167 HD
ATOM     59  C   UNL A   1      43.138  32.063  29.197  1.00  0.00     0.074 A 
ATOM     60  C   UNL A   1      42.294  32.980  29.931  1.00  0.00     0.031 C 
ATOM     61  C   UNL A   1      44.328  32.398  28.641  1.00  0.00     0.037 A 
BRANCH  48  62
ATOM     62  C   UNL A   1      47.230  27.702  25.870  1.00  0.00     0.064 A 
ATOM     63  C   UNL A   1      47.302  27.701  24.469  1.00  0.00     0.173 A 
ATOM     64  C   UNL A   1      48.356  27.266  26.585  1.00  0.00     0.173 A 
ATOM     65  F   UNL A   1      46.249  28.095  23.738  1.00  0.00    -0.203 F 
ATOM     66  C   UNL A   1      48.446  27.255  23.812  1.00  0.00     0.198 A 
ATOM     67  C   UNL A   1      49.510  26.853  25.925  1.00  0.00     0.198 A 
ATOM     68  F   UNL A   1      48.344  27.251  27.926  1.00  0.00    -0.203 F 
ATOM     69  F   UNL A   1      48.474  27.214  22.473  1.00  0.00    -0.200 F 
ATOM     70  C   UNL A   1      49.552  26.840  24.539  1.00  0.00     0.200 A 
ATOM     71  F   UNL A   1      50.583  26.469  26.630  1.00  0.00    -0.200 F 
ATOM     72  F   UNL A   1      50.655  26.419  23.905  1.00  0.00    -0.200 F 
ENDBRANCH  48  62
BRANCH  49  73
ATOM     73  C   UNL A   1      39.034  30.466  30.864  1.00  0.00     0.064 A 
ATOM     74  C   UNL A   1      37.918  31.001  30.206  1.00  0.00     0.173 A 
ATOM     75  C   UNL A   1      38.979  30.370  32.264  1.00  0.00     0.173 A 
ATOM     76  F   UNL A   1      37.931  31.140  28.871  1.00  0.00    -0.203 F 
ATOM     77  C   UNL A   1      36.805  31.442  30.918  1.00  0.00     0.198 A 
ATOM     78  C   UNL A   1      37.852  30.780  32.972  1.00  0.00     0.198 A 
ATOM     79  F   UNL A   1      40.021  29.870  32.944  1.00  0.00    -0.203 F 
ATOM     80  F   UNL A   1      35.774  32.001  30.267  1.00  0.00    -0.200 F 
ATOM     81  C   UNL A   1      36.770  31.325  32.299  1.00  0.00     0.200 A 
ATOM     82  F   UNL A   1      37.819  30.653  34.304  1.00  0.00    -0.200 F 
ATOM     83  F   UNL A   1      35.698  31.749  32.983  1.00  0.00    -0.200 F 
ENDBRANCH  49  73
BRANCH  61  84
ATOM     84  C   UNL A   1      44.768  33.832  28.736  1.00  0.00     0.064 A 
ATOM     85  C   UNL A   1      44.382  34.794  27.792  1.00  0.00     0.173 A 
ATOM     86  C   UNL A   1      45.531  34.260  29.835  1.00  0.00     0.173 A 
ATOM     87  F   UNL A   1      43.664  34.437  26.718  1.00  0.00    -0.203 F 
ATOM     88  C   UNL A   1      44.761  36.128  27.934  1.00  0.00     0.198 A 
ATOM     89  C   UNL A   1      45.878  35.599  29.992  1.00  0.00     0.198 A 
ATOM     90  F   UNL A   1      45.918  33.382  30.773  1.00  0.00    -0.203 F 
ATOM     91  F   UNL A   1      44.417  37.023  26.998  1.00  0.00    -0.200 F 
ATOM     92  C   UNL A   1      45.499  36.531  29.039  1.00  0.00     0.200 A 
ATOM     93  F   UNL A   1      46.574  35.988  31.069  1.00  0.00    -0.200 F 
ATOM     94  F   UNL A   1      45.847  37.817  29.182  1.00  0.00    -0.200 F 
ENDBRANCH  61  84
ENDBRANCH  35  36
ENDBRANCH  28  30
ENDBRANCH  27  28
ENDBRANCH  26  27
ENDBRANCH   1  26
TORSDOF 15
ENDMDL
