MODEL 1
REMARK VINA RESULT:     -11.7      0.000      0.000
REMARK SMILES Cc1cccc(CS(=O)(=O)c2ccc(C(=O)OCCOCCOC(=O)c3ccc(-c4c5nc(c(-c6c(F)c(F)c(F)c(F)c6F)c6ccc([nH]6)c(-c6c(F)c(F)c(F)c(F)c6F)c6nc(c(-c7c(F)c(F)c(F)c(F)c7F)c7ccc4[nH]7)C=C6)C=C5)cc3)cc2F)n1
REMARK SMILES IDX 19 1 18 2 17 3 15 4 16 5 14 6 11 7 12 8 90 9 13 10 89 11
REMARK SMILES IDX 91 12 8 13 9 14 10 15 7 16 6 17 1 18 2 19 3 20 92 21 4 22
REMARK SMILES IDX 5 23 20 24 21 25 22 26 23 27 24 28 25 29 26 30 27 31 88 32
REMARK SMILES IDX 28 33 87 34 29 35 30 36 31 37 81 38 32 39 86 40 80 41 82 42
REMARK SMILES IDX 33 43 85 44 79 45 78 46 34 48 66 49 46 50 65 51 47 52 50 53
REMARK SMILES IDX 64 54 83 55 48 56 49 57 63 59 84 60 51 61 35 62 36 63 44 64
REMARK SMILES IDX 37 65 38 66 42 67 45 68 39 69 40 70 43 71 41 72 67 73 68 74
REMARK SMILES IDX 76 75 69 76 70 77 74 78 77 79 71 80 72 81 75 82 73 83 52 84
REMARK SMILES IDX 53 85 61 86 54 87 55 88 59 89 62 90 56 91 57 92 60 93 58 94
REMARK H PARENT 82 47 50 58
REMARK Flexibility Score: inf
ROOT
ATOM      1  C   UNL A   1      34.947  33.115  28.048  1.00  0.00     0.202 C 
ENDROOT
BRANCH   1   2
ATOM      2  C   UNL A   1      34.103  31.877  28.365  1.00  0.00     0.261 C 
BRANCH   2   3
ATOM      3  O   UNL A   1      34.014  31.008  27.222  1.00  0.00    -0.460 OA
BRANCH   3   4
ATOM      4  C   UNL A   1      34.481  29.758  27.433  1.00  0.00     0.338 C 
ATOM      5  O   UNL A   1      35.441  29.443  28.126  1.00  0.00    -0.246 OA
BRANCH   4   6
ATOM      6  C   UNL A   1      33.588  28.744  26.829  1.00  0.00     0.063 A 
ATOM      7  C   UNL A   1      31.784  26.790  25.911  1.00  0.00     0.103 A 
ATOM      8  C   UNL A   1      31.373  27.761  26.825  1.00  0.00     0.024 A 
ATOM      9  C   UNL A   1      33.103  26.818  25.452  1.00  0.00     0.142 A 
ATOM     10  C   UNL A   1      32.260  28.745  27.262  1.00  0.00     0.017 A 
ATOM     11  C   UNL A   1      34.008  27.790  25.902  1.00  0.00     0.056 A 
ATOM     12  F   UNL A   1      33.578  25.890  24.612  1.00  0.00    -0.206 F 
BRANCH   7  13
ATOM     13  S   UNL A   1      30.724  25.416  25.512  1.00  0.00     0.186 S 
ATOM     14  O   UNL A   1      29.659  25.442  26.498  1.00  0.00    -0.223 OA
ATOM     15  O   UNL A   1      31.580  24.240  25.434  1.00  0.00    -0.223 OA
BRANCH  13  16
ATOM     16  C   UNL A   1      30.060  25.572  23.874  1.00  0.00     0.198 C 
BRANCH  16  17
ATOM     17  C   UNL A   1      30.040  26.972  23.343  1.00  0.00     0.056 A 
ATOM     18  C   UNL A   1      27.555  29.682  23.097  1.00  0.00     0.067 C 
ATOM     19  C   UNL A   1      28.848  28.942  22.937  1.00  0.00     0.038 A 
ATOM     20  C   UNL A   1      29.969  29.561  22.402  1.00  0.00     0.023 A 
ATOM     21  N   UNL A   1      28.875  27.660  23.384  1.00  0.00    -0.257 NA
ATOM     22  C   UNL A   1      31.152  28.837  22.317  1.00  0.00     0.004 A 
ATOM     23  C   UNL A   1      31.191  27.528  22.788  1.00  0.00     0.025 A 
ENDBRANCH  16  17
ENDBRANCH  13  16
ENDBRANCH   7  13
ENDBRANCH   4   6
ENDBRANCH   3   4
ENDBRANCH   2   3
ENDBRANCH   1   2
BRANCH   1  24
ATOM     24  O   UNL A   1      35.213  33.983  29.151  1.00  0.00    -0.374 OA
BRANCH  24  25
ATOM     25  C   UNL A   1      34.240  34.021  30.196  1.00  0.00     0.202 C 
BRANCH  25  26
ATOM     26  C   UNL A   1      34.761  33.729  31.608  1.00  0.00     0.261 C 
BRANCH  26  27
ATOM     27  O   UNL A   1      35.006  32.324  31.805  1.00  0.00    -0.460 OA
BRANCH  27  28
ATOM     28  C   UNL A   1      36.061  32.043  32.600  1.00  0.00     0.338 C 
ATOM     29  O   UNL A   1      36.139  32.203  33.812  1.00  0.00    -0.246 OA
BRANCH  28  30
ATOM     30  C   UNL A   1      37.106  31.331  31.842  1.00  0.00     0.060 A 
ATOM     31  C   UNL A   1      38.099  30.680  32.584  1.00  0.00     0.016 A 
ATOM     32  C   UNL A   1      37.167  31.354  30.445  1.00  0.00     0.016 A 
ATOM     33  C   UNL A   1      39.191  30.109  31.939  1.00  0.00     0.010 A 
ATOM     34  C   UNL A   1      38.270  30.780  29.797  1.00  0.00     0.010 A 
ATOM     35  C   UNL A   1      39.306  30.193  30.544  1.00  0.00    -0.014 A 
BRANCH  35  36
ATOM     36  C   UNL A   1      40.583  29.780  29.914  1.00  0.00     0.031 A 
ATOM     37  C   UNL A   1      40.706  28.396  29.337  1.00  0.00     0.074 A 
ATOM     38  C   UNL A   1      41.588  30.661  29.771  1.00  0.00     0.049 A 
ATOM     39  N   UNL A   1      41.688  27.868  28.651  1.00  0.00    -0.248 NA
ATOM     40  C   UNL A   1      39.570  27.488  29.556  1.00  0.00     0.031 C 
ATOM     41  C   UNL A   1      41.577  32.036  30.262  1.00  0.00     0.029 A 
ATOM     42  N   UNL A   1      42.806  30.532  29.151  1.00  0.00    -0.354 N 
ATOM     43  C   UNL A   1      41.284  26.575  28.347  1.00  0.00     0.074 A 
ATOM     44  C   UNL A   1      39.986  26.382  28.956  1.00  0.00     0.031 C 
ATOM     45  C   UNL A   1      42.729  32.634  29.911  1.00  0.00     0.029 A 
ATOM     46  C   UNL A   1      43.563  31.678  29.184  1.00  0.00     0.049 A 
ATOM     47  H   UNL A   1      43.108  29.699  28.722  1.00  0.00     0.167 HD
ATOM     48  C   UNL A   1      41.929  25.640  27.610  1.00  0.00     0.037 A 
ATOM     49  C   UNL A   1      44.787  31.927  28.680  1.00  0.00     0.037 A 
ATOM     50  C   UNL A   1      43.219  25.830  27.000  1.00  0.00     0.049 A 
ATOM     51  C   UNL A   1      45.504  30.853  27.906  1.00  0.00     0.074 A 
ATOM     52  C   UNL A   1      43.944  24.945  26.223  1.00  0.00     0.029 A 
ATOM     53  N   UNL A   1      43.978  26.987  27.104  1.00  0.00    -0.354 N 
ATOM     54  N   UNL A   1      45.101  29.644  27.601  1.00  0.00    -0.248 NA
ATOM     55  C   UNL A   1      46.845  31.184  27.399  1.00  0.00     0.031 C 
ATOM     56  C   UNL A   1      45.162  25.548  25.893  1.00  0.00     0.029 A 
ATOM     57  C   UNL A   1      45.175  26.828  26.424  1.00  0.00     0.049 A 
ATOM     58  H   UNL A   1      43.707  27.799  27.589  1.00  0.00     0.167 HD
ATOM     59  C   UNL A   1      46.126  29.075  26.856  1.00  0.00     0.074 A 
ATOM     60  C   UNL A   1      47.163  30.080  26.736  1.00  0.00     0.031 C 
ATOM     61  C   UNL A   1      46.202  27.832  26.320  1.00  0.00     0.037 A 
BRANCH  48  62
ATOM     62  C   UNL A   1      41.252  24.315  27.419  1.00  0.00     0.064 A 
ATOM     63  C   UNL A   1      41.774  23.158  28.016  1.00  0.00     0.173 A 
ATOM     64  C   UNL A   1      40.127  24.180  26.592  1.00  0.00     0.173 A 
ATOM     65  F   UNL A   1      42.850  23.234  28.812  1.00  0.00    -0.203 F 
ATOM     66  C   UNL A   1      41.200  21.911  27.782  1.00  0.00     0.198 A 
ATOM     67  C   UNL A   1      39.541  22.934  26.380  1.00  0.00     0.198 A 
ATOM     68  F   UNL A   1      39.584  25.260  26.010  1.00  0.00    -0.203 F 
ATOM     69  F   UNL A   1      41.731  20.815  28.340  1.00  0.00    -0.200 F 
ATOM     70  C   UNL A   1      40.083  21.801  26.967  1.00  0.00     0.200 A 
ATOM     71  F   UNL A   1      38.449  22.832  25.609  1.00  0.00    -0.200 F 
ATOM     72  F   UNL A   1      39.528  20.601  26.748  1.00  0.00    -0.200 F 
ENDBRANCH  48  62
BRANCH  49  73
ATOM     73  C   UNL A   1      45.401  33.265  28.876  1.00  0.00     0.064 A 
ATOM     74  C   UNL A   1      46.225  33.530  29.978  1.00  0.00     0.173 A 
ATOM     75  C   UNL A   1      45.164  34.308  27.970  1.00  0.00     0.173 A 
ATOM     76  F   UNL A   1      46.483  32.563  30.872  1.00  0.00    -0.203 F 
ATOM     77  C   UNL A   1      46.774  34.794  30.179  1.00  0.00     0.198 A 
ATOM     78  C   UNL A   1      45.734  35.566  28.158  1.00  0.00     0.198 A 
ATOM     79  F   UNL A   1      44.403  34.095  26.887  1.00  0.00    -0.203 F 
ATOM     80  F   UNL A   1      47.534  35.030  31.257  1.00  0.00    -0.200 F 
ATOM     81  C   UNL A   1      46.531  35.810  29.266  1.00  0.00     0.200 A 
ATOM     82  F   UNL A   1      45.517  36.538  27.262  1.00  0.00    -0.200 F 
ATOM     83  F   UNL A   1      47.068  37.023  29.453  1.00  0.00    -0.200 F 
ENDBRANCH  49  73
BRANCH  61  84
ATOM     84  C   UNL A   1      47.443  27.484  25.551  1.00  0.00     0.064 A 
ATOM     85  C   UNL A   1      47.505  27.688  24.164  1.00  0.00     0.173 A 
ATOM     86  C   UNL A   1      48.551  26.896  26.179  1.00  0.00     0.173 A 
ATOM     87  F   UNL A   1      46.468  28.238  23.515  1.00  0.00    -0.203 F 
ATOM     88  C   UNL A   1      48.629  27.312  23.434  1.00  0.00     0.198 A 
ATOM     89  C   UNL A   1      49.684  26.546  25.449  1.00  0.00     0.198 A 
ATOM     90  F   UNL A   1      48.545  26.690  27.504  1.00  0.00    -0.203 F 
ATOM     91  F   UNL A   1      48.655  27.494  22.106  1.00  0.00    -0.200 F 
ATOM     92  C   UNL A   1      49.720  26.748  24.078  1.00  0.00     0.200 A 
ATOM     93  F   UNL A   1      50.748  26.024  26.077  1.00  0.00    -0.200 F 
ATOM     94  F   UNL A   1      50.808  26.403  23.376  1.00  0.00    -0.200 F 
ENDBRANCH  61  84
ENDBRANCH  35  36
ENDBRANCH  28  30
ENDBRANCH  27  28
ENDBRANCH  26  27
ENDBRANCH  25  26
ENDBRANCH  24  25
ENDBRANCH   1  24
TORSDOF 17
ENDMDL
MODEL 2
REMARK VINA RESULT:     -11.6      3.135      8.380
REMARK SMILES Cc1cccc(CS(=O)(=O)c2ccc(C(=O)OCCOCCOC(=O)c3ccc(-c4c5nc(c(-c6c(F)c(F)c(F)c(F)c6F)c6ccc([nH]6)c(-c6c(F)c(F)c(F)c(F)c6F)c6nc(c(-c7c(F)c(F)c(F)c(F)c7F)c7ccc4[nH]7)C=C6)C=C5)cc3)cc2F)n1
REMARK SMILES IDX 19 1 18 2 17 3 15 4 16 5 14 6 11 7 12 8 90 9 13 10 89 11
REMARK SMILES IDX 91 12 8 13 9 14 10 15 7 16 6 17 1 18 2 19 3 20 92 21 4 22
REMARK SMILES IDX 5 23 20 24 21 25 22 26 23 27 24 28 25 29 26 30 27 31 88 32
REMARK SMILES IDX 28 33 87 34 29 35 30 36 31 37 81 38 32 39 86 40 80 41 82 42
REMARK SMILES IDX 33 43 85 44 79 45 78 46 34 48 66 49 46 50 65 51 47 52 50 53
REMARK SMILES IDX 64 54 83 55 48 56 49 57 63 59 84 60 51 61 35 62 36 63 44 64
REMARK SMILES IDX 37 65 38 66 42 67 45 68 39 69 40 70 43 71 41 72 67 73 68 74
REMARK SMILES IDX 76 75 69 76 70 77 74 78 77 79 71 80 72 81 75 82 73 83 52 84
REMARK SMILES IDX 53 85 61 86 54 87 55 88 59 89 62 90 56 91 57 92 60 93 58 94
REMARK H PARENT 82 47 50 58
REMARK Flexibility Score: inf
ROOT
ATOM      1  C   UNL A   1      33.723  19.958  24.860  1.00  0.00     0.202 C 
ENDROOT
BRANCH   1   2
ATOM      2  C   UNL A   1      33.362  20.416  26.276  1.00  0.00     0.261 C 
BRANCH   2   3
ATOM      3  O   UNL A   1      32.570  21.616  26.244  1.00  0.00    -0.460 OA
BRANCH   3   4
ATOM      4  C   UNL A   1      33.072  22.638  26.971  1.00  0.00     0.338 C 
ATOM      5  O   UNL A   1      33.845  22.551  27.917  1.00  0.00    -0.246 OA
BRANCH   4   6
ATOM      6  C   UNL A   1      32.688  23.945  26.392  1.00  0.00     0.063 A 
ATOM      7  C   UNL A   1      32.195  26.509  25.346  1.00  0.00     0.103 A 
ATOM      8  C   UNL A   1      33.422  25.880  25.132  1.00  0.00     0.024 A 
ATOM      9  C   UNL A   1      31.214  25.834  26.077  1.00  0.00     0.142 A 
ATOM     10  C   UNL A   1      33.659  24.599  25.630  1.00  0.00     0.017 A 
ATOM     11  C   UNL A   1      31.451  24.554  26.599  1.00  0.00     0.056 A 
ATOM     12  F   UNL A   1      30.033  26.396  26.360  1.00  0.00    -0.206 F 
BRANCH   7  13
ATOM     13  S   UNL A   1      31.963  28.217  24.897  1.00  0.00     0.186 S 
ATOM     14  O   UNL A   1      30.756  28.251  24.092  1.00  0.00    -0.223 OA
ATOM     15  O   UNL A   1      33.215  28.665  24.304  1.00  0.00    -0.223 OA
BRANCH  13  16
ATOM     16  C   UNL A   1      31.781  29.239  26.336  1.00  0.00     0.198 C 
BRANCH  16  17
ATOM     17  C   UNL A   1      33.071  29.739  26.909  1.00  0.00     0.056 A 
ATOM     18  C   UNL A   1      34.377  32.981  28.077  1.00  0.00     0.067 C 
ATOM     19  C   UNL A   1      34.341  31.525  27.722  1.00  0.00     0.038 A 
ATOM     20  C   UNL A   1      35.418  30.693  27.992  1.00  0.00     0.023 A 
ATOM     21  N   UNL A   1      33.190  31.062  27.170  1.00  0.00    -0.257 NA
ATOM     22  C   UNL A   1      35.311  29.343  27.678  1.00  0.00     0.004 A 
ATOM     23  C   UNL A   1      34.128  28.858  27.128  1.00  0.00     0.025 A 
ENDBRANCH  16  17
ENDBRANCH  13  16
ENDBRANCH   7  13
ENDBRANCH   4   6
ENDBRANCH   3   4
ENDBRANCH   2   3
ENDBRANCH   1   2
BRANCH   1  24
ATOM     24  O   UNL A   1      35.113  19.741  24.613  1.00  0.00    -0.374 OA
BRANCH  24  25
ATOM     25  C   UNL A   1      35.985  20.858  24.796  1.00  0.00     0.202 C 
BRANCH  25  26
ATOM     26  C   UNL A   1      37.467  20.525  25.008  1.00  0.00     0.261 C 
BRANCH  26  27
ATOM     27  O   UNL A   1      38.219  21.683  25.417  1.00  0.00    -0.460 OA
BRANCH  27  28
ATOM     28  C   UNL A   1      39.322  21.407  26.147  1.00  0.00     0.338 C 
ATOM     29  O   UNL A   1      39.955  20.359  26.166  1.00  0.00    -0.246 OA
BRANCH  28  30
ATOM     30  C   UNL A   1      39.807  22.620  26.830  1.00  0.00     0.060 A 
ATOM     31  C   UNL A   1      39.279  23.845  26.404  1.00  0.00     0.016 A 
ATOM     32  C   UNL A   1      40.804  22.582  27.810  1.00  0.00     0.016 A 
ATOM     33  C   UNL A   1      39.790  25.038  26.904  1.00  0.00     0.010 A 
ATOM     34  C   UNL A   1      41.321  23.786  28.309  1.00  0.00     0.010 A 
ATOM     35  C   UNL A   1      40.845  25.018  27.827  1.00  0.00    -0.014 A 
BRANCH  35  36
ATOM     36  C   UNL A   1      41.516  26.297  28.162  1.00  0.00     0.031 A 
ATOM     37  C   UNL A   1      42.888  26.575  27.612  1.00  0.00     0.074 A 
ATOM     38  C   UNL A   1      40.869  27.241  28.868  1.00  0.00     0.049 A 
ATOM     39  N   UNL A   1      43.608  27.665  27.692  1.00  0.00    -0.248 NA
ATOM     40  C   UNL A   1      43.533  25.481  26.870  1.00  0.00     0.031 C 
ATOM     41  C   UNL A   1      39.529  27.100  29.430  1.00  0.00     0.029 A 
ATOM     42  N   UNL A   1      41.250  28.513  29.215  1.00  0.00    -0.354 N 
ATOM     43  C   UNL A   1      44.781  27.395  27.000  1.00  0.00     0.074 A 
ATOM     44  C   UNL A   1      44.697  26.025  26.543  1.00  0.00     0.031 C 
ATOM     45  C   UNL A   1      39.189  28.249  30.039  1.00  0.00     0.029 A 
ATOM     46  C   UNL A   1      40.294  29.199  29.923  1.00  0.00     0.049 A 
ATOM     47  H   UNL A   1      42.125  28.898  28.978  1.00  0.00     0.167 HD
ATOM     48  C   UNL A   1      45.825  28.220  26.753  1.00  0.00     0.037 A 
ATOM     49  C   UNL A   1      40.309  30.452  30.417  1.00  0.00     0.037 A 
ATOM     50  C   UNL A   1      45.910  29.584  27.205  1.00  0.00     0.049 A 
ATOM     51  C   UNL A   1      41.503  31.334  30.171  1.00  0.00     0.074 A 
ATOM     52  C   UNL A   1      46.923  30.502  26.990  1.00  0.00     0.029 A 
ATOM     53  N   UNL A   1      44.945  30.225  27.968  1.00  0.00    -0.354 N 
ATOM     54  N   UNL A   1      42.595  31.077  29.492  1.00  0.00    -0.248 NA
ATOM     55  C   UNL A   1      41.463  32.684  30.752  1.00  0.00     0.031 C 
ATOM     56  C   UNL A   1      46.593  31.684  27.661  1.00  0.00     0.029 A 
ATOM     57  C   UNL A   1      45.350  31.519  28.253  1.00  0.00     0.049 A 
ATOM     58  H   UNL A   1      44.098  29.820  28.264  1.00  0.00     0.167 HD
ATOM     59  C   UNL A   1      43.363  32.233  29.550  1.00  0.00     0.074 A 
ATOM     60  C   UNL A   1      42.603  33.201  30.314  1.00  0.00     0.031 C 
ATOM     61  C   UNL A   1      44.589  32.470  29.021  1.00  0.00     0.037 A 
BRANCH  48  62
ATOM     62  C   UNL A   1      46.973  27.674  25.957  1.00  0.00     0.064 A 
ATOM     63  C   UNL A   1      48.063  27.073  26.601  1.00  0.00     0.173 A 
ATOM     64  C   UNL A   1      47.022  27.803  24.561  1.00  0.00     0.173 A 
ATOM     65  F   UNL A   1      48.066  26.928  27.935  1.00  0.00    -0.203 F 
ATOM     66  C   UNL A   1      49.169  26.633  25.878  1.00  0.00     0.198 A 
ATOM     67  C   UNL A   1      48.119  27.340  23.838  1.00  0.00     0.198 A 
ATOM     68  F   UNL A   1      45.997  28.359  23.898  1.00  0.00    -0.203 F 
ATOM     69  F   UNL A   1      50.212  26.087  26.517  1.00  0.00    -0.200 F 
ATOM     70  C   UNL A   1      49.194  26.764  24.498  1.00  0.00     0.200 A 
ATOM     71  F   UNL A   1      48.133  27.449  22.502  1.00  0.00    -0.200 F 
ATOM     72  F   UNL A   1      50.256  26.334  23.802  1.00  0.00    -0.200 F 
ENDBRANCH  48  62
BRANCH  49  73
ATOM     73  C   UNL A   1      39.135  30.953  31.177  1.00  0.00     0.064 A 
ATOM     74  C   UNL A   1      39.013  30.726  32.555  1.00  0.00     0.173 A 
ATOM     75  C   UNL A   1      38.107  31.657  30.537  1.00  0.00     0.173 A 
ATOM     76  F   UNL A   1      39.973  30.058  33.213  1.00  0.00    -0.203 F 
ATOM     77  C   UNL A   1      37.897  31.167  33.261  1.00  0.00     0.198 A 
ATOM     78  C   UNL A   1      37.002  32.121  31.249  1.00  0.00     0.198 A 
ATOM     79  F   UNL A   1      38.191  31.921  29.225  1.00  0.00    -0.203 F 
ATOM     80  F   UNL A   1      37.791  30.911  34.572  1.00  0.00    -0.200 F 
ATOM     81  C   UNL A   1      36.894  31.868  32.608  1.00  0.00     0.200 A 
ATOM     82  F   UNL A   1      36.047  32.819  30.620  1.00  0.00    -0.200 F 
ATOM     83  F   UNL A   1      35.826  32.303  33.290  1.00  0.00    -0.200 F 
ENDBRANCH  49  73
BRANCH  61  84
ATOM     84  C   UNL A   1      45.188  33.828  29.241  1.00  0.00     0.064 A 
ATOM     85  C   UNL A   1      45.928  34.102  30.402  1.00  0.00     0.173 A 
ATOM     86  C   UNL A   1      44.983  34.874  28.331  1.00  0.00     0.173 A 
ATOM     87  F   UNL A   1      46.145  33.138  31.309  1.00  0.00    -0.203 F 
ATOM     88  C   UNL A   1      46.436  35.375  30.643  1.00  0.00     0.198 A 
ATOM     89  C   UNL A   1      45.516  36.140  28.563  1.00  0.00     0.198 A 
ATOM     90  F   UNL A   1      44.291  34.661  27.201  1.00  0.00    -0.203 F 
ATOM     91  F   UNL A   1      47.119  35.620  31.771  1.00  0.00    -0.200 F 
ATOM     92  C   UNL A   1      46.235  36.391  29.721  1.00  0.00     0.200 A 
ATOM     93  F   UNL A   1      45.342  37.114  27.658  1.00  0.00    -0.200 F 
ATOM     94  F   UNL A   1      46.740  37.612  29.947  1.00  0.00    -0.200 F 
ENDBRANCH  61  84
ENDBRANCH  35  36
ENDBRANCH  28  30
ENDBRANCH  27  28
ENDBRANCH  26  27
ENDBRANCH  25  26
ENDBRANCH  24  25
ENDBRANCH   1  24
TORSDOF 17
ENDMDL
MODEL 3
REMARK VINA RESULT:     -11.4      5.312      7.996
REMARK SMILES Cc1cccc(CS(=O)(=O)c2ccc(C(=O)OCCOCCOC(=O)c3ccc(-c4c5nc(c(-c6c(F)c(F)c(F)c(F)c6F)c6ccc([nH]6)c(-c6c(F)c(F)c(F)c(F)c6F)c6nc(c(-c7c(F)c(F)c(F)c(F)c7F)c7ccc4[nH]7)C=C6)C=C5)cc3)cc2F)n1
REMARK SMILES IDX 19 1 18 2 17 3 15 4 16 5 14 6 11 7 12 8 90 9 13 10 89 11
REMARK SMILES IDX 91 12 8 13 9 14 10 15 7 16 6 17 1 18 2 19 3 20 92 21 4 22
REMARK SMILES IDX 5 23 20 24 21 25 22 26 23 27 24 28 25 29 26 30 27 31 88 32
REMARK SMILES IDX 28 33 87 34 29 35 30 36 31 37 81 38 32 39 86 40 80 41 82 42
REMARK SMILES IDX 33 43 85 44 79 45 78 46 34 48 66 49 46 50 65 51 47 52 50 53
REMARK SMILES IDX 64 54 83 55 48 56 49 57 63 59 84 60 51 61 35 62 36 63 44 64
REMARK SMILES IDX 37 65 38 66 42 67 45 68 39 69 40 70 43 71 41 72 67 73 68 74
REMARK SMILES IDX 76 75 69 76 70 77 74 78 77 79 71 80 72 81 75 82 73 83 52 84
REMARK SMILES IDX 53 85 61 86 54 87 55 88 59 89 62 90 56 91 57 92 60 93 58 94
REMARK H PARENT 82 47 50 58
REMARK Flexibility Score: inf
ROOT
ATOM      1  C   UNL A   1      35.411  33.026  28.194  1.00  0.00     0.202 C 
ENDROOT
BRANCH   1   2
ATOM      2  C   UNL A   1      34.496  31.949  28.785  1.00  0.00     0.261 C 
BRANCH   2   3
ATOM      3  O   UNL A   1      33.976  31.092  27.753  1.00  0.00    -0.460 OA
BRANCH   3   4
ATOM      4  C   UNL A   1      34.590  29.892  27.660  1.00  0.00     0.338 C 
ATOM      5  O   UNL A   1      35.687  29.594  28.118  1.00  0.00    -0.246 OA
BRANCH   4   6
ATOM      6  C   UNL A   1      33.700  28.883  27.043  1.00  0.00     0.063 A 
ATOM      7  C   UNL A   1      31.930  26.907  26.107  1.00  0.00     0.103 A 
ATOM      8  C   UNL A   1      31.560  27.753  27.153  1.00  0.00     0.024 A 
ATOM      9  C   UNL A   1      33.190  27.072  25.526  1.00  0.00     0.142 A 
ATOM     10  C   UNL A   1      32.427  28.748  27.602  1.00  0.00     0.017 A 
ATOM     11  C   UNL A   1      34.077  28.056  25.985  1.00  0.00     0.056 A 
ATOM     12  F   UNL A   1      33.629  26.266  24.552  1.00  0.00    -0.206 F 
BRANCH   7  13
ATOM     13  S   UNL A   1      30.917  25.508  25.672  1.00  0.00     0.186 S 
ATOM     14  O   UNL A   1      29.743  25.594  26.520  1.00  0.00    -0.223 OA
ATOM     15  O   UNL A   1      31.770  24.332  25.771  1.00  0.00    -0.223 OA
BRANCH  13  16
ATOM     16  C   UNL A   1      30.455  25.559  23.960  1.00  0.00     0.198 C 
BRANCH  16  17
ATOM     17  C   UNL A   1      29.565  26.706  23.590  1.00  0.00     0.056 A 
ATOM     18  C   UNL A   1      29.964  29.908  21.811  1.00  0.00     0.067 C 
ATOM     19  C   UNL A   1      29.316  28.803  22.589  1.00  0.00     0.038 A 
ATOM     20  C   UNL A   1      27.957  28.823  22.869  1.00  0.00     0.023 A 
ATOM     21  N   UNL A   1      30.115  27.771  22.961  1.00  0.00    -0.257 NA
ATOM     22  C   UNL A   1      27.404  27.750  23.558  1.00  0.00     0.004 A 
ATOM     23  C   UNL A   1      28.213  26.680  23.927  1.00  0.00     0.025 A 
ENDBRANCH  16  17
ENDBRANCH  13  16
ENDBRANCH   7  13
ENDBRANCH   4   6
ENDBRANCH   3   4
ENDBRANCH   2   3
ENDBRANCH   1   2
BRANCH   1  24
ATOM     24  O   UNL A   1      34.751  34.171  27.653  1.00  0.00    -0.374 OA
BRANCH  24  25
ATOM     25  C   UNL A   1      33.418  34.424  28.101  1.00  0.00     0.202 C 
BRANCH  25  26
ATOM     26  C   UNL A   1      33.271  35.478  29.206  1.00  0.00     0.261 C 
BRANCH  26  27
ATOM     27  O   UNL A   1      32.723  34.911  30.411  1.00  0.00    -0.460 OA
BRANCH  27  28
ATOM     28  C   UNL A   1      32.980  35.621  31.532  1.00  0.00     0.338 C 
ATOM     29  O   UNL A   1      32.366  36.596  31.949  1.00  0.00    -0.246 OA
BRANCH  28  30
ATOM     30  C   UNL A   1      34.028  34.962  32.333  1.00  0.00     0.060 A 
ATOM     31  C   UNL A   1      35.288  35.572  32.355  1.00  0.00     0.016 A 
ATOM     32  C   UNL A   1      33.819  33.745  32.987  1.00  0.00     0.016 A 
ATOM     33  C   UNL A   1      36.360  34.937  32.973  1.00  0.00     0.010 A 
ATOM     34  C   UNL A   1      34.902  33.104  33.605  1.00  0.00     0.010 A 
ATOM     35  C   UNL A   1      36.185  33.678  33.564  1.00  0.00    -0.014 A 
BRANCH  35  36
ATOM     36  C   UNL A   1      37.387  32.930  34.006  1.00  0.00     0.031 A 
ATOM     37  C   UNL A   1      37.998  31.908  33.087  1.00  0.00     0.074 A 
ATOM     38  C   UNL A   1      37.983  33.229  35.174  1.00  0.00     0.049 A 
ATOM     39  N   UNL A   1      39.104  31.222  33.229  1.00  0.00    -0.248 NA
ATOM     40  C   UNL A   1      37.271  31.626  31.841  1.00  0.00     0.031 C 
ATOM     41  C   UNL A   1      37.503  34.217  36.135  1.00  0.00     0.029 A 
ATOM     42  N   UNL A   1      39.136  32.741  35.737  1.00  0.00    -0.354 N 
ATOM     43  C   UNL A   1      39.211  30.439  32.088  1.00  0.00     0.074 A 
ATOM     44  C   UNL A   1      38.039  30.702  31.281  1.00  0.00     0.031 C 
ATOM     45  C   UNL A   1      38.363  34.277  37.166  1.00  0.00     0.029 A 
ATOM     46  C   UNL A   1      39.446  33.320  36.943  1.00  0.00     0.049 A 
ATOM     47  H   UNL A   1      39.689  32.043  35.316  1.00  0.00     0.167 HD
ATOM     48  C   UNL A   1      40.206  29.591  31.736  1.00  0.00     0.037 A 
ATOM     49  C   UNL A   1      40.488  33.105  37.770  1.00  0.00     0.037 A 
ATOM     50  C   UNL A   1      41.374  29.329  32.534  1.00  0.00     0.049 A 
ATOM     51  C   UNL A   1      41.556  32.120  37.377  1.00  0.00     0.074 A 
ATOM     52  C   UNL A   1      42.443  28.497  32.252  1.00  0.00     0.029 A 
ATOM     53  N   UNL A   1      41.624  29.894  33.777  1.00  0.00    -0.354 N 
ATOM     54  N   UNL A   1      41.661  31.406  36.284  1.00  0.00    -0.248 NA
ATOM     55  C   UNL A   1      42.656  31.919  38.333  1.00  0.00     0.031 C 
ATOM     56  C   UNL A   1      43.318  28.523  33.343  1.00  0.00     0.029 A 
ATOM     57  C   UNL A   1      42.819  29.410  34.284  1.00  0.00     0.049 A 
ATOM     58  H   UNL A   1      41.039  30.542  34.231  1.00  0.00     0.167 HD
ATOM     59  C   UNL A   1      42.842  30.684  36.409  1.00  0.00     0.074 A 
ATOM     60  C   UNL A   1      43.429  31.063  37.678  1.00  0.00     0.031 C 
ATOM     61  C   UNL A   1      43.388  29.788  35.552  1.00  0.00     0.037 A 
BRANCH  48  62
ATOM     62  C   UNL A   1      40.080  28.874  30.423  1.00  0.00     0.064 A 
ATOM     63  C   UNL A   1      39.489  27.605  30.361  1.00  0.00     0.173 A 
ATOM     64  C   UNL A   1      40.603  29.417  29.240  1.00  0.00     0.173 A 
ATOM     65  F   UNL A   1      38.977  27.041  31.466  1.00  0.00    -0.203 F 
ATOM     66  C   UNL A   1      39.437  26.897  29.163  1.00  0.00     0.198 A 
ATOM     67  C   UNL A   1      40.527  28.716  28.039  1.00  0.00     0.198 A 
ATOM     68  F   UNL A   1      41.165  30.635  29.247  1.00  0.00    -0.203 F 
ATOM     69  F   UNL A   1      38.893  25.673  29.133  1.00  0.00    -0.200 F 
ATOM     70  C   UNL A   1      39.953  27.454  28.003  1.00  0.00     0.200 A 
ATOM     71  F   UNL A   1      41.007  29.265  26.914  1.00  0.00    -0.200 F 
ATOM     72  F   UNL A   1      39.897  26.776  26.849  1.00  0.00    -0.200 F 
ENDBRANCH  48  62
BRANCH  49  73
ATOM     73  C   UNL A   1      40.578  33.861  39.045  1.00  0.00     0.064 A 
ATOM     74  C   UNL A   1      41.323  35.045  39.134  1.00  0.00     0.173 A 
ATOM     75  C   UNL A   1      39.932  33.406  40.202  1.00  0.00     0.173 A 
ATOM     76  F   UNL A   1      41.958  35.522  38.053  1.00  0.00    -0.203 F 
ATOM     77  C   UNL A   1      41.433  35.736  40.338  1.00  0.00     0.198 A 
ATOM     78  C   UNL A   1      40.023  34.111  41.400  1.00  0.00     0.198 A 
ATOM     79  F   UNL A   1      39.187  32.291  40.159  1.00  0.00    -0.203 F 
ATOM     80  F   UNL A   1      42.176  36.850  40.404  1.00  0.00    -0.200 F 
ATOM     81  C   UNL A   1      40.780  35.271  41.470  1.00  0.00     0.200 A 
ATOM     82  F   UNL A   1      39.370  33.672  42.485  1.00  0.00    -0.200 F 
ATOM     83  F   UNL A   1      40.878  35.942  42.625  1.00  0.00    -0.200 F 
ENDBRANCH  49  73
BRANCH  61  84
ATOM     84  C   UNL A   1      44.689  29.153  35.949  1.00  0.00     0.064 A 
ATOM     85  C   UNL A   1      44.705  27.960  36.688  1.00  0.00     0.173 A 
ATOM     86  C   UNL A   1      45.919  29.754  35.646  1.00  0.00     0.173 A 
ATOM     87  F   UNL A   1      43.555  27.350  37.013  1.00  0.00    -0.203 F 
ATOM     88  C   UNL A   1      45.905  27.397  37.113  1.00  0.00     0.198 A 
ATOM     89  C   UNL A   1      47.119  29.173  36.049  1.00  0.00     0.198 A 
ATOM     90  F   UNL A   1      45.957  30.890  34.932  1.00  0.00    -0.203 F 
ATOM     91  F   UNL A   1      45.895  26.271  37.840  1.00  0.00    -0.200 F 
ATOM     92  C   UNL A   1      47.111  28.000  36.788  1.00  0.00     0.200 A 
ATOM     93  F   UNL A   1      48.284  29.744  35.712  1.00  0.00    -0.200 F 
ATOM     94  F   UNL A   1      48.266  27.447  37.182  1.00  0.00    -0.200 F 
ENDBRANCH  61  84
ENDBRANCH  35  36
ENDBRANCH  28  30
ENDBRANCH  27  28
ENDBRANCH  26  27
ENDBRANCH  25  26
ENDBRANCH  24  25
ENDBRANCH   1  24
TORSDOF 17
ENDMDL
