MODEL 1
REMARK VINA RESULT:     -11.5      0.000      0.000
REMARK SMILES Cc1ccc(N)c(SCCOc2ccccc2C(=O)OCCOCCOC(=O)c2ccc(-c3c4nc(c(-c5c(F)c(F)c(F)c(F)c5F)c5ccc([nH]5)c(-c5c(F)c(F)c(F)c(F)c5F)c5nc(c(-c6c(F)c(F)c(F)c(F)c6F)c6ccc3[nH]6)C=C5)C=C4)cc2)c1
REMARK SMILES IDX 21 1 20 2 18 3 19 4 17 5 12 6 13 7 14 8 16 9 15 10 11 11
REMARK SMILES IDX 10 12 9 13 8 14 7 15 1 16 2 17 3 18 92 19 4 20 5 21 6 22
REMARK SMILES IDX 22 25 23 26 24 27 25 28 26 29 27 30 28 31 29 32 30 33 91 34
REMARK SMILES IDX 31 35 90 36 32 37 33 38 34 39 84 40 35 41 89 42 83 43 85 44
REMARK SMILES IDX 36 45 88 46 82 47 81 48 37 50 69 51 49 52 68 53 50 54 53 55
REMARK SMILES IDX 67 56 86 57 51 58 52 59 66 61 87 62 54 63 38 64 39 65 47 66
REMARK SMILES IDX 40 67 41 68 45 69 48 70 42 71 43 72 46 73 44 74 70 75 71 76
REMARK SMILES IDX 79 77 72 78 73 79 77 80 80 81 74 82 75 83 78 84 76 85 55 86
REMARK SMILES IDX 56 87 64 88 57 89 58 90 62 91 65 92 59 93 60 94 63 95 61 96
REMARK H PARENT 6 23 6 24 85 49 53 60
REMARK Flexibility Score: inf
ROOT
ATOM      1  C   UNL A   1      31.763  27.277  23.398  1.00  0.00     0.261 C 
ENDROOT
BRANCH   1   2
ATOM      2  O   UNL A   1      33.169  26.910  23.572  1.00  0.00    -0.460 OA
BRANCH   2   3
ATOM      3  C   UNL A   1      33.331  25.785  24.326  1.00  0.00     0.342 C 
ATOM      4  O   UNL A   1      33.753  25.878  25.450  1.00  0.00    -0.246 OA
BRANCH   3   5
ATOM      5  C   UNL A   1      33.160  24.436  23.651  1.00  0.00     0.102 A 
ATOM      6  C   UNL A   1      32.319  23.555  24.261  1.00  0.00     0.133 A 
ATOM      7  C   UNL A   1      32.192  22.219  23.813  1.00  0.00     0.047 A 
ATOM      8  C   UNL A   1      32.567  21.889  22.510  1.00  0.00     0.004 A 
ATOM      9  C   UNL A   1      33.175  24.166  22.276  1.00  0.00     0.019 A 
ATOM     10  C   UNL A   1      32.926  22.924  21.686  1.00  0.00     0.001 A 
BRANCH   6  11
ATOM     11  O   UNL A   1      31.212  24.183  24.830  1.00  0.00    -0.492 OA
BRANCH  11  12
ATOM     12  C   UNL A   1      30.867  23.546  26.125  1.00  0.00     0.241 C 
BRANCH  12  13
ATOM     13  C   UNL A   1      31.969  23.200  27.243  1.00  0.00     0.116 C 
BRANCH  13  14
ATOM     14  S   UNL A   1      33.707  22.153  27.291  1.00  0.00    -0.120 SA
BRANCH  14  15
ATOM     15  C   UNL A   1      35.235  22.413  26.203  1.00  0.00     0.031 A 
ATOM     16  C   UNL A   1      38.562  24.269  26.358  1.00  0.00     0.044 C 
ATOM     17  C   UNL A   1      37.546  23.255  25.882  1.00  0.00    -0.050 A 
ATOM     18  C   UNL A   1      37.952  22.006  25.452  1.00  0.00     0.005 A 
ATOM     19  C   UNL A   1      36.160  23.477  26.073  1.00  0.00     0.020 A 
ATOM     20  C   UNL A   1      36.986  21.036  25.198  1.00  0.00     0.027 A 
ATOM     21  C   UNL A   1      35.631  21.239  25.528  1.00  0.00     0.045 A 
BRANCH  21  22
ATOM     22  N   UNL A   1      34.728  20.190  25.316  1.00  0.00    -0.398 N 
ATOM     23  H   UNL A   1      34.212  20.146  24.478  1.00  0.00     0.156 HD
ATOM     24  H   UNL A   1      34.609  19.495  26.003  1.00  0.00     0.156 HD
ENDBRANCH  21  22
ENDBRANCH  14  15
ENDBRANCH  13  14
ENDBRANCH  12  13
ENDBRANCH  11  12
ENDBRANCH   6  11
ENDBRANCH   3   5
ENDBRANCH   2   3
ENDBRANCH   1   2
BRANCH   1  25
ATOM     25  C   UNL A   1      31.350  28.684  22.875  1.00  0.00     0.202 C 
BRANCH  25  26
ATOM     26  O   UNL A   1      30.756  29.532  23.834  1.00  0.00    -0.374 OA
BRANCH  26  27
ATOM     27  C   UNL A   1      31.208  29.521  25.182  1.00  0.00     0.202 C 
BRANCH  27  28
ATOM     28  C   UNL A   1      32.568  30.100  25.639  1.00  0.00     0.261 C 
BRANCH  28  29
ATOM     29  O   UNL A   1      32.714  30.396  27.031  1.00  0.00    -0.460 OA
BRANCH  29  30
ATOM     30  C   UNL A   1      33.385  31.535  27.324  1.00  0.00     0.338 C 
ATOM     31  O   UNL A   1      32.939  32.667  27.377  1.00  0.00    -0.246 OA
BRANCH  30  32
ATOM     32  C   UNL A   1      34.723  31.173  27.824  1.00  0.00     0.060 A 
ATOM     33  C   UNL A   1      34.941  29.838  28.194  1.00  0.00     0.016 A 
ATOM     34  C   UNL A   1      35.731  32.128  27.958  1.00  0.00     0.016 A 
ATOM     35  C   UNL A   1      36.165  29.454  28.728  1.00  0.00     0.010 A 
ATOM     36  C   UNL A   1      36.947  31.750  28.534  1.00  0.00     0.010 A 
ATOM     37  C   UNL A   1      37.150  30.422  28.951  1.00  0.00    -0.014 A 
BRANCH  37  38
ATOM     38  C   UNL A   1      38.292  30.076  29.822  1.00  0.00     0.031 A 
ATOM     39  C   UNL A   1      39.324  29.125  29.288  1.00  0.00     0.074 A 
ATOM     40  C   UNL A   1      38.435  30.644  31.030  1.00  0.00     0.049 A 
ATOM     41  N   UNL A   1      40.398  28.651  29.865  1.00  0.00    -0.248 NA
ATOM     42  C   UNL A   1      39.120  28.646  27.910  1.00  0.00     0.031 C 
ATOM     43  C   UNL A   1      37.526  31.628  31.613  1.00  0.00     0.029 A 
ATOM     44  N   UNL A   1      39.403  30.466  31.984  1.00  0.00    -0.354 N 
ATOM     45  C   UNL A   1      40.990  27.818  28.926  1.00  0.00     0.074 A 
ATOM     46  C   UNL A   1      40.149  27.829  27.750  1.00  0.00     0.031 C 
ATOM     47  C   UNL A   1      37.973  31.958  32.837  1.00  0.00     0.029 A 
ATOM     48  C   UNL A   1      39.176  31.182  33.132  1.00  0.00     0.049 A 
ATOM     49  H   UNL A   1      40.186  29.882  31.857  1.00  0.00     0.167 HD
ATOM     50  C   UNL A   1      42.138  27.110  29.038  1.00  0.00     0.037 A 
ATOM     51  C   UNL A   1      39.854  31.181  34.296  1.00  0.00     0.037 A 
ATOM     52  C   UNL A   1      42.964  27.104  30.215  1.00  0.00     0.049 A 
ATOM     53  C   UNL A   1      41.080  30.315  34.427  1.00  0.00     0.074 A 
ATOM     54  C   UNL A   1      44.153  26.431  30.433  1.00  0.00     0.029 A 
ATOM     55  N   UNL A   1      42.676  27.800  31.381  1.00  0.00    -0.354 N 
ATOM     56  N   UNL A   1      41.645  29.537  33.534  1.00  0.00    -0.248 NA
ATOM     57  C   UNL A   1      41.761  30.324  35.728  1.00  0.00     0.031 C 
ATOM     58  C   UNL A   1      44.555  26.677  31.750  1.00  0.00     0.029 A 
ATOM     59  C   UNL A   1      43.648  27.548  32.334  1.00  0.00     0.049 A 
ATOM     60  H   UNL A   1      41.896  28.386  31.511  1.00  0.00     0.167 HD
ATOM     61  C   UNL A   1      42.758  28.984  34.155  1.00  0.00     0.074 A 
ATOM     62  C   UNL A   1      42.797  29.530  35.496  1.00  0.00     0.031 C 
ATOM     63  C   UNL A   1      43.665  28.104  33.663  1.00  0.00     0.037 A 
BRANCH  50  64
ATOM     64  C   UNL A   1      42.543  26.258  27.871  1.00  0.00     0.064 A 
ATOM     65  C   UNL A   1      42.010  24.976  27.670  1.00  0.00     0.173 A 
ATOM     66  C   UNL A   1      43.460  26.743  26.928  1.00  0.00     0.173 A 
ATOM     67  F   UNL A   1      41.143  24.458  28.554  1.00  0.00    -0.203 F 
ATOM     68  C   UNL A   1      42.398  24.203  26.579  1.00  0.00     0.198 A 
ATOM     69  C   UNL A   1      43.824  25.979  25.823  1.00  0.00     0.198 A 
ATOM     70  F   UNL A   1      44.001  27.962  27.075  1.00  0.00    -0.203 F 
ATOM     71  F   UNL A   1      41.910  22.963  26.431  1.00  0.00    -0.200 F 
ATOM     72  C   UNL A   1      43.298  24.707  25.652  1.00  0.00     0.200 A 
ATOM     73  F   UNL A   1      44.687  26.472  24.924  1.00  0.00    -0.200 F 
ATOM     74  F   UNL A   1      43.665  23.965  24.599  1.00  0.00    -0.200 F 
ENDBRANCH  50  64
BRANCH  51  75
ATOM     75  C   UNL A   1      39.374  32.006  35.435  1.00  0.00     0.064 A 
ATOM     76  C   UNL A   1      39.745  33.351  35.564  1.00  0.00     0.173 A 
ATOM     77  C   UNL A   1      38.542  31.460  36.425  1.00  0.00     0.173 A 
ATOM     78  F   UNL A   1      40.559  33.911  34.657  1.00  0.00    -0.203 F 
ATOM     79  C   UNL A   1      39.315  34.114  36.648  1.00  0.00     0.198 A 
ATOM     80  C   UNL A   1      38.089  32.232  37.491  1.00  0.00     0.198 A 
ATOM     81  F   UNL A   1      38.162  30.176  36.350  1.00  0.00    -0.203 F 
ATOM     82  F   UNL A   1      39.720  35.385  36.772  1.00  0.00    -0.200 F 
ATOM     83  C   UNL A   1      38.482  33.556  37.606  1.00  0.00     0.200 A 
ATOM     84  F   UNL A   1      37.275  31.692  38.409  1.00  0.00    -0.200 F 
ATOM     85  F   UNL A   1      38.066  34.292  38.646  1.00  0.00    -0.200 F 
ENDBRANCH  51  75
BRANCH  63  86
ATOM     86  C   UNL A   1      44.788  27.697  34.572  1.00  0.00     0.064 A 
ATOM     87  C   UNL A   1      45.973  28.443  34.656  1.00  0.00     0.173 A 
ATOM     88  C   UNL A   1      44.660  26.571  35.400  1.00  0.00     0.173 A 
ATOM     89  F   UNL A   1      46.149  29.519  33.875  1.00  0.00    -0.203 F 
ATOM     90  C   UNL A   1      46.999  28.061  35.516  1.00  0.00     0.198 A 
ATOM     91  C   UNL A   1      45.674  26.211  36.282  1.00  0.00     0.198 A 
ATOM     92  F   UNL A   1      43.543  25.829  35.365  1.00  0.00    -0.203 F 
ATOM     93  F   UNL A   1      48.142  28.759  35.543  1.00  0.00    -0.200 F 
ATOM     94  C   UNL A   1      46.846  26.950  36.333  1.00  0.00     0.200 A 
ATOM     95  F   UNL A   1      45.518  25.146  37.082  1.00  0.00    -0.200 F 
ATOM     96  F   UNL A   1      47.832  26.589  37.165  1.00  0.00    -0.200 F 
ENDBRANCH  63  86
ENDBRANCH  37  38
ENDBRANCH  30  32
ENDBRANCH  29  30
ENDBRANCH  28  29
ENDBRANCH  27  28
ENDBRANCH  26  27
ENDBRANCH  25  26
ENDBRANCH   1  25
TORSDOF 20
ENDMDL
MODEL 2
REMARK VINA RESULT:     -11.3      1.849      7.771
REMARK SMILES Cc1ccc(N)c(SCCOc2ccccc2C(=O)OCCOCCOC(=O)c2ccc(-c3c4nc(c(-c5c(F)c(F)c(F)c(F)c5F)c5ccc([nH]5)c(-c5c(F)c(F)c(F)c(F)c5F)c5nc(c(-c6c(F)c(F)c(F)c(F)c6F)c6ccc3[nH]6)C=C5)C=C4)cc2)c1
REMARK SMILES IDX 21 1 20 2 18 3 19 4 17 5 12 6 13 7 14 8 16 9 15 10 11 11
REMARK SMILES IDX 10 12 9 13 8 14 7 15 1 16 2 17 3 18 92 19 4 20 5 21 6 22
REMARK SMILES IDX 22 25 23 26 24 27 25 28 26 29 27 30 28 31 29 32 30 33 91 34
REMARK SMILES IDX 31 35 90 36 32 37 33 38 34 39 84 40 35 41 89 42 83 43 85 44
REMARK SMILES IDX 36 45 88 46 82 47 81 48 37 50 69 51 49 52 68 53 50 54 53 55
REMARK SMILES IDX 67 56 86 57 51 58 52 59 66 61 87 62 54 63 38 64 39 65 47 66
REMARK SMILES IDX 40 67 41 68 45 69 48 70 42 71 43 72 46 73 44 74 70 75 71 76
REMARK SMILES IDX 79 77 72 78 73 79 77 80 80 81 74 82 75 83 78 84 76 85 55 86
REMARK SMILES IDX 56 87 64 88 57 89 58 90 62 91 65 92 59 93 60 94 63 95 61 96
REMARK H PARENT 6 23 6 24 85 49 53 60
REMARK Flexibility Score: inf
ROOT
ATOM      1  C   UNL A   1      31.848  28.057  26.489  1.00  0.00     0.261 C 
ENDROOT
BRANCH   1   2
ATOM      2  O   UNL A   1      32.270  26.829  25.815  1.00  0.00    -0.460 OA
BRANCH   2   3
ATOM      3  C   UNL A   1      33.613  26.612  25.907  1.00  0.00     0.342 C 
ATOM      4  O   UNL A   1      34.322  27.458  26.386  1.00  0.00    -0.246 OA
BRANCH   3   5
ATOM      5  C   UNL A   1      34.191  25.387  25.219  1.00  0.00     0.102 A 
ATOM      6  C   UNL A   1      33.844  25.204  23.914  1.00  0.00     0.133 A 
ATOM      7  C   UNL A   1      34.194  24.028  23.211  1.00  0.00     0.047 A 
ATOM      8  C   UNL A   1      35.249  23.238  23.670  1.00  0.00     0.004 A 
ATOM      9  C   UNL A   1      35.444  24.801  25.438  1.00  0.00     0.019 A 
ATOM     10  C   UNL A   1      35.978  23.725  24.723  1.00  0.00     0.001 A 
BRANCH   6  11
ATOM     11  O   UNL A   1      33.755  26.406  23.214  1.00  0.00    -0.492 OA
BRANCH  11  12
ATOM     12  C   UNL A   1      32.580  26.391  22.309  1.00  0.00     0.241 C 
BRANCH  12  13
ATOM     13  C   UNL A   1      31.131  25.876  22.777  1.00  0.00     0.116 C 
BRANCH  13  14
ATOM     14  S   UNL A   1      30.372  24.135  23.493  1.00  0.00    -0.120 SA
BRANCH  14  15
ATOM     15  C   UNL A   1      31.015  23.115  24.953  1.00  0.00     0.031 A 
ATOM     16  C   UNL A   1      33.953  20.820  25.753  1.00  0.00     0.044 C 
ATOM     17  C   UNL A   1      32.777  21.735  26.020  1.00  0.00    -0.050 A 
ATOM     18  C   UNL A   1      32.774  22.565  27.125  1.00  0.00     0.005 A 
ATOM     19  C   UNL A   1      31.772  21.922  25.041  1.00  0.00     0.020 A 
ATOM     20  C   UNL A   1      31.769  23.523  27.242  1.00  0.00     0.027 A 
ATOM     21  C   UNL A   1      30.867  23.779  26.190  1.00  0.00     0.045 A 
BRANCH  21  22
ATOM     22  N   UNL A   1      29.933  24.810  26.349  1.00  0.00    -0.398 N 
ATOM     23  H   UNL A   1      28.980  24.645  26.160  1.00  0.00     0.156 HD
ATOM     24  H   UNL A   1      30.228  25.700  26.649  1.00  0.00     0.156 HD
ENDBRANCH  21  22
ENDBRANCH  14  15
ENDBRANCH  13  14
ENDBRANCH  12  13
ENDBRANCH  11  12
ENDBRANCH   6  11
ENDBRANCH   3   5
ENDBRANCH   2   3
ENDBRANCH   1   2
BRANCH   1  25
ATOM     25  C   UNL A   1      31.777  29.416  25.732  1.00  0.00     0.202 C 
BRANCH  25  26
ATOM     26  O   UNL A   1      32.847  30.301  25.982  1.00  0.00    -0.374 OA
BRANCH  26  27
ATOM     27  C   UNL A   1      32.874  31.082  27.170  1.00  0.00     0.202 C 
BRANCH  27  28
ATOM     28  C   UNL A   1      32.327  32.526  27.263  1.00  0.00     0.261 C 
BRANCH  28  29
ATOM     29  O   UNL A   1      33.289  33.587  27.254  1.00  0.00    -0.460 OA
BRANCH  29  30
ATOM     30  C   UNL A   1      33.337  34.346  28.374  1.00  0.00     0.338 C 
ATOM     31  O   UNL A   1      32.526  35.176  28.746  1.00  0.00    -0.246 OA
BRANCH  30  32
ATOM     32  C   UNL A   1      34.421  33.839  29.235  1.00  0.00     0.060 A 
ATOM     33  C   UNL A   1      35.735  34.202  28.910  1.00  0.00     0.016 A 
ATOM     34  C   UNL A   1      34.157  32.998  30.317  1.00  0.00     0.016 A 
ATOM     35  C   UNL A   1      36.800  33.705  29.651  1.00  0.00     0.010 A 
ATOM     36  C   UNL A   1      35.230  32.465  31.035  1.00  0.00     0.010 A 
ATOM     37  C   UNL A   1      36.551  32.790  30.680  1.00  0.00    -0.014 A 
BRANCH  37  38
ATOM     38  C   UNL A   1      37.686  32.015  31.222  1.00  0.00     0.031 A 
ATOM     39  C   UNL A   1      38.145  32.319  32.619  1.00  0.00     0.074 A 
ATOM     40  C   UNL A   1      38.249  31.027  30.509  1.00  0.00     0.049 A 
ATOM     41  N   UNL A   1      39.128  31.797  33.304  1.00  0.00    -0.248 NA
ATOM     42  C   UNL A   1      37.386  33.352  33.345  1.00  0.00     0.031 C 
ATOM     43  C   UNL A   1      37.834  30.609  29.172  1.00  0.00     0.029 A 
ATOM     44  N   UNL A   1      39.296  30.198  30.817  1.00  0.00    -0.354 N 
ATOM     45  C   UNL A   1      39.109  32.439  34.535  1.00  0.00     0.074 A 
ATOM     46  C   UNL A   1      38.035  33.406  34.498  1.00  0.00     0.031 C 
ATOM     47  C   UNL A   1      38.633  29.607  28.765  1.00  0.00     0.029 A 
ATOM     48  C   UNL A   1      39.631  29.341  29.799  1.00  0.00     0.049 A 
ATOM     49  H   UNL A   1      39.761  30.215  31.684  1.00  0.00     0.167 HD
ATOM     50  C   UNL A   1      39.917  32.235  35.601  1.00  0.00     0.037 A 
ATOM     51  C   UNL A   1      40.651  28.466  29.711  1.00  0.00     0.037 A 
ATOM     52  C   UNL A   1      40.985  31.272  35.624  1.00  0.00     0.049 A 
ATOM     53  C   UNL A   1      41.592  28.320  30.879  1.00  0.00     0.074 A 
ATOM     54  C   UNL A   1      41.858  30.975  36.654  1.00  0.00     0.029 A 
ATOM     55  N   UNL A   1      41.331  30.457  34.555  1.00  0.00    -0.354 N 
ATOM     56  N   UNL A   1      41.565  28.920  32.046  1.00  0.00    -0.248 NA
ATOM     57  C   UNL A   1      42.707  27.377  30.718  1.00  0.00     0.031 C 
ATOM     58  C   UNL A   1      42.768  30.019  36.190  1.00  0.00     0.029 A 
ATOM     59  C   UNL A   1      42.426  29.678  34.890  1.00  0.00     0.049 A 
ATOM     60  H   UNL A   1      40.867  30.436  33.687  1.00  0.00     0.167 HD
ATOM     61  C   UNL A   1      42.641  28.412  32.764  1.00  0.00     0.074 A 
ATOM     62  C   UNL A   1      43.290  27.442  31.906  1.00  0.00     0.031 C 
ATOM     63  C   UNL A   1      43.055  28.720  34.018  1.00  0.00     0.037 A 
BRANCH  50  64
ATOM     64  C   UNL A   1      39.696  33.093  36.812  1.00  0.00     0.064 A 
ATOM     65  C   UNL A   1      38.752  32.759  37.794  1.00  0.00     0.173 A 
ATOM     66  C   UNL A   1      40.460  34.254  37.003  1.00  0.00     0.173 A 
ATOM     67  F   UNL A   1      37.983  31.669  37.650  1.00  0.00    -0.203 F 
ATOM     68  C   UNL A   1      38.565  33.568  38.912  1.00  0.00     0.198 A 
ATOM     69  C   UNL A   1      40.291  35.045  38.135  1.00  0.00     0.198 A 
ATOM     70  F   UNL A   1      41.375  34.619  36.092  1.00  0.00    -0.203 F 
ATOM     71  F   UNL A   1      37.627  33.254  39.815  1.00  0.00    -0.200 F 
ATOM     72  C   UNL A   1      39.339  34.706  39.086  1.00  0.00     0.200 A 
ATOM     73  F   UNL A   1      41.046  36.139  38.305  1.00  0.00    -0.200 F 
ATOM     74  F   UNL A   1      39.164  35.480  40.165  1.00  0.00    -0.200 F 
ENDBRANCH  50  64
BRANCH  51  75
ATOM     75  C   UNL A   1      40.850  27.681  28.465  1.00  0.00     0.064 A 
ATOM     76  C   UNL A   1      40.211  26.449  28.273  1.00  0.00     0.173 A 
ATOM     77  C   UNL A   1      41.694  28.145  27.444  1.00  0.00     0.173 A 
ATOM     78  F   UNL A   1      39.415  25.952  29.231  1.00  0.00    -0.203 F 
ATOM     79  C   UNL A   1      40.421  25.703  27.115  1.00  0.00     0.198 A 
ATOM     80  C   UNL A   1      41.880  27.412  26.275  1.00  0.00     0.198 A 
ATOM     81  F   UNL A   1      42.333  29.316  27.580  1.00  0.00    -0.203 F 
ATOM     82  F   UNL A   1      39.833  24.507  26.976  1.00  0.00    -0.200 F 
ATOM     83  C   UNL A   1      41.250  26.188  26.114  1.00  0.00     0.200 A 
ATOM     84  F   UNL A   1      42.672  27.890  25.305  1.00  0.00    -0.200 F 
ATOM     85  F   UNL A   1      41.447  25.472  25.000  1.00  0.00    -0.200 F 
ENDBRANCH  51  75
BRANCH  63  86
ATOM     86  C   UNL A   1      44.252  27.982  34.545  1.00  0.00     0.064 A 
ATOM     87  C   UNL A   1      44.123  26.769  35.236  1.00  0.00     0.173 A 
ATOM     88  C   UNL A   1      45.546  28.475  34.317  1.00  0.00     0.173 A 
ATOM     89  F   UNL A   1      42.906  26.265  35.491  1.00  0.00    -0.203 F 
ATOM     90  C   UNL A   1      45.243  26.090  35.704  1.00  0.00     0.198 A 
ATOM     91  C   UNL A   1      46.666  27.777  34.758  1.00  0.00     0.198 A 
ATOM     92  F   UNL A   1      45.725  29.627  33.653  1.00  0.00    -0.203 F 
ATOM     93  F   UNL A   1      45.094  24.958  36.406  1.00  0.00    -0.200 F 
ATOM     94  C   UNL A   1      46.514  26.589  35.458  1.00  0.00     0.200 A 
ATOM     95  F   UNL A   1      47.894  28.253  34.506  1.00  0.00    -0.200 F 
ATOM     96  F   UNL A   1      47.592  25.930  35.904  1.00  0.00    -0.200 F 
ENDBRANCH  63  86
ENDBRANCH  37  38
ENDBRANCH  30  32
ENDBRANCH  29  30
ENDBRANCH  28  29
ENDBRANCH  27  28
ENDBRANCH  26  27
ENDBRANCH  25  26
ENDBRANCH   1  25
TORSDOF 20
ENDMDL
MODEL 3
REMARK VINA RESULT:     -11.3      4.214      7.281
REMARK SMILES Cc1ccc(N)c(SCCOc2ccccc2C(=O)OCCOCCOC(=O)c2ccc(-c3c4nc(c(-c5c(F)c(F)c(F)c(F)c5F)c5ccc([nH]5)c(-c5c(F)c(F)c(F)c(F)c5F)c5nc(c(-c6c(F)c(F)c(F)c(F)c6F)c6ccc3[nH]6)C=C5)C=C4)cc2)c1
REMARK SMILES IDX 21 1 20 2 18 3 19 4 17 5 12 6 13 7 14 8 16 9 15 10 11 11
REMARK SMILES IDX 10 12 9 13 8 14 7 15 1 16 2 17 3 18 92 19 4 20 5 21 6 22
REMARK SMILES IDX 22 25 23 26 24 27 25 28 26 29 27 30 28 31 29 32 30 33 91 34
REMARK SMILES IDX 31 35 90 36 32 37 33 38 34 39 84 40 35 41 89 42 83 43 85 44
REMARK SMILES IDX 36 45 88 46 82 47 81 48 37 50 69 51 49 52 68 53 50 54 53 55
REMARK SMILES IDX 67 56 86 57 51 58 52 59 66 61 87 62 54 63 38 64 39 65 47 66
REMARK SMILES IDX 40 67 41 68 45 69 48 70 42 71 43 72 46 73 44 74 70 75 71 76
REMARK SMILES IDX 79 77 72 78 73 79 77 80 80 81 74 82 75 83 78 84 76 85 55 86
REMARK SMILES IDX 56 87 64 88 57 89 58 90 62 91 65 92 59 93 60 94 63 95 61 96
REMARK H PARENT 6 23 6 24 85 49 53 60
REMARK Flexibility Score: inf
ROOT
ATOM      1  C   UNL A   1      36.632  23.387  24.757  1.00  0.00     0.261 C 
ENDROOT
BRANCH   1   2
ATOM      2  O   UNL A   1      35.853  24.389  25.485  1.00  0.00    -0.460 OA
BRANCH   2   3
ATOM      3  C   UNL A   1      34.702  24.732  24.840  1.00  0.00     0.342 C 
ATOM      4  O   UNL A   1      34.481  24.293  23.741  1.00  0.00    -0.246 OA
BRANCH   3   5
ATOM      5  C   UNL A   1      33.831  25.815  25.453  1.00  0.00     0.102 A 
ATOM      6  C   UNL A   1      32.675  25.402  26.044  1.00  0.00     0.133 A 
ATOM      7  C   UNL A   1      31.712  26.324  26.516  1.00  0.00     0.047 A 
ATOM      8  C   UNL A   1      32.091  27.639  26.789  1.00  0.00     0.004 A 
ATOM      9  C   UNL A   1      34.255  26.998  26.070  1.00  0.00     0.019 A 
ATOM     10  C   UNL A   1      33.427  27.932  26.701  1.00  0.00     0.001 A 
BRANCH   6  11
ATOM     11  O   UNL A   1      32.824  24.184  26.706  1.00  0.00    -0.492 OA
BRANCH  11  12
ATOM     12  C   UNL A   1      31.543  23.435  26.702  1.00  0.00     0.241 C 
BRANCH  12  13
ATOM     13  C   UNL A   1      30.660  23.233  25.375  1.00  0.00     0.116 C 
BRANCH  13  14
ATOM     14  S   UNL A   1      30.787  23.840  23.442  1.00  0.00    -0.120 SA
BRANCH  14  15
ATOM     15  C   UNL A   1      31.080  25.600  22.808  1.00  0.00     0.031 A 
ATOM     16  C   UNL A   1      30.765  29.180  24.082  1.00  0.00     0.044 C 
ATOM     17  C   UNL A   1      31.230  28.045  23.197  1.00  0.00    -0.050 A 
ATOM     18  C   UNL A   1      32.494  28.067  22.638  1.00  0.00     0.005 A 
ATOM     19  C   UNL A   1      30.480  26.847  23.104  1.00  0.00     0.020 A 
ATOM     20  C   UNL A   1      32.959  26.928  21.984  1.00  0.00     0.027 A 
ATOM     21  C   UNL A   1      32.250  25.711  22.026  1.00  0.00     0.045 A 
BRANCH  21  22
ATOM     22  N   UNL A   1      32.816  24.588  21.412  1.00  0.00    -0.398 N 
ATOM     23  H   UNL A   1      33.508  24.701  20.720  1.00  0.00     0.156 HD
ATOM     24  H   UNL A   1      32.523  23.684  21.670  1.00  0.00     0.156 HD
ENDBRANCH  21  22
ENDBRANCH  14  15
ENDBRANCH  13  14
ENDBRANCH  12  13
ENDBRANCH  11  12
ENDBRANCH   6  11
ENDBRANCH   3   5
ENDBRANCH   2   3
ENDBRANCH   1   2
BRANCH   1  25
ATOM     25  C   UNL A   1      36.027  22.000  24.388  1.00  0.00     0.202 C 
BRANCH  25  26
ATOM     26  O   UNL A   1      36.270  20.969  25.321  1.00  0.00    -0.374 OA
BRANCH  26  27
ATOM     27  C   UNL A   1      37.071  19.850  24.967  1.00  0.00     0.202 C 
BRANCH  27  28
ATOM     28  C   UNL A   1      38.563  19.705  25.347  1.00  0.00     0.261 C 
BRANCH  28  29
ATOM     29  O   UNL A   1      39.279  20.908  25.643  1.00  0.00    -0.460 OA
BRANCH  29  30
ATOM     30  C   UNL A   1      40.277  20.791  26.550  1.00  0.00     0.338 C 
ATOM     31  O   UNL A   1      40.983  19.820  26.759  1.00  0.00    -0.246 OA
BRANCH  30  32
ATOM     32  C   UNL A   1      40.565  22.127  27.103  1.00  0.00     0.060 A 
ATOM     33  C   UNL A   1      39.854  23.216  26.578  1.00  0.00     0.016 A 
ATOM     34  C   UNL A   1      41.534  22.312  28.089  1.00  0.00     0.016 A 
ATOM     35  C   UNL A   1      40.127  24.504  27.020  1.00  0.00     0.010 A 
ATOM     36  C   UNL A   1      41.837  23.612  28.502  1.00  0.00     0.010 A 
ATOM     37  C   UNL A   1      41.159  24.709  27.942  1.00  0.00    -0.014 A 
BRANCH  37  38
ATOM     38  C   UNL A   1      41.665  26.083  28.138  1.00  0.00     0.031 A 
ATOM     39  C   UNL A   1      43.025  26.418  27.599  1.00  0.00     0.074 A 
ATOM     40  C   UNL A   1      40.905  27.020  28.727  1.00  0.00     0.049 A 
ATOM     41  N   UNL A   1      43.695  27.539  27.666  1.00  0.00    -0.248 NA
ATOM     42  C   UNL A   1      43.726  25.340  26.879  1.00  0.00     0.031 C 
ATOM     43  C   UNL A   1      39.547  26.815  29.225  1.00  0.00     0.029 A 
ATOM     44  N   UNL A   1      41.176  28.334  29.006  1.00  0.00    -0.354 N 
ATOM     45  C   UNL A   1      44.892  27.300  27.005  1.00  0.00     0.074 A 
ATOM     46  C   UNL A   1      44.872  25.923  26.564  1.00  0.00     0.031 C 
ATOM     47  C   UNL A   1      39.106  27.965  29.766  1.00  0.00     0.029 A 
ATOM     48  C   UNL A   1      40.164  28.969  29.681  1.00  0.00     0.049 A 
ATOM     49  H   UNL A   1      42.015  28.779  28.747  1.00  0.00     0.167 HD
ATOM     50  C   UNL A   1      45.915  28.158  26.785  1.00  0.00     0.037 A 
ATOM     51  C   UNL A   1      40.120  30.213  30.194  1.00  0.00     0.037 A 
ATOM     52  C   UNL A   1      45.925  29.525  27.233  1.00  0.00     0.049 A 
ATOM     53  C   UNL A   1      41.308  31.122  30.013  1.00  0.00     0.074 A 
ATOM     54  C   UNL A   1      46.905  30.485  27.055  1.00  0.00     0.029 A 
ATOM     55  N   UNL A   1      44.904  30.120  27.960  1.00  0.00    -0.354 N 
ATOM     56  N   UNL A   1      42.435  30.898  29.378  1.00  0.00    -0.248 NA
ATOM     57  C   UNL A   1      41.221  32.456  30.622  1.00  0.00     0.031 C 
ATOM     58  C   UNL A   1      46.500  31.646  27.723  1.00  0.00     0.029 A 
ATOM     59  C   UNL A   1      45.244  31.427  28.267  1.00  0.00     0.049 A 
ATOM     60  H   UNL A   1      44.064  29.679  28.220  1.00  0.00     0.167 HD
ATOM     61  C   UNL A   1      43.178  32.066  29.490  1.00  0.00     0.074 A 
ATOM     62  C   UNL A   1      42.367  33.002  30.241  1.00  0.00     0.031 C 
ATOM     63  C   UNL A   1      44.419  32.340  29.017  1.00  0.00     0.037 A 
BRANCH  50  64
ATOM     64  C   UNL A   1      47.118  27.630  26.059  1.00  0.00     0.064 A 
ATOM     65  C   UNL A   1      48.222  27.102  26.744  1.00  0.00     0.173 A 
ATOM     66  C   UNL A   1      47.154  27.632  24.657  1.00  0.00     0.173 A 
ATOM     67  F   UNL A   1      48.246  27.095  28.086  1.00  0.00    -0.203 F 
ATOM     68  C   UNL A   1      49.328  26.615  26.052  1.00  0.00     0.198 A 
ATOM     69  C   UNL A   1      48.248  27.118  23.967  1.00  0.00     0.198 A 
ATOM     70  F   UNL A   1      46.124  28.128  23.955  1.00  0.00    -0.203 F 
ATOM     71  F   UNL A   1      50.391  26.157  26.726  1.00  0.00    -0.200 F 
ATOM     72  C   UNL A   1      49.337  26.617  24.665  1.00  0.00     0.200 A 
ATOM     73  F   UNL A   1      48.251  27.112  22.628  1.00  0.00    -0.200 F 
ATOM     74  F   UNL A   1      50.398  26.141  23.999  1.00  0.00    -0.200 F 
ENDBRANCH  50  64
BRANCH  51  75
ATOM     75  C   UNL A   1      38.921  30.662  30.949  1.00  0.00     0.064 A 
ATOM     76  C   UNL A   1      38.821  30.470  32.334  1.00  0.00     0.173 A 
ATOM     77  C   UNL A   1      37.845  31.283  30.297  1.00  0.00     0.173 A 
ATOM     78  F   UNL A   1      39.813  29.858  32.998  1.00  0.00    -0.203 F 
ATOM     79  C   UNL A   1      37.683  30.867  33.034  1.00  0.00     0.198 A 
ATOM     80  C   UNL A   1      36.722  31.706  31.003  1.00  0.00     0.198 A 
ATOM     81  F   UNL A   1      37.888  31.486  28.972  1.00  0.00    -0.203 F 
ATOM     82  F   UNL A   1      37.594  30.631  34.350  1.00  0.00    -0.200 F 
ATOM     83  C   UNL A   1      36.638  31.491  32.370  1.00  0.00     0.200 A 
ATOM     84  F   UNL A   1      35.719  32.319  30.358  1.00  0.00    -0.200 F 
ATOM     85  F   UNL A   1      35.548  31.876  33.045  1.00  0.00    -0.200 F 
ENDBRANCH  51  75
BRANCH  63  86
ATOM     86  C   UNL A   1      44.964  33.715  29.277  1.00  0.00     0.064 A 
ATOM     87  C   UNL A   1      44.706  34.785  28.408  1.00  0.00     0.173 A 
ATOM     88  C   UNL A   1      45.717  33.973  30.433  1.00  0.00     0.173 A 
ATOM     89  F   UNL A   1      44.002  34.585  27.283  1.00  0.00    -0.203 F 
ATOM     90  C   UNL A   1      45.204  36.056  28.672  1.00  0.00     0.198 A 
ATOM     91  C   UNL A   1      46.188  35.253  30.710  1.00  0.00     0.198 A 
ATOM     92  F   UNL A   1      45.985  32.986  31.301  1.00  0.00    -0.203 F 
ATOM     93  F   UNL A   1      44.988  37.053  27.802  1.00  0.00    -0.200 F 
ATOM     94  C   UNL A   1      45.938  36.292  29.826  1.00  0.00     0.200 A 
ATOM     95  F   UNL A   1      46.883  35.481  31.833  1.00  0.00    -0.200 F 
ATOM     96  F   UNL A   1      46.412  37.519  30.081  1.00  0.00    -0.200 F 
ENDBRANCH  63  86
ENDBRANCH  37  38
ENDBRANCH  30  32
ENDBRANCH  29  30
ENDBRANCH  28  29
ENDBRANCH  27  28
ENDBRANCH  26  27
ENDBRANCH  25  26
ENDBRANCH   1  25
TORSDOF 20
ENDMDL
