MODEL 1
REMARK VINA RESULT:     -12.1      0.000      0.000
REMARK SMILES CC1=C(C(=O)OCCOCCOC(=O)c2ccc(-c3c4nc(c(-c5c(F)c(F)c(F)c(F)c5F)c5ccc([nH]5)c(-c5c(F)c(F)c(F)c(F)c5F)c5nc(c(-c6c(F)c(F)c(F)c(F)c6F)c6ccc3[nH]6)C=C5)C=C4)cc2)[C@H](c2ccc(Cl)cc2)n2ncnc2N1
REMARK SMILES IDX 10 1 9 2 8 3 7 4 6 5 4 6 5 7 3 8 1 9 2 10 91 11 78 12 90 13
REMARK SMILES IDX 86 15 89 16 87 17 88 18 79 19 80 20 85 21 81 22 84 23 82 24
REMARK SMILES IDX 83 25 11 26 12 27 13 28 14 29 15 30 16 31 77 32 17 33 76 34
REMARK SMILES IDX 18 35 19 36 20 37 70 38 21 39 75 40 69 41 71 42 22 43 74 44
REMARK SMILES IDX 68 45 67 46 23 48 55 49 35 50 54 51 36 52 39 53 53 54 72 55
REMARK SMILES IDX 37 56 38 57 52 59 73 60 40 61 24 62 25 63 33 64 26 65 27 66
REMARK SMILES IDX 31 67 34 68 28 69 29 70 32 71 30 72 56 73 57 74 65 75 58 76
REMARK SMILES IDX 59 77 63 78 66 79 60 80 61 81 64 82 62 83 41 84 42 85 50 86
REMARK SMILES IDX 43 87 44 88 48 89 51 90 45 91 46 92 49 93 47 94
REMARK H PARENT 91 14 71 47 39 58
REMARK Flexibility Score: inf
ROOT
ATOM      1  C   UNL A   1      39.754  21.608  26.235  1.00  0.00     0.202 C 
ENDROOT
BRANCH   1   2
ATOM      2  O   UNL A   1      38.609  21.415  25.411  1.00  0.00    -0.374 OA
BRANCH   2   3
ATOM      3  C   UNL A   1      37.416  22.170  25.623  1.00  0.00     0.202 C 
BRANCH   3   4
ATOM      4  C   UNL A   1      37.362  23.629  25.164  1.00  0.00     0.261 C 
BRANCH   4   5
ATOM      5  O   UNL A   1      36.078  24.235  25.378  1.00  0.00    -0.460 OA
BRANCH   5   6
ATOM      6  C   UNL A   1      35.185  24.041  24.375  1.00  0.00     0.338 C 
ATOM      7  O   UNL A   1      35.455  23.694  23.231  1.00  0.00    -0.246 OA
BRANCH   6   8
ATOM      8  C   UNL A   1      33.809  24.234  24.860  1.00  0.00     0.085 C 
ATOM      9  C   UNL A   1      33.745  26.575  23.893  1.00  0.00     0.065 C 
ATOM     10  C   UNL A   1      33.158  25.402  24.637  1.00  0.00     0.028 C 
ATOM     11  N   UNL A   1      31.863  25.571  25.108  1.00  0.00    -0.328 N 
ATOM     12  C   UNL A   1      33.174  23.086  25.649  1.00  0.00     0.181 C 
ATOM     13  C   UNL A   1      31.224  24.656  25.859  1.00  0.00     0.226 A 
ATOM     14  H   UNL A   1      31.388  26.402  24.879  1.00  0.00     0.169 HD
ATOM     15  N   UNL A   1      31.852  23.479  26.165  1.00  0.00    -0.219 N 
ATOM     16  N   UNL A   1      30.036  24.674  26.407  1.00  0.00    -0.200 NA
ATOM     17  N   UNL A   1      31.109  22.740  27.017  1.00  0.00    -0.157 NA
ATOM     18  C   UNL A   1      30.003  23.489  27.097  1.00  0.00     0.248 A 
BRANCH  12  19
ATOM     19  C   UNL A   1      33.114  21.756  24.895  1.00  0.00    -0.018 A 
ATOM     20  C   UNL A   1      33.775  20.599  25.346  1.00  0.00     0.008 A 
ATOM     21  C   UNL A   1      32.333  21.658  23.726  1.00  0.00     0.008 A 
ATOM     22  C   UNL A   1      33.642  19.385  24.665  1.00  0.00     0.021 A 
ATOM     23  C   UNL A   1      32.171  20.437  23.066  1.00  0.00     0.021 A 
ATOM     24  C   UNL A   1      32.823  19.305  23.542  1.00  0.00     0.041 A 
ATOM     25  Cl  UNL A   1      32.606  17.795  22.748  1.00  0.00    -0.084 Cl
ENDBRANCH  12  19
ENDBRANCH   6   8
ENDBRANCH   5   6
ENDBRANCH   4   5
ENDBRANCH   3   4
ENDBRANCH   2   3
ENDBRANCH   1   2
BRANCH   1  26
ATOM     26  C   UNL A   1      40.807  20.509  26.314  1.00  0.00     0.261 C 
BRANCH  26  27
ATOM     27  O   UNL A   1      42.068  21.036  26.689  1.00  0.00    -0.460 OA
BRANCH  27  28
ATOM     28  C   UNL A   1      43.017  20.894  25.747  1.00  0.00     0.338 C 
ATOM     29  O   UNL A   1      43.348  19.852  25.176  1.00  0.00    -0.246 OA
BRANCH  28  30
ATOM     30  C   UNL A   1      43.699  22.172  25.545  1.00  0.00     0.060 A 
ATOM     31  C   UNL A   1      44.659  22.469  26.515  1.00  0.00     0.016 A 
ATOM     32  C   UNL A   1      43.025  23.163  24.819  1.00  0.00     0.016 A 
ATOM     33  C   UNL A   1      44.641  23.733  27.043  1.00  0.00     0.010 A 
ATOM     34  C   UNL A   1      42.984  24.416  25.366  1.00  0.00     0.010 A 
ATOM     35  C   UNL A   1      43.700  24.635  26.541  1.00  0.00    -0.014 A 
BRANCH  35  36
ATOM     36  C   UNL A   1      43.472  25.839  27.296  1.00  0.00     0.031 A 
ATOM     37  C   UNL A   1      44.468  26.884  27.008  1.00  0.00     0.074 A 
ATOM     38  C   UNL A   1      42.391  25.982  28.080  1.00  0.00     0.049 A 
ATOM     39  N   UNL A   1      45.386  27.347  27.787  1.00  0.00    -0.248 NA
ATOM     40  C   UNL A   1      44.578  27.320  25.608  1.00  0.00     0.031 C 
ATOM     41  C   UNL A   1      41.205  25.125  28.171  1.00  0.00     0.029 A 
ATOM     42  N   UNL A   1      42.081  27.021  28.894  1.00  0.00    -0.354 N 
ATOM     43  C   UNL A   1      46.079  28.274  27.017  1.00  0.00     0.074 A 
ATOM     44  C   UNL A   1      45.702  28.032  25.654  1.00  0.00     0.031 C 
ATOM     45  C   UNL A   1      40.219  25.805  28.804  1.00  0.00     0.029 A 
ATOM     46  C   UNL A   1      40.745  27.081  29.255  1.00  0.00     0.049 A 
ATOM     47  H   UNL A   1      42.748  27.677  29.201  1.00  0.00     0.167 HD
ATOM     48  C   UNL A   1      46.680  29.350  27.589  1.00  0.00     0.037 A 
ATOM     49  C   UNL A   1      40.134  28.180  29.763  1.00  0.00     0.037 A 
ATOM     50  C   UNL A   1      46.885  29.136  29.000  1.00  0.00     0.049 A 
ATOM     51  C   UNL A   1      41.206  29.098  30.251  1.00  0.00     0.074 A 
ATOM     52  C   UNL A   1      47.580  28.201  29.744  1.00  0.00     0.029 A 
ATOM     53  N   UNL A   1      46.020  29.741  29.881  1.00  0.00    -0.354 N 
ATOM     54  N   UNL A   1      41.970  28.843  31.280  1.00  0.00    -0.248 NA
ATOM     55  C   UNL A   1      41.743  30.070  29.305  1.00  0.00     0.031 C 
ATOM     56  C   UNL A   1      46.776  27.968  30.897  1.00  0.00     0.029 A 
ATOM     57  C   UNL A   1      45.663  28.804  30.814  1.00  0.00     0.049 A 
ATOM     58  H   UNL A   1      45.714  30.676  29.846  1.00  0.00     0.167 HD
ATOM     59  C   UNL A   1      43.229  29.305  30.916  1.00  0.00     0.074 A 
ATOM     60  C   UNL A   1      43.012  30.113  29.719  1.00  0.00     0.031 C 
ATOM     61  C   UNL A   1      44.364  28.754  31.439  1.00  0.00     0.037 A 
BRANCH  48  62
ATOM     62  C   UNL A   1      46.702  30.728  26.963  1.00  0.00     0.064 A 
ATOM     63  C   UNL A   1      47.923  31.430  26.945  1.00  0.00     0.173 A 
ATOM     64  C   UNL A   1      45.557  31.504  26.666  1.00  0.00     0.173 A 
ATOM     65  F   UNL A   1      49.079  30.799  27.197  1.00  0.00    -0.203 F 
ATOM     66  C   UNL A   1      47.976  32.815  26.772  1.00  0.00     0.198 A 
ATOM     67  C   UNL A   1      45.621  32.876  26.438  1.00  0.00     0.198 A 
ATOM     68  F   UNL A   1      44.316  31.012  26.680  1.00  0.00    -0.203 F 
ATOM     69  F   UNL A   1      49.145  33.454  26.911  1.00  0.00    -0.200 F 
ATOM     70  C   UNL A   1      46.823  33.538  26.534  1.00  0.00     0.200 A 
ATOM     71  F   UNL A   1      44.489  33.557  26.212  1.00  0.00    -0.200 F 
ATOM     72  F   UNL A   1      46.861  34.874  26.443  1.00  0.00    -0.200 F 
ENDBRANCH  48  62
BRANCH  49  73
ATOM     73  C   UNL A   1      38.747  28.636  29.502  1.00  0.00     0.064 A 
ATOM     74  C   UNL A   1      37.872  28.929  30.559  1.00  0.00     0.173 A 
ATOM     75  C   UNL A   1      38.328  29.035  28.216  1.00  0.00     0.173 A 
ATOM     76  F   UNL A   1      38.217  28.633  31.820  1.00  0.00    -0.203 F 
ATOM     77  C   UNL A   1      36.657  29.590  30.344  1.00  0.00     0.198 A 
ATOM     78  C   UNL A   1      37.113  29.683  28.001  1.00  0.00     0.198 A 
ATOM     79  F   UNL A   1      39.131  28.890  27.152  1.00  0.00    -0.203 F 
ATOM     80  F   UNL A   1      35.872  29.904  31.384  1.00  0.00    -0.200 F 
ATOM     81  C   UNL A   1      36.281  29.970  29.066  1.00  0.00     0.200 A 
ATOM     82  F   UNL A   1      36.781  30.079  26.763  1.00  0.00    -0.200 F 
ATOM     83  F   UNL A   1      35.143  30.650  28.865  1.00  0.00    -0.200 F 
ENDBRANCH  49  73
BRANCH  61  84
ATOM     84  C   UNL A   1      44.221  27.811  32.597  1.00  0.00     0.064 A 
ATOM     85  C   UNL A   1      44.050  26.424  32.448  1.00  0.00     0.173 A 
ATOM     86  C   UNL A   1      44.462  28.300  33.888  1.00  0.00     0.173 A 
ATOM     87  F   UNL A   1      43.917  25.875  31.234  1.00  0.00    -0.203 F 
ATOM     88  C   UNL A   1      44.090  25.571  33.549  1.00  0.00     0.198 A 
ATOM     89  C   UNL A   1      44.536  27.443  34.981  1.00  0.00     0.198 A 
ATOM     90  F   UNL A   1      44.689  29.610  34.078  1.00  0.00    -0.203 F 
ATOM     91  F   UNL A   1      43.928  24.251  33.383  1.00  0.00    -0.200 F 
ATOM     92  C   UNL A   1      44.344  26.081  34.813  1.00  0.00     0.200 A 
ATOM     93  F   UNL A   1      44.833  27.933  36.192  1.00  0.00    -0.200 F 
ATOM     94  F   UNL A   1      44.438  25.254  35.864  1.00  0.00    -0.200 F 
ENDBRANCH  61  84
ENDBRANCH  35  36
ENDBRANCH  28  30
ENDBRANCH  27  28
ENDBRANCH  26  27
ENDBRANCH   1  26
TORSDOF 15
ENDMDL
MODEL 2
REMARK VINA RESULT:     -12.1      4.594      7.647
REMARK SMILES CC1=C(C(=O)OCCOCCOC(=O)c2ccc(-c3c4nc(c(-c5c(F)c(F)c(F)c(F)c5F)c5ccc([nH]5)c(-c5c(F)c(F)c(F)c(F)c5F)c5nc(c(-c6c(F)c(F)c(F)c(F)c6F)c6ccc3[nH]6)C=C5)C=C4)cc2)[C@H](c2ccc(Cl)cc2)n2ncnc2N1
REMARK SMILES IDX 10 1 9 2 8 3 7 4 6 5 4 6 5 7 3 8 1 9 2 10 91 11 78 12 90 13
REMARK SMILES IDX 86 15 89 16 87 17 88 18 79 19 80 20 85 21 81 22 84 23 82 24
REMARK SMILES IDX 83 25 11 26 12 27 13 28 14 29 15 30 16 31 77 32 17 33 76 34
REMARK SMILES IDX 18 35 19 36 20 37 70 38 21 39 75 40 69 41 71 42 22 43 74 44
REMARK SMILES IDX 68 45 67 46 23 48 55 49 35 50 54 51 36 52 39 53 53 54 72 55
REMARK SMILES IDX 37 56 38 57 52 59 73 60 40 61 24 62 25 63 33 64 26 65 27 66
REMARK SMILES IDX 31 67 34 68 28 69 29 70 32 71 30 72 56 73 57 74 65 75 58 76
REMARK SMILES IDX 59 77 63 78 66 79 60 80 61 81 64 82 62 83 41 84 42 85 50 86
REMARK SMILES IDX 43 87 44 88 48 89 51 90 45 91 46 92 49 93 47 94
REMARK H PARENT 91 14 71 47 39 58
REMARK Flexibility Score: inf
ROOT
ATOM      1  C   UNL A   1      42.316  20.818  26.440  1.00  0.00     0.202 C 
ENDROOT
BRANCH   1   2
ATOM      2  O   UNL A   1      42.630  21.577  25.277  1.00  0.00    -0.374 OA
BRANCH   2   3
ATOM      3  C   UNL A   1      43.816  22.369  25.215  1.00  0.00     0.202 C 
BRANCH   3   4
ATOM      4  C   UNL A   1      43.840  23.608  24.316  1.00  0.00     0.261 C 
BRANCH   4   5
ATOM      5  O   UNL A   1      45.087  24.319  24.378  1.00  0.00    -0.460 OA
BRANCH   5   6
ATOM      6  C   UNL A   1      45.069  25.426  25.161  1.00  0.00     0.338 C 
ATOM      7  O   UNL A   1      44.071  26.056  25.492  1.00  0.00    -0.246 OA
BRANCH   6   8
ATOM      8  C   UNL A   1      46.424  25.747  25.638  1.00  0.00     0.085 C 
ATOM      9  C   UNL A   1      46.521  27.787  24.139  1.00  0.00     0.065 C 
ATOM     10  C   UNL A   1      47.084  26.830  25.159  1.00  0.00     0.028 C 
ATOM     11  N   UNL A   1      48.364  27.114  25.614  1.00  0.00    -0.328 N 
ATOM     12  C   UNL A   1      47.057  24.792  26.654  1.00  0.00     0.181 C 
ATOM     13  C   UNL A   1      49.042  26.320  26.461  1.00  0.00     0.226 A 
ATOM     14  H   UNL A   1      48.798  27.941  25.300  1.00  0.00     0.169 HD
ATOM     15  N   UNL A   1      48.449  25.181  26.936  1.00  0.00    -0.219 N 
ATOM     16  N   UNL A   1      50.251  26.420  26.950  1.00  0.00    -0.200 NA
ATOM     17  N   UNL A   1      49.316  24.455  27.676  1.00  0.00    -0.157 NA
ATOM     18  C   UNL A   1      50.376  25.270  27.687  1.00  0.00     0.248 A 
BRANCH  12  19
ATOM     19  C   UNL A   1      46.249  24.609  27.941  1.00  0.00    -0.018 A 
ATOM     20  C   UNL A   1      45.501  23.448  28.207  1.00  0.00     0.008 A 
ATOM     21  C   UNL A   1      46.284  25.615  28.928  1.00  0.00     0.008 A 
ATOM     22  C   UNL A   1      44.830  23.291  29.424  1.00  0.00     0.021 A 
ATOM     23  C   UNL A   1      45.643  25.441  30.157  1.00  0.00     0.021 A 
ATOM     24  C   UNL A   1      44.923  24.278  30.401  1.00  0.00     0.041 A 
ATOM     25  Cl  UNL A   1      44.154  24.049  31.922  1.00  0.00    -0.084 Cl
ENDBRANCH  12  19
ENDBRANCH   6   8
ENDBRANCH   5   6
ENDBRANCH   4   5
ENDBRANCH   3   4
ENDBRANCH   2   3
ENDBRANCH   1   2
BRANCH   1  26
ATOM     26  C   UNL A   1      40.894  20.851  26.989  1.00  0.00     0.261 C 
BRANCH  26  27
ATOM     27  O   UNL A   1      40.671  22.017  27.763  1.00  0.00    -0.460 OA
BRANCH  27  28
ATOM     28  C   UNL A   1      40.029  22.993  27.098  1.00  0.00     0.338 C 
ATOM     29  O   UNL A   1      38.883  22.956  26.645  1.00  0.00    -0.246 OA
BRANCH  28  30
ATOM     30  C   UNL A   1      40.939  24.121  26.891  1.00  0.00     0.060 A 
ATOM     31  C   UNL A   1      41.917  24.257  27.878  1.00  0.00     0.016 A 
ATOM     32  C   UNL A   1      40.474  25.202  26.131  1.00  0.00     0.016 A 
ATOM     33  C   UNL A   1      42.121  25.514  28.383  1.00  0.00     0.010 A 
ATOM     34  C   UNL A   1      40.653  26.452  26.654  1.00  0.00     0.010 A 
ATOM     35  C   UNL A   1      41.373  26.562  27.842  1.00  0.00    -0.014 A 
BRANCH  35  36
ATOM     36  C   UNL A   1      41.355  27.804  28.570  1.00  0.00     0.031 A 
ATOM     37  C   UNL A   1      42.509  28.661  28.254  1.00  0.00     0.074 A 
ATOM     38  C   UNL A   1      40.319  28.142  29.355  1.00  0.00     0.049 A 
ATOM     39  N   UNL A   1      43.498  28.982  29.018  1.00  0.00    -0.248 NA
ATOM     40  C   UNL A   1      42.680  29.042  26.844  1.00  0.00     0.031 C 
ATOM     41  C   UNL A   1      39.008  27.498  29.471  1.00  0.00     0.029 A 
ATOM     42  N   UNL A   1      40.194  29.236  30.146  1.00  0.00    -0.354 N 
ATOM     43  C   UNL A   1      44.329  29.763  28.224  1.00  0.00     0.074 A 
ATOM     44  C   UNL A   1      43.906  29.557  26.868  1.00  0.00     0.031 C 
ATOM     45  C   UNL A   1      38.155  28.346  30.092  1.00  0.00     0.029 A 
ATOM     46  C   UNL A   1      38.890  29.527  30.511  1.00  0.00     0.049 A 
ATOM     47  H   UNL A   1      40.963  29.779  30.435  1.00  0.00     0.167 HD
ATOM     48  C   UNL A   1      45.106  30.736  28.768  1.00  0.00     0.037 A 
ATOM     49  C   UNL A   1      38.474  30.723  30.996  1.00  0.00     0.037 A 
ATOM     50  C   UNL A   1      45.284  30.522  30.183  1.00  0.00     0.049 A 
ATOM     51  C   UNL A   1      39.688  31.460  31.458  1.00  0.00     0.074 A 
ATOM     52  C   UNL A   1      45.819  29.501  30.945  1.00  0.00     0.029 A 
ATOM     53  N   UNL A   1      44.539  31.282  31.053  1.00  0.00    -0.354 N 
ATOM     54  N   UNL A   1      40.407  31.104  32.489  1.00  0.00    -0.248 NA
ATOM     55  C   UNL A   1      40.372  32.307  30.488  1.00  0.00     0.031 C 
ATOM     56  C   UNL A   1      44.997  29.431  32.107  1.00  0.00     0.029 A 
ATOM     57  C   UNL A   1      44.038  30.439  32.009  1.00  0.00     0.049 A 
ATOM     58  H   UNL A   1      44.393  32.254  30.998  1.00  0.00     0.167 HD
ATOM     59  C   UNL A   1      41.723  31.341  32.109  1.00  0.00     0.074 A 
ATOM     60  C   UNL A   1      41.634  32.147  30.895  1.00  0.00     0.031 C 
ATOM     61  C   UNL A   1      42.754  30.621  32.641  1.00  0.00     0.037 A 
BRANCH  48  62
ATOM     62  C   UNL A   1      45.352  32.077  28.110  1.00  0.00     0.064 A 
ATOM     63  C   UNL A   1      44.236  32.857  27.752  1.00  0.00     0.173 A 
ATOM     64  C   UNL A   1      46.582  32.493  27.548  1.00  0.00     0.173 A 
ATOM     65  F   UNL A   1      43.017  32.570  28.234  1.00  0.00    -0.203 F 
ATOM     66  C   UNL A   1      44.323  33.883  26.809  1.00  0.00     0.198 A 
ATOM     67  C   UNL A   1      46.674  33.553  26.651  1.00  0.00     0.198 A 
ATOM     68  F   UNL A   1      47.733  31.845  27.746  1.00  0.00    -0.203 F 
ATOM     69  F   UNL A   1      43.207  34.494  26.392  1.00  0.00    -0.200 F 
ATOM     70  C   UNL A   1      45.540  34.220  26.248  1.00  0.00     0.200 A 
ATOM     71  F   UNL A   1      47.865  33.860  26.117  1.00  0.00    -0.200 F 
ATOM     72  F   UNL A   1      45.616  35.151  25.289  1.00  0.00    -0.200 F 
ENDBRANCH  48  62
BRANCH  49  73
ATOM     73  C   UNL A   1      37.180  31.398  30.731  1.00  0.00     0.064 A 
ATOM     74  C   UNL A   1      36.284  31.678  31.773  1.00  0.00     0.173 A 
ATOM     75  C   UNL A   1      36.905  32.009  29.490  1.00  0.00     0.173 A 
ATOM     76  F   UNL A   1      36.502  31.181  33.000  1.00  0.00    -0.203 F 
ATOM     77  C   UNL A   1      35.184  32.525  31.588  1.00  0.00     0.198 A 
ATOM     78  C   UNL A   1      35.803  32.843  29.303  1.00  0.00     0.198 A 
ATOM     79  F   UNL A   1      37.750  31.886  28.456  1.00  0.00    -0.203 F 
ATOM     80  F   UNL A   1      34.381  32.813  32.621  1.00  0.00    -0.200 F 
ATOM     81  C   UNL A   1      34.948  33.110  30.355  1.00  0.00     0.200 A 
ATOM     82  F   UNL A   1      35.611  33.432  28.114  1.00  0.00    -0.200 F 
ATOM     83  F   UNL A   1      33.927  33.962  30.191  1.00  0.00    -0.200 F 
ENDBRANCH  49  73
BRANCH  61  84
ATOM     84  C   UNL A   1      42.465  29.740  33.821  1.00  0.00     0.064 A 
ATOM     85  C   UNL A   1      41.983  28.425  33.705  1.00  0.00     0.173 A 
ATOM     86  C   UNL A   1      42.874  30.172  35.089  1.00  0.00     0.173 A 
ATOM     87  F   UNL A   1      41.669  27.912  32.509  1.00  0.00    -0.203 F 
ATOM     88  C   UNL A   1      41.889  27.592  34.818  1.00  0.00     0.198 A 
ATOM     89  C   UNL A   1      42.813  29.326  36.192  1.00  0.00     0.198 A 
ATOM     90  F   UNL A   1      43.396  31.399  35.244  1.00  0.00    -0.203 F 
ATOM     91  F   UNL A   1      41.430  26.340  34.683  1.00  0.00    -0.200 F 
ATOM     92  C   UNL A   1      42.315  28.040  36.058  1.00  0.00     0.200 A 
ATOM     93  F   UNL A   1      43.273  29.746  37.379  1.00  0.00    -0.200 F 
ATOM     94  F   UNL A   1      42.278  27.220  37.118  1.00  0.00    -0.200 F 
ENDBRANCH  61  84
ENDBRANCH  35  36
ENDBRANCH  28  30
ENDBRANCH  27  28
ENDBRANCH  26  27
ENDBRANCH   1  26
TORSDOF 15
ENDMDL
MODEL 3
REMARK VINA RESULT:     -12.0      1.749      2.742
REMARK SMILES CC1=C(C(=O)OCCOCCOC(=O)c2ccc(-c3c4nc(c(-c5c(F)c(F)c(F)c(F)c5F)c5ccc([nH]5)c(-c5c(F)c(F)c(F)c(F)c5F)c5nc(c(-c6c(F)c(F)c(F)c(F)c6F)c6ccc3[nH]6)C=C5)C=C4)cc2)[C@H](c2ccc(Cl)cc2)n2ncnc2N1
REMARK SMILES IDX 10 1 9 2 8 3 7 4 6 5 4 6 5 7 3 8 1 9 2 10 91 11 78 12 90 13
REMARK SMILES IDX 86 15 89 16 87 17 88 18 79 19 80 20 85 21 81 22 84 23 82 24
REMARK SMILES IDX 83 25 11 26 12 27 13 28 14 29 15 30 16 31 77 32 17 33 76 34
REMARK SMILES IDX 18 35 19 36 20 37 70 38 21 39 75 40 69 41 71 42 22 43 74 44
REMARK SMILES IDX 68 45 67 46 23 48 55 49 35 50 54 51 36 52 39 53 53 54 72 55
REMARK SMILES IDX 37 56 38 57 52 59 73 60 40 61 24 62 25 63 33 64 26 65 27 66
REMARK SMILES IDX 31 67 34 68 28 69 29 70 32 71 30 72 56 73 57 74 65 75 58 76
REMARK SMILES IDX 59 77 63 78 66 79 60 80 61 81 64 82 62 83 41 84 42 85 50 86
REMARK SMILES IDX 43 87 44 88 48 89 51 90 45 91 46 92 49 93 47 94
REMARK H PARENT 91 14 71 47 39 58
REMARK Flexibility Score: inf
ROOT
ATOM      1  C   UNL A   1      39.851  21.188  26.239  1.00  0.00     0.202 C 
ENDROOT
BRANCH   1   2
ATOM      2  O   UNL A   1      39.978  22.602  26.345  1.00  0.00    -0.374 OA
BRANCH   2   3
ATOM      3  C   UNL A   1      38.825  23.444  26.353  1.00  0.00     0.202 C 
BRANCH   3   4
ATOM      4  C   UNL A   1      37.486  22.882  25.870  1.00  0.00     0.261 C 
BRANCH   4   5
ATOM      5  O   UNL A   1      36.386  23.773  26.114  1.00  0.00    -0.460 OA
BRANCH   5   6
ATOM      6  C   UNL A   1      35.165  23.184  26.092  1.00  0.00     0.338 C 
ATOM      7  O   UNL A   1      34.635  22.593  27.027  1.00  0.00    -0.246 OA
BRANCH   6   8
ATOM      8  C   UNL A   1      34.503  23.408  24.796  1.00  0.00     0.085 C 
ATOM      9  C   UNL A   1      34.144  20.918  24.495  1.00  0.00     0.065 C 
ATOM     10  C   UNL A   1      34.041  22.361  24.069  1.00  0.00     0.028 C 
ATOM     11  N   UNL A   1      33.426  22.589  22.846  1.00  0.00    -0.328 N 
ATOM     12  C   UNL A   1      34.398  24.852  24.300  1.00  0.00     0.181 C 
ATOM     13  C   UNL A   1      33.327  23.806  22.283  1.00  0.00     0.226 A 
ATOM     14  H   UNL A   1      33.043  21.819  22.365  1.00  0.00     0.169 HD
ATOM     15  N   UNL A   1      33.825  24.896  22.945  1.00  0.00    -0.219 N 
ATOM     16  N   UNL A   1      32.821  24.183  21.137  1.00  0.00    -0.200 NA
ATOM     17  N   UNL A   1      33.741  26.008  22.181  1.00  0.00    -0.157 NA
ATOM     18  C   UNL A   1      33.087  25.529  21.116  1.00  0.00     0.248 A 
BRANCH  12  19
ATOM     19  C   UNL A   1      33.666  25.799  25.255  1.00  0.00    -0.018 A 
ATOM     20  C   UNL A   1      34.261  26.964  25.772  1.00  0.00     0.008 A 
ATOM     21  C   UNL A   1      32.326  25.530  25.602  1.00  0.00     0.008 A 
ATOM     22  C   UNL A   1      33.537  27.837  26.588  1.00  0.00     0.021 A 
ATOM     23  C   UNL A   1      31.592  26.422  26.388  1.00  0.00     0.021 A 
ATOM     24  C   UNL A   1      32.200  27.574  26.874  1.00  0.00     0.041 A 
ATOM     25  Cl  UNL A   1      31.293  28.688  27.820  1.00  0.00    -0.084 Cl
ENDBRANCH  12  19
ENDBRANCH   6   8
ENDBRANCH   5   6
ENDBRANCH   4   5
ENDBRANCH   3   4
ENDBRANCH   2   3
ENDBRANCH   1   2
BRANCH   1  26
ATOM     26  C   UNL A   1      41.098  20.318  26.354  1.00  0.00     0.261 C 
BRANCH  26  27
ATOM     27  O   UNL A   1      42.248  21.105  26.612  1.00  0.00    -0.460 OA
BRANCH  27  28
ATOM     28  C   UNL A   1      43.213  20.974  25.684  1.00  0.00     0.338 C 
ATOM     29  O   UNL A   1      43.559  19.938  25.112  1.00  0.00    -0.246 OA
BRANCH  28  30
ATOM     30  C   UNL A   1      43.891  22.257  25.502  1.00  0.00     0.060 A 
ATOM     31  C   UNL A   1      44.828  22.557  26.494  1.00  0.00     0.016 A 
ATOM     32  C   UNL A   1      43.227  23.246  24.765  1.00  0.00     0.016 A 
ATOM     33  C   UNL A   1      44.791  23.818  27.025  1.00  0.00     0.010 A 
ATOM     34  C   UNL A   1      43.166  24.497  25.315  1.00  0.00     0.010 A 
ATOM     35  C   UNL A   1      43.855  24.716  26.506  1.00  0.00    -0.014 A 
BRANCH  35  36
ATOM     36  C   UNL A   1      43.604  25.916  27.260  1.00  0.00     0.031 A 
ATOM     37  C   UNL A   1      44.577  26.981  26.970  1.00  0.00     0.074 A 
ATOM     38  C   UNL A   1      42.521  26.037  28.046  1.00  0.00     0.049 A 
ATOM     39  N   UNL A   1      45.486  27.464  27.747  1.00  0.00    -0.248 NA
ATOM     40  C   UNL A   1      44.676  27.418  25.570  1.00  0.00     0.031 C 
ATOM     41  C   UNL A   1      41.353  25.156  28.140  1.00  0.00     0.029 A 
ATOM     42  N   UNL A   1      42.190  27.070  28.859  1.00  0.00    -0.354 N 
ATOM     43  C   UNL A   1      46.158  28.405  26.975  1.00  0.00     0.074 A 
ATOM     44  C   UNL A   1      45.785  28.154  25.613  1.00  0.00     0.031 C 
ATOM     45  C   UNL A   1      40.354  25.815  28.773  1.00  0.00     0.029 A 
ATOM     46  C   UNL A   1      40.854  27.103  29.222  1.00  0.00     0.049 A 
ATOM     47  H   UNL A   1      42.844  27.740  29.165  1.00  0.00     0.167 HD
ATOM     48  C   UNL A   1      46.738  29.493  27.545  1.00  0.00     0.037 A 
ATOM     49  C   UNL A   1      40.221  28.190  29.730  1.00  0.00     0.037 A 
ATOM     50  C   UNL A   1      46.949  29.285  28.957  1.00  0.00     0.049 A 
ATOM     51  C   UNL A   1      41.274  29.130  30.215  1.00  0.00     0.074 A 
ATOM     52  C   UNL A   1      47.665  28.365  29.700  1.00  0.00     0.029 A 
ATOM     53  N   UNL A   1      46.074  29.873  29.838  1.00  0.00    -0.354 N 
ATOM     54  N   UNL A   1      42.045  28.892  31.244  1.00  0.00    -0.248 NA
ATOM     55  C   UNL A   1      41.789  30.112  29.268  1.00  0.00     0.031 C 
ATOM     56  C   UNL A   1      46.868  28.117  30.855  1.00  0.00     0.029 A 
ATOM     57  C   UNL A   1      45.738  28.930  30.773  1.00  0.00     0.049 A 
ATOM     58  H   UNL A   1      45.748  30.801  29.803  1.00  0.00     0.167 HD
ATOM     59  C   UNL A   1      43.294  29.379  30.877  1.00  0.00     0.074 A 
ATOM     60  C   UNL A   1      43.058  30.182  29.680  1.00  0.00     0.031 C 
ATOM     61  C   UNL A   1      44.440  28.853  31.400  1.00  0.00     0.037 A 
BRANCH  48  62
ATOM     62  C   UNL A   1      46.730  30.871  26.918  1.00  0.00     0.064 A 
ATOM     63  C   UNL A   1      47.943  31.584  26.866  1.00  0.00     0.173 A 
ATOM     64  C   UNL A   1      45.571  31.636  26.651  1.00  0.00     0.173 A 
ATOM     65  F   UNL A   1      49.112  30.964  27.087  1.00  0.00    -0.203 F 
ATOM     66  C   UNL A   1      47.980  32.969  26.690  1.00  0.00     0.198 A 
ATOM     67  C   UNL A   1      45.616  33.008  26.421  1.00  0.00     0.198 A 
ATOM     68  F   UNL A   1      44.335  31.133  26.700  1.00  0.00    -0.203 F 
ATOM     69  F   UNL A   1      49.145  33.619  26.798  1.00  0.00    -0.200 F 
ATOM     70  C   UNL A   1      46.814  33.682  26.483  1.00  0.00     0.200 A 
ATOM     71  F   UNL A   1      44.472  33.678  26.225  1.00  0.00    -0.200 F 
ATOM     72  F   UNL A   1      46.837  35.017  26.390  1.00  0.00    -0.200 F 
ENDBRANCH  48  62
BRANCH  49  73
ATOM     73  C   UNL A   1      38.824  28.616  29.471  1.00  0.00     0.064 A 
ATOM     74  C   UNL A   1      37.930  28.844  30.528  1.00  0.00     0.173 A 
ATOM     75  C   UNL A   1      38.408  29.052  28.196  1.00  0.00     0.173 A 
ATOM     76  F   UNL A   1      38.270  28.509  31.781  1.00  0.00    -0.203 F 
ATOM     77  C   UNL A   1      36.699  29.479  30.324  1.00  0.00     0.198 A 
ATOM     78  C   UNL A   1      37.177  29.673  27.991  1.00  0.00     0.198 A 
ATOM     79  F   UNL A   1      39.226  28.971  27.137  1.00  0.00    -0.203 F 
ATOM     80  F   UNL A   1      35.895  29.730  31.366  1.00  0.00    -0.200 F 
ATOM     81  C   UNL A   1      36.326  29.897  29.057  1.00  0.00     0.200 A 
ATOM     82  F   UNL A   1      36.847  30.107  26.766  1.00  0.00    -0.200 F 
ATOM     83  F   UNL A   1      35.171  30.551  28.869  1.00  0.00    -0.200 F 
ENDBRANCH  49  73
BRANCH  61  84
ATOM     84  C   UNL A   1      44.319  27.908  32.558  1.00  0.00     0.064 A 
ATOM     85  C   UNL A   1      44.106  26.527  32.411  1.00  0.00     0.173 A 
ATOM     86  C   UNL A   1      44.622  28.385  33.841  1.00  0.00     0.173 A 
ATOM     87  F   UNL A   1      43.912  25.988  31.201  1.00  0.00    -0.203 F 
ATOM     88  C   UNL A   1      44.168  25.668  33.507  1.00  0.00     0.198 A 
ATOM     89  C   UNL A   1      44.718  27.521  34.926  1.00  0.00     0.198 A 
ATOM     90  F   UNL A   1      44.891  29.688  34.026  1.00  0.00    -0.203 F 
ATOM     91  F   UNL A   1      43.966  24.353  33.342  1.00  0.00    -0.200 F 
ATOM     92  C   UNL A   1      44.485  26.165  34.761  1.00  0.00     0.200 A 
ATOM     93  F   UNL A   1      45.075  27.997  36.127  1.00  0.00    -0.200 F 
ATOM     94  F   UNL A   1      44.598  25.331  35.805  1.00  0.00    -0.200 F 
ENDBRANCH  61  84
ENDBRANCH  35  36
ENDBRANCH  28  30
ENDBRANCH  27  28
ENDBRANCH  26  27
ENDBRANCH   1  26
TORSDOF 15
ENDMDL
