MODEL 1
REMARK VINA RESULT:     -11.0      0.000      0.000
REMARK SMILES COCCN1C[C@H](C(=O)N2CCC(C(=O)OCCOCCOC(=O)c3ccc(-c4c5nc(c(-c6c(F)c(F)c(F)c(F)c6F)c6ccc([nH]6)c(-c6c(F)c(F)c(F)c(F)c6F)c6nc(c(-c7c(F)c(F)c(F)c(F)c7F)c7ccc4[nH]7)C=C6)C=C5)cc3)CC2)CC1=O
REMARK SMILES IDX 18 1 17 2 16 3 14 4 15 5 13 6 8 7 9 8 10 9 11 10 89 11 12 12
REMARK SMILES IDX 88 13 7 14 5 15 6 16 91 17 90 18 92 19 4 20 3 21 2 22 1 23
REMARK SMILES IDX 19 24 20 25 21 26 22 27 23 28 24 29 25 30 26 31 87 32 27 33
REMARK SMILES IDX 86 34 28 35 29 36 30 37 80 38 31 39 85 40 79 41 81 42 32 43
REMARK SMILES IDX 84 44 78 45 77 46 33 48 65 49 45 50 64 51 46 52 49 53 63 54
REMARK SMILES IDX 82 55 47 56 48 57 62 59 83 60 50 61 34 62 35 63 43 64 36 65
REMARK SMILES IDX 37 66 41 67 44 68 38 69 39 70 42 71 40 72 66 73 67 74 75 75
REMARK SMILES IDX 68 76 69 77 73 78 76 79 70 80 71 81 74 82 72 83 51 84 52 85
REMARK SMILES IDX 60 86 53 87 54 88 58 89 61 90 55 91 56 92 59 93 57 94
REMARK H PARENT 81 47 49 58
REMARK Flexibility Score: inf
ROOT
ATOM      1  C   UNL A   1      43.793  19.123  25.067  1.00  0.00     0.202 C 
ENDROOT
BRANCH   1   2
ATOM      2  C   UNL A   1      42.715  19.439  26.109  1.00  0.00     0.261 C 
BRANCH   2   3
ATOM      3  O   UNL A   1      41.593  20.122  25.529  1.00  0.00    -0.463 OA
BRANCH   3   4
ATOM      4  C   UNL A   1      40.710  20.637  26.422  1.00  0.00     0.309 C 
ATOM      5  O   UNL A   1      40.807  20.555  27.640  1.00  0.00    -0.252 OA
BRANCH   4   6
ATOM      6  C   UNL A   1      39.548  21.344  25.764  1.00  0.00     0.103 C 
ATOM      7  C   UNL A   1      35.655  22.219  26.017  1.00  0.00     0.227 C 
ATOM      8  O   UNL A   1      35.109  21.115  26.059  1.00  0.00    -0.274 OA
ATOM      9  N   UNL A   1      36.905  22.373  25.456  1.00  0.00    -0.342 N 
ATOM     10  C   UNL A   1      37.373  21.328  24.557  1.00  0.00     0.120 C 
ATOM     11  C   UNL A   1      37.935  23.246  26.014  1.00  0.00     0.120 C 
ATOM     12  C   UNL A   1      38.410  20.454  25.246  1.00  0.00     0.037 C 
ATOM     13  C   UNL A   1      38.998  22.403  26.720  1.00  0.00     0.037 C 
BRANCH   7  14
ATOM     14  C   UNL A   1      34.923  23.486  26.441  1.00  0.00     0.107 C 
ATOM     15  N   UNL A   1      33.256  23.735  24.810  1.00  0.00    -0.340 N 
ATOM     16  C   UNL A   1      34.548  24.263  25.188  1.00  0.00     0.133 C 
ATOM     17  C   UNL A   1      32.722  22.945  25.821  1.00  0.00     0.223 C 
ATOM     18  C   UNL A   1      33.579  23.130  27.047  1.00  0.00     0.115 C 
ATOM     19  O   UNL A   1      31.720  22.250  25.800  1.00  0.00    -0.275 OA
BRANCH  15  20
ATOM     20  C   UNL A   1      32.757  23.958  23.455  1.00  0.00     0.148 C 
BRANCH  20  21
ATOM     21  C   UNL A   1      33.757  24.081  22.300  1.00  0.00     0.181 C 
BRANCH  21  22
ATOM     22  O   UNL A   1      33.756  25.379  21.698  1.00  0.00    -0.383 OA
ATOM     23  C   UNL A   1      32.616  25.619  20.886  1.00  0.00     0.194 C 
ENDBRANCH  21  22
ENDBRANCH  20  21
ENDBRANCH  15  20
ENDBRANCH   7  14
ENDBRANCH   4   6
ENDBRANCH   3   4
ENDBRANCH   2   3
ENDBRANCH   1   2
BRANCH   1  24
ATOM     24  O   UNL A   1      44.460  20.213  24.439  1.00  0.00    -0.374 OA
BRANCH  24  25
ATOM     25  C   UNL A   1      45.389  20.968  25.212  1.00  0.00     0.202 C 
BRANCH  25  26
ATOM     26  C   UNL A   1      45.703  22.408  24.772  1.00  0.00     0.261 C 
BRANCH  26  27
ATOM     27  O   UNL A   1      44.977  23.404  25.515  1.00  0.00    -0.460 OA
BRANCH  27  28
ATOM     28  C   UNL A   1      43.743  23.676  25.021  1.00  0.00     0.338 C 
ATOM     29  O   UNL A   1      43.176  23.116  24.097  1.00  0.00    -0.246 OA
BRANCH  28  30
ATOM     30  C   UNL A   1      43.045  24.648  25.882  1.00  0.00     0.060 A 
ATOM     31  C   UNL A   1      43.633  25.911  26.030  1.00  0.00     0.016 A 
ATOM     32  C   UNL A   1      41.907  24.304  26.613  1.00  0.00     0.016 A 
ATOM     33  C   UNL A   1      43.120  26.818  26.953  1.00  0.00     0.010 A 
ATOM     34  C   UNL A   1      41.397  25.215  27.546  1.00  0.00     0.010 A 
ATOM     35  C   UNL A   1      42.026  26.458  27.748  1.00  0.00    -0.014 A 
BRANCH  35  36
ATOM     36  C   UNL A   1      41.637  27.328  28.885  1.00  0.00     0.031 A 
ATOM     37  C   UNL A   1      42.446  27.284  30.153  1.00  0.00     0.074 A 
ATOM     38  C   UNL A   1      40.602  28.181  28.776  1.00  0.00     0.049 A 
ATOM     39  N   UNL A   1      42.270  27.934  31.276  1.00  0.00    -0.248 NA
ATOM     40  C   UNL A   1      43.610  26.385  30.155  1.00  0.00     0.031 C 
ATOM     41  C   UNL A   1      39.772  28.345  27.585  1.00  0.00     0.029 A 
ATOM     42  N   UNL A   1      40.072  29.062  29.684  1.00  0.00    -0.354 N 
ATOM     43  C   UNL A   1      43.289  27.510  32.121  1.00  0.00     0.074 A 
ATOM     44  C   UNL A   1      44.064  26.530  31.391  1.00  0.00     0.031 C 
ATOM     45  C   UNL A   1      38.827  29.267  27.839  1.00  0.00     0.029 A 
ATOM     46  C   UNL A   1      38.964  29.726  29.220  1.00  0.00     0.049 A 
ATOM     47  H   UNL A   1      40.450  29.204  30.582  1.00  0.00     0.167 HD
ATOM     48  C   UNL A   1      43.555  27.910  33.387  1.00  0.00     0.037 A 
ATOM     49  C   UNL A   1      38.139  30.585  29.849  1.00  0.00     0.037 A 
ATOM     50  C   UNL A   1      42.784  28.892  34.105  1.00  0.00     0.049 A 
ATOM     51  C   UNL A   1      38.418  30.964  31.280  1.00  0.00     0.074 A 
ATOM     52  C   UNL A   1      42.993  29.388  35.380  1.00  0.00     0.029 A 
ATOM     53  N   UNL A   1      41.647  29.519  33.614  1.00  0.00    -0.354 N 
ATOM     54  N   UNL A   1      39.399  30.584  32.063  1.00  0.00    -0.248 NA
ATOM     55  C   UNL A   1      37.477  31.897  31.914  1.00  0.00     0.031 C 
ATOM     56  C   UNL A   1      41.947  30.264  35.685  1.00  0.00     0.029 A 
ATOM     57  C   UNL A   1      41.126  30.372  34.574  1.00  0.00     0.049 A 
ATOM     58  H   UNL A   1      41.269  29.380  32.716  1.00  0.00     0.167 HD
ATOM     59  C   UNL A   1      39.211  31.251  33.266  1.00  0.00     0.074 A 
ATOM     60  C   UNL A   1      38.031  32.073  33.105  1.00  0.00     0.031 C 
ATOM     61  C   UNL A   1      39.952  31.191  34.401  1.00  0.00     0.037 A 
BRANCH  48  62
ATOM     62  C   UNL A   1      44.708  27.259  34.098  1.00  0.00     0.064 A 
ATOM     63  C   UNL A   1      45.986  27.836  34.123  1.00  0.00     0.173 A 
ATOM     64  C   UNL A   1      44.516  26.064  34.808  1.00  0.00     0.173 A 
ATOM     65  F   UNL A   1      46.228  28.973  33.453  1.00  0.00    -0.203 F 
ATOM     66  C   UNL A   1      47.034  27.226  34.809  1.00  0.00     0.198 A 
ATOM     67  C   UNL A   1      45.557  25.474  35.519  1.00  0.00     0.198 A 
ATOM     68  F   UNL A   1      43.312  25.472  34.823  1.00  0.00    -0.203 F 
ATOM     69  F   UNL A   1      48.259  27.771  34.781  1.00  0.00    -0.200 F 
ATOM     70  C   UNL A   1      46.817  26.053  35.514  1.00  0.00     0.200 A 
ATOM     71  F   UNL A   1      45.339  24.349  36.213  1.00  0.00    -0.200 F 
ATOM     72  F   UNL A   1      47.823  25.474  36.184  1.00  0.00    -0.200 F 
ENDBRANCH  48  62
BRANCH  49  73
ATOM     73  C   UNL A   1      36.958  31.137  29.131  1.00  0.00     0.064 A 
ATOM     74  C   UNL A   1      35.837  30.341  28.862  1.00  0.00     0.173 A 
ATOM     75  C   UNL A   1      36.933  32.469  28.693  1.00  0.00     0.173 A 
ATOM     76  F   UNL A   1      35.822  29.054  29.239  1.00  0.00    -0.203 F 
ATOM     77  C   UNL A   1      34.742  30.851  28.167  1.00  0.00     0.198 A 
ATOM     78  C   UNL A   1      35.826  32.988  28.026  1.00  0.00     0.198 A 
ATOM     79  F   UNL A   1      37.981  33.273  28.925  1.00  0.00    -0.203 F 
ATOM     80  F   UNL A   1      33.703  30.055  27.879  1.00  0.00    -0.200 F 
ATOM     81  C   UNL A   1      34.735  32.176  27.756  1.00  0.00     0.200 A 
ATOM     82  F   UNL A   1      35.816  34.273  27.646  1.00  0.00    -0.200 F 
ATOM     83  F   UNL A   1      33.679  32.668  27.094  1.00  0.00    -0.200 F 
ENDBRANCH  49  73
BRANCH  61  84
ATOM     84  C   UNL A   1      39.537  32.069  35.549  1.00  0.00     0.064 A 
ATOM     85  C   UNL A   1      38.659  31.621  36.546  1.00  0.00     0.173 A 
ATOM     86  C   UNL A   1      40.061  33.365  35.673  1.00  0.00     0.173 A 
ATOM     87  F   UNL A   1      38.119  30.394  36.471  1.00  0.00    -0.203 F 
ATOM     88  C   UNL A   1      38.297  32.447  37.608  1.00  0.00     0.198 A 
ATOM     89  C   UNL A   1      39.725  34.176  36.754  1.00  0.00     0.198 A 
ATOM     90  F   UNL A   1      40.912  33.843  34.752  1.00  0.00    -0.203 F 
ATOM     91  F   UNL A   1      37.414  32.017  38.519  1.00  0.00    -0.200 F 
ATOM     92  C   UNL A   1      38.837  33.721  37.715  1.00  0.00     0.200 A 
ATOM     93  F   UNL A   1      40.263  35.398  36.865  1.00  0.00    -0.200 F 
ATOM     94  F   UNL A   1      38.494  34.511  38.741  1.00  0.00    -0.200 F 
ENDBRANCH  61  84
ENDBRANCH  35  36
ENDBRANCH  28  30
ENDBRANCH  27  28
ENDBRANCH  26  27
ENDBRANCH  25  26
ENDBRANCH  24  25
ENDBRANCH   1  24
TORSDOF 18
ENDMDL
MODEL 2
REMARK VINA RESULT:     -10.9      1.623      2.209
REMARK SMILES COCCN1C[C@H](C(=O)N2CCC(C(=O)OCCOCCOC(=O)c3ccc(-c4c5nc(c(-c6c(F)c(F)c(F)c(F)c6F)c6ccc([nH]6)c(-c6c(F)c(F)c(F)c(F)c6F)c6nc(c(-c7c(F)c(F)c(F)c(F)c7F)c7ccc4[nH]7)C=C6)C=C5)cc3)CC2)CC1=O
REMARK SMILES IDX 18 1 17 2 16 3 14 4 15 5 13 6 8 7 9 8 10 9 11 10 89 11 12 12
REMARK SMILES IDX 88 13 7 14 5 15 6 16 91 17 90 18 92 19 4 20 3 21 2 22 1 23
REMARK SMILES IDX 19 24 20 25 21 26 22 27 23 28 24 29 25 30 26 31 87 32 27 33
REMARK SMILES IDX 86 34 28 35 29 36 30 37 80 38 31 39 85 40 79 41 81 42 32 43
REMARK SMILES IDX 84 44 78 45 77 46 33 48 65 49 45 50 64 51 46 52 49 53 63 54
REMARK SMILES IDX 82 55 47 56 48 57 62 59 83 60 50 61 34 62 35 63 43 64 36 65
REMARK SMILES IDX 37 66 41 67 44 68 38 69 39 70 42 71 40 72 66 73 67 74 75 75
REMARK SMILES IDX 68 76 69 77 73 78 76 79 70 80 71 81 74 82 72 83 51 84 52 85
REMARK SMILES IDX 60 86 53 87 54 88 58 89 61 90 55 91 56 92 59 93 57 94
REMARK H PARENT 81 47 49 58
REMARK Flexibility Score: inf
ROOT
ATOM      1  C   UNL A   1      40.622  20.887  26.123  1.00  0.00     0.202 C 
ENDROOT
BRANCH   1   2
ATOM      2  C   UNL A   1      39.230  21.487  26.347  1.00  0.00     0.261 C 
BRANCH   2   3
ATOM      3  O   UNL A   1      38.518  21.667  25.113  1.00  0.00    -0.463 OA
BRANCH   3   4
ATOM      4  C   UNL A   1      37.486  20.809  24.915  1.00  0.00     0.309 C 
ATOM      5  O   UNL A   1      37.563  19.587  24.957  1.00  0.00    -0.252 OA
BRANCH   4   6
ATOM      6  C   UNL A   1      36.181  21.512  24.621  1.00  0.00     0.103 C 
ATOM      7  C   UNL A   1      34.199  24.980  24.783  1.00  0.00     0.227 C 
ATOM      8  O   UNL A   1      34.220  25.274  25.979  1.00  0.00    -0.274 OA
ATOM      9  N   UNL A   1      34.334  23.671  24.369  1.00  0.00    -0.342 N 
ATOM     10  C   UNL A   1      34.080  22.626  25.350  1.00  0.00     0.120 C 
ATOM     11  C   UNL A   1      35.111  23.275  23.196  1.00  0.00     0.120 C 
ATOM     12  C   UNL A   1      35.387  22.016  25.833  1.00  0.00     0.037 C 
ATOM     13  C   UNL A   1      36.437  22.658  23.642  1.00  0.00     0.037 C 
BRANCH   7  14
ATOM     14  C   UNL A   1      33.874  26.016  23.714  1.00  0.00     0.107 C 
ATOM     15  N   UNL A   1      31.546  26.254  23.865  1.00  0.00    -0.340 N 
ATOM     16  C   UNL A   1      32.562  25.623  23.052  1.00  0.00     0.133 C 
ATOM     17  C   UNL A   1      32.106  27.168  24.749  1.00  0.00     0.223 C 
ATOM     18  C   UNL A   1      33.552  27.348  24.364  1.00  0.00     0.115 C 
ATOM     19  O   UNL A   1      31.570  27.783  25.655  1.00  0.00    -0.275 OA
BRANCH  15  20
ATOM     20  C   UNL A   1      30.162  25.794  23.771  1.00  0.00     0.148 C 
BRANCH  20  21
ATOM     21  C   UNL A   1      29.023  26.791  24.014  1.00  0.00     0.181 C 
BRANCH  21  22
ATOM     22  O   UNL A   1      28.817  27.681  22.913  1.00  0.00    -0.383 OA
ATOM     23  C   UNL A   1      29.252  29.007  23.175  1.00  0.00     0.194 C 
ENDBRANCH  21  22
ENDBRANCH  20  21
ENDBRANCH  15  20
ENDBRANCH   7  14
ENDBRANCH   4   6
ENDBRANCH   3   4
ENDBRANCH   2   3
ENDBRANCH   1   2
BRANCH   1  24
ATOM     24  O   UNL A   1      41.754  21.648  26.531  1.00  0.00    -0.374 OA
BRANCH  24  25
ATOM     25  C   UNL A   1      43.037  21.252  26.054  1.00  0.00     0.202 C 
BRANCH  25  26
ATOM     26  C   UNL A   1      43.678  22.072  24.922  1.00  0.00     0.261 C 
BRANCH  26  27
ATOM     27  O   UNL A   1      43.040  23.344  24.704  1.00  0.00    -0.460 OA
BRANCH  27  28
ATOM     28  C   UNL A   1      43.790  24.413  25.070  1.00  0.00     0.338 C 
ATOM     29  O   UNL A   1      44.880  24.737  24.628  1.00  0.00    -0.246 OA
BRANCH  28  30
ATOM     30  C   UNL A   1      43.029  25.293  25.974  1.00  0.00     0.060 A 
ATOM     31  C   UNL A   1      43.490  26.608  26.128  1.00  0.00     0.016 A 
ATOM     32  C   UNL A   1      41.960  24.822  26.737  1.00  0.00     0.016 A 
ATOM     33  C   UNL A   1      42.921  27.441  27.086  1.00  0.00     0.010 A 
ATOM     34  C   UNL A   1      41.394  25.660  27.705  1.00  0.00     0.010 A 
ATOM     35  C   UNL A   1      41.899  26.958  27.911  1.00  0.00    -0.014 A 
BRANCH  35  36
ATOM     36  C   UNL A   1      41.465  27.763  29.079  1.00  0.00     0.031 A 
ATOM     37  C   UNL A   1      42.230  27.655  30.370  1.00  0.00     0.074 A 
ATOM     38  C   UNL A   1      40.430  28.616  28.978  1.00  0.00     0.049 A 
ATOM     39  N   UNL A   1      42.010  28.243  31.519  1.00  0.00    -0.248 NA
ATOM     40  C   UNL A   1      43.399  26.762  30.365  1.00  0.00     0.031 C 
ATOM     41  C   UNL A   1      39.640  28.840  27.770  1.00  0.00     0.029 A 
ATOM     42  N   UNL A   1      39.863  29.445  29.913  1.00  0.00    -0.354 N 
ATOM     43  C   UNL A   1      43.002  27.779  32.376  1.00  0.00     0.074 A 
ATOM     44  C   UNL A   1      43.808  26.843  31.623  1.00  0.00     0.031 C 
ATOM     45  C   UNL A   1      38.681  29.742  28.040  1.00  0.00     0.029 A 
ATOM     46  C   UNL A   1      38.767  30.128  29.447  1.00  0.00     0.049 A 
ATOM     47  H   UNL A   1      40.208  29.540  30.830  1.00  0.00     0.167 HD
ATOM     48  C   UNL A   1      43.221  28.112  33.670  1.00  0.00     0.037 A 
ATOM     49  C   UNL A   1      37.915  30.948  30.091  1.00  0.00     0.037 A 
ATOM     50  C   UNL A   1      42.419  29.050  34.412  1.00  0.00     0.049 A 
ATOM     51  C   UNL A   1      38.142  31.251  31.549  1.00  0.00     0.074 A 
ATOM     52  C   UNL A   1      42.581  29.479  35.718  1.00  0.00     0.029 A 
ATOM     53  N   UNL A   1      41.297  29.698  33.915  1.00  0.00    -0.354 N 
ATOM     54  N   UNL A   1      39.097  30.834  32.345  1.00  0.00    -0.248 NA
ATOM     55  C   UNL A   1      37.173  32.145  32.199  1.00  0.00     0.031 C 
ATOM     56  C   UNL A   1      41.519  30.332  36.032  1.00  0.00     0.029 A 
ATOM     57  C   UNL A   1      40.736  30.496  34.901  1.00  0.00     0.049 A 
ATOM     58  H   UNL A   1      40.950  29.606  32.998  1.00  0.00     0.167 HD
ATOM     59  C   UNL A   1      38.863  31.435  33.575  1.00  0.00     0.074 A 
ATOM     60  C   UNL A   1      37.683  32.259  33.417  1.00  0.00     0.031 C 
ATOM     61  C   UNL A   1      39.564  31.317  34.731  1.00  0.00     0.037 A 
BRANCH  48  62
ATOM     62  C   UNL A   1      44.353  27.429  34.386  1.00  0.00     0.064 A 
ATOM     63  C   UNL A   1      45.632  27.999  34.466  1.00  0.00     0.173 A 
ATOM     64  C   UNL A   1      44.138  26.208  35.042  1.00  0.00     0.173 A 
ATOM     65  F   UNL A   1      45.895  29.161  33.848  1.00  0.00    -0.203 F 
ATOM     66  C   UNL A   1      46.659  27.359  35.156  1.00  0.00     0.198 A 
ATOM     67  C   UNL A   1      45.158  25.586  35.758  1.00  0.00     0.198 A 
ATOM     68  F   UNL A   1      42.932  25.621  35.002  1.00  0.00    -0.203 F 
ATOM     69  F   UNL A   1      47.886  27.900  35.182  1.00  0.00    -0.200 F 
ATOM     70  C   UNL A   1      46.419  26.160  35.808  1.00  0.00     0.200 A 
ATOM     71  F   UNL A   1      44.918  24.436  36.401  1.00  0.00    -0.200 F 
ATOM     72  F   UNL A   1      47.406  25.552  36.481  1.00  0.00    -0.200 F 
ENDBRANCH  48  62
BRANCH  49  73
ATOM     73  C   UNL A   1      36.757  31.532  29.363  1.00  0.00     0.064 A 
ATOM     74  C   UNL A   1      35.663  30.741  28.988  1.00  0.00     0.173 A 
ATOM     75  C   UNL A   1      36.726  32.892  29.021  1.00  0.00     0.173 A 
ATOM     76  F   UNL A   1      35.656  29.430  29.270  1.00  0.00    -0.203 F 
ATOM     77  C   UNL A   1      34.590  31.283  28.282  1.00  0.00     0.198 A 
ATOM     78  C   UNL A   1      35.638  33.440  28.344  1.00  0.00     0.198 A 
ATOM     79  F   UNL A   1      37.747  33.693  29.356  1.00  0.00    -0.203 F 
ATOM     80  F   UNL A   1      33.580  30.494  27.892  1.00  0.00    -0.200 F 
ATOM     81  C   UNL A   1      34.576  32.634  27.968  1.00  0.00     0.200 A 
ATOM     82  F   UNL A   1      35.621  34.749  28.057  1.00  0.00    -0.200 F 
ATOM     83  F   UNL A   1      33.540  33.157  27.296  1.00  0.00    -0.200 F 
ENDBRANCH  49  73
BRANCH  61  84
ATOM     84  C   UNL A   1      39.104  32.131  35.908  1.00  0.00     0.064 A 
ATOM     85  C   UNL A   1      38.245  31.604  36.884  1.00  0.00     0.173 A 
ATOM     86  C   UNL A   1      39.563  33.446  36.082  1.00  0.00     0.173 A 
ATOM     87  F   UNL A   1      37.767  30.356  36.761  1.00  0.00    -0.203 F 
ATOM     88  C   UNL A   1      37.841  32.371  37.974  1.00  0.00     0.198 A 
ATOM     89  C   UNL A   1      39.186  34.198  37.191  1.00  0.00     0.198 A 
ATOM     90  F   UNL A   1      40.393  33.998  35.184  1.00  0.00    -0.203 F 
ATOM     91  F   UNL A   1      36.977  31.865  38.865  1.00  0.00    -0.200 F 
ATOM     92  C   UNL A   1      38.318  33.664  38.131  1.00  0.00     0.200 A 
ATOM     93  F   UNL A   1      39.663  35.440  37.350  1.00  0.00    -0.200 F 
ATOM     94  F   UNL A   1      37.935  34.399  39.184  1.00  0.00    -0.200 F 
ENDBRANCH  61  84
ENDBRANCH  35  36
ENDBRANCH  28  30
ENDBRANCH  27  28
ENDBRANCH  26  27
ENDBRANCH  25  26
ENDBRANCH  24  25
ENDBRANCH   1  24
TORSDOF 18
ENDMDL
MODEL 3
REMARK VINA RESULT:     -10.7      1.166      2.359
REMARK SMILES COCCN1C[C@H](C(=O)N2CCC(C(=O)OCCOCCOC(=O)c3ccc(-c4c5nc(c(-c6c(F)c(F)c(F)c(F)c6F)c6ccc([nH]6)c(-c6c(F)c(F)c(F)c(F)c6F)c6nc(c(-c7c(F)c(F)c(F)c(F)c7F)c7ccc4[nH]7)C=C6)C=C5)cc3)CC2)CC1=O
REMARK SMILES IDX 18 1 17 2 16 3 14 4 15 5 13 6 8 7 9 8 10 9 11 10 89 11 12 12
REMARK SMILES IDX 88 13 7 14 5 15 6 16 91 17 90 18 92 19 4 20 3 21 2 22 1 23
REMARK SMILES IDX 19 24 20 25 21 26 22 27 23 28 24 29 25 30 26 31 87 32 27 33
REMARK SMILES IDX 86 34 28 35 29 36 30 37 80 38 31 39 85 40 79 41 81 42 32 43
REMARK SMILES IDX 84 44 78 45 77 46 33 48 65 49 45 50 64 51 46 52 49 53 63 54
REMARK SMILES IDX 82 55 47 56 48 57 62 59 83 60 50 61 34 62 35 63 43 64 36 65
REMARK SMILES IDX 37 66 41 67 44 68 38 69 39 70 42 71 40 72 66 73 67 74 75 75
REMARK SMILES IDX 68 76 69 77 73 78 76 79 70 80 71 81 74 82 72 83 51 84 52 85
REMARK SMILES IDX 60 86 53 87 54 88 58 89 61 90 55 91 56 92 59 93 57 94
REMARK H PARENT 81 47 49 58
REMARK Flexibility Score: inf
ROOT
ATOM      1  C   UNL A   1      40.634  20.966  26.832  1.00  0.00     0.202 C 
ENDROOT
BRANCH   1   2
ATOM      2  C   UNL A   1      39.538  22.033  26.767  1.00  0.00     0.261 C 
BRANCH   2   3
ATOM      3  O   UNL A   1      39.056  22.226  25.428  1.00  0.00    -0.463 OA
BRANCH   3   4
ATOM      4  C   UNL A   1      37.862  21.640  25.157  1.00  0.00     0.309 C 
ATOM      5  O   UNL A   1      37.650  20.433  25.155  1.00  0.00    -0.252 OA
BRANCH   4   6
ATOM      6  C   UNL A   1      36.772  22.637  24.840  1.00  0.00     0.103 C 
ATOM      7  C   UNL A   1      32.938  23.618  25.409  1.00  0.00     0.227 C 
ATOM      8  O   UNL A   1      32.320  22.638  24.993  1.00  0.00    -0.274 OA
ATOM      9  N   UNL A   1      34.215  23.895  24.966  1.00  0.00    -0.342 N 
ATOM     10  C   UNL A   1      34.644  23.275  23.721  1.00  0.00     0.120 C 
ATOM     11  C   UNL A   1      35.280  24.386  25.838  1.00  0.00     0.120 C 
ATOM     12  C   UNL A   1      35.597  22.122  23.998  1.00  0.00     0.037 C 
ATOM     13  C   UNL A   1      36.260  23.253  26.143  1.00  0.00     0.037 C 
BRANCH   7  14
ATOM     14  C   UNL A   1      32.277  24.653  26.310  1.00  0.00     0.107 C 
ATOM     15  N   UNL A   1      31.842  26.448  24.865  1.00  0.00    -0.340 N 
ATOM     16  C   UNL A   1      32.768  26.032  25.895  1.00  0.00     0.133 C 
ATOM     17  C   UNL A   1      30.735  25.609  24.816  1.00  0.00     0.223 C 
ATOM     18  C   UNL A   1      30.788  24.712  26.027  1.00  0.00     0.115 C 
ATOM     19  O   UNL A   1      29.828  25.587  24.002  1.00  0.00    -0.275 OA
BRANCH  15  20
ATOM     20  C   UNL A   1      32.211  27.539  23.965  1.00  0.00     0.148 C 
BRANCH  20  21
ATOM     21  C   UNL A   1      31.942  27.392  22.463  1.00  0.00     0.181 C 
BRANCH  21  22
ATOM     22  O   UNL A   1      33.037  26.801  21.756  1.00  0.00    -0.383 OA
ATOM     23  C   UNL A   1      32.721  25.537  21.190  1.00  0.00     0.194 C 
ENDBRANCH  21  22
ENDBRANCH  20  21
ENDBRANCH  15  20
ENDBRANCH   7  14
ENDBRANCH   4   6
ENDBRANCH   3   4
ENDBRANCH   2   3
ENDBRANCH   1   2
BRANCH   1  24
ATOM     24  O   UNL A   1      41.553  20.880  25.747  1.00  0.00    -0.374 OA
BRANCH  24  25
ATOM     25  C   UNL A   1      42.933  21.111  26.015  1.00  0.00     0.202 C 
BRANCH  25  26
ATOM     26  C   UNL A   1      43.768  21.845  24.953  1.00  0.00     0.261 C 
BRANCH  26  27
ATOM     27  O   UNL A   1      43.217  23.118  24.570  1.00  0.00    -0.460 OA
BRANCH  27  28
ATOM     28  C   UNL A   1      43.971  24.184  24.938  1.00  0.00     0.338 C 
ATOM     29  O   UNL A   1      45.069  24.497  24.507  1.00  0.00    -0.246 OA
BRANCH  28  30
ATOM     30  C   UNL A   1      43.207  25.075  25.829  1.00  0.00     0.060 A 
ATOM     31  C   UNL A   1      43.663  26.394  25.963  1.00  0.00     0.016 A 
ATOM     32  C   UNL A   1      42.139  24.612  26.599  1.00  0.00     0.016 A 
ATOM     33  C   UNL A   1      43.091  27.239  26.908  1.00  0.00     0.010 A 
ATOM     34  C   UNL A   1      41.570  25.462  27.554  1.00  0.00     0.010 A 
ATOM     35  C   UNL A   1      42.070  26.765  27.740  1.00  0.00    -0.014 A 
BRANCH  35  36
ATOM     36  C   UNL A   1      41.634  27.587  28.896  1.00  0.00     0.031 A 
ATOM     37  C   UNL A   1      42.413  27.519  30.181  1.00  0.00     0.074 A 
ATOM     38  C   UNL A   1      40.582  28.418  28.788  1.00  0.00     0.049 A 
ATOM     39  N   UNL A   1      42.194  28.126  31.320  1.00  0.00    -0.248 NA
ATOM     40  C   UNL A   1      43.598  26.647  30.182  1.00  0.00     0.031 C 
ATOM     41  C   UNL A   1      39.776  28.603  27.584  1.00  0.00     0.029 A 
ATOM     42  N   UNL A   1      40.009  29.256  29.712  1.00  0.00    -0.354 N 
ATOM     43  C   UNL A   1      43.202  27.699  32.176  1.00  0.00     0.074 A 
ATOM     44  C   UNL A   1      44.018  26.762  31.434  1.00  0.00     0.031 C 
ATOM     45  C   UNL A   1      38.804  29.494  27.845  1.00  0.00     0.029 A 
ATOM     46  C   UNL A   1      38.897  29.910  29.243  1.00  0.00     0.049 A 
ATOM     47  H   UNL A   1      40.362  29.377  30.623  1.00  0.00     0.167 HD
ATOM     48  C   UNL A   1      43.428  28.062  33.461  1.00  0.00     0.037 A 
ATOM     49  C   UNL A   1      38.037  30.728  29.879  1.00  0.00     0.037 A 
ATOM     50  C   UNL A   1      42.617  29.001  34.191  1.00  0.00     0.049 A 
ATOM     51  C   UNL A   1      38.272  31.065  31.328  1.00  0.00     0.074 A 
ATOM     52  C   UNL A   1      42.783  29.459  35.486  1.00  0.00     0.029 A 
ATOM     53  N   UNL A   1      41.478  29.618  33.692  1.00  0.00    -0.354 N 
ATOM     54  N   UNL A   1      39.242  30.681  32.122  1.00  0.00    -0.248 NA
ATOM     55  C   UNL A   1      37.294  31.954  31.969  1.00  0.00     0.031 C 
ATOM     56  C   UNL A   1      41.709  30.300  35.794  1.00  0.00     0.029 A 
ATOM     57  C   UNL A   1      40.913  30.426  34.667  1.00  0.00     0.049 A 
ATOM     58  H   UNL A   1      41.124  29.500  32.782  1.00  0.00     0.167 HD
ATOM     59  C   UNL A   1      39.010  31.304  33.341  1.00  0.00     0.074 A 
ATOM     60  C   UNL A   1      37.814  32.103  33.179  1.00  0.00     0.031 C 
ATOM     61  C   UNL A   1      39.724  31.223  34.492  1.00  0.00     0.037 A 
BRANCH  48  62
ATOM     62  C   UNL A   1      44.579  27.415  34.178  1.00  0.00     0.064 A 
ATOM     63  C   UNL A   1      45.849  28.008  34.233  1.00  0.00     0.173 A 
ATOM     64  C   UNL A   1      44.393  26.204  34.864  1.00  0.00     0.173 A 
ATOM     65  F   UNL A   1      46.085  29.160  33.587  1.00  0.00    -0.203 F 
ATOM     66  C   UNL A   1      46.894  27.401  34.925  1.00  0.00     0.198 A 
ATOM     67  C   UNL A   1      45.430  25.617  35.581  1.00  0.00     0.198 A 
ATOM     68  F   UNL A   1      43.197  25.596  34.850  1.00  0.00    -0.203 F 
ATOM     69  F   UNL A   1      48.111  27.963  34.925  1.00  0.00    -0.200 F 
ATOM     70  C   UNL A   1      46.682  26.212  35.606  1.00  0.00     0.200 A 
ATOM     71  F   UNL A   1      45.218  24.477  36.252  1.00  0.00    -0.200 F 
ATOM     72  F   UNL A   1      47.686  25.636  36.281  1.00  0.00    -0.200 F 
ENDBRANCH  48  62
BRANCH  49  73
ATOM     73  C   UNL A   1      36.861  31.275  29.150  1.00  0.00     0.064 A 
ATOM     74  C   UNL A   1      36.798  32.627  28.787  1.00  0.00     0.173 A 
ATOM     75  C   UNL A   1      35.772  30.457  28.811  1.00  0.00     0.173 A 
ATOM     76  F   UNL A   1      37.802  33.455  29.110  1.00  0.00    -0.203 F 
ATOM     77  C   UNL A   1      35.684  33.144  28.128  1.00  0.00     0.198 A 
ATOM     78  C   UNL A   1      34.674  30.968  28.124  1.00  0.00     0.198 A 
ATOM     79  F   UNL A   1      35.782  29.157  29.136  1.00  0.00    -0.203 F 
ATOM     80  F   UNL A   1      35.628  34.451  27.836  1.00  0.00    -0.200 F 
ATOM     81  C   UNL A   1      34.627  32.313  27.790  1.00  0.00     0.200 A 
ATOM     82  F   UNL A   1      33.662  30.158  27.785  1.00  0.00    -0.200 F 
ATOM     83  F   UNL A   1      33.559  32.810  27.150  1.00  0.00    -0.200 F 
ENDBRANCH  49  73
BRANCH  61  84
ATOM     84  C   UNL A   1      39.261  32.052  35.657  1.00  0.00     0.064 A 
ATOM     85  C   UNL A   1      39.623  33.400  35.799  1.00  0.00     0.173 A 
ATOM     86  C   UNL A   1      38.408  31.499  36.625  1.00  0.00     0.173 A 
ATOM     87  F   UNL A   1      40.446  33.976  34.909  1.00  0.00    -0.203 F 
ATOM     88  C   UNL A   1      39.173  34.154  36.880  1.00  0.00     0.198 A 
ATOM     89  C   UNL A   1      37.931  32.265  37.685  1.00  0.00     0.198 A 
ATOM     90  F   UNL A   1      38.023  30.217  36.535  1.00  0.00    -0.203 F 
ATOM     91  F   UNL A   1      39.576  35.424  37.024  1.00  0.00    -0.200 F 
ATOM     92  C   UNL A   1      38.321  33.588  37.818  1.00  0.00     0.200 A 
ATOM     93  F   UNL A   1      37.094  31.721  38.579  1.00  0.00    -0.200 F 
ATOM     94  F   UNL A   1      37.882  34.317  38.853  1.00  0.00    -0.200 F 
ENDBRANCH  61  84
ENDBRANCH  35  36
ENDBRANCH  28  30
ENDBRANCH  27  28
ENDBRANCH  26  27
ENDBRANCH  25  26
ENDBRANCH  24  25
ENDBRANCH   1  24
TORSDOF 18
ENDMDL
