MODEL 1
REMARK VINA RESULT:     -11.0      0.000      0.000
REMARK SMILES CC(C)Oc1ccc([C@H](O)[C@H](F)C(=O)OCCOCCOC(=O)c2ccc(-c3c4nc(c(-c5c(F)c(F)c(F)c(F)c5F)c5ccc([nH]5)c(-c5c(F)c(F)c(F)c(F)c5F)c5nc(c(-c6c(F)c(F)c(F)c(F)c6F)c6ccc3[nH]6)C=C5)C=C4)cc2)cc1
REMARK SMILES IDX 17 1 16 2 15 3 13 4 14 5 11 6 12 7 9 8 8 9 5 10 6 11 88 12
REMARK SMILES IDX 7 13 87 14 4 15 2 16 1 17 3 18 10 19 18 21 19 22 20 23 21 24
REMARK SMILES IDX 22 25 23 26 24 27 25 28 86 29 26 30 85 31 27 32 28 33 29 34
REMARK SMILES IDX 79 35 30 36 84 37 78 38 80 39 31 40 83 41 77 42 76 43 32 45
REMARK SMILES IDX 64 46 44 47 63 48 45 49 48 50 62 51 81 52 46 53 47 54 61 56
REMARK SMILES IDX 82 57 49 58 33 59 34 60 42 61 35 62 36 63 40 64 43 65 37 66
REMARK SMILES IDX 38 67 41 68 39 69 65 70 66 71 74 72 67 73 68 74 72 75 75 76
REMARK SMILES IDX 69 77 70 78 73 79 71 80 50 81 51 82 59 83 52 84 53 85 57 86
REMARK SMILES IDX 60 87 54 88 55 89 58 90 56 91
REMARK H PARENT 10 20 80 44 48 55
REMARK Flexibility Score: inf
ROOT
ATOM      1  C   UNL A   1      33.581  28.072  25.483  1.00  0.00     0.202 C 
ENDROOT
BRANCH   1   2
ATOM      2  C   UNL A   1      33.659  26.548  25.368  1.00  0.00     0.261 C 
BRANCH   2   3
ATOM      3  O   UNL A   1      32.859  26.112  24.256  1.00  0.00    -0.461 OA
BRANCH   3   4
ATOM      4  C   UNL A   1      32.070  25.029  24.484  1.00  0.00     0.343 C 
ATOM      5  O   UNL A   1      32.351  24.111  25.245  1.00  0.00    -0.249 OA
BRANCH   4   6
ATOM      6  C   UNL A   1      30.774  25.108  23.709  1.00  0.00     0.308 C 
ATOM      7  F   UNL A   1      30.278  23.888  23.338  1.00  0.00    -0.232 F 
BRANCH   6   8
ATOM      8  C   UNL A   1      29.720  25.912  24.490  1.00  0.00     0.190 C 
BRANCH   8   9
ATOM      9  C   UNL A   1      29.207  27.147  23.760  1.00  0.00    -0.016 A 
ATOM     10  C   UNL A   1      28.197  29.392  22.377  1.00  0.00     0.119 A 
ATOM     11  C   UNL A   1      29.548  29.069  22.297  1.00  0.00     0.047 A 
ATOM     12  C   UNL A   1      27.341  28.591  23.124  1.00  0.00     0.047 A 
ATOM     13  C   UNL A   1      30.052  27.967  22.992  1.00  0.00     0.010 A 
ATOM     14  C   UNL A   1      27.845  27.488  23.824  1.00  0.00     0.010 A 
BRANCH  10  15
ATOM     15  O   UNL A   1      27.762  30.426  21.603  1.00  0.00    -0.491 OA
BRANCH  15  16
ATOM     16  C   UNL A   1      28.433  31.691  21.727  1.00  0.00     0.167 C 
ATOM     17  C   UNL A   1      28.027  32.674  20.634  1.00  0.00     0.052 C 
ATOM     18  C   UNL A   1      28.384  32.309  23.125  1.00  0.00     0.052 C 
ENDBRANCH  15  16
ENDBRANCH  10  15
ENDBRANCH   8   9
BRANCH   8  19
ATOM     19  O   UNL A   1      30.275  26.277  25.766  1.00  0.00    -0.385 OA
ATOM     20  H   UNL A   1      29.728  26.968  26.172  1.00  0.00     0.211 HD
ENDBRANCH   8  19
ENDBRANCH   6   8
ENDBRANCH   4   6
ENDBRANCH   3   4
ENDBRANCH   2   3
ENDBRANCH   1   2
BRANCH   1  21
ATOM     21  O   UNL A   1      32.341  28.580  25.982  1.00  0.00    -0.374 OA
BRANCH  21  22
ATOM     22  C   UNL A   1      31.889  29.828  25.454  1.00  0.00     0.202 C 
BRANCH  22  23
ATOM     23  C   UNL A   1      31.774  30.984  26.454  1.00  0.00     0.261 C 
BRANCH  23  24
ATOM     24  O   UNL A   1      32.745  30.889  27.511  1.00  0.00    -0.460 OA
BRANCH  24  25
ATOM     25  C   UNL A   1      33.558  31.963  27.623  1.00  0.00     0.338 C 
ATOM     26  O   UNL A   1      33.234  33.142  27.627  1.00  0.00    -0.246 OA
BRANCH  25  27
ATOM     27  C   UNL A   1      34.940  31.536  27.910  1.00  0.00     0.060 A 
ATOM     28  C   UNL A   1      35.163  30.162  28.049  1.00  0.00     0.016 A 
ATOM     29  C   UNL A   1      35.971  32.451  28.139  1.00  0.00     0.016 A 
ATOM     30  C   UNL A   1      36.398  29.697  28.493  1.00  0.00     0.010 A 
ATOM     31  C   UNL A   1      37.211  31.983  28.593  1.00  0.00     0.010 A 
ATOM     32  C   UNL A   1      37.411  30.609  28.819  1.00  0.00    -0.014 A 
BRANCH  32  33
ATOM     33  C   UNL A   1      38.593  30.117  29.570  1.00  0.00     0.031 A 
ATOM     34  C   UNL A   1      38.793  30.578  30.989  1.00  0.00     0.074 A 
ATOM     35  C   UNL A   1      39.428  29.214  29.030  1.00  0.00     0.049 A 
ATOM     36  N   UNL A   1      39.711  30.231  31.855  1.00  0.00    -0.248 NA
ATOM     37  C   UNL A   1      37.825  31.561  31.501  1.00  0.00     0.031 C 
ATOM     38  C   UNL A   1      39.321  28.668  27.679  1.00  0.00     0.029 A 
ATOM     39  N   UNL A   1      40.528  28.591  29.561  1.00  0.00    -0.354 N 
ATOM     40  C   UNL A   1      39.430  30.948  33.011  1.00  0.00     0.074 A 
ATOM     41  C   UNL A   1      38.279  31.778  32.726  1.00  0.00     0.031 C 
ATOM     42  C   UNL A   1      40.319  27.787  27.486  1.00  0.00     0.029 A 
ATOM     43  C   UNL A   1      41.140  27.720  28.694  1.00  0.00     0.049 A 
ATOM     44  H   UNL A   1      40.850  28.753  30.478  1.00  0.00     0.167 HD
ATOM     45  C   UNL A   1      40.062  30.908  34.207  1.00  0.00     0.037 A 
ATOM     46  C   UNL A   1      42.239  26.959  28.860  1.00  0.00     0.037 A 
ATOM     47  C   UNL A   1      41.205  30.083  34.494  1.00  0.00     0.049 A 
ATOM     48  C   UNL A   1      42.951  26.964  30.188  1.00  0.00     0.074 A 
ATOM     49  C   UNL A   1      41.914  29.968  35.677  1.00  0.00     0.029 A 
ATOM     50  N   UNL A   1      41.810  29.232  33.582  1.00  0.00    -0.354 N 
ATOM     51  N   UNL A   1      42.659  27.622  31.284  1.00  0.00    -0.248 NA
ATOM     52  C   UNL A   1      44.140  26.107  30.304  1.00  0.00     0.031 C 
ATOM     53  C   UNL A   1      42.972  29.076  35.469  1.00  0.00     0.029 A 
ATOM     54  C   UNL A   1      42.894  28.600  34.171  1.00  0.00     0.049 A 
ATOM     55  H   UNL A   1      41.513  29.097  32.653  1.00  0.00     0.167 HD
ATOM     56  C   UNL A   1      43.604  27.236  32.225  1.00  0.00     0.074 A 
ATOM     57  C   UNL A   1      44.472  26.277  31.575  1.00  0.00     0.031 C 
ATOM     58  C   UNL A   1      43.741  27.638  33.513  1.00  0.00     0.037 A 
BRANCH  45  59
ATOM     59  C   UNL A   1      39.540  31.803  35.293  1.00  0.00     0.064 A 
ATOM     60  C   UNL A   1      38.626  31.338  36.252  1.00  0.00     0.173 A 
ATOM     61  C   UNL A   1      39.975  33.132  35.390  1.00  0.00     0.173 A 
ATOM     62  F   UNL A   1      38.168  30.078  36.193  1.00  0.00    -0.203 F 
ATOM     63  C   UNL A   1      38.150  32.180  37.253  1.00  0.00     0.198 A 
ATOM     64  C   UNL A   1      39.516  33.963  36.408  1.00  0.00     0.198 A 
ATOM     65  F   UNL A   1      40.849  33.624  34.499  1.00  0.00    -0.203 F 
ATOM     66  F   UNL A   1      37.245  31.728  38.132  1.00  0.00    -0.200 F 
ATOM     67  C   UNL A   1      38.600  33.490  37.335  1.00  0.00     0.200 A 
ATOM     68  F   UNL A   1      39.959  35.226  36.491  1.00  0.00    -0.200 F 
ATOM     69  F   UNL A   1      38.144  34.298  38.301  1.00  0.00    -0.200 F 
ENDBRANCH  45  59
BRANCH  46  70
ATOM     70  C   UNL A   1      42.731  26.115  27.741  1.00  0.00     0.064 A 
ATOM     71  C   UNL A   1      43.711  26.584  26.855  1.00  0.00     0.173 A 
ATOM     72  C   UNL A   1      42.213  24.830  27.523  1.00  0.00     0.173 A 
ATOM     73  F   UNL A   1      44.217  27.816  27.009  1.00  0.00    -0.203 F 
ATOM     74  C   UNL A   1      44.140  25.806  25.781  1.00  0.00     0.198 A 
ATOM     75  C   UNL A   1      42.663  24.043  26.465  1.00  0.00     0.198 A 
ATOM     76  F   UNL A   1      41.273  24.336  28.342  1.00  0.00    -0.203 F 
ATOM     77  F   UNL A   1      45.044  26.296  24.921  1.00  0.00    -0.200 F 
ATOM     78  C   UNL A   1      43.620  24.535  25.589  1.00  0.00     0.200 A 
ATOM     79  F   UNL A   1      42.165  22.811  26.290  1.00  0.00    -0.200 F 
ATOM     80  F   UNL A   1      44.034  23.787  24.558  1.00  0.00    -0.200 F 
ENDBRANCH  46  70
BRANCH  58  81
ATOM     81  C   UNL A   1      44.843  27.011  34.316  1.00  0.00     0.064 A 
ATOM     82  C   UNL A   1      44.661  25.800  35.001  1.00  0.00     0.173 A 
ATOM     83  C   UNL A   1      46.106  27.619  34.381  1.00  0.00     0.173 A 
ATOM     84  F   UNL A   1      43.468  25.187  34.981  1.00  0.00    -0.203 F 
ATOM     85  C   UNL A   1      45.694  25.239  35.746  1.00  0.00     0.198 A 
ATOM     86  C   UNL A   1      47.145  27.038  35.103  1.00  0.00     0.198 A 
ATOM     87  F   UNL A   1      46.335  28.774  33.737  1.00  0.00    -0.203 F 
ATOM     88  F   UNL A   1      45.482  24.107  36.435  1.00  0.00    -0.200 F 
ATOM     89  C   UNL A   1      46.936  25.854  35.793  1.00  0.00     0.200 A 
ATOM     90  F   UNL A   1      48.348  27.629  35.137  1.00  0.00    -0.200 F 
ATOM     91  F   UNL A   1      47.929  25.310  36.510  1.00  0.00    -0.200 F 
ENDBRANCH  58  81
ENDBRANCH  32  33
ENDBRANCH  25  27
ENDBRANCH  24  25
ENDBRANCH  23  24
ENDBRANCH  22  23
ENDBRANCH  21  22
ENDBRANCH   1  21
TORSDOF 19
ENDMDL
MODEL 2
REMARK VINA RESULT:     -10.8      0.306      2.023
REMARK SMILES CC(C)Oc1ccc([C@H](O)[C@H](F)C(=O)OCCOCCOC(=O)c2ccc(-c3c4nc(c(-c5c(F)c(F)c(F)c(F)c5F)c5ccc([nH]5)c(-c5c(F)c(F)c(F)c(F)c5F)c5nc(c(-c6c(F)c(F)c(F)c(F)c6F)c6ccc3[nH]6)C=C5)C=C4)cc2)cc1
REMARK SMILES IDX 17 1 16 2 15 3 13 4 14 5 11 6 12 7 9 8 8 9 5 10 6 11 88 12
REMARK SMILES IDX 7 13 87 14 4 15 2 16 1 17 3 18 10 19 18 21 19 22 20 23 21 24
REMARK SMILES IDX 22 25 23 26 24 27 25 28 86 29 26 30 85 31 27 32 28 33 29 34
REMARK SMILES IDX 79 35 30 36 84 37 78 38 80 39 31 40 83 41 77 42 76 43 32 45
REMARK SMILES IDX 64 46 44 47 63 48 45 49 48 50 62 51 81 52 46 53 47 54 61 56
REMARK SMILES IDX 82 57 49 58 33 59 34 60 42 61 35 62 36 63 40 64 43 65 37 66
REMARK SMILES IDX 38 67 41 68 39 69 65 70 66 71 74 72 67 73 68 74 72 75 75 76
REMARK SMILES IDX 69 77 70 78 73 79 71 80 50 81 51 82 59 83 52 84 53 85 57 86
REMARK SMILES IDX 60 87 54 88 55 89 58 90 56 91
REMARK H PARENT 10 20 80 44 48 55
REMARK Flexibility Score: inf
ROOT
ATOM      1  C   UNL A   1      33.440  27.968  25.399  1.00  0.00     0.202 C 
ENDROOT
BRANCH   1   2
ATOM      2  C   UNL A   1      33.433  26.466  25.689  1.00  0.00     0.261 C 
BRANCH   2   3
ATOM      3  O   UNL A   1      32.983  25.756  24.523  1.00  0.00    -0.461 OA
BRANCH   3   4
ATOM      4  C   UNL A   1      31.996  24.844  24.729  1.00  0.00     0.343 C 
ATOM      5  O   UNL A   1      32.008  23.994  25.610  1.00  0.00    -0.249 OA
BRANCH   4   6
ATOM      6  C   UNL A   1      30.853  25.029  23.757  1.00  0.00     0.308 C 
ATOM      7  F   UNL A   1      30.290  23.854  23.339  1.00  0.00    -0.232 F 
BRANCH   6   8
ATOM      8  C   UNL A   1      29.785  25.969  24.343  1.00  0.00     0.190 C 
BRANCH   8   9
ATOM      9  C   UNL A   1      29.589  27.260  23.558  1.00  0.00    -0.016 A 
ATOM     10  C   UNL A   1      29.163  29.621  22.071  1.00  0.00     0.119 A 
ATOM     11  C   UNL A   1      30.426  29.041  22.117  1.00  0.00     0.047 A 
ATOM     12  C   UNL A   1      28.104  29.021  22.743  1.00  0.00     0.047 A 
ATOM     13  C   UNL A   1      30.642  27.880  22.864  1.00  0.00     0.010 A 
ATOM     14  C   UNL A   1      28.319  27.860  23.495  1.00  0.00     0.010 A 
BRANCH  10  15
ATOM     15  O   UNL A   1      29.007  30.699  21.251  1.00  0.00    -0.491 OA
BRANCH  15  16
ATOM     16  C   UNL A   1      28.162  31.772  21.701  1.00  0.00     0.167 C 
ATOM     17  C   UNL A   1      28.769  32.534  22.875  1.00  0.00     0.052 C 
ATOM     18  C   UNL A   1      27.655  32.697  20.596  1.00  0.00     0.052 C 
ENDBRANCH  15  16
ENDBRANCH  10  15
ENDBRANCH   8   9
BRANCH   8  19
ATOM     19  O   UNL A   1      30.129  26.258  25.710  1.00  0.00    -0.385 OA
ATOM     20  H   UNL A   1      29.322  26.444  26.214  1.00  0.00     0.211 HD
ENDBRANCH   8  19
ENDBRANCH   6   8
ENDBRANCH   4   6
ENDBRANCH   3   4
ENDBRANCH   2   3
ENDBRANCH   1   2
BRANCH   1  21
ATOM     21  O   UNL A   1      32.604  28.755  26.251  1.00  0.00    -0.374 OA
BRANCH  21  22
ATOM     22  C   UNL A   1      31.852  29.804  25.638  1.00  0.00     0.202 C 
BRANCH  22  23
ATOM     23  C   UNL A   1      31.779  31.125  26.411  1.00  0.00     0.261 C 
BRANCH  23  24
ATOM     24  O   UNL A   1      32.634  31.129  27.568  1.00  0.00    -0.460 OA
BRANCH  24  25
ATOM     25  C   UNL A   1      33.474  32.186  27.641  1.00  0.00     0.338 C 
ATOM     26  O   UNL A   1      33.177  33.372  27.621  1.00  0.00    -0.246 OA
BRANCH  25  27
ATOM     27  C   UNL A   1      34.849  31.734  27.917  1.00  0.00     0.060 A 
ATOM     28  C   UNL A   1      35.044  30.358  28.084  1.00  0.00     0.016 A 
ATOM     29  C   UNL A   1      35.905  32.629  28.110  1.00  0.00     0.016 A 
ATOM     30  C   UNL A   1      36.274  29.875  28.521  1.00  0.00     0.010 A 
ATOM     31  C   UNL A   1      37.140  32.144  28.556  1.00  0.00     0.010 A 
ATOM     32  C   UNL A   1      37.312  30.771  28.811  1.00  0.00    -0.014 A 
BRANCH  32  33
ATOM     33  C   UNL A   1      38.494  30.269  29.555  1.00  0.00     0.031 A 
ATOM     34  C   UNL A   1      38.692  30.707  30.981  1.00  0.00     0.074 A 
ATOM     35  C   UNL A   1      39.331  29.375  29.002  1.00  0.00     0.049 A 
ATOM     36  N   UNL A   1      39.609  30.348  31.843  1.00  0.00    -0.248 NA
ATOM     37  C   UNL A   1      37.722  31.681  31.508  1.00  0.00     0.031 C 
ATOM     38  C   UNL A   1      39.226  28.849  27.643  1.00  0.00     0.029 A 
ATOM     39  N   UNL A   1      40.431  28.745  29.525  1.00  0.00    -0.354 N 
ATOM     40  C   UNL A   1      39.326  31.047  33.009  1.00  0.00     0.074 A 
ATOM     41  C   UNL A   1      38.175  31.880  32.736  1.00  0.00     0.031 C 
ATOM     42  C   UNL A   1      40.225  27.973  27.437  1.00  0.00     0.029 A 
ATOM     43  C   UNL A   1      41.045  27.888  28.645  1.00  0.00     0.049 A 
ATOM     44  H   UNL A   1      40.752  28.893  30.444  1.00  0.00     0.167 HD
ATOM     45  C   UNL A   1      39.957  30.990  34.206  1.00  0.00     0.037 A 
ATOM     46  C   UNL A   1      42.145  27.126  28.800  1.00  0.00     0.037 A 
ATOM     47  C   UNL A   1      41.101  30.162  34.481  1.00  0.00     0.049 A 
ATOM     48  C   UNL A   1      42.856  27.112  30.129  1.00  0.00     0.074 A 
ATOM     49  C   UNL A   1      41.809  30.029  35.663  1.00  0.00     0.029 A 
ATOM     50  N   UNL A   1      41.709  29.326  33.556  1.00  0.00    -0.354 N 
ATOM     51  N   UNL A   1      42.561  27.752  31.234  1.00  0.00    -0.248 NA
ATOM     52  C   UNL A   1      44.046  26.255  30.233  1.00  0.00     0.031 C 
ATOM     53  C   UNL A   1      42.868  29.142  35.442  1.00  0.00     0.029 A 
ATOM     54  C   UNL A   1      42.792  28.686  34.137  1.00  0.00     0.049 A 
ATOM     55  H   UNL A   1      41.412  29.205  32.625  1.00  0.00     0.167 HD
ATOM     56  C   UNL A   1      43.506  27.353  32.171  1.00  0.00     0.074 A 
ATOM     57  C   UNL A   1      44.376  26.405  31.507  1.00  0.00     0.031 C 
ATOM     58  C   UNL A   1      43.641  27.736  33.465  1.00  0.00     0.037 A 
BRANCH  45  59
ATOM     59  C   UNL A   1      39.433  31.867  35.304  1.00  0.00     0.064 A 
ATOM     60  C   UNL A   1      39.802  33.217  35.407  1.00  0.00     0.173 A 
ATOM     61  C   UNL A   1      38.532  31.359  36.251  1.00  0.00     0.173 A 
ATOM     62  F   UNL A   1      40.673  33.746  34.534  1.00  0.00    -0.203 F 
ATOM     63  C   UNL A   1      39.307  34.018  36.432  1.00  0.00     0.198 A 
ATOM     64  C   UNL A   1      38.019  32.170  37.260  1.00  0.00     0.198 A 
ATOM     65  F   UNL A   1      38.146  30.075  36.196  1.00  0.00    -0.203 F 
ATOM     66  F   UNL A   1      39.708  35.293  36.537  1.00  0.00    -0.200 F 
ATOM     67  C   UNL A   1      38.411  33.497  37.354  1.00  0.00     0.200 A 
ATOM     68  F   UNL A   1      37.146  31.667  38.143  1.00  0.00    -0.200 F 
ATOM     69  F   UNL A   1      37.932  34.269  38.338  1.00  0.00    -0.200 F 
ENDBRANCH  45  59
BRANCH  46  70
ATOM     70  C   UNL A   1      42.639  26.300  27.669  1.00  0.00     0.064 A 
ATOM     71  C   UNL A   1      42.151  25.004  27.450  1.00  0.00     0.173 A 
ATOM     72  C   UNL A   1      43.627  26.782  26.798  1.00  0.00     0.173 A 
ATOM     73  F   UNL A   1      41.224  24.490  28.272  1.00  0.00    -0.203 F 
ATOM     74  C   UNL A   1      42.647  24.215  26.414  1.00  0.00     0.198 A 
ATOM     75  C   UNL A   1      44.102  26.002  25.747  1.00  0.00     0.198 A 
ATOM     76  F   UNL A   1      44.127  28.016  26.966  1.00  0.00    -0.203 F 
ATOM     77  F   UNL A   1      42.197  22.962  26.255  1.00  0.00    -0.200 F 
ATOM     78  C   UNL A   1      43.618  24.716  25.560  1.00  0.00     0.200 A 
ATOM     79  F   UNL A   1      45.033  26.494  24.918  1.00  0.00    -0.200 F 
ATOM     80  F   UNL A   1      44.093  23.957  24.564  1.00  0.00    -0.200 F 
ENDBRANCH  46  70
BRANCH  58  81
ATOM     81  C   UNL A   1      44.743  27.098  34.259  1.00  0.00     0.064 A 
ATOM     82  C   UNL A   1      46.014  27.683  34.363  1.00  0.00     0.173 A 
ATOM     83  C   UNL A   1      44.516  25.895  34.947  1.00  0.00     0.173 A 
ATOM     84  F   UNL A   1      46.285  28.826  33.714  1.00  0.00    -0.203 F 
ATOM     85  C   UNL A   1      47.025  27.071  35.099  1.00  0.00     0.198 A 
ATOM     86  C   UNL A   1      45.521  25.303  35.706  1.00  0.00     0.198 A 
ATOM     87  F   UNL A   1      43.316  25.298  34.887  1.00  0.00    -0.203 F 
ATOM     88  F   UNL A   1      48.246  27.623  35.142  1.00  0.00    -0.200 F 
ATOM     89  C   UNL A   1      46.777  25.886  35.774  1.00  0.00     0.200 A 
ATOM     90  F   UNL A   1      45.276  24.162  36.367  1.00  0.00    -0.200 F 
ATOM     91  F   UNL A   1      47.752  25.300  36.483  1.00  0.00    -0.200 F 
ENDBRANCH  58  81
ENDBRANCH  32  33
ENDBRANCH  25  27
ENDBRANCH  24  25
ENDBRANCH  23  24
ENDBRANCH  22  23
ENDBRANCH  21  22
ENDBRANCH   1  21
TORSDOF 19
ENDMDL
MODEL 3
REMARK VINA RESULT:     -10.7      2.244      4.593
REMARK SMILES CC(C)Oc1ccc([C@H](O)[C@H](F)C(=O)OCCOCCOC(=O)c2ccc(-c3c4nc(c(-c5c(F)c(F)c(F)c(F)c5F)c5ccc([nH]5)c(-c5c(F)c(F)c(F)c(F)c5F)c5nc(c(-c6c(F)c(F)c(F)c(F)c6F)c6ccc3[nH]6)C=C5)C=C4)cc2)cc1
REMARK SMILES IDX 17 1 16 2 15 3 13 4 14 5 11 6 12 7 9 8 8 9 5 10 6 11 88 12
REMARK SMILES IDX 7 13 87 14 4 15 2 16 1 17 3 18 10 19 18 21 19 22 20 23 21 24
REMARK SMILES IDX 22 25 23 26 24 27 25 28 86 29 26 30 85 31 27 32 28 33 29 34
REMARK SMILES IDX 79 35 30 36 84 37 78 38 80 39 31 40 83 41 77 42 76 43 32 45
REMARK SMILES IDX 64 46 44 47 63 48 45 49 48 50 62 51 81 52 46 53 47 54 61 56
REMARK SMILES IDX 82 57 49 58 33 59 34 60 42 61 35 62 36 63 40 64 43 65 37 66
REMARK SMILES IDX 38 67 41 68 39 69 65 70 66 71 74 72 67 73 68 74 72 75 75 76
REMARK SMILES IDX 69 77 70 78 73 79 71 80 50 81 51 82 59 83 52 84 53 85 57 86
REMARK SMILES IDX 60 87 54 88 55 89 58 90 56 91
REMARK H PARENT 10 20 80 44 48 55
REMARK Flexibility Score: inf
ROOT
ATOM      1  C   UNL A   1      33.184  29.139  24.025  1.00  0.00     0.202 C 
ENDROOT
BRANCH   1   2
ATOM      2  C   UNL A   1      33.399  28.148  22.879  1.00  0.00     0.261 C 
BRANCH   2   3
ATOM      3  O   UNL A   1      33.705  26.852  23.419  1.00  0.00    -0.461 OA
BRANCH   3   4
ATOM      4  C   UNL A   1      33.507  25.800  22.581  1.00  0.00     0.343 C 
ATOM      5  O   UNL A   1      33.650  25.843  21.365  1.00  0.00    -0.249 OA
BRANCH   4   6
ATOM      6  C   UNL A   1      33.122  24.548  23.337  1.00  0.00     0.308 C 
ATOM      7  F   UNL A   1      31.775  24.307  23.355  1.00  0.00    -0.232 F 
BRANCH   6   8
ATOM      8  C   UNL A   1      33.889  23.329  22.798  1.00  0.00     0.190 C 
BRANCH   8   9
ATOM      9  C   UNL A   1      33.409  21.993  23.351  1.00  0.00    -0.016 A 
ATOM     10  C   UNL A   1      32.596  19.498  24.391  1.00  0.00     0.119 A 
ATOM     11  C   UNL A   1      32.115  19.934  23.160  1.00  0.00     0.047 A 
ATOM     12  C   UNL A   1      33.496  20.287  25.098  1.00  0.00     0.047 A 
ATOM     13  C   UNL A   1      32.506  21.175  22.651  1.00  0.00     0.010 A 
ATOM     14  C   UNL A   1      33.886  21.531  24.590  1.00  0.00     0.010 A 
BRANCH  10  15
ATOM     15  O   UNL A   1      32.242  18.240  24.782  1.00  0.00    -0.491 OA
BRANCH  15  16
ATOM     16  C   UNL A   1      33.271  17.236  24.832  1.00  0.00     0.167 C 
ATOM     17  C   UNL A   1      32.905  16.076  25.753  1.00  0.00     0.052 C 
ATOM     18  C   UNL A   1      33.779  16.770  23.469  1.00  0.00     0.052 C 
ENDBRANCH  15  16
ENDBRANCH  10  15
ENDBRANCH   8   9
BRANCH   8  19
ATOM     19  O   UNL A   1      35.291  23.511  23.068  1.00  0.00    -0.385 OA
ATOM     20  H   UNL A   1      35.786  22.747  22.735  1.00  0.00     0.211 HD
ENDBRANCH   8  19
ENDBRANCH   6   8
ENDBRANCH   4   6
ENDBRANCH   3   4
ENDBRANCH   2   3
ENDBRANCH   1   2
BRANCH   1  21
ATOM     21  O   UNL A   1      31.826  29.529  24.243  1.00  0.00    -0.374 OA
BRANCH  21  22
ATOM     22  C   UNL A   1      31.413  29.723  25.598  1.00  0.00     0.202 C 
BRANCH  22  23
ATOM     23  C   UNL A   1      31.773  31.073  26.228  1.00  0.00     0.261 C 
BRANCH  23  24
ATOM     24  O   UNL A   1      32.678  30.934  27.337  1.00  0.00    -0.460 OA
BRANCH  24  25
ATOM     25  C   UNL A   1      33.473  32.006  27.550  1.00  0.00     0.338 C 
ATOM     26  O   UNL A   1      33.132  33.178  27.630  1.00  0.00    -0.246 OA
BRANCH  25  27
ATOM     27  C   UNL A   1      34.853  31.577  27.842  1.00  0.00     0.060 A 
ATOM     28  C   UNL A   1      35.066  30.205  28.018  1.00  0.00     0.016 A 
ATOM     29  C   UNL A   1      35.892  32.489  28.041  1.00  0.00     0.016 A 
ATOM     30  C   UNL A   1      36.299  29.743  28.470  1.00  0.00     0.010 A 
ATOM     31  C   UNL A   1      37.131  32.025  28.502  1.00  0.00     0.010 A 
ATOM     32  C   UNL A   1      37.320  30.656  28.766  1.00  0.00    -0.014 A 
BRANCH  32  33
ATOM     33  C   UNL A   1      38.502  30.176  29.525  1.00  0.00     0.031 A 
ATOM     34  C   UNL A   1      38.688  30.639  30.945  1.00  0.00     0.074 A 
ATOM     35  C   UNL A   1      39.350  29.280  28.991  1.00  0.00     0.049 A 
ATOM     36  N   UNL A   1      39.603  30.301  31.818  1.00  0.00    -0.248 NA
ATOM     37  C   UNL A   1      37.707  31.613  31.450  1.00  0.00     0.031 C 
ATOM     38  C   UNL A   1      39.257  28.732  27.640  1.00  0.00     0.029 A 
ATOM     39  N   UNL A   1      40.452  28.668  29.530  1.00  0.00    -0.354 N 
ATOM     40  C   UNL A   1      39.307  31.016  32.971  1.00  0.00     0.074 A 
ATOM     41  C   UNL A   1      38.151  31.835  32.678  1.00  0.00     0.031 C 
ATOM     42  C   UNL A   1      40.264  27.861  27.455  1.00  0.00     0.029 A 
ATOM     43  C   UNL A   1      41.078  27.802  28.668  1.00  0.00     0.049 A 
ATOM     44  H   UNL A   1      40.766  28.834  30.449  1.00  0.00     0.167 HD
ATOM     45  C   UNL A   1      39.932  30.983  34.172  1.00  0.00     0.037 A 
ATOM     46  C   UNL A   1      42.183  27.052  28.841  1.00  0.00     0.037 A 
ATOM     47  C   UNL A   1      41.081  30.169  34.467  1.00  0.00     0.049 A 
ATOM     48  C   UNL A   1      42.886  27.065  30.175  1.00  0.00     0.074 A 
ATOM     49  C   UNL A   1      41.783  30.061  35.655  1.00  0.00     0.029 A 
ATOM     50  N   UNL A   1      41.700  29.323  33.560  1.00  0.00    -0.354 N 
ATOM     51  N   UNL A   1      42.580  27.720  31.268  1.00  0.00    -0.248 NA
ATOM     52  C   UNL A   1      44.082  26.219  30.299  1.00  0.00     0.031 C 
ATOM     53  C   UNL A   1      42.850  29.180  35.454  1.00  0.00     0.029 A 
ATOM     54  C   UNL A   1      42.786  28.702  34.156  1.00  0.00     0.049 A 
ATOM     55  H   UNL A   1      41.411  29.185  32.629  1.00  0.00     0.167 HD
ATOM     56  C   UNL A   1      43.523  27.344  32.216  1.00  0.00     0.074 A 
ATOM     57  C   UNL A   1      44.404  26.393  31.572  1.00  0.00     0.031 C 
ATOM     58  C   UNL A   1      43.646  27.748  33.504  1.00  0.00     0.037 A 
BRANCH  45  59
ATOM     59  C   UNL A   1      39.393  31.873  35.253  1.00  0.00     0.064 A 
ATOM     60  C   UNL A   1      39.738  33.231  35.327  1.00  0.00     0.173 A 
ATOM     61  C   UNL A   1      38.503  31.368  36.212  1.00  0.00     0.173 A 
ATOM     62  F   UNL A   1      40.599  33.757  34.442  1.00  0.00    -0.203 F 
ATOM     63  C   UNL A   1      39.231  34.045  36.337  1.00  0.00     0.198 A 
ATOM     64  C   UNL A   1      37.978  32.191  37.205  1.00  0.00     0.198 A 
ATOM     65  F   UNL A   1      38.140  30.078  36.184  1.00  0.00    -0.203 F 
ATOM     66  F   UNL A   1      39.610  35.328  36.415  1.00  0.00    -0.200 F 
ATOM     67  C   UNL A   1      38.346  33.526  37.271  1.00  0.00     0.200 A 
ATOM     68  F   UNL A   1      37.115  31.691  38.100  1.00  0.00    -0.200 F 
ATOM     69  F   UNL A   1      37.855  34.310  38.240  1.00  0.00    -0.200 F 
ENDBRANCH  45  59
BRANCH  46  70
ATOM     70  C   UNL A   1      42.691  26.212  27.727  1.00  0.00     0.064 A 
ATOM     71  C   UNL A   1      43.653  26.700  26.831  1.00  0.00     0.173 A 
ATOM     72  C   UNL A   1      42.206  24.912  27.522  1.00  0.00     0.173 A 
ATOM     73  F   UNL A   1      44.127  27.946  26.972  1.00  0.00    -0.203 F 
ATOM     74  C   UNL A   1      44.096  25.925  25.761  1.00  0.00     0.198 A 
ATOM     75  C   UNL A   1      42.670  24.129  26.468  1.00  0.00     0.198 A 
ATOM     76  F   UNL A   1      41.284  24.400  28.351  1.00  0.00    -0.203 F 
ATOM     77  F   UNL A   1      44.981  26.432  24.891  1.00  0.00    -0.200 F 
ATOM     78  C   UNL A   1      43.609  24.639  25.583  1.00  0.00     0.200 A 
ATOM     79  F   UNL A   1      42.204  22.883  26.305  1.00  0.00    -0.200 F 
ATOM     80  F   UNL A   1      44.036  23.894  24.554  1.00  0.00    -0.200 F 
ENDBRANCH  46  70
BRANCH  58  81
ATOM     81  C   UNL A   1      44.749  27.132  34.316  1.00  0.00     0.064 A 
ATOM     82  C   UNL A   1      46.039  27.681  34.346  1.00  0.00     0.173 A 
ATOM     83  C   UNL A   1      44.503  25.990  35.093  1.00  0.00     0.173 A 
ATOM     84  F   UNL A   1      46.328  28.765  33.610  1.00  0.00    -0.203 F 
ATOM     85  C   UNL A   1      47.050  27.090  35.099  1.00  0.00     0.198 A 
ATOM     86  C   UNL A   1      45.509  25.420  35.868  1.00  0.00     0.198 A 
ATOM     87  F   UNL A   1      43.284  25.430  35.106  1.00  0.00    -0.203 F 
ATOM     88  F   UNL A   1      48.289  27.603  35.072  1.00  0.00    -0.200 F 
ATOM     89  C   UNL A   1      46.784  25.964  35.863  1.00  0.00     0.200 A 
ATOM     90  F   UNL A   1      45.246  24.338  36.615  1.00  0.00    -0.200 F 
ATOM     91  F   UNL A   1      47.759  25.398  36.588  1.00  0.00    -0.200 F 
ENDBRANCH  58  81
ENDBRANCH  32  33
ENDBRANCH  25  27
ENDBRANCH  24  25
ENDBRANCH  23  24
ENDBRANCH  22  23
ENDBRANCH  21  22
ENDBRANCH   1  21
TORSDOF 19
ENDMDL
