MODEL 1
REMARK VINA RESULT:     -11.3      0.000      0.000
REMARK SMILES C[N@H+]1CCO[C@@H](C[N@H+]2CCCC[C@@H]2CCC(=O)OCCOCCOC(=O)c2ccc(-c3c4nc(c(-c5c(F)c(F)c(F)c(F)c5F)c5ccc([nH]5)c(-c5c(F)c(F)c(F)c(F)c5F)c5nc(c(-c6c(F)c(F)c(F)c(F)c6F)c6ccc3[nH]6)C=C5)C=C4)cc2)C1
REMARK SMILES IDX 20 1 19 2 18 3 16 4 17 5 15 6 14 7 13 8 8 9 9 10 10 12 12 13
REMARK SMILES IDX 11 14 7 15 6 16 1 17 2 18 3 19 90 20 4 22 5 23 21 24 22 25
REMARK SMILES IDX 23 26 24 27 25 28 26 29 27 30 28 31 89 32 29 33 88 34 30 35
REMARK SMILES IDX 31 36 32 37 82 38 33 39 87 40 81 41 83 42 34 43 86 44 80 45
REMARK SMILES IDX 79 46 35 48 67 49 47 50 66 51 48 52 51 53 65 54 84 55 49 56
REMARK SMILES IDX 50 57 64 59 85 60 52 61 36 62 37 63 45 64 38 65 39 66 43 67
REMARK SMILES IDX 46 68 40 69 41 70 44 71 42 72 68 73 69 74 77 75 70 76 71 77
REMARK SMILES IDX 75 78 78 79 72 80 73 81 76 82 74 83 53 84 54 85 62 86 55 87
REMARK SMILES IDX 56 88 60 89 63 90 57 91 58 92 61 93 59 94
REMARK H PARENT 8 11 2 21 83 47 51 58
REMARK Flexibility Score: inf
ROOT
ATOM      1  C   UNL A   1      41.325  21.633  26.277  1.00  0.00     0.202 C 
ENDROOT
BRANCH   1   2
ATOM      2  C   UNL A   1      39.951  20.968  26.148  1.00  0.00     0.261 C 
BRANCH   2   3
ATOM      3  O   UNL A   1      38.917  21.928  26.422  1.00  0.00    -0.463 OA
BRANCH   3   4
ATOM      4  C   UNL A   1      37.904  21.996  25.530  1.00  0.00     0.306 C 
ATOM      5  O   UNL A   1      37.719  21.202  24.616  1.00  0.00    -0.252 OA
BRANCH   4   6
ATOM      6  C   UNL A   1      36.986  23.175  25.767  1.00  0.00     0.129 C 
BRANCH   6   7
ATOM      7  C   UNL A   1      35.463  22.981  25.693  1.00  0.00     0.077 C 
BRANCH   7   8
ATOM      8  C   UNL A   1      34.885  21.619  26.180  1.00  0.00     0.184 C 
ATOM      9  N   UNL A   1      34.230  20.923  25.060  1.00  0.00    -0.330 N 
ATOM     10  C   UNL A   1      33.010  21.555  24.574  1.00  0.00     0.262 C 
ATOM     11  H   UNL A   1      34.894  21.092  24.304  1.00  0.00     0.348 HD
ATOM     12  C   UNL A   1      32.022  22.014  25.650  1.00  0.00     0.062 C 
ATOM     13  C   UNL A   1      33.914  21.812  27.349  1.00  0.00     0.065 C 
ATOM     14  C   UNL A   1      32.658  22.566  26.925  1.00  0.00     0.012 C 
BRANCH   9  15
ATOM     15  C   UNL A   1      34.281  19.446  25.033  1.00  0.00     0.300 C 
BRANCH  15  16
ATOM     16  C   UNL A   1      33.268  18.603  24.207  1.00  0.00     0.228 C 
ATOM     17  C   UNL A   1      35.223  16.176  25.049  1.00  0.00     0.332 C 
ATOM     18  N   UNL A   1      34.058  16.150  24.172  1.00  0.00    -0.333 N 
ATOM     19  C   UNL A   1      32.825  15.829  24.904  1.00  0.00     0.290 C 
ATOM     20  C   UNL A   1      33.830  17.398  23.426  1.00  0.00     0.300 C 
ATOM     21  H   UNL A   1      34.282  15.416  23.500  1.00  0.00     0.348 HD
ATOM     22  C   UNL A   1      32.311  17.002  25.755  1.00  0.00     0.222 C 
ATOM     23  O   UNL A   1      32.125  18.205  25.000  1.00  0.00    -0.361 OA
ENDBRANCH  15  16
ENDBRANCH   9  15
ENDBRANCH   7   8
ENDBRANCH   6   7
ENDBRANCH   4   6
ENDBRANCH   3   4
ENDBRANCH   2   3
ENDBRANCH   1   2
BRANCH   1  24
ATOM     24  O   UNL A   1      42.415  20.934  25.672  1.00  0.00    -0.374 OA
BRANCH  24  25
ATOM     25  C   UNL A   1      43.690  21.571  25.719  1.00  0.00     0.202 C 
BRANCH  25  26
ATOM     26  C   UNL A   1      44.050  22.470  24.530  1.00  0.00     0.261 C 
BRANCH  26  27
ATOM     27  O   UNL A   1      43.427  23.764  24.610  1.00  0.00    -0.460 OA
BRANCH  27  28
ATOM     28  C   UNL A   1      44.232  24.747  25.083  1.00  0.00     0.338 C 
ATOM     29  O   UNL A   1      45.342  25.052  24.687  1.00  0.00    -0.246 OA
BRANCH  28  30
ATOM     30  C   UNL A   1      43.505  25.551  26.082  1.00  0.00     0.060 A 
ATOM     31  C   UNL A   1      43.900  26.883  26.253  1.00  0.00     0.016 A 
ATOM     32  C   UNL A   1      42.509  24.998  26.886  1.00  0.00     0.016 A 
ATOM     33  C   UNL A   1      43.318  27.662  27.251  1.00  0.00     0.010 A 
ATOM     34  C   UNL A   1      41.932  25.782  27.891  1.00  0.00     0.010 A 
ATOM     35  C   UNL A   1      42.347  27.110  28.095  1.00  0.00    -0.014 A 
BRANCH  35  36
ATOM     36  C   UNL A   1      41.849  27.885  29.260  1.00  0.00     0.031 A 
ATOM     37  C   UNL A   1      42.577  27.789  30.571  1.00  0.00     0.074 A 
ATOM     38  C   UNL A   1      40.774  28.684  29.145  1.00  0.00     0.049 A 
ATOM     39  N   UNL A   1      42.303  28.357  31.719  1.00  0.00    -0.248 NA
ATOM     40  C   UNL A   1      43.774  26.933  30.595  1.00  0.00     0.031 C 
ATOM     41  C   UNL A   1      39.994  28.876  27.926  1.00  0.00     0.029 A 
ATOM     42  N   UNL A   1      40.152  29.482  30.074  1.00  0.00    -0.354 N 
ATOM     43  C   UNL A   1      43.283  27.920  32.600  1.00  0.00     0.074 A 
ATOM     44  C   UNL A   1      44.140  27.014  31.865  1.00  0.00     0.031 C 
ATOM     45  C   UNL A   1      38.995  29.739  28.179  1.00  0.00     0.029 A 
ATOM     46  C   UNL A   1      39.042  30.128  29.587  1.00  0.00     0.049 A 
ATOM     47  H   UNL A   1      40.470  29.583  31.000  1.00  0.00     0.167 HD
ATOM     48  C   UNL A   1      43.459  28.253  33.902  1.00  0.00     0.037 A 
ATOM     49  C   UNL A   1      38.151  30.922  30.213  1.00  0.00     0.037 A 
ATOM     50  C   UNL A   1      42.613  29.163  34.628  1.00  0.00     0.049 A 
ATOM     51  C   UNL A   1      38.333  31.228  31.678  1.00  0.00     0.074 A 
ATOM     52  C   UNL A   1      42.738  29.599  35.936  1.00  0.00     0.029 A 
ATOM     53  N   UNL A   1      41.478  29.769  34.112  1.00  0.00    -0.354 N 
ATOM     54  N   UNL A   1      39.285  30.845  32.493  1.00  0.00    -0.248 NA
ATOM     55  C   UNL A   1      37.311  32.076  32.311  1.00  0.00     0.031 C 
ATOM     56  C   UNL A   1      41.645  30.421  36.229  1.00  0.00     0.029 A 
ATOM     57  C   UNL A   1      40.869  30.544  35.087  1.00  0.00     0.049 A 
ATOM     58  H   UNL A   1      41.151  29.665  33.188  1.00  0.00     0.167 HD
ATOM     59  C   UNL A   1      38.989  31.414  33.725  1.00  0.00     0.074 A 
ATOM     60  C   UNL A   1      37.779  32.189  33.546  1.00  0.00     0.031 C 
ATOM     61  C   UNL A   1      39.659  31.303  34.899  1.00  0.00     0.037 A 
BRANCH  48  62
ATOM     62  C   UNL A   1      44.597  27.605  34.637  1.00  0.00     0.064 A 
ATOM     63  C   UNL A   1      45.834  28.247  34.802  1.00  0.00     0.173 A 
ATOM     64  C   UNL A   1      44.434  26.337  35.215  1.00  0.00     0.173 A 
ATOM     65  F   UNL A   1      46.045  29.456  34.259  1.00  0.00    -0.203 F 
ATOM     66  C   UNL A   1      46.873  27.631  35.494  1.00  0.00     0.198 A 
ATOM     67  C   UNL A   1      45.466  25.737  35.932  1.00  0.00     0.198 A 
ATOM     68  F   UNL A   1      43.270  25.681  35.090  1.00  0.00    -0.203 F 
ATOM     69  F   UNL A   1      48.061  28.243  35.597  1.00  0.00    -0.200 F 
ATOM     70  C   UNL A   1      46.687  26.381  36.064  1.00  0.00     0.200 A 
ATOM     71  F   UNL A   1      45.278  24.535  36.493  1.00  0.00    -0.200 F 
ATOM     72  F   UNL A   1      47.686  25.793  36.737  1.00  0.00    -0.200 F 
ENDBRANCH  48  62
BRANCH  49  73
ATOM     73  C   UNL A   1      36.989  31.467  29.463  1.00  0.00     0.064 A 
ATOM     74  C   UNL A   1      36.918  32.823  29.120  1.00  0.00     0.173 A 
ATOM     75  C   UNL A   1      35.920  30.640  29.083  1.00  0.00     0.173 A 
ATOM     76  F   UNL A   1      37.901  33.659  29.486  1.00  0.00    -0.203 F 
ATOM     77  C   UNL A   1      35.816  33.336  28.437  1.00  0.00     0.198 A 
ATOM     78  C   UNL A   1      34.834  31.148  28.374  1.00  0.00     0.198 A 
ATOM     79  F   UNL A   1      35.936  29.336  29.392  1.00  0.00    -0.203 F 
ATOM     80  F   UNL A   1      35.752  34.646  28.161  1.00  0.00    -0.200 F 
ATOM     81  C   UNL A   1      34.779  32.496  28.058  1.00  0.00     0.200 A 
ATOM     82  F   UNL A   1      33.839  30.331  28.000  1.00  0.00    -0.200 F 
ATOM     83  F   UNL A   1      33.723  32.989  27.396  1.00  0.00    -0.200 F 
ENDBRANCH  49  73
BRANCH  61  84
ATOM     84  C   UNL A   1      39.105  32.042  36.083  1.00  0.00     0.064 A 
ATOM     85  C   UNL A   1      38.169  31.452  36.945  1.00  0.00     0.173 A 
ATOM     86  C   UNL A   1      39.550  33.338  36.388  1.00  0.00     0.173 A 
ATOM     87  F   UNL A   1      37.700  30.220  36.691  1.00  0.00    -0.203 F 
ATOM     88  C   UNL A   1      37.683  32.139  38.054  1.00  0.00     0.198 A 
ATOM     89  C   UNL A   1      39.084  34.010  37.515  1.00  0.00     0.198 A 
ATOM     90  F   UNL A   1      40.450  33.947  35.601  1.00  0.00    -0.203 F 
ATOM     91  F   UNL A   1      36.755  31.570  38.838  1.00  0.00    -0.200 F 
ATOM     92  C   UNL A   1      38.146  33.413  38.343  1.00  0.00     0.200 A 
ATOM     93  F   UNL A   1      39.546  35.236  37.801  1.00  0.00    -0.200 F 
ATOM     94  F   UNL A   1      37.685  34.069  39.417  1.00  0.00    -0.200 F 
ENDBRANCH  61  84
ENDBRANCH  35  36
ENDBRANCH  28  30
ENDBRANCH  27  28
ENDBRANCH  26  27
ENDBRANCH  25  26
ENDBRANCH  24  25
ENDBRANCH   1  24
TORSDOF 18
ENDMDL
MODEL 2
REMARK VINA RESULT:     -11.2      1.958      3.769
REMARK SMILES C[N@H+]1CCO[C@@H](C[N@H+]2CCCC[C@@H]2CCC(=O)OCCOCCOC(=O)c2ccc(-c3c4nc(c(-c5c(F)c(F)c(F)c(F)c5F)c5ccc([nH]5)c(-c5c(F)c(F)c(F)c(F)c5F)c5nc(c(-c6c(F)c(F)c(F)c(F)c6F)c6ccc3[nH]6)C=C5)C=C4)cc2)C1
REMARK SMILES IDX 20 1 19 2 18 3 16 4 17 5 15 6 14 7 13 8 8 9 9 10 10 12 12 13
REMARK SMILES IDX 11 14 7 15 6 16 1 17 2 18 3 19 90 20 4 22 5 23 21 24 22 25
REMARK SMILES IDX 23 26 24 27 25 28 26 29 27 30 28 31 89 32 29 33 88 34 30 35
REMARK SMILES IDX 31 36 32 37 82 38 33 39 87 40 81 41 83 42 34 43 86 44 80 45
REMARK SMILES IDX 79 46 35 48 67 49 47 50 66 51 48 52 51 53 65 54 84 55 49 56
REMARK SMILES IDX 50 57 64 59 85 60 52 61 36 62 37 63 45 64 38 65 39 66 43 67
REMARK SMILES IDX 46 68 40 69 41 70 44 71 42 72 68 73 69 74 77 75 70 76 71 77
REMARK SMILES IDX 75 78 78 79 72 80 73 81 76 82 74 83 53 84 54 85 62 86 55 87
REMARK SMILES IDX 56 88 60 89 63 90 57 91 58 92 61 93 59 94
REMARK H PARENT 8 11 2 21 83 47 51 58
REMARK Flexibility Score: inf
ROOT
ATOM      1  C   UNL A   1      41.365  20.544  26.405  1.00  0.00     0.202 C 
ENDROOT
BRANCH   1   2
ATOM      2  C   UNL A   1      40.517  21.797  26.161  1.00  0.00     0.261 C 
BRANCH   2   3
ATOM      3  O   UNL A   1      39.160  21.554  26.571  1.00  0.00    -0.463 OA
BRANCH   3   4
ATOM      4  C   UNL A   1      38.197  21.820  25.661  1.00  0.00     0.306 C 
ATOM      5  O   UNL A   1      37.719  21.002  24.885  1.00  0.00    -0.252 OA
BRANCH   4   6
ATOM      6  C   UNL A   1      37.742  23.262  25.688  1.00  0.00     0.129 C 
BRANCH   6   7
ATOM      7  C   UNL A   1      36.268  23.591  25.976  1.00  0.00     0.077 C 
BRANCH   7   8
ATOM      8  C   UNL A   1      35.433  24.230  24.826  1.00  0.00     0.184 C 
ATOM      9  N   UNL A   1      34.193  24.808  25.369  1.00  0.00    -0.330 N 
ATOM     10  C   UNL A   1      33.230  23.834  25.868  1.00  0.00     0.262 C 
ATOM     11  H   UNL A   1      34.535  25.251  26.222  1.00  0.00     0.348 HD
ATOM     12  C   UNL A   1      32.979  22.622  24.968  1.00  0.00     0.062 C 
ATOM     13  C   UNL A   1      35.129  23.209  23.727  1.00  0.00     0.065 C 
ATOM     14  C   UNL A   1      34.206  22.100  24.221  1.00  0.00     0.012 C 
BRANCH   9  15
ATOM     15  C   UNL A   1      33.651  26.022  24.726  1.00  0.00     0.300 C 
BRANCH  15  16
ATOM     16  C   UNL A   1      33.151  27.240  25.554  1.00  0.00     0.228 C 
ATOM     17  C   UNL A   1      33.618  28.809  22.772  1.00  0.00     0.332 C 
ATOM     18  N   UNL A   1      33.220  29.345  24.068  1.00  0.00    -0.333 N 
ATOM     19  C   UNL A   1      31.758  29.396  24.217  1.00  0.00     0.290 C 
ATOM     20  C   UNL A   1      33.766  28.615  25.223  1.00  0.00     0.300 C 
ATOM     21  H   UNL A   1      33.616  30.284  24.070  1.00  0.00     0.348 HD
ATOM     22  C   UNL A   1      31.132  28.013  24.458  1.00  0.00     0.222 C 
ATOM     23  O   UNL A   1      31.706  27.322  25.574  1.00  0.00    -0.361 OA
ENDBRANCH  15  16
ENDBRANCH   9  15
ENDBRANCH   7   8
ENDBRANCH   6   7
ENDBRANCH   4   6
ENDBRANCH   3   4
ENDBRANCH   2   3
ENDBRANCH   1   2
BRANCH   1  24
ATOM     24  O   UNL A   1      42.439  20.332  25.487  1.00  0.00    -0.374 OA
BRANCH  24  25
ATOM     25  C   UNL A   1      43.656  21.027  25.754  1.00  0.00     0.202 C 
BRANCH  25  26
ATOM     26  C   UNL A   1      44.099  22.059  24.709  1.00  0.00     0.261 C 
BRANCH  26  27
ATOM     27  O   UNL A   1      43.353  23.285  24.797  1.00  0.00    -0.460 OA
BRANCH  27  28
ATOM     28  C   UNL A   1      44.101  24.378  25.085  1.00  0.00     0.338 C 
ATOM     29  O   UNL A   1      45.138  24.730  24.552  1.00  0.00    -0.246 OA
BRANCH  28  30
ATOM     30  C   UNL A   1      43.395  25.224  26.064  1.00  0.00     0.060 A 
ATOM     31  C   UNL A   1      43.815  26.554  26.193  1.00  0.00     0.016 A 
ATOM     32  C   UNL A   1      42.393  24.714  26.888  1.00  0.00     0.016 A 
ATOM     33  C   UNL A   1      43.252  27.372  27.170  1.00  0.00     0.010 A 
ATOM     34  C   UNL A   1      41.835  25.537  27.872  1.00  0.00     0.010 A 
ATOM     35  C   UNL A   1      42.275  26.862  28.035  1.00  0.00    -0.014 A 
BRANCH  35  36
ATOM     36  C   UNL A   1      41.798  27.680  29.180  1.00  0.00     0.031 A 
ATOM     37  C   UNL A   1      42.543  27.625  30.484  1.00  0.00     0.074 A 
ATOM     38  C   UNL A   1      40.726  28.482  29.051  1.00  0.00     0.049 A 
ATOM     39  N   UNL A   1      42.287  28.233  31.615  1.00  0.00    -0.248 NA
ATOM     40  C   UNL A   1      43.735  26.763  30.521  1.00  0.00     0.031 C 
ATOM     41  C   UNL A   1      39.931  28.636  27.837  1.00  0.00     0.029 A 
ATOM     42  N   UNL A   1      40.121  29.315  29.960  1.00  0.00    -0.354 N 
ATOM     43  C   UNL A   1      43.277  27.820  32.497  1.00  0.00     0.074 A 
ATOM     44  C   UNL A   1      44.119  26.885  31.782  1.00  0.00     0.031 C 
ATOM     45  C   UNL A   1      38.940  29.514  28.073  1.00  0.00     0.029 A 
ATOM     46  C   UNL A   1      39.009  29.951  29.466  1.00  0.00     0.049 A 
ATOM     47  H   UNL A   1      40.453  29.446  30.878  1.00  0.00     0.167 HD
ATOM     48  C   UNL A   1      43.472  28.197  33.784  1.00  0.00     0.037 A 
ATOM     49  C   UNL A   1      38.131  30.771  30.076  1.00  0.00     0.037 A 
ATOM     50  C   UNL A   1      42.641  29.137  34.489  1.00  0.00     0.049 A 
ATOM     51  C   UNL A   1      38.334  31.127  31.527  1.00  0.00     0.074 A 
ATOM     52  C   UNL A   1      42.786  29.617  35.780  1.00  0.00     0.029 A 
ATOM     53  N   UNL A   1      41.503  29.732  33.968  1.00  0.00    -0.354 N 
ATOM     54  N   UNL A   1      39.295  30.766  32.342  1.00  0.00    -0.248 NA
ATOM     55  C   UNL A   1      37.326  32.002  32.144  1.00  0.00     0.031 C 
ATOM     56  C   UNL A   1      41.702  30.455  36.059  1.00  0.00     0.029 A 
ATOM     57  C   UNL A   1      40.912  30.544  34.924  1.00  0.00     0.049 A 
ATOM     58  H   UNL A   1      41.163  29.598  33.053  1.00  0.00     0.167 HD
ATOM     59  C   UNL A   1      39.019  31.378  33.557  1.00  0.00     0.074 A 
ATOM     60  C   UNL A   1      37.812  32.154  33.368  1.00  0.00     0.031 C 
ATOM     61  C   UNL A   1      39.704  31.304  34.726  1.00  0.00     0.037 A 
BRANCH  48  62
ATOM     62  C   UNL A   1      44.616  27.568  34.525  1.00  0.00     0.064 A 
ATOM     63  C   UNL A   1      44.472  26.359  35.224  1.00  0.00     0.173 A 
ATOM     64  C   UNL A   1      45.885  28.166  34.505  1.00  0.00     0.173 A 
ATOM     65  F   UNL A   1      43.277  25.752  35.284  1.00  0.00    -0.203 F 
ATOM     66  C   UNL A   1      45.549  25.789  35.898  1.00  0.00     0.198 A 
ATOM     67  C   UNL A   1      46.967  27.578  35.155  1.00  0.00     0.198 A 
ATOM     68  F   UNL A   1      46.079  29.320  33.849  1.00  0.00    -0.203 F 
ATOM     69  F   UNL A   1      45.376  24.660  36.599  1.00  0.00    -0.200 F 
ATOM     70  C   UNL A   1      46.796  26.394  35.857  1.00  0.00     0.200 A 
ATOM     71  F   UNL A   1      48.173  28.157  35.103  1.00  0.00    -0.200 F 
ATOM     72  F   UNL A   1      47.833  25.840  36.500  1.00  0.00    -0.200 F 
ENDBRANCH  48  62
BRANCH  49  73
ATOM     73  C   UNL A   1      36.962  31.297  29.323  1.00  0.00     0.064 A 
ATOM     74  C   UNL A   1      35.874  30.474  29.004  1.00  0.00     0.173 A 
ATOM     75  C   UNL A   1      36.916  32.634  28.898  1.00  0.00     0.173 A 
ATOM     76  F   UNL A   1      35.884  29.182  29.363  1.00  0.00    -0.203 F 
ATOM     77  C   UNL A   1      34.790  30.963  28.277  1.00  0.00     0.198 A 
ATOM     78  C   UNL A   1      35.819  33.130  28.198  1.00  0.00     0.198 A 
ATOM     79  F   UNL A   1      37.934  33.462  29.172  1.00  0.00    -0.203 F 
ATOM     80  F   UNL A   1      33.783  30.143  27.946  1.00  0.00    -0.200 F 
ATOM     81  C   UNL A   1      34.760  32.293  27.882  1.00  0.00     0.200 A 
ATOM     82  F   UNL A   1      35.788  34.417  27.827  1.00  0.00    -0.200 F 
ATOM     83  F   UNL A   1      33.714  32.764  27.188  1.00  0.00    -0.200 F 
ENDBRANCH  49  73
BRANCH  61  84
ATOM     84  C   UNL A   1      39.171  32.087  35.891  1.00  0.00     0.064 A 
ATOM     85  C   UNL A   1      38.303  31.507  36.829  1.00  0.00     0.173 A 
ATOM     86  C   UNL A   1      39.568  33.416  36.100  1.00  0.00     0.173 A 
ATOM     87  F   UNL A   1      37.880  30.244  36.668  1.00  0.00    -0.203 F 
ATOM     88  C   UNL A   1      37.835  32.237  37.919  1.00  0.00     0.198 A 
ATOM     89  C   UNL A   1      39.122  34.133  37.208  1.00  0.00     0.198 A 
ATOM     90  F   UNL A   1      40.402  34.017  35.238  1.00  0.00    -0.203 F 
ATOM     91  F   UNL A   1      36.971  31.676  38.778  1.00  0.00    -0.200 F 
ATOM     92  C   UNL A   1      38.252  33.545  38.112  1.00  0.00     0.200 A 
ATOM     93  F   UNL A   1      39.539  35.393  37.401  1.00  0.00    -0.200 F 
ATOM     94  F   UNL A   1      37.810  34.242  39.168  1.00  0.00    -0.200 F 
ENDBRANCH  61  84
ENDBRANCH  35  36
ENDBRANCH  28  30
ENDBRANCH  27  28
ENDBRANCH  26  27
ENDBRANCH  25  26
ENDBRANCH  24  25
ENDBRANCH   1  24
TORSDOF 18
ENDMDL
MODEL 3
REMARK VINA RESULT:     -11.1      1.752      3.089
REMARK SMILES C[N@H+]1CCO[C@@H](C[N@H+]2CCCC[C@@H]2CCC(=O)OCCOCCOC(=O)c2ccc(-c3c4nc(c(-c5c(F)c(F)c(F)c(F)c5F)c5ccc([nH]5)c(-c5c(F)c(F)c(F)c(F)c5F)c5nc(c(-c6c(F)c(F)c(F)c(F)c6F)c6ccc3[nH]6)C=C5)C=C4)cc2)C1
REMARK SMILES IDX 20 1 19 2 18 3 16 4 17 5 15 6 14 7 13 8 8 9 9 10 10 12 12 13
REMARK SMILES IDX 11 14 7 15 6 16 1 17 2 18 3 19 90 20 4 22 5 23 21 24 22 25
REMARK SMILES IDX 23 26 24 27 25 28 26 29 27 30 28 31 89 32 29 33 88 34 30 35
REMARK SMILES IDX 31 36 32 37 82 38 33 39 87 40 81 41 83 42 34 43 86 44 80 45
REMARK SMILES IDX 79 46 35 48 67 49 47 50 66 51 48 52 51 53 65 54 84 55 49 56
REMARK SMILES IDX 50 57 64 59 85 60 52 61 36 62 37 63 45 64 38 65 39 66 43 67
REMARK SMILES IDX 46 68 40 69 41 70 44 71 42 72 68 73 69 74 77 75 70 76 71 77
REMARK SMILES IDX 75 78 78 79 72 80 73 81 76 82 74 83 53 84 54 85 62 86 55 87
REMARK SMILES IDX 56 88 60 89 63 90 57 91 58 92 61 93 59 94
REMARK H PARENT 8 11 2 21 83 47 51 58
REMARK Flexibility Score: inf
ROOT
ATOM      1  C   UNL A   1      40.142  21.334  26.469  1.00  0.00     0.202 C 
ENDROOT
BRANCH   1   2
ATOM      2  C   UNL A   1      38.801  21.541  25.757  1.00  0.00     0.261 C 
BRANCH   2   3
ATOM      3  O   UNL A   1      38.332  22.881  25.983  1.00  0.00    -0.463 OA
BRANCH   3   4
ATOM      4  C   UNL A   1      37.090  23.170  25.534  1.00  0.00     0.306 C 
ATOM      5  O   UNL A   1      36.407  24.112  25.916  1.00  0.00    -0.252 OA
BRANCH   4   6
ATOM      6  C   UNL A   1      36.603  22.200  24.481  1.00  0.00     0.129 C 
BRANCH   6   7
ATOM      7  C   UNL A   1      35.190  21.604  24.589  1.00  0.00     0.077 C 
BRANCH   7   8
ATOM      8  C   UNL A   1      34.031  22.361  23.874  1.00  0.00     0.184 C 
ATOM      9  N   UNL A   1      33.584  23.492  24.703  1.00  0.00    -0.330 N 
ATOM     10  C   UNL A   1      32.913  23.116  25.942  1.00  0.00     0.262 C 
ATOM     11  H   UNL A   1      34.475  23.866  25.029  1.00  0.00     0.348 HD
ATOM     12  C   UNL A   1      31.859  22.012  25.822  1.00  0.00     0.062 C 
ATOM     13  C   UNL A   1      32.866  21.420  23.554  1.00  0.00     0.065 C 
ATOM     14  C   UNL A   1      32.187  20.906  24.819  1.00  0.00     0.012 C 
BRANCH   9  15
ATOM     15  C   UNL A   1      33.103  24.710  24.020  1.00  0.00     0.300 C 
BRANCH  15  16
ATOM     16  C   UNL A   1      31.856  24.694  23.091  1.00  0.00     0.228 C 
ATOM     17  C   UNL A   1      30.375  25.796  25.740  1.00  0.00     0.332 C 
ATOM     18  N   UNL A   1      29.796  25.442  24.449  1.00  0.00    -0.333 N 
ATOM     19  C   UNL A   1      29.721  26.597  23.543  1.00  0.00     0.290 C 
ATOM     20  C   UNL A   1      30.499  24.359  23.744  1.00  0.00     0.300 C 
ATOM     21  H   UNL A   1      28.862  25.110  24.689  1.00  0.00     0.348 HD
ATOM     22  C   UNL A   1      31.089  26.990  22.961  1.00  0.00     0.222 C 
ATOM     23  O   UNL A   1      31.754  25.905  22.304  1.00  0.00    -0.361 OA
ENDBRANCH  15  16
ENDBRANCH   9  15
ENDBRANCH   7   8
ENDBRANCH   6   7
ENDBRANCH   4   6
ENDBRANCH   3   4
ENDBRANCH   2   3
ENDBRANCH   1   2
BRANCH   1  24
ATOM     24  O   UNL A   1      41.197  20.800  25.666  1.00  0.00    -0.374 OA
BRANCH  24  25
ATOM     25  C   UNL A   1      42.489  20.733  26.267  1.00  0.00     0.202 C 
BRANCH  25  26
ATOM     26  C   UNL A   1      43.545  21.707  25.731  1.00  0.00     0.261 C 
BRANCH  26  27
ATOM     27  O   UNL A   1      42.969  22.763  24.942  1.00  0.00    -0.460 OA
BRANCH  27  28
ATOM     28  C   UNL A   1      43.660  23.929  24.974  1.00  0.00     0.338 C 
ATOM     29  O   UNL A   1      44.583  24.265  24.256  1.00  0.00    -0.246 OA
BRANCH  28  30
ATOM     30  C   UNL A   1      43.027  24.859  25.927  1.00  0.00     0.060 A 
ATOM     31  C   UNL A   1      43.641  26.102  26.123  1.00  0.00     0.016 A 
ATOM     32  C   UNL A   1      41.900  24.501  26.666  1.00  0.00     0.016 A 
ATOM     33  C   UNL A   1      43.146  26.982  27.084  1.00  0.00     0.010 A 
ATOM     34  C   UNL A   1      41.410  25.384  27.632  1.00  0.00     0.010 A 
ATOM     35  C   UNL A   1      42.041  26.619  27.864  1.00  0.00    -0.014 A 
BRANCH  35  36
ATOM     36  C   UNL A   1      41.618  27.482  28.996  1.00  0.00     0.031 A 
ATOM     37  C   UNL A   1      42.392  27.438  30.283  1.00  0.00     0.074 A 
ATOM     38  C   UNL A   1      40.568  28.314  28.871  1.00  0.00     0.049 A 
ATOM     39  N   UNL A   1      42.183  28.085  31.403  1.00  0.00    -0.248 NA
ATOM     40  C   UNL A   1      43.557  26.540  30.316  1.00  0.00     0.031 C 
ATOM     41  C   UNL A   1      39.748  28.461  27.672  1.00  0.00     0.029 A 
ATOM     42  N   UNL A   1      40.012  29.190  29.771  1.00  0.00    -0.354 N 
ATOM     43  C   UNL A   1      43.181  27.664  32.273  1.00  0.00     0.074 A 
ATOM     44  C   UNL A   1      43.975  26.684  31.564  1.00  0.00     0.031 C 
ATOM     45  C   UNL A   1      38.792  29.376  27.907  1.00  0.00     0.029 A 
ATOM     46  C   UNL A   1      38.908  29.848  29.286  1.00  0.00     0.049 A 
ATOM     47  H   UNL A   1      40.369  29.335  30.677  1.00  0.00     0.167 HD
ATOM     48  C   UNL A   1      43.419  28.069  33.544  1.00  0.00     0.037 A 
ATOM     49  C   UNL A   1      38.072  30.712  29.894  1.00  0.00     0.037 A 
ATOM     50  C   UNL A   1      42.635  29.054  34.242  1.00  0.00     0.049 A 
ATOM     51  C   UNL A   1      38.321  31.099  31.330  1.00  0.00     0.074 A 
ATOM     52  C   UNL A   1      42.827  29.563  35.515  1.00  0.00     0.029 A 
ATOM     53  N   UNL A   1      41.503  29.670  33.732  1.00  0.00    -0.354 N 
ATOM     54  N   UNL A   1      39.290  30.730  32.131  1.00  0.00    -0.248 NA
ATOM     55  C   UNL A   1      37.356  32.022  31.945  1.00  0.00     0.031 C 
ATOM     56  C   UNL A   1      41.777  30.442  35.797  1.00  0.00     0.029 A 
ATOM     57  C   UNL A   1      40.962  30.526  34.679  1.00  0.00     0.049 A 
ATOM     58  H   UNL A   1      41.138  29.523  32.829  1.00  0.00     0.167 HD
ATOM     59  C   UNL A   1      39.063  31.383  33.335  1.00  0.00     0.074 A 
ATOM     60  C   UNL A   1      37.876  32.191  33.153  1.00  0.00     0.031 C 
ATOM     61  C   UNL A   1      39.774  31.318  34.489  1.00  0.00     0.037 A 
BRANCH  48  62
ATOM     62  C   UNL A   1      44.561  27.424  34.275  1.00  0.00     0.064 A 
ATOM     63  C   UNL A   1      44.400  26.231  34.997  1.00  0.00     0.173 A 
ATOM     64  C   UNL A   1      45.843  27.990  34.222  1.00  0.00     0.173 A 
ATOM     65  F   UNL A   1      43.192  25.655  35.088  1.00  0.00    -0.203 F 
ATOM     66  C   UNL A   1      45.475  25.645  35.661  1.00  0.00     0.198 A 
ATOM     67  C   UNL A   1      46.922  27.386  34.862  1.00  0.00     0.198 A 
ATOM     68  F   UNL A   1      46.054  29.127  33.542  1.00  0.00    -0.203 F 
ATOM     69  F   UNL A   1      45.287  24.533  36.384  1.00  0.00    -0.200 F 
ATOM     70  C   UNL A   1      46.735  26.218  35.587  1.00  0.00     0.200 A 
ATOM     71  F   UNL A   1      48.142  27.933  34.778  1.00  0.00    -0.200 F 
ATOM     72  F   UNL A   1      47.770  25.649  36.220  1.00  0.00    -0.200 F 
ENDBRANCH  48  62
BRANCH  49  73
ATOM     73  C   UNL A   1      36.901  31.254  29.154  1.00  0.00     0.064 A 
ATOM     74  C   UNL A   1      36.865  32.589  28.732  1.00  0.00     0.173 A 
ATOM     75  C   UNL A   1      35.789  30.448  28.865  1.00  0.00     0.173 A 
ATOM     76  F   UNL A   1      37.891  33.408  29.010  1.00  0.00    -0.203 F 
ATOM     77  C   UNL A   1      35.757  33.102  28.059  1.00  0.00     0.198 A 
ATOM     78  C   UNL A   1      34.696  30.953  28.167  1.00  0.00     0.198 A 
ATOM     79  F   UNL A   1      35.771  29.165  29.253  1.00  0.00    -0.203 F 
ATOM     80  F   UNL A   1      35.729  34.394  27.706  1.00  0.00    -0.200 F 
ATOM     81  C   UNL A   1      34.677  32.281  27.770  1.00  0.00     0.200 A 
ATOM     82  F   UNL A   1      33.659  30.154  27.880  1.00  0.00    -0.200 F 
ATOM     83  F   UNL A   1      33.615  32.773  27.118  1.00  0.00    -0.200 F 
ENDBRANCH  49  73
BRANCH  61  84
ATOM     84  C   UNL A   1      39.294  32.148  35.645  1.00  0.00     0.064 A 
ATOM     85  C   UNL A   1      38.454  31.614  36.633  1.00  0.00     0.173 A 
ATOM     86  C   UNL A   1      39.714  33.479  35.791  1.00  0.00     0.173 A 
ATOM     87  F   UNL A   1      38.012  30.351  36.533  1.00  0.00    -0.203 F 
ATOM     88  C   UNL A   1      38.037  32.388  37.714  1.00  0.00     0.198 A 
ATOM     89  C   UNL A   1      39.319  34.240  36.889  1.00  0.00     0.198 A 
ATOM     90  F   UNL A   1      40.522  34.038  34.878  1.00  0.00    -0.203 F 
ATOM     91  F   UNL A   1      37.199  31.868  38.623  1.00  0.00    -0.200 F 
ATOM     92  C   UNL A   1      38.476  33.696  37.845  1.00  0.00     0.200 A 
ATOM     93  F   UNL A   1      39.758  35.500  37.021  1.00  0.00    -0.200 F 
ATOM     94  F   UNL A   1      38.082  34.435  38.890  1.00  0.00    -0.200 F 
ENDBRANCH  61  84
ENDBRANCH  35  36
ENDBRANCH  28  30
ENDBRANCH  27  28
ENDBRANCH  26  27
ENDBRANCH  25  26
ENDBRANCH  24  25
ENDBRANCH   1  24
TORSDOF 18
ENDMDL
