MODEL 1
REMARK VINA RESULT:     -12.7      0.000      0.000
REMARK SMILES Cn1cc(/C=C2\SC(=S)N(c3cccc(C(=O)OCCOCCOC(=O)c4ccc(-c5c6nc(c(-c7c(F)c(F)c(F)c(F)c7F)c7ccc([nH]7)c(-c7c(F)c(F)c(F)c(F)c7F)c7nc(c(-c8c(F)c(F)c(F)c(F)c8F)c8ccc5[nH]8)C=C7)C=C6)cc4)c3)C2=O)c2ccccc21
REMARK SMILES IDX 21 1 20 2 19 3 18 4 16 5 17 6 15 7 11 8 12 9 90 10 13 11
REMARK SMILES IDX 14 12 10 13 5 14 6 15 7 16 91 17 8 18 92 19 9 20 4 21 1 22
REMARK SMILES IDX 2 23 3 24 98 25 93 26 97 27 94 28 96 29 95 30 22 31 23 32
REMARK SMILES IDX 24 33 25 34 26 35 27 36 28 37 89 38 29 39 88 40 30 41 31 42
REMARK SMILES IDX 32 43 82 44 33 45 87 46 81 47 83 48 34 49 86 50 80 51 79 52
REMARK SMILES IDX 35 54 67 55 47 56 66 57 48 58 51 59 65 60 84 61 49 62 50 63
REMARK SMILES IDX 64 65 85 66 52 67 36 68 37 69 45 70 38 71 39 72 43 73 46 74
REMARK SMILES IDX 40 75 41 76 44 77 42 78 68 79 69 80 77 81 70 82 71 83 75 84
REMARK SMILES IDX 78 85 72 86 73 87 76 88 74 89 53 90 54 91 62 92 55 93 56 94
REMARK SMILES IDX 60 95 63 96 57 97 58 98 61 99 59 100
REMARK H PARENT 83 53 51 64
REMARK Flexibility Score: inf
ROOT
ATOM      1  O   UNL A   1      34.672  31.828  28.893  1.00  0.00    -0.374 OA
ENDROOT
BRANCH   1   2
ATOM      2  C   UNL A   1      34.133  31.582  27.596  1.00  0.00     0.202 C 
BRANCH   2   3
ATOM      3  C   UNL A   1      33.557  30.188  27.329  1.00  0.00     0.261 C 
BRANCH   3   4
ATOM      4  O   UNL A   1      33.228  30.010  25.943  1.00  0.00    -0.460 OA
BRANCH   4   5
ATOM      5  C   UNL A   1      31.922  30.205  25.633  1.00  0.00     0.338 C 
ATOM      6  O   UNL A   1      31.264  31.213  25.836  1.00  0.00    -0.246 OA
BRANCH   5   7
ATOM      7  C   UNL A   1      31.424  29.069  24.822  1.00  0.00     0.062 A 
ATOM      8  C   UNL A   1      31.643  26.825  23.895  1.00  0.00     0.051 A 
ATOM      9  C   UNL A   1      30.442  27.036  23.197  1.00  0.00     0.027 A 
ATOM     10  C   UNL A   1      32.145  27.876  24.680  1.00  0.00     0.042 A 
ATOM     11  C   UNL A   1      29.730  28.232  23.323  1.00  0.00     0.003 A 
ATOM     12  C   UNL A   1      30.212  29.242  24.148  1.00  0.00     0.016 A 
BRANCH   8  13
ATOM     13  N   UNL A   1      32.324  25.565  23.804  1.00  0.00    -0.261 N 
ATOM     14  C   UNL A   1      33.731  22.700  25.552  1.00  0.00     0.031 C 
ATOM     15  C   UNL A   1      33.329  23.579  24.622  1.00  0.00     0.081 C 
ATOM     16  S   UNL A   1      33.507  23.437  22.922  1.00  0.00    -0.054 SA
ATOM     17  C   UNL A   1      32.609  24.836  24.963  1.00  0.00     0.270 C 
ATOM     18  C   UNL A   1      32.781  25.009  22.613  1.00  0.00     0.152 C 
ATOM     19  O   UNL A   1      32.310  25.116  26.118  1.00  0.00    -0.268 OA
ATOM     20  S   UNL A   1      32.831  25.645  21.063  1.00  0.00    -0.051 S 
BRANCH  14  21
ATOM     21  C   UNL A   1      34.439  21.486  25.305  1.00  0.00     0.001 A 
ATOM     22  C   UNL A   1      37.468  19.540  24.969  1.00  0.00     0.149 C 
ATOM     23  N   UNL A   1      36.122  20.065  25.040  1.00  0.00    -0.350 N 
ATOM     24  C   UNL A   1      35.806  21.346  25.404  1.00  0.00     0.094 A 
ATOM     25  C   UNL A   1      34.977  19.356  24.735  1.00  0.00     0.048 A 
ATOM     26  C   UNL A   1      33.897  20.227  24.918  1.00  0.00     0.007 A 
ATOM     27  C   UNL A   1      34.804  18.030  24.309  1.00  0.00     0.027 A 
ATOM     28  C   UNL A   1      32.593  19.747  24.670  1.00  0.00     0.011 A 
ATOM     29  C   UNL A   1      33.503  17.583  24.066  1.00  0.00     0.002 A 
ATOM     30  C   UNL A   1      32.411  18.425  24.248  1.00  0.00     0.001 A 
ENDBRANCH  14  21
ENDBRANCH   8  13
ENDBRANCH   5   7
ENDBRANCH   4   5
ENDBRANCH   3   4
ENDBRANCH   2   3
ENDBRANCH   1   2
BRANCH   1  31
ATOM     31  C   UNL A   1      34.346  33.068  29.520  1.00  0.00     0.202 C 
BRANCH  31  32
ATOM     32  C   UNL A   1      34.505  33.152  31.045  1.00  0.00     0.261 C 
BRANCH  32  33
ATOM     33  O   UNL A   1      35.052  31.947  31.613  1.00  0.00    -0.460 OA
BRANCH  33  34
ATOM     34  C   UNL A   1      36.030  32.139  32.530  1.00  0.00     0.338 C 
ATOM     35  O   UNL A   1      35.902  32.455  33.704  1.00  0.00    -0.246 OA
BRANCH  34  36
ATOM     36  C   UNL A   1      37.324  31.727  31.957  1.00  0.00     0.060 A 
ATOM     37  C   UNL A   1      37.542  31.956  30.592  1.00  0.00     0.016 A 
ATOM     38  C   UNL A   1      38.289  31.086  32.733  1.00  0.00     0.016 A 
ATOM     39  C   UNL A   1      38.729  31.536  29.994  1.00  0.00     0.010 A 
ATOM     40  C   UNL A   1      39.472  30.652  32.128  1.00  0.00     0.010 A 
ATOM     41  C   UNL A   1      39.693  30.863  30.755  1.00  0.00    -0.014 A 
BRANCH  41  42
ATOM     42  C   UNL A   1      40.910  30.313  30.109  1.00  0.00     0.031 A 
ATOM     43  C   UNL A   1      42.073  31.221  29.831  1.00  0.00     0.074 A 
ATOM     44  C   UNL A   1      40.958  29.019  29.747  1.00  0.00     0.049 A 
ATOM     45  N   UNL A   1      43.170  30.981  29.160  1.00  0.00    -0.248 NA
ATOM     46  C   UNL A   1      41.985  32.584  30.378  1.00  0.00     0.031 C 
ATOM     47  C   UNL A   1      39.906  28.034  29.995  1.00  0.00     0.029 A 
ATOM     48  N   UNL A   1      41.921  28.317  29.064  1.00  0.00    -0.354 N 
ATOM     49  C   UNL A   1      43.895  32.166  29.185  1.00  0.00     0.074 A 
ATOM     50  C   UNL A   1      43.109  33.128  29.928  1.00  0.00     0.031 C 
ATOM     51  C   UNL A   1      40.266  26.863  29.443  1.00  0.00     0.029 A 
ATOM     52  C   UNL A   1      41.550  27.029  28.765  1.00  0.00     0.049 A 
ATOM     53  H   UNL A   1      42.792  28.701  28.813  1.00  0.00     0.167 HD
ATOM     54  C   UNL A   1      45.105  32.422  28.635  1.00  0.00     0.037 A 
ATOM     55  C   UNL A   1      42.155  26.106  27.993  1.00  0.00     0.037 A 
ATOM     56  C   UNL A   1      45.886  31.455  27.907  1.00  0.00     0.049 A 
ATOM     57  C   UNL A   1      43.470  26.442  27.335  1.00  0.00     0.074 A 
ATOM     58  C   UNL A   1      47.147  31.605  27.357  1.00  0.00     0.029 A 
ATOM     59  N   UNL A   1      45.473  30.164  27.614  1.00  0.00    -0.354 N 
ATOM     60  N   UNL A   1      44.171  27.549  27.399  1.00  0.00    -0.248 NA
ATOM     61  C   UNL A   1      44.077  25.401  26.493  1.00  0.00     0.031 C 
ATOM     62  C   UNL A   1      47.470  30.429  26.674  1.00  0.00     0.029 A 
ATOM     63  C   UNL A   1      46.438  29.521  26.853  1.00  0.00     0.049 A 
ATOM     64  H   UNL A   1      44.622  29.763  27.904  1.00  0.00     0.167 HD
ATOM     65  C   UNL A   1      45.307  27.329  26.631  1.00  0.00     0.074 A 
ATOM     66  C   UNL A   1      45.214  25.975  26.126  1.00  0.00     0.031 C 
ATOM     67  C   UNL A   1      46.334  28.172  26.361  1.00  0.00     0.037 A 
BRANCH  54  68
ATOM     68  C   UNL A   1      45.658  33.811  28.762  1.00  0.00     0.064 A 
ATOM     69  C   UNL A   1      46.497  34.181  29.823  1.00  0.00     0.173 A 
ATOM     70  C   UNL A   1      45.409  34.762  27.760  1.00  0.00     0.173 A 
ATOM     71  F   UNL A   1      46.759  33.313  30.811  1.00  0.00    -0.203 F 
ATOM     72  C   UNL A   1      47.058  35.456  29.880  1.00  0.00     0.198 A 
ATOM     73  C   UNL A   1      45.992  36.025  27.806  1.00  0.00     0.198 A 
ATOM     74  F   UNL A   1      44.617  34.456  26.720  1.00  0.00    -0.203 F 
ATOM     75  F   UNL A   1      47.833  35.799  30.919  1.00  0.00    -0.200 F 
ATOM     76  C   UNL A   1      46.814  36.372  28.868  1.00  0.00     0.200 A 
ATOM     77  F   UNL A   1      45.767  36.901  26.818  1.00  0.00    -0.200 F 
ATOM     78  F   UNL A   1      47.369  37.590  28.916  1.00  0.00    -0.200 F 
ENDBRANCH  54  68
BRANCH  55  79
ATOM     79  C   UNL A   1      41.505  24.790  27.750  1.00  0.00     0.064 A 
ATOM     80  C   UNL A   1      42.014  23.612  28.314  1.00  0.00     0.173 A 
ATOM     81  C   UNL A   1      40.385  24.678  26.912  1.00  0.00     0.173 A 
ATOM     82  F   UNL A   1      43.101  23.661  29.100  1.00  0.00    -0.203 F 
ATOM     83  C   UNL A   1      41.449  22.371  28.023  1.00  0.00     0.198 A 
ATOM     84  C   UNL A   1      39.800  23.442  26.650  1.00  0.00     0.198 A 
ATOM     85  F   UNL A   1      39.859  25.773  26.344  1.00  0.00    -0.203 F 
ATOM     86  F   UNL A   1      41.999  21.255  28.521  1.00  0.00    -0.200 F 
ATOM     87  C   UNL A   1      40.339  22.288  27.195  1.00  0.00     0.200 A 
ATOM     88  F   UNL A   1      38.721  23.368  25.859  1.00  0.00    -0.200 F 
ATOM     89  F   UNL A   1      39.801  21.094  26.911  1.00  0.00    -0.200 F 
ENDBRANCH  55  79
BRANCH  67  90
ATOM     90  C   UNL A   1      47.453  27.650  25.506  1.00  0.00     0.064 A 
ATOM     91  C   UNL A   1      48.522  26.926  26.052  1.00  0.00     0.173 A 
ATOM     92  C   UNL A   1      47.432  27.838  24.114  1.00  0.00     0.173 A 
ATOM     93  F   UNL A   1      48.598  26.731  27.377  1.00  0.00    -0.203 F 
ATOM     94  C   UNL A   1      49.542  26.432  25.242  1.00  0.00     0.198 A 
ATOM     95  C   UNL A   1      48.435  27.312  23.304  1.00  0.00     0.198 A 
ATOM     96  F   UNL A   1      46.428  28.516  23.539  1.00  0.00    -0.203 F 
ATOM     97  F   UNL A   1      50.579  25.786  25.794  1.00  0.00    -0.200 F 
ATOM     98  C   UNL A   1      49.493  26.617  23.869  1.00  0.00     0.200 A 
ATOM     99  F   UNL A   1      48.376  27.479  21.975  1.00  0.00    -0.200 F 
ATOM    100  F   UNL A   1      50.468  26.131  23.090  1.00  0.00    -0.200 F 
ENDBRANCH  67  90
ENDBRANCH  41  42
ENDBRANCH  34  36
ENDBRANCH  33  34
ENDBRANCH  32  33
ENDBRANCH  31  32
ENDBRANCH   1  31
TORSDOF 16
ENDMDL
MODEL 2
REMARK VINA RESULT:     -12.7      5.319     10.647
REMARK SMILES Cn1cc(/C=C2\SC(=S)N(c3cccc(C(=O)OCCOCCOC(=O)c4ccc(-c5c6nc(c(-c7c(F)c(F)c(F)c(F)c7F)c7ccc([nH]7)c(-c7c(F)c(F)c(F)c(F)c7F)c7nc(c(-c8c(F)c(F)c(F)c(F)c8F)c8ccc5[nH]8)C=C7)C=C6)cc4)c3)C2=O)c2ccccc21
REMARK SMILES IDX 21 1 20 2 19 3 18 4 16 5 17 6 15 7 11 8 12 9 90 10 13 11
REMARK SMILES IDX 14 12 10 13 5 14 6 15 7 16 91 17 8 18 92 19 9 20 4 21 1 22
REMARK SMILES IDX 2 23 3 24 98 25 93 26 97 27 94 28 96 29 95 30 22 31 23 32
REMARK SMILES IDX 24 33 25 34 26 35 27 36 28 37 89 38 29 39 88 40 30 41 31 42
REMARK SMILES IDX 32 43 82 44 33 45 87 46 81 47 83 48 34 49 86 50 80 51 79 52
REMARK SMILES IDX 35 54 67 55 47 56 66 57 48 58 51 59 65 60 84 61 49 62 50 63
REMARK SMILES IDX 64 65 85 66 52 67 36 68 37 69 45 70 38 71 39 72 43 73 46 74
REMARK SMILES IDX 40 75 41 76 44 77 42 78 68 79 69 80 77 81 70 82 71 83 75 84
REMARK SMILES IDX 78 85 72 86 73 87 76 88 74 89 53 90 54 91 62 92 55 93 56 94
REMARK SMILES IDX 60 95 63 96 57 97 58 98 61 99 59 100
REMARK H PARENT 83 53 51 64
REMARK Flexibility Score: inf
ROOT
ATOM      1  O   UNL A   1      39.934  21.474  26.746  1.00  0.00    -0.374 OA
ENDROOT
BRANCH   1   2
ATOM      2  C   UNL A   1      39.119  22.198  25.828  1.00  0.00     0.202 C 
BRANCH   2   3
ATOM      3  C   UNL A   1      37.616  22.259  26.120  1.00  0.00     0.261 C 
BRANCH   3   4
ATOM      4  O   UNL A   1      36.838  22.007  24.940  1.00  0.00    -0.460 OA
BRANCH   4   5
ATOM      5  C   UNL A   1      36.291  20.768  24.866  1.00  0.00     0.338 C 
ATOM      6  O   UNL A   1      36.866  19.703  25.023  1.00  0.00    -0.246 OA
BRANCH   5   7
ATOM      7  C   UNL A   1      34.818  20.878  24.747  1.00  0.00     0.062 A 
ATOM      8  C   UNL A   1      32.753  22.171  24.681  1.00  0.00     0.051 A 
ATOM      9  C   UNL A   1      32.040  20.961  24.611  1.00  0.00     0.027 A 
ATOM     10  C   UNL A   1      34.152  22.110  24.789  1.00  0.00     0.042 A 
ATOM     11  C   UNL A   1      32.702  19.730  24.588  1.00  0.00     0.003 A 
ATOM     12  C   UNL A   1      34.091  19.689  24.639  1.00  0.00     0.016 A 
BRANCH   8  13
ATOM     13  N   UNL A   1      32.058  23.426  24.637  1.00  0.00    -0.261 N 
ATOM     14  C   UNL A   1      31.733  26.705  23.094  1.00  0.00     0.031 C 
ATOM     15  C   UNL A   1      31.580  25.614  23.859  1.00  0.00     0.081 C 
ATOM     16  S   UNL A   1      30.410  25.371  25.089  1.00  0.00    -0.054 SA
ATOM     17  C   UNL A   1      32.427  24.400  23.705  1.00  0.00     0.270 C 
ATOM     18  C   UNL A   1      31.035  23.782  25.511  1.00  0.00     0.152 C 
ATOM     19  O   UNL A   1      33.290  24.321  22.838  1.00  0.00    -0.268 OA
ATOM     20  S   UNL A   1      30.449  23.006  26.876  1.00  0.00    -0.051 S 
BRANCH  14  21
ATOM     21  C   UNL A   1      30.974  27.910  23.194  1.00  0.00     0.001 A 
ATOM     22  C   UNL A   1      28.479  30.245  22.014  1.00  0.00     0.149 C 
ATOM     23  N   UNL A   1      29.510  29.504  22.706  1.00  0.00    -0.350 N 
ATOM     24  C   UNL A   1      29.963  28.268  22.329  1.00  0.00     0.094 A 
ATOM     25  C   UNL A   1      30.189  29.943  23.824  1.00  0.00     0.048 A 
ATOM     26  C   UNL A   1      31.105  28.942  24.166  1.00  0.00     0.007 A 
ATOM     27  C   UNL A   1      30.081  31.137  24.555  1.00  0.00     0.027 A 
ATOM     28  C   UNL A   1      31.937  29.142  25.289  1.00  0.00     0.011 A 
ATOM     29  C   UNL A   1      30.919  31.311  25.658  1.00  0.00     0.002 A 
ATOM     30  C   UNL A   1      31.832  30.328  26.025  1.00  0.00     0.001 A 
ENDBRANCH  14  21
ENDBRANCH   8  13
ENDBRANCH   5   7
ENDBRANCH   4   5
ENDBRANCH   3   4
ENDBRANCH   2   3
ENDBRANCH   1   2
BRANCH   1  31
ATOM     31  C   UNL A   1      40.863  20.534  26.206  1.00  0.00     0.202 C 
BRANCH  31  32
ATOM     32  C   UNL A   1      42.280  21.037  25.901  1.00  0.00     0.261 C 
BRANCH  32  33
ATOM     33  O   UNL A   1      42.286  22.326  25.260  1.00  0.00    -0.460 OA
BRANCH  33  34
ATOM     34  C   UNL A   1      43.343  23.115  25.567  1.00  0.00     0.338 C 
ATOM     35  O   UNL A   1      44.460  23.093  25.073  1.00  0.00    -0.246 OA
BRANCH  34  36
ATOM     36  C   UNL A   1      42.908  24.174  26.495  1.00  0.00     0.060 A 
ATOM     37  C   UNL A   1      43.590  25.398  26.464  1.00  0.00     0.016 A 
ATOM     38  C   UNL A   1      41.880  23.956  27.412  1.00  0.00     0.016 A 
ATOM     39  C   UNL A   1      43.250  26.410  27.359  1.00  0.00     0.010 A 
ATOM     40  C   UNL A   1      41.550  24.968  28.318  1.00  0.00     0.010 A 
ATOM     41  C   UNL A   1      42.240  26.194  28.305  1.00  0.00    -0.014 A 
BRANCH  41  42
ATOM     42  C   UNL A   1      41.942  27.220  29.334  1.00  0.00     0.031 A 
ATOM     43  C   UNL A   1      42.717  27.222  30.620  1.00  0.00     0.074 A 
ATOM     44  C   UNL A   1      40.964  28.120  29.130  1.00  0.00     0.049 A 
ATOM     45  N   UNL A   1      42.531  27.937  31.700  1.00  0.00    -0.248 NA
ATOM     46  C   UNL A   1      43.853  26.289  30.702  1.00  0.00     0.031 C 
ATOM     47  C   UNL A   1      40.168  28.238  27.910  1.00  0.00     0.029 A 
ATOM     48  N   UNL A   1      40.454  29.088  29.960  1.00  0.00    -0.354 N 
ATOM     49  C   UNL A   1      43.509  27.528  32.597  1.00  0.00     0.074 A 
ATOM     50  C   UNL A   1      44.282  26.494  31.941  1.00  0.00     0.031 C 
ATOM     51  C   UNL A   1      39.246  29.201  28.082  1.00  0.00     0.029 A 
ATOM     52  C   UNL A   1      39.359  29.733  29.439  1.00  0.00     0.049 A 
ATOM     53  H   UNL A   1      40.835  29.298  30.843  1.00  0.00     0.167 HD
ATOM     54  C   UNL A   1      43.736  27.977  33.854  1.00  0.00     0.037 A 
ATOM     55  C   UNL A   1      38.516  30.617  30.008  1.00  0.00     0.037 A 
ATOM     56  C   UNL A   1      42.970  29.015  34.495  1.00  0.00     0.049 A 
ATOM     57  C   UNL A   1      38.753  31.048  31.435  1.00  0.00     0.074 A 
ATOM     58  C   UNL A   1      43.158  29.575  35.747  1.00  0.00     0.029 A 
ATOM     59  N   UNL A   1      41.862  29.637  33.942  1.00  0.00    -0.354 N 
ATOM     60  N   UNL A   1      39.705  30.691  32.262  1.00  0.00    -0.248 NA
ATOM     61  C   UNL A   1      37.794  32.003  32.007  1.00  0.00     0.031 C 
ATOM     62  C   UNL A   1      42.124  30.486  35.978  1.00  0.00     0.029 A 
ATOM     63  C   UNL A   1      41.329  30.544  34.844  1.00  0.00     0.049 A 
ATOM     64  H   UNL A   1      41.507  29.462  33.040  1.00  0.00     0.167 HD
ATOM     65  C   UNL A   1      39.475  31.393  33.438  1.00  0.00     0.074 A 
ATOM     66  C   UNL A   1      38.305  32.214  33.212  1.00  0.00     0.031 C 
ATOM     67  C   UNL A   1      40.166  31.358  34.604  1.00  0.00     0.037 A 
BRANCH  54  68
ATOM     68  C   UNL A   1      44.837  27.333  34.645  1.00  0.00     0.064 A 
ATOM     69  C   UNL A   1      44.626  26.170  35.399  1.00  0.00     0.173 A 
ATOM     70  C   UNL A   1      46.142  27.846  34.580  1.00  0.00     0.173 A 
ATOM     71  F   UNL A   1      43.397  25.645  35.502  1.00  0.00    -0.203 F 
ATOM     72  C   UNL A   1      45.681  25.550  36.067  1.00  0.00     0.198 A 
ATOM     73  C   UNL A   1      47.198  27.209  35.225  1.00  0.00     0.198 A 
ATOM     74  F   UNL A   1      46.398  28.954  33.867  1.00  0.00    -0.203 F 
ATOM     75  F   UNL A   1      45.452  24.455  36.806  1.00  0.00    -0.200 F 
ATOM     76  C   UNL A   1      46.966  26.063  35.971  1.00  0.00     0.200 A 
ATOM     77  F   UNL A   1      48.440  27.698  35.118  1.00  0.00    -0.200 F 
ATOM     78  F   UNL A   1      47.981  25.455  36.598  1.00  0.00    -0.200 F 
ENDBRANCH  54  68
BRANCH  55  79
ATOM     79  C   UNL A   1      37.336  31.119  29.254  1.00  0.00     0.064 A 
ATOM     80  C   UNL A   1      37.273  32.443  28.798  1.00  0.00     0.173 A 
ATOM     81  C   UNL A   1      36.226  30.295  29.013  1.00  0.00     0.173 A 
ATOM     82  F   UNL A   1      38.297  33.279  29.028  1.00  0.00    -0.203 F 
ATOM     83  C   UNL A   1      36.134  32.932  28.160  1.00  0.00     0.198 A 
ATOM     84  C   UNL A   1      35.102  30.774  28.344  1.00  0.00     0.198 A 
ATOM     85  F   UNL A   1      36.232  29.020  29.430  1.00  0.00    -0.203 F 
ATOM     86  F   UNL A   1      36.075  34.220  27.795  1.00  0.00    -0.200 F 
ATOM     87  C   UNL A   1      35.052  32.096  27.929  1.00  0.00     0.200 A 
ATOM     88  F   UNL A   1      34.064  29.960  28.113  1.00  0.00    -0.200 F 
ATOM     89  F   UNL A   1      33.956  32.569  27.321  1.00  0.00    -0.200 F 
ENDBRANCH  55  79
BRANCH  67  90
ATOM     90  C   UNL A   1      39.695  32.252  35.715  1.00  0.00     0.064 A 
ATOM     91  C   UNL A   1      40.218  33.541  35.897  1.00  0.00     0.173 A 
ATOM     92  C   UNL A   1      38.674  31.831  36.583  1.00  0.00     0.173 A 
ATOM     93  F   UNL A   1      41.205  33.986  35.106  1.00  0.00    -0.203 F 
ATOM     94  C   UNL A   1      39.755  34.364  36.921  1.00  0.00     0.198 A 
ATOM     95  C   UNL A   1      38.190  32.670  37.582  1.00  0.00     0.198 A 
ATOM     96  F   UNL A   1      38.132  30.611  36.448  1.00  0.00    -0.203 F 
ATOM     97  F   UNL A   1      40.306  35.572  37.106  1.00  0.00    -0.200 F 
ATOM     98  C   UNL A   1      38.736  33.933  37.756  1.00  0.00     0.200 A 
ATOM     99  F   UNL A   1      37.193  32.257  38.378  1.00  0.00    -0.200 F 
ATOM    100  F   UNL A   1      38.285  34.730  38.733  1.00  0.00    -0.200 F 
ENDBRANCH  67  90
ENDBRANCH  41  42
ENDBRANCH  34  36
ENDBRANCH  33  34
ENDBRANCH  32  33
ENDBRANCH  31  32
ENDBRANCH   1  31
TORSDOF 16
ENDMDL
MODEL 3
REMARK VINA RESULT:     -12.7      4.936      7.463
REMARK SMILES Cn1cc(/C=C2\SC(=S)N(c3cccc(C(=O)OCCOCCOC(=O)c4ccc(-c5c6nc(c(-c7c(F)c(F)c(F)c(F)c7F)c7ccc([nH]7)c(-c7c(F)c(F)c(F)c(F)c7F)c7nc(c(-c8c(F)c(F)c(F)c(F)c8F)c8ccc5[nH]8)C=C7)C=C6)cc4)c3)C2=O)c2ccccc21
REMARK SMILES IDX 21 1 20 2 19 3 18 4 16 5 17 6 15 7 11 8 12 9 90 10 13 11
REMARK SMILES IDX 14 12 10 13 5 14 6 15 7 16 91 17 8 18 92 19 9 20 4 21 1 22
REMARK SMILES IDX 2 23 3 24 98 25 93 26 97 27 94 28 96 29 95 30 22 31 23 32
REMARK SMILES IDX 24 33 25 34 26 35 27 36 28 37 89 38 29 39 88 40 30 41 31 42
REMARK SMILES IDX 32 43 82 44 33 45 87 46 81 47 83 48 34 49 86 50 80 51 79 52
REMARK SMILES IDX 35 54 67 55 47 56 66 57 48 58 51 59 65 60 84 61 49 62 50 63
REMARK SMILES IDX 64 65 85 66 52 67 36 68 37 69 45 70 38 71 39 72 43 73 46 74
REMARK SMILES IDX 40 75 41 76 44 77 42 78 68 79 69 80 77 81 70 82 71 83 75 84
REMARK SMILES IDX 78 85 72 86 73 87 76 88 74 89 53 90 54 91 62 92 55 93 56 94
REMARK SMILES IDX 60 95 63 96 57 97 58 98 61 99 59 100
REMARK H PARENT 83 53 51 64
REMARK Flexibility Score: inf
ROOT
ATOM      1  O   UNL A   1      34.033  33.484  29.105  1.00  0.00    -0.374 OA
ENDROOT
BRANCH   1   2
ATOM      2  C   UNL A   1      34.704  32.533  28.281  1.00  0.00     0.202 C 
BRANCH   2   3
ATOM      3  C   UNL A   1      34.010  31.187  28.054  1.00  0.00     0.261 C 
BRANCH   3   4
ATOM      4  O   UNL A   1      33.578  31.039  26.693  1.00  0.00    -0.460 OA
BRANCH   4   5
ATOM      5  C   UNL A   1      32.238  31.131  26.502  1.00  0.00     0.338 C 
ATOM      6  O   UNL A   1      31.501  32.018  26.901  1.00  0.00    -0.246 OA
BRANCH   5   7
ATOM      7  C   UNL A   1      31.793  30.078  25.559  1.00  0.00     0.062 A 
ATOM      8  C   UNL A   1      32.059  27.918  24.461  1.00  0.00     0.051 A 
ATOM      9  C   UNL A   1      30.918  28.210  23.692  1.00  0.00     0.027 A 
ATOM     10  C   UNL A   1      32.509  28.889  25.370  1.00  0.00     0.042 A 
ATOM     11  C   UNL A   1      30.212  29.403  23.866  1.00  0.00     0.003 A 
ATOM     12  C   UNL A   1      30.640  30.330  24.811  1.00  0.00     0.016 A 
BRANCH   8  13
ATOM     13  N   UNL A   1      32.730  26.658  24.313  1.00  0.00    -0.261 N 
ATOM     14  C   UNL A   1      33.817  23.556  25.873  1.00  0.00     0.031 C 
ATOM     15  C   UNL A   1      33.573  24.556  25.013  1.00  0.00     0.081 C 
ATOM     16  S   UNL A   1      34.009  24.621  23.355  1.00  0.00    -0.054 SA
ATOM     17  C   UNL A   1      32.825  25.783  25.399  1.00  0.00     0.270 C 
ATOM     18  C   UNL A   1      33.357  26.241  23.143  1.00  0.00     0.152 C 
ATOM     19  O   UNL A   1      32.356  25.926  26.522  1.00  0.00    -0.268 OA
ATOM     20  S   UNL A   1      33.653  27.062  21.713  1.00  0.00    -0.051 S 
BRANCH  14  21
ATOM     21  C   UNL A   1      34.540  22.360  25.583  1.00  0.00     0.001 A 
ATOM     22  C   UNL A   1      37.589  20.506  25.001  1.00  0.00     0.149 C 
ATOM     23  N   UNL A   1      36.239  20.989  25.188  1.00  0.00    -0.350 N 
ATOM     24  C   UNL A   1      35.915  22.267  25.556  1.00  0.00     0.094 A 
ATOM     25  C   UNL A   1      35.095  20.237  25.004  1.00  0.00     0.048 A 
ATOM     26  C   UNL A   1      34.007  21.077  25.271  1.00  0.00     0.007 A 
ATOM     27  C   UNL A   1      34.928  18.898  24.619  1.00  0.00     0.027 A 
ATOM     28  C   UNL A   1      32.703  20.550  25.155  1.00  0.00     0.011 A 
ATOM     29  C   UNL A   1      33.627  18.403  24.507  1.00  0.00     0.002 A 
ATOM     30  C   UNL A   1      32.528  19.214  24.775  1.00  0.00     0.001 A 
ENDBRANCH  14  21
ENDBRANCH   8  13
ENDBRANCH   5   7
ENDBRANCH   4   5
ENDBRANCH   3   4
ENDBRANCH   2   3
ENDBRANCH   1   2
BRANCH   1  31
ATOM     31  C   UNL A   1      33.420  34.601  28.460  1.00  0.00     0.202 C 
BRANCH  31  32
ATOM     32  C   UNL A   1      32.906  35.737  29.354  1.00  0.00     0.261 C 
BRANCH  32  33
ATOM     33  O   UNL A   1      32.254  35.256  30.544  1.00  0.00    -0.460 OA
BRANCH  33  34
ATOM     34  C   UNL A   1      32.674  35.827  31.698  1.00  0.00     0.338 C 
ATOM     35  O   UNL A   1      32.151  36.747  32.310  1.00  0.00    -0.246 OA
BRANCH  34  36
ATOM     36  C   UNL A   1      33.797  35.048  32.248  1.00  0.00     0.060 A 
ATOM     37  C   UNL A   1      35.094  35.554  32.082  1.00  0.00     0.016 A 
ATOM     38  C   UNL A   1      33.589  33.819  32.873  1.00  0.00     0.016 A 
ATOM     39  C   UNL A   1      36.191  34.826  32.537  1.00  0.00     0.010 A 
ATOM     40  C   UNL A   1      34.693  33.083  33.316  1.00  0.00     0.010 A 
ATOM     41  C   UNL A   1      35.999  33.577  33.140  1.00  0.00    -0.014 A 
BRANCH  41  42
ATOM     42  C   UNL A   1      37.162  32.742  33.528  1.00  0.00     0.031 A 
ATOM     43  C   UNL A   1      37.885  33.036  34.810  1.00  0.00     0.074 A 
ATOM     44  C   UNL A   1      37.585  31.753  32.722  1.00  0.00     0.049 A 
ATOM     45  N   UNL A   1      38.998  32.524  35.271  1.00  0.00    -0.248 NA
ATOM     46  C   UNL A   1      37.277  34.046  35.690  1.00  0.00     0.031 C 
ATOM     47  C   UNL A   1      36.944  31.353  31.470  1.00  0.00     0.029 A 
ATOM     48  N   UNL A   1      38.675  30.923  32.822  1.00  0.00    -0.354 N 
ATOM     49  C   UNL A   1      39.235  33.161  36.482  1.00  0.00     0.074 A 
ATOM     50  C   UNL A   1      38.157  34.107  36.682  1.00  0.00     0.031 C 
ATOM     51  C   UNL A   1      37.670  30.376  30.901  1.00  0.00     0.029 A 
ATOM     52  C   UNL A   1      38.849  30.115  31.724  1.00  0.00     0.049 A 
ATOM     53  H   UNL A   1      39.272  30.908  33.604  1.00  0.00     0.167 HD
ATOM     54  C   UNL A   1      40.261  32.972  37.344  1.00  0.00     0.037 A 
ATOM     55  C   UNL A   1      39.867  29.295  31.400  1.00  0.00     0.037 A 
ATOM     56  C   UNL A   1      41.323  32.020  37.144  1.00  0.00     0.049 A 
ATOM     57  C   UNL A   1      41.033  29.156  32.348  1.00  0.00     0.074 A 
ATOM     58  C   UNL A   1      42.379  31.719  37.988  1.00  0.00     0.029 A 
ATOM     59  N   UNL A   1      41.474  31.228  36.016  1.00  0.00    -0.354 N 
ATOM     60  N   UNL A   1      41.228  29.728  33.512  1.00  0.00    -0.248 NA
ATOM     61  C   UNL A   1      42.121  28.258  31.935  1.00  0.00     0.031 C 
ATOM     62  C   UNL A   1      43.205  30.795  37.341  1.00  0.00     0.029 A 
ATOM     63  C   UNL A   1      42.629  30.469  36.123  1.00  0.00     0.049 A 
ATOM     64  H   UNL A   1      40.851  31.206  35.254  1.00  0.00     0.167 HD
ATOM     65  C   UNL A   1      42.444  29.243  33.978  1.00  0.00     0.074 A 
ATOM     66  C   UNL A   1      42.932  28.313  32.983  1.00  0.00     0.031 C 
ATOM     67  C   UNL A   1      43.101  29.544  35.125  1.00  0.00     0.037 A 
BRANCH  54  68
ATOM     68  C   UNL A   1      40.316  33.829  38.575  1.00  0.00     0.064 A 
ATOM     69  C   UNL A   1      39.699  33.446  39.775  1.00  0.00     0.173 A 
ATOM     70  C   UNL A   1      41.069  35.014  38.573  1.00  0.00     0.173 A 
ATOM     71  F   UNL A   1      38.960  32.328  39.827  1.00  0.00    -0.203 F 
ATOM     72  C   UNL A   1      39.826  34.224  40.924  1.00  0.00     0.198 A 
ATOM     73  C   UNL A   1      41.216  35.774  39.730  1.00  0.00     0.198 A 
ATOM     74  F   UNL A   1      41.684  35.422  37.452  1.00  0.00    -0.203 F 
ATOM     75  F   UNL A   1      39.203  33.855  42.052  1.00  0.00    -0.200 F 
ATOM     76  C   UNL A   1      40.592  35.380  40.904  1.00  0.00     0.200 A 
ATOM     77  F   UNL A   1      41.970  36.881  39.711  1.00  0.00    -0.200 F 
ATOM     78  F   UNL A   1      40.728  36.115  42.015  1.00  0.00    -0.200 F 
ENDBRANCH  54  68
BRANCH  55  79
ATOM     79  C   UNL A   1      39.866  28.578  30.096  1.00  0.00     0.064 A 
ATOM     80  C   UNL A   1      39.312  27.297  29.971  1.00  0.00     0.173 A 
ATOM     81  C   UNL A   1      40.460  29.144  28.958  1.00  0.00     0.173 A 
ATOM     82  F   UNL A   1      38.757  26.701  31.038  1.00  0.00    -0.203 F 
ATOM     83  C   UNL A   1      39.381  26.597  28.768  1.00  0.00     0.198 A 
ATOM     84  C   UNL A   1      40.497  28.458  27.746  1.00  0.00     0.198 A 
ATOM     85  F   UNL A   1      41.008  30.366  29.022  1.00  0.00    -0.203 F 
ATOM     86  F   UNL A   1      38.903  25.347  28.696  1.00  0.00    -0.200 F 
ATOM     87  C   UNL A   1      39.968  27.180  27.655  1.00  0.00     0.200 A 
ATOM     88  F   UNL A   1      41.056  29.030  26.671  1.00  0.00    -0.200 F 
ATOM     89  F   UNL A   1      40.039  26.503  26.501  1.00  0.00    -0.200 F 
ENDBRANCH  55  79
BRANCH  67  90
ATOM     90  C   UNL A   1      44.404  28.842  35.382  1.00  0.00     0.064 A 
ATOM     91  C   UNL A   1      45.631  29.399  34.994  1.00  0.00     0.173 A 
ATOM     92  C   UNL A   1      44.429  27.616  36.067  1.00  0.00     0.173 A 
ATOM     93  F   UNL A   1      45.662  30.561  34.324  1.00  0.00    -0.203 F 
ATOM     94  C   UNL A   1      46.831  28.744  35.258  1.00  0.00     0.198 A 
ATOM     95  C   UNL A   1      45.633  26.982  36.360  1.00  0.00     0.198 A 
ATOM     96  F   UNL A   1      43.284  27.043  36.469  1.00  0.00    -0.203 F 
ATOM     97  F   UNL A   1      47.987  29.273  34.832  1.00  0.00    -0.200 F 
ATOM     98  C   UNL A   1      46.832  27.542  35.948  1.00  0.00     0.200 A 
ATOM     99  F   UNL A   1      45.631  25.828  37.042  1.00  0.00    -0.200 F 
ATOM    100  F   UNL A   1      47.989  26.919  36.211  1.00  0.00    -0.200 F 
ENDBRANCH  67  90
ENDBRANCH  41  42
ENDBRANCH  34  36
ENDBRANCH  33  34
ENDBRANCH  32  33
ENDBRANCH  31  32
ENDBRANCH   1  31
TORSDOF 16
ENDMDL
