MODEL 1
REMARK VINA RESULT:     -11.8      0.000      0.000
REMARK SMILES COc1ccc2cc([C@@H](C)C(=O)OCCOCCOC(=O)c3ccc(-c4c5nc(c(-c6c(F)c(F)c(F)c(F)c6F)c6ccc([nH]6)c(-c6c(F)c(F)c(F)c(F)c6F)c6nc(c(-c7c(F)c(F)c(F)c(F)c7F)c7ccc4[nH]7)C=C6)C=C5)cc3)ccc2c1
REMARK SMILES IDX 16 1 15 2 14 3 13 4 11 5 12 6 9 7 10 8 8 9 3 10 4 11 88 12
REMARK SMILES IDX 5 13 87 14 6 15 86 16 7 17 85 18 2 19 1 20 17 21 18 22 19 23
REMARK SMILES IDX 20 24 21 25 22 26 23 27 84 28 24 29 83 30 25 31 26 32 27 33
REMARK SMILES IDX 77 34 28 35 82 36 76 37 78 38 29 39 81 40 75 41 74 42 30 44
REMARK SMILES IDX 62 45 42 46 61 47 43 48 46 49 60 50 79 51 44 52 45 53 59 55
REMARK SMILES IDX 80 56 47 57 31 58 32 59 40 60 33 61 34 62 38 63 41 64 35 65
REMARK SMILES IDX 36 66 39 67 37 68 63 69 64 70 72 71 65 72 66 73 70 74 73 75
REMARK SMILES IDX 67 76 68 77 71 78 69 79 48 80 49 81 57 82 50 83 51 84 55 85
REMARK SMILES IDX 58 86 52 87 53 88 56 89 54 90
REMARK H PARENT 78 43 46 54
REMARK Flexibility Score: inf
ROOT
ATOM      1  O   UNL A   1      31.652  28.532  26.087  1.00  0.00    -0.374 OA
ENDROOT
BRANCH   1   2
ATOM      2  C   UNL A   1      32.751  27.694  26.444  1.00  0.00     0.202 C 
BRANCH   2   3
ATOM      3  C   UNL A   1      32.438  26.203  26.586  1.00  0.00     0.261 C 
BRANCH   3   4
ATOM      4  O   UNL A   1      31.018  25.968  26.622  1.00  0.00    -0.463 OA
BRANCH   4   5
ATOM      5  C   UNL A   1      30.616  24.724  26.251  1.00  0.00     0.313 C 
ATOM      6  O   UNL A   1      30.504  23.775  27.023  1.00  0.00    -0.252 OA
BRANCH   5   7
ATOM      7  C   UNL A   1      30.350  24.574  24.763  1.00  0.00     0.126 C 
ATOM      8  C   UNL A   1      31.405  23.649  24.159  1.00  0.00     0.025 C 
BRANCH   7   9
ATOM      9  C   UNL A   1      30.166  25.839  23.931  1.00  0.00    -0.033 A 
ATOM     10  C   UNL A   1      28.713  30.329  22.005  1.00  0.00     0.119 A 
ATOM     11  C   UNL A   1      27.590  29.798  22.634  1.00  0.00     0.047 A 
ATOM     12  C   UNL A   1      29.890  29.582  21.952  1.00  0.00     0.055 A 
ATOM     13  C   UNL A   1      27.660  28.540  23.244  1.00  0.00     0.012 A 
ATOM     14  C   UNL A   1      29.979  28.324  22.573  1.00  0.00    -0.015 A 
ATOM     15  C   UNL A   1      28.852  27.796  23.238  1.00  0.00    -0.018 A 
ATOM     16  C   UNL A   1      31.173  27.592  22.567  1.00  0.00     0.009 A 
ATOM     17  C   UNL A   1      28.956  26.554  23.898  1.00  0.00     0.013 A 
ATOM     18  C   UNL A   1      31.266  26.370  23.239  1.00  0.00     0.005 A 
BRANCH  10  19
ATOM     19  O   UNL A   1      28.759  31.546  21.379  1.00  0.00    -0.497 OA
ATOM     20  C   UNL A   1      28.517  32.670  22.221  1.00  0.00     0.278 C 
ENDBRANCH  10  19
ENDBRANCH   7   9
ENDBRANCH   5   7
ENDBRANCH   4   5
ENDBRANCH   3   4
ENDBRANCH   2   3
ENDBRANCH   1   2
BRANCH   1  21
ATOM     21  C   UNL A   1      31.952  29.768  25.438  1.00  0.00     0.202 C 
BRANCH  21  22
ATOM     22  C   UNL A   1      31.852  31.029  26.303  1.00  0.00     0.261 C 
BRANCH  22  23
ATOM     23  O   UNL A   1      32.711  30.966  27.456  1.00  0.00    -0.460 OA
BRANCH  23  24
ATOM     24  C   UNL A   1      33.551  32.015  27.600  1.00  0.00     0.338 C 
ATOM     25  O   UNL A   1      33.266  33.205  27.596  1.00  0.00    -0.246 OA
BRANCH  24  26
ATOM     26  C   UNL A   1      34.902  31.537  27.949  1.00  0.00     0.060 A 
ATOM     27  C   UNL A   1      35.061  30.164  28.173  1.00  0.00     0.016 A 
ATOM     28  C   UNL A   1      35.968  32.417  28.138  1.00  0.00     0.016 A 
ATOM     29  C   UNL A   1      36.277  29.671  28.642  1.00  0.00     0.010 A 
ATOM     30  C   UNL A   1      37.187  31.921  28.615  1.00  0.00     0.010 A 
ATOM     31  C   UNL A   1      37.332  30.553  28.907  1.00  0.00    -0.014 A 
BRANCH  31  32
ATOM     32  C   UNL A   1      38.521  30.057  29.642  1.00  0.00     0.031 A 
ATOM     33  C   UNL A   1      38.752  30.525  31.052  1.00  0.00     0.074 A 
ATOM     34  C   UNL A   1      39.358  29.166  29.083  1.00  0.00     0.049 A 
ATOM     35  N   UNL A   1      39.714  30.216  31.885  1.00  0.00    -0.248 NA
ATOM     36  C   UNL A   1      37.761  31.465  31.597  1.00  0.00     0.031 C 
ATOM     37  C   UNL A   1      39.214  28.599  27.745  1.00  0.00     0.029 A 
ATOM     38  N   UNL A   1      40.494  28.579  29.581  1.00  0.00    -0.354 N 
ATOM     39  C   UNL A   1      39.447  30.927  33.048  1.00  0.00     0.074 A 
ATOM     40  C   UNL A   1      38.253  31.707  32.802  1.00  0.00     0.031 C 
ATOM     41  C   UNL A   1      40.224  27.740  27.527  1.00  0.00     0.029 A 
ATOM     42  C   UNL A   1      41.098  27.719  28.700  1.00  0.00     0.049 A 
ATOM     43  H   UNL A   1      40.842  28.757  30.484  1.00  0.00     0.167 HD
ATOM     44  C   UNL A   1      40.129  30.922  34.218  1.00  0.00     0.037 A 
ATOM     45  C   UNL A   1      42.234  27.004  28.824  1.00  0.00     0.037 A 
ATOM     46  C   UNL A   1      41.317  30.147  34.463  1.00  0.00     0.049 A 
ATOM     47  C   UNL A   1      43.023  27.081  30.104  1.00  0.00     0.074 A 
ATOM     48  C   UNL A   1      42.064  30.054  35.624  1.00  0.00     0.029 A 
ATOM     49  N   UNL A   1      41.935  29.336  33.523  1.00  0.00    -0.354 N 
ATOM     50  N   UNL A   1      42.752  27.736  31.207  1.00  0.00    -0.248 NA
ATOM     51  C   UNL A   1      44.279  26.321  30.152  1.00  0.00     0.031 C 
ATOM     52  C   UNL A   1      43.165  29.227  35.369  1.00  0.00     0.029 A 
ATOM     53  C   UNL A   1      43.076  28.766  34.065  1.00  0.00     0.049 A 
ATOM     54  H   UNL A   1      41.612  29.189  32.604  1.00  0.00     0.167 HD
ATOM     55  C   UNL A   1      43.785  27.444  32.089  1.00  0.00     0.074 A 
ATOM     56  C   UNL A   1      44.687  26.549  31.394  1.00  0.00     0.031 C 
ATOM     57  C   UNL A   1      43.966  27.876  33.362  1.00  0.00     0.037 A 
BRANCH  44  58
ATOM     58  C   UNL A   1      39.618  31.814  35.311  1.00  0.00     0.064 A 
ATOM     59  C   UNL A   1      38.680  31.367  36.254  1.00  0.00     0.173 A 
ATOM     60  C   UNL A   1      40.072  33.138  35.414  1.00  0.00     0.173 A 
ATOM     61  F   UNL A   1      38.203  30.115  36.189  1.00  0.00    -0.203 F 
ATOM     62  C   UNL A   1      38.187  32.222  37.236  1.00  0.00     0.198 A 
ATOM     63  C   UNL A   1      39.598  33.983  36.415  1.00  0.00     0.198 A 
ATOM     64  F   UNL A   1      40.970  33.615  34.540  1.00  0.00    -0.203 F 
ATOM     65  F   UNL A   1      37.250  31.791  38.090  1.00  0.00    -0.200 F 
ATOM     66  C   UNL A   1      38.650  33.528  37.318  1.00  0.00     0.200 A 
ATOM     67  F   UNL A   1      40.053  35.240  36.499  1.00  0.00    -0.200 F 
ATOM     68  F   UNL A   1      38.172  34.351  38.262  1.00  0.00    -0.200 F 
ENDBRANCH  44  58
BRANCH  45  69
ATOM     69  C   UNL A   1      42.687  26.143  27.702  1.00  0.00     0.064 A 
ATOM     70  C   UNL A   1      43.615  26.612  26.765  1.00  0.00     0.173 A 
ATOM     71  C   UNL A   1      42.205  24.834  27.550  1.00  0.00     0.173 A 
ATOM     72  F   UNL A   1      44.082  27.866  26.855  1.00  0.00    -0.203 F 
ATOM     73  C   UNL A   1      44.044  25.806  25.713  1.00  0.00     0.198 A 
ATOM     74  C   UNL A   1      42.652  24.022  26.510  1.00  0.00     0.198 A 
ATOM     75  F   UNL A   1      41.311  24.342  28.419  1.00  0.00    -0.203 F 
ATOM     76  F   UNL A   1      44.910  26.288  24.811  1.00  0.00    -0.200 F 
ATOM     77  C   UNL A   1      43.568  24.509  25.591  1.00  0.00     0.200 A 
ATOM     78  F   UNL A   1      42.197  22.766  26.402  1.00  0.00    -0.200 F 
ATOM     79  F   UNL A   1      43.988  23.730  24.584  1.00  0.00    -0.200 F 
ENDBRANCH  45  69
BRANCH  57  80
ATOM     80  C   UNL A   1      45.170  27.365  34.099  1.00  0.00     0.064 A 
ATOM     81  C   UNL A   1      45.132  26.168  34.827  1.00  0.00     0.173 A 
ATOM     82  C   UNL A   1      46.386  28.061  34.041  1.00  0.00     0.173 A 
ATOM     83  F   UNL A   1      43.988  25.473  34.926  1.00  0.00    -0.203 F 
ATOM     84  C   UNL A   1      46.264  25.697  35.489  1.00  0.00     0.198 A 
ATOM     85  C   UNL A   1      47.523  27.574  34.680  1.00  0.00     0.198 A 
ATOM     86  F   UNL A   1      46.477  29.209  33.352  1.00  0.00    -0.203 F 
ATOM     87  F   UNL A   1      46.194  24.572  36.214  1.00  0.00    -0.200 F 
ATOM     88  C   UNL A   1      47.459  26.396  35.409  1.00  0.00     0.200 A 
ATOM     89  F   UNL A   1      48.680  28.244  34.591  1.00  0.00    -0.200 F 
ATOM     90  F   UNL A   1      48.549  25.937  36.040  1.00  0.00    -0.200 F 
ENDBRANCH  57  80
ENDBRANCH  31  32
ENDBRANCH  24  26
ENDBRANCH  23  24
ENDBRANCH  22  23
ENDBRANCH  21  22
ENDBRANCH   1  21
TORSDOF 16
ENDMDL
MODEL 2
REMARK VINA RESULT:     -11.7      5.737     10.888
REMARK SMILES COc1ccc2cc([C@@H](C)C(=O)OCCOCCOC(=O)c3ccc(-c4c5nc(c(-c6c(F)c(F)c(F)c(F)c6F)c6ccc([nH]6)c(-c6c(F)c(F)c(F)c(F)c6F)c6nc(c(-c7c(F)c(F)c(F)c(F)c7F)c7ccc4[nH]7)C=C6)C=C5)cc3)ccc2c1
REMARK SMILES IDX 16 1 15 2 14 3 13 4 11 5 12 6 9 7 10 8 8 9 3 10 4 11 88 12
REMARK SMILES IDX 5 13 87 14 6 15 86 16 7 17 85 18 2 19 1 20 17 21 18 22 19 23
REMARK SMILES IDX 20 24 21 25 22 26 23 27 84 28 24 29 83 30 25 31 26 32 27 33
REMARK SMILES IDX 77 34 28 35 82 36 76 37 78 38 29 39 81 40 75 41 74 42 30 44
REMARK SMILES IDX 62 45 42 46 61 47 43 48 46 49 60 50 79 51 44 52 45 53 59 55
REMARK SMILES IDX 80 56 47 57 31 58 32 59 40 60 33 61 34 62 38 63 41 64 35 65
REMARK SMILES IDX 36 66 39 67 37 68 63 69 64 70 72 71 65 72 66 73 70 74 73 75
REMARK SMILES IDX 67 76 68 77 71 78 69 79 48 80 49 81 57 82 50 83 51 84 55 85
REMARK SMILES IDX 58 86 52 87 53 88 56 89 54 90
REMARK H PARENT 78 43 46 54
REMARK Flexibility Score: inf
ROOT
ATOM      1  O   UNL A   1      41.786  19.525  25.380  1.00  0.00    -0.374 OA
ENDROOT
BRANCH   1   2
ATOM      2  C   UNL A   1      43.152  19.246  25.685  1.00  0.00     0.202 C 
BRANCH   2   3
ATOM      3  C   UNL A   1      44.180  20.220  25.103  1.00  0.00     0.261 C 
BRANCH   3   4
ATOM      4  O   UNL A   1      43.603  21.520  24.884  1.00  0.00    -0.463 OA
BRANCH   4   5
ATOM      5  C   UNL A   1      44.171  22.542  25.574  1.00  0.00     0.313 C 
ATOM      6  O   UNL A   1      44.151  22.646  26.798  1.00  0.00    -0.252 OA
BRANCH   5   7
ATOM      7  C   UNL A   1      44.814  23.605  24.698  1.00  0.00     0.126 C 
ATOM      8  C   UNL A   1      46.234  23.166  24.343  1.00  0.00     0.025 C 
BRANCH   7   9
ATOM      9  C   UNL A   1      44.771  25.054  25.171  1.00  0.00    -0.033 A 
ATOM     10  C   UNL A   1      43.430  29.676  26.851  1.00  0.00     0.119 A 
ATOM     11  C   UNL A   1      42.344  29.200  26.122  1.00  0.00     0.047 A 
ATOM     12  C   UNL A   1      44.598  28.916  26.920  1.00  0.00     0.055 A 
ATOM     13  C   UNL A   1      42.414  27.949  25.498  1.00  0.00     0.012 A 
ATOM     14  C   UNL A   1      44.677  27.651  26.311  1.00  0.00    -0.015 A 
ATOM     15  C   UNL A   1      43.567  27.153  25.597  1.00  0.00    -0.018 A 
ATOM     16  C   UNL A   1      45.829  26.862  26.420  1.00  0.00     0.009 A 
ATOM     17  C   UNL A   1      43.633  25.865  25.025  1.00  0.00     0.013 A 
ATOM     18  C   UNL A   1      45.874  25.581  25.861  1.00  0.00     0.005 A 
BRANCH  10  19
ATOM     19  O   UNL A   1      43.471  30.880  27.500  1.00  0.00    -0.497 OA
ATOM     20  C   UNL A   1      44.591  31.702  27.184  1.00  0.00     0.278 C 
ENDBRANCH  10  19
ENDBRANCH   7   9
ENDBRANCH   5   7
ENDBRANCH   4   5
ENDBRANCH   3   4
ENDBRANCH   2   3
ENDBRANCH   1   2
BRANCH   1  21
ATOM     21  C   UNL A   1      40.879  19.643  26.477  1.00  0.00     0.202 C 
BRANCH  21  22
ATOM     22  C   UNL A   1      40.714  21.046  27.071  1.00  0.00     0.261 C 
BRANCH  22  23
ATOM     23  O   UNL A   1      40.527  22.047  26.054  1.00  0.00    -0.460 OA
BRANCH  23  24
ATOM     24  C   UNL A   1      39.319  22.651  26.062  1.00  0.00     0.338 C 
ATOM     25  O   UNL A   1      38.252  22.189  25.679  1.00  0.00    -0.246 OA
BRANCH  24  26
ATOM     26  C   UNL A   1      39.401  23.938  26.775  1.00  0.00     0.060 A 
ATOM     27  C   UNL A   1      40.100  24.978  26.150  1.00  0.00     0.016 A 
ATOM     28  C   UNL A   1      38.882  24.103  28.061  1.00  0.00     0.016 A 
ATOM     29  C   UNL A   1      40.334  26.170  26.831  1.00  0.00     0.010 A 
ATOM     30  C   UNL A   1      39.122  25.299  28.747  1.00  0.00     0.010 A 
ATOM     31  C   UNL A   1      39.883  26.320  28.150  1.00  0.00    -0.014 A 
BRANCH  31  32
ATOM     32  C   UNL A   1      40.355  27.478  28.947  1.00  0.00     0.031 A 
ATOM     33  C   UNL A   1      41.781  27.502  29.422  1.00  0.00     0.074 A 
ATOM     34  C   UNL A   1      39.543  28.518  29.204  1.00  0.00     0.049 A 
ATOM     35  N   UNL A   1      42.410  28.413  30.122  1.00  0.00    -0.248 NA
ATOM     36  C   UNL A   1      42.609  26.343  29.057  1.00  0.00     0.031 C 
ATOM     37  C   UNL A   1      38.157  28.636  28.756  1.00  0.00     0.029 A 
ATOM     38  N   UNL A   1      39.774  29.675  29.903  1.00  0.00    -0.354 N 
ATOM     39  C   UNL A   1      43.705  27.935  30.283  1.00  0.00     0.074 A 
ATOM     40  C   UNL A   1      43.761  26.640  29.637  1.00  0.00     0.031 C 
ATOM     41  C   UNL A   1      37.660  29.807  29.189  1.00  0.00     0.029 A 
ATOM     42  C   UNL A   1      38.683  30.505  29.966  1.00  0.00     0.049 A 
ATOM     43  H   UNL A   1      40.639  29.891  30.319  1.00  0.00     0.167 HD
ATOM     44  C   UNL A   1      44.754  28.526  30.902  1.00  0.00     0.037 A 
ATOM     45  C   UNL A   1      38.527  31.690  30.590  1.00  0.00     0.037 A 
ATOM     46  C   UNL A   1      44.699  29.813  31.544  1.00  0.00     0.049 A 
ATOM     47  C   UNL A   1      39.684  32.287  31.347  1.00  0.00     0.074 A 
ATOM     48  C   UNL A   1      45.715  30.508  32.175  1.00  0.00     0.029 A 
ATOM     49  N   UNL A   1      43.558  30.595  31.643  1.00  0.00    -0.354 N 
ATOM     50  N   UNL A   1      40.911  31.842  31.474  1.00  0.00    -0.248 NA
ATOM     51  C   UNL A   1      39.430  33.553  32.049  1.00  0.00     0.031 C 
ATOM     52  C   UNL A   1      45.175  31.688  32.702  1.00  0.00     0.029 A 
ATOM     53  C   UNL A   1      43.835  31.751  32.355  1.00  0.00     0.049 A 
ATOM     54  H   UNL A   1      42.679  30.362  31.263  1.00  0.00     0.167 HD
ATOM     55  C   UNL A   1      41.581  32.783  32.244  1.00  0.00     0.074 A 
ATOM     56  C   UNL A   1      40.627  33.828  32.552  1.00  0.00     0.031 C 
ATOM     57  C   UNL A   1      42.874  32.783  32.655  1.00  0.00     0.037 A 
BRANCH  44  58
ATOM     58  C   UNL A   1      46.044  27.760  30.942  1.00  0.00     0.064 A 
ATOM     59  C   UNL A   1      47.060  27.972  29.998  1.00  0.00     0.173 A 
ATOM     60  C   UNL A   1      46.265  26.798  31.939  1.00  0.00     0.173 A 
ATOM     61  F   UNL A   1      46.892  28.871  29.016  1.00  0.00    -0.203 F 
ATOM     62  C   UNL A   1      48.234  27.224  30.027  1.00  0.00     0.198 A 
ATOM     63  C   UNL A   1      47.452  26.070  31.983  1.00  0.00     0.198 A 
ATOM     64  F   UNL A   1      45.328  26.558  32.868  1.00  0.00    -0.203 F 
ATOM     65  F   UNL A   1      49.165  27.403  29.082  1.00  0.00    -0.200 F 
ATOM     66  C   UNL A   1      48.430  26.276  31.022  1.00  0.00     0.200 A 
ATOM     67  F   UNL A   1      47.645  25.163  32.950  1.00  0.00    -0.200 F 
ATOM     68  F   UNL A   1      49.559  25.553  31.047  1.00  0.00    -0.200 F 
ENDBRANCH  44  58
BRANCH  45  69
ATOM     69  C   UNL A   1      37.223  32.394  30.515  1.00  0.00     0.064 A 
ATOM     70  C   UNL A   1      36.248  32.210  31.503  1.00  0.00     0.173 A 
ATOM     71  C   UNL A   1      36.928  33.269  29.458  1.00  0.00     0.173 A 
ATOM     72  F   UNL A   1      36.475  31.363  32.517  1.00  0.00    -0.203 F 
ATOM     73  C   UNL A   1      35.024  32.871  31.437  1.00  0.00     0.198 A 
ATOM     74  C   UNL A   1      35.713  33.946  29.405  1.00  0.00     0.198 A 
ATOM     75  F   UNL A   1      37.828  33.474  28.485  1.00  0.00    -0.203 F 
ATOM     76  F   UNL A   1      34.095  32.655  32.378  1.00  0.00    -0.200 F 
ATOM     77  C   UNL A   1      34.760  33.745  30.392  1.00  0.00     0.200 A 
ATOM     78  F   UNL A   1      35.466  34.797  28.399  1.00  0.00    -0.200 F 
ATOM     79  F   UNL A   1      33.585  34.388  30.333  1.00  0.00    -0.200 F 
ENDBRANCH  45  69
BRANCH  57  80
ATOM     80  C   UNL A   1      43.343  33.962  33.458  1.00  0.00     0.064 A 
ATOM     81  C   UNL A   1      43.826  35.125  32.842  1.00  0.00     0.173 A 
ATOM     82  C   UNL A   1      43.269  33.942  34.858  1.00  0.00     0.173 A 
ATOM     83  F   UNL A   1      43.931  35.189  31.506  1.00  0.00    -0.203 F 
ATOM     84  C   UNL A   1      44.238  36.218  33.601  1.00  0.00     0.198 A 
ATOM     85  C   UNL A   1      43.655  35.046  35.613  1.00  0.00     0.198 A 
ATOM     86  F   UNL A   1      42.808  32.855  35.496  1.00  0.00    -0.203 F 
ATOM     87  F   UNL A   1      44.736  37.304  32.994  1.00  0.00    -0.200 F 
ATOM     88  C   UNL A   1      44.146  36.180  34.985  1.00  0.00     0.200 A 
ATOM     89  F   UNL A   1      43.553  35.012  36.949  1.00  0.00    -0.200 F 
ATOM     90  F   UNL A   1      44.535  37.236  35.713  1.00  0.00    -0.200 F 
ENDBRANCH  57  80
ENDBRANCH  31  32
ENDBRANCH  24  26
ENDBRANCH  23  24
ENDBRANCH  22  23
ENDBRANCH  21  22
ENDBRANCH   1  21
TORSDOF 16
ENDMDL
MODEL 3
REMARK VINA RESULT:     -11.7      4.192      9.531
REMARK SMILES COc1ccc2cc([C@@H](C)C(=O)OCCOCCOC(=O)c3ccc(-c4c5nc(c(-c6c(F)c(F)c(F)c(F)c6F)c6ccc([nH]6)c(-c6c(F)c(F)c(F)c(F)c6F)c6nc(c(-c7c(F)c(F)c(F)c(F)c7F)c7ccc4[nH]7)C=C6)C=C5)cc3)ccc2c1
REMARK SMILES IDX 16 1 15 2 14 3 13 4 11 5 12 6 9 7 10 8 8 9 3 10 4 11 88 12
REMARK SMILES IDX 5 13 87 14 6 15 86 16 7 17 85 18 2 19 1 20 17 21 18 22 19 23
REMARK SMILES IDX 20 24 21 25 22 26 23 27 84 28 24 29 83 30 25 31 26 32 27 33
REMARK SMILES IDX 77 34 28 35 82 36 76 37 78 38 29 39 81 40 75 41 74 42 30 44
REMARK SMILES IDX 62 45 42 46 61 47 43 48 46 49 60 50 79 51 44 52 45 53 59 55
REMARK SMILES IDX 80 56 47 57 31 58 32 59 40 60 33 61 34 62 38 63 41 64 35 65
REMARK SMILES IDX 36 66 39 67 37 68 63 69 64 70 72 71 65 72 66 73 70 74 73 75
REMARK SMILES IDX 67 76 68 77 71 78 69 79 48 80 49 81 57 82 50 83 51 84 55 85
REMARK SMILES IDX 58 86 52 87 53 88 56 89 54 90
REMARK H PARENT 78 43 46 54
REMARK Flexibility Score: inf
ROOT
ATOM      1  O   UNL A   1      43.749  20.896  25.850  1.00  0.00    -0.374 OA
ENDROOT
BRANCH   1   2
ATOM      2  C   UNL A   1      43.514  19.567  25.387  1.00  0.00     0.202 C 
BRANCH   2   3
ATOM      3  C   UNL A   1      42.746  18.651  26.342  1.00  0.00     0.261 C 
BRANCH   3   4
ATOM      4  O   UNL A   1      41.777  19.389  27.109  1.00  0.00    -0.463 OA
BRANCH   4   5
ATOM      5  C   UNL A   1      40.726  19.889  26.408  1.00  0.00     0.313 C 
ATOM      6  O   UNL A   1      39.972  19.211  25.714  1.00  0.00    -0.252 OA
BRANCH   5   7
ATOM      7  C   UNL A   1      40.571  21.397  26.510  1.00  0.00     0.126 C 
ATOM      8  C   UNL A   1      41.033  21.854  27.893  1.00  0.00     0.025 C 
BRANCH   7   9
ATOM      9  C   UNL A   1      39.226  22.012  26.132  1.00  0.00    -0.033 A 
ATOM     10  C   UNL A   1      34.324  22.932  25.082  1.00  0.00     0.119 A 
ATOM     11  C   UNL A   1      34.551  21.604  24.732  1.00  0.00     0.047 A 
ATOM     12  C   UNL A   1      35.386  23.715  25.538  1.00  0.00     0.055 A 
ATOM     13  C   UNL A   1      35.829  21.051  24.877  1.00  0.00     0.012 A 
ATOM     14  C   UNL A   1      36.671  23.168  25.702  1.00  0.00    -0.015 A 
ATOM     15  C   UNL A   1      36.897  21.815  25.377  1.00  0.00    -0.018 A 
ATOM     16  C   UNL A   1      37.729  23.935  26.207  1.00  0.00     0.009 A 
ATOM     17  C   UNL A   1      38.176  21.257  25.584  1.00  0.00     0.013 A 
ATOM     18  C   UNL A   1      38.987  23.364  26.422  1.00  0.00     0.005 A 
BRANCH  10  19
ATOM     19  O   UNL A   1      33.119  23.575  24.984  1.00  0.00    -0.497 OA
ATOM     20  C   UNL A   1      32.878  24.568  25.977  1.00  0.00     0.278 C 
ENDBRANCH  10  19
ENDBRANCH   7   9
ENDBRANCH   5   7
ENDBRANCH   4   5
ENDBRANCH   3   4
ENDBRANCH   2   3
ENDBRANCH   1   2
BRANCH   1  21
ATOM     21  C   UNL A   1      44.762  21.653  25.187  1.00  0.00     0.202 C 
BRANCH  21  22
ATOM     22  C   UNL A   1      44.284  22.613  24.092  1.00  0.00     0.261 C 
BRANCH  22  23
ATOM     23  O   UNL A   1      43.463  23.670  24.619  1.00  0.00    -0.460 OA
BRANCH  23  24
ATOM     24  C   UNL A   1      44.137  24.766  25.032  1.00  0.00     0.338 C 
ATOM     25  O   UNL A   1      45.215  25.176  24.622  1.00  0.00    -0.246 OA
BRANCH  24  26
ATOM     26  C   UNL A   1      43.309  25.549  25.966  1.00  0.00     0.060 A 
ATOM     27  C   UNL A   1      43.615  26.908  26.115  1.00  0.00     0.016 A 
ATOM     28  C   UNL A   1      42.313  24.956  26.743  1.00  0.00     0.016 A 
ATOM     29  C   UNL A   1      42.963  27.667  27.084  1.00  0.00     0.010 A 
ATOM     30  C   UNL A   1      41.663  25.718  27.721  1.00  0.00     0.010 A 
ATOM     31  C   UNL A   1      42.015  27.066  27.921  1.00  0.00    -0.014 A 
BRANCH  31  32
ATOM     32  C   UNL A   1      41.520  27.809  29.105  1.00  0.00     0.031 A 
ATOM     33  C   UNL A   1      42.275  27.699  30.400  1.00  0.00     0.074 A 
ATOM     34  C   UNL A   1      40.445  28.611  29.019  1.00  0.00     0.049 A 
ATOM     35  N   UNL A   1      42.033  28.266  31.556  1.00  0.00    -0.248 NA
ATOM     36  C   UNL A   1      43.465  26.834  30.390  1.00  0.00     0.031 C 
ATOM     37  C   UNL A   1      39.659  28.840  27.809  1.00  0.00     0.029 A 
ATOM     38  N   UNL A   1      39.833  29.384  29.973  1.00  0.00    -0.354 N 
ATOM     39  C   UNL A   1      43.036  27.824  32.409  1.00  0.00     0.074 A 
ATOM     40  C   UNL A   1      43.869  26.917  31.648  1.00  0.00     0.031 C 
ATOM     41  C   UNL A   1      38.669  29.703  28.092  1.00  0.00     0.029 A 
ATOM     42  C   UNL A   1      38.736  30.063  29.508  1.00  0.00     0.049 A 
ATOM     43  H   UNL A   1      40.152  29.447  30.902  1.00  0.00     0.167 HD
ATOM     44  C   UNL A   1      43.251  28.152  33.705  1.00  0.00     0.037 A 
ATOM     45  C   UNL A   1      37.876  30.874  30.157  1.00  0.00     0.037 A 
ATOM     46  C   UNL A   1      42.423  29.054  34.463  1.00  0.00     0.049 A 
ATOM     47  C   UNL A   1      38.085  31.156  31.621  1.00  0.00     0.074 A 
ATOM     48  C   UNL A   1      42.573  29.471  35.773  1.00  0.00     0.029 A 
ATOM     49  N   UNL A   1      41.281  29.672  33.975  1.00  0.00    -0.354 N 
ATOM     50  N   UNL A   1      39.048  30.755  32.414  1.00  0.00    -0.248 NA
ATOM     51  C   UNL A   1      37.081  32.004  32.279  1.00  0.00     0.031 C 
ATOM     52  C   UNL A   1      41.491  30.300  36.094  1.00  0.00     0.029 A 
ATOM     53  C   UNL A   1      40.696  30.440  34.968  1.00  0.00     0.049 A 
ATOM     54  H   UNL A   1      40.936  29.578  33.057  1.00  0.00     0.167 HD
ATOM     55  C   UNL A   1      38.785  31.322  33.655  1.00  0.00     0.074 A 
ATOM     56  C   UNL A   1      37.572  32.101  33.508  1.00  0.00     0.031 C 
ATOM     57  C   UNL A   1      39.488  31.211  34.809  1.00  0.00     0.037 A 
BRANCH  44  58
ATOM     58  C   UNL A   1      44.413  27.498  34.393  1.00  0.00     0.064 A 
ATOM     59  C   UNL A   1      45.705  28.044  34.343  1.00  0.00     0.173 A 
ATOM     60  C   UNL A   1      44.232  26.306  35.110  1.00  0.00     0.173 A 
ATOM     61  F   UNL A   1      45.933  29.175  33.659  1.00  0.00    -0.203 F 
ATOM     62  C   UNL A   1      46.778  27.402  34.954  1.00  0.00     0.198 A 
ATOM     63  C   UNL A   1      45.302  25.680  35.744  1.00  0.00     0.198 A 
ATOM     64  F   UNL A   1      43.017  25.743  35.191  1.00  0.00    -0.203 F 
ATOM     65  F   UNL A   1      48.013  27.911  34.845  1.00  0.00    -0.200 F 
ATOM     66  C   UNL A   1      46.576  26.223  35.657  1.00  0.00     0.200 A 
ATOM     67  F   UNL A   1      45.104  24.547  36.430  1.00  0.00    -0.200 F 
ATOM     68  F   UNL A   1      47.611  25.603  36.241  1.00  0.00    -0.200 F 
ENDBRANCH  44  58
BRANCH  45  69
ATOM     69  C   UNL A   1      36.744  31.486  29.418  1.00  0.00     0.064 A 
ATOM     70  C   UNL A   1      36.736  32.854  29.117  1.00  0.00     0.173 A 
ATOM     71  C   UNL A   1      35.651  30.715  28.993  1.00  0.00     0.173 A 
ATOM     72  F   UNL A   1      37.747  33.634  29.527  1.00  0.00    -0.203 F 
ATOM     73  C   UNL A   1      35.677  33.431  28.421  1.00  0.00     0.198 A 
ATOM     74  C   UNL A   1      34.603  31.290  28.278  1.00  0.00     0.198 A 
ATOM     75  F   UNL A   1      35.610  29.403  29.261  1.00  0.00    -0.203 F 
ATOM     76  F   UNL A   1      35.679  34.748  28.172  1.00  0.00    -0.200 F 
ATOM     77  C   UNL A   1      34.615  32.647  27.995  1.00  0.00     0.200 A 
ATOM     78  F   UNL A   1      33.583  30.528  27.859  1.00  0.00    -0.200 F 
ATOM     79  F   UNL A   1      33.600  33.202  27.318  1.00  0.00    -0.200 F 
ENDBRANCH  45  69
BRANCH  57  80
ATOM     80  C   UNL A   1      38.982  31.971  36.001  1.00  0.00     0.064 A 
ATOM     81  C   UNL A   1      38.167  31.365  36.967  1.00  0.00     0.173 A 
ATOM     82  C   UNL A   1      39.351  33.310  36.198  1.00  0.00     0.173 A 
ATOM     83  F   UNL A   1      37.773  30.091  36.817  1.00  0.00    -0.203 F 
ATOM     84  C   UNL A   1      37.723  32.079  38.078  1.00  0.00     0.198 A 
ATOM     85  C   UNL A   1      38.928  34.012  37.323  1.00  0.00     0.198 A 
ATOM     86  F   UNL A   1      40.135  33.934  35.306  1.00  0.00    -0.203 F 
ATOM     87  F   UNL A   1      36.910  31.492  38.967  1.00  0.00    -0.200 F 
ATOM     88  C   UNL A   1      38.109  33.398  38.258  1.00  0.00     0.200 A 
ATOM     89  F   UNL A   1      39.313  35.283  37.502  1.00  0.00    -0.200 F 
ATOM     90  F   UNL A   1      37.686  34.082  39.332  1.00  0.00    -0.200 F 
ENDBRANCH  57  80
ENDBRANCH  31  32
ENDBRANCH  24  26
ENDBRANCH  23  24
ENDBRANCH  22  23
ENDBRANCH  21  22
ENDBRANCH   1  21
TORSDOF 16
ENDMDL
