MODEL 1
REMARK VINA RESULT:     -11.9      0.000      0.000
REMARK SMILES CC1(C)CCN(S(=O)(=O)c2ccc(O)c(C(=O)OCCOCCOC(=O)c3ccc(-c4c5nc(c(-c6c(F)c(F)c(F)c(F)c6F)c6ccc([nH]6)c(-c6c(F)c(F)c(F)c(F)c6F)c6nc(c(-c7c(F)c(F)c(F)c(F)c7F)c7ccc4[nH]7)C=C6)C=C5)cc3)c2)C1
REMARK SMILES IDX 21 1 20 2 19 3 18 4 16 5 17 6 15 7 10 8 11 9 90 10 12 11
REMARK SMILES IDX 13 12 7 13 8 14 9 15 6 16 1 17 2 18 3 19 4 20 91 21 5 22
REMARK SMILES IDX 14 23 22 25 23 26 24 27 25 28 26 29 27 30 28 31 89 32 29 33
REMARK SMILES IDX 88 34 30 35 31 36 32 37 82 38 33 39 87 40 81 41 83 42 34 43
REMARK SMILES IDX 86 44 80 45 79 46 35 48 67 49 47 50 66 51 48 52 51 53 65 54
REMARK SMILES IDX 84 55 49 56 50 57 64 59 85 60 52 61 36 62 37 63 45 64 38 65
REMARK SMILES IDX 39 66 43 67 46 68 40 69 41 70 44 71 42 72 68 73 69 74 77 75
REMARK SMILES IDX 70 76 71 77 75 78 78 79 72 80 73 81 76 82 74 83 53 84 54 85
REMARK SMILES IDX 62 86 55 87 56 88 60 89 63 90 57 91 58 92 61 93 59 94
REMARK H PARENT 14 24 83 47 51 58
REMARK Flexibility Score: inf
ROOT
ATOM      1  O   UNL A   1      35.327  21.867  25.880  1.00  0.00    -0.374 OA
ENDROOT
BRANCH   1   2
ATOM      2  C   UNL A   1      34.704  21.643  27.144  1.00  0.00     0.202 C 
BRANCH   2   3
ATOM      3  C   UNL A   1      33.710  22.710  27.609  1.00  0.00     0.261 C 
BRANCH   3   4
ATOM      4  O   UNL A   1      32.369  22.202  27.556  1.00  0.00    -0.460 OA
BRANCH   4   5
ATOM      5  C   UNL A   1      31.491  22.921  26.815  1.00  0.00     0.342 C 
ATOM      6  O   UNL A   1      30.653  23.704  27.233  1.00  0.00    -0.246 OA
BRANCH   5   7
ATOM      7  C   UNL A   1      31.823  22.804  25.375  1.00  0.00     0.103 A 
ATOM      8  C   UNL A   1      32.374  23.975  23.329  1.00  0.00     0.083 A 
ATOM      9  C   UNL A   1      32.578  22.754  22.679  1.00  0.00     0.025 A 
ATOM     10  C   UNL A   1      32.005  24.008  24.675  1.00  0.00     0.041 A 
ATOM     11  C   UNL A   1      32.374  21.558  23.367  1.00  0.00     0.048 A 
ATOM     12  C   UNL A   1      32.001  21.582  24.714  1.00  0.00     0.130 A 
BRANCH   8  13
ATOM     13  S   UNL A   1      32.691  25.496  22.460  1.00  0.00     0.243 S 
ATOM     14  O   UNL A   1      31.607  25.702  21.524  1.00  0.00    -0.207 OA
ATOM     15  O   UNL A   1      34.066  25.468  22.008  1.00  0.00    -0.207 OA
BRANCH  13  16
ATOM     16  N   UNL A   1      32.561  26.670  23.683  1.00  0.00    -0.197 NA
ATOM     17  C   UNL A   1      31.723  28.818  25.841  1.00  0.00     0.012 C 
ATOM     18  C   UNL A   1      31.538  28.758  24.317  1.00  0.00    -0.020 C 
ATOM     19  C   UNL A   1      30.425  29.724  23.901  1.00  0.00     0.012 C 
ATOM     20  C   UNL A   1      32.843  29.049  23.577  1.00  0.00     0.024 C 
ATOM     21  C   UNL A   1      31.235  27.329  23.846  1.00  0.00     0.109 C 
ATOM     22  C   UNL A   1      33.607  27.731  23.637  1.00  0.00     0.103 C 
ENDBRANCH  13  16
ENDBRANCH   8  13
BRANCH  12  23
ATOM     23  O   UNL A   1      31.802  20.399  25.368  1.00  0.00    -0.507 OA
ATOM     24  H   UNL A   1      31.792  19.595  24.887  1.00  0.00     0.293 HD
ENDBRANCH  12  23
ENDBRANCH   5   7
ENDBRANCH   4   5
ENDBRANCH   3   4
ENDBRANCH   2   3
ENDBRANCH   1   2
BRANCH   1  25
ATOM     25  C   UNL A   1      35.683  20.718  25.110  1.00  0.00     0.202 C 
BRANCH  25  26
ATOM     26  C   UNL A   1      37.183  20.439  24.951  1.00  0.00     0.261 C 
BRANCH  26  27
ATOM     27  O   UNL A   1      37.998  21.576  25.285  1.00  0.00    -0.460 OA
BRANCH  27  28
ATOM     28  C   UNL A   1      39.093  21.289  26.031  1.00  0.00     0.338 C 
ATOM     29  O   UNL A   1      39.660  20.215  26.139  1.00  0.00    -0.246 OA
BRANCH  28  30
ATOM     30  C   UNL A   1      39.644  22.529  26.608  1.00  0.00     0.060 A 
ATOM     31  C   UNL A   1      39.159  23.747  26.115  1.00  0.00     0.016 A 
ATOM     32  C   UNL A   1      40.670  22.504  27.554  1.00  0.00     0.016 A 
ATOM     33  C   UNL A   1      39.729  24.948  26.535  1.00  0.00     0.010 A 
ATOM     34  C   UNL A   1      41.245  23.710  27.970  1.00  0.00     0.010 A 
ATOM     35  C   UNL A   1      40.800  24.934  27.439  1.00  0.00    -0.014 A 
BRANCH  35  36
ATOM     36  C   UNL A   1      41.536  26.189  27.730  1.00  0.00     0.031 A 
ATOM     37  C   UNL A   1      40.846  27.281  28.498  1.00  0.00     0.074 A 
ATOM     38  C   UNL A   1      42.810  26.347  27.329  1.00  0.00     0.049 A 
ATOM     39  N   UNL A   1      41.276  28.476  28.816  1.00  0.00    -0.248 NA
ATOM     40  C   UNL A   1      39.482  26.989  28.966  1.00  0.00     0.031 C 
ATOM     41  C   UNL A   1      43.597  25.347  26.611  1.00  0.00     0.029 A 
ATOM     42  N   UNL A   1      43.660  27.416  27.462  1.00  0.00    -0.354 N 
ATOM     43  C   UNL A   1      40.237  29.080  29.512  1.00  0.00     0.074 A 
ATOM     44  C   UNL A   1      39.142  28.134  29.542  1.00  0.00     0.031 C 
ATOM     45  C   UNL A   1      44.816  25.854  26.356  1.00  0.00     0.029 A 
ATOM     46  C   UNL A   1      44.879  27.225  26.861  1.00  0.00     0.049 A 
ATOM     47  H   UNL A   1      43.419  28.241  27.941  1.00  0.00     0.167 HD
ATOM     48  C   UNL A   1      40.203  30.308  30.082  1.00  0.00     0.037 A 
ATOM     49  C   UNL A   1      45.918  28.069  26.716  1.00  0.00     0.037 A 
ATOM     50  C   UNL A   1      41.297  31.244  30.054  1.00  0.00     0.049 A 
ATOM     51  C   UNL A   1      45.831  29.457  27.299  1.00  0.00     0.074 A 
ATOM     52  C   UNL A   1      41.371  32.504  30.622  1.00  0.00     0.029 A 
ATOM     53  N   UNL A   1      42.508  31.025  29.413  1.00  0.00    -0.354 N 
ATOM     54  N   UNL A   1      44.857  30.010  27.977  1.00  0.00    -0.248 NA
ATOM     55  C   UNL A   1      46.993  30.334  27.097  1.00  0.00     0.031 C 
ATOM     56  C   UNL A   1      42.602  33.069  30.276  1.00  0.00     0.029 A 
ATOM     57  C   UNL A   1      43.324  32.138  29.548  1.00  0.00     0.049 A 
ATOM     58  H   UNL A   1      42.753  30.199  28.933  1.00  0.00     0.167 HD
ATOM     59  C   UNL A   1      45.298  31.284  28.313  1.00  0.00     0.074 A 
ATOM     60  C   UNL A   1      46.633  31.419  27.770  1.00  0.00     0.031 C 
ATOM     61  C   UNL A   1      44.657  32.254  29.011  1.00  0.00     0.037 A 
BRANCH  48  62
ATOM     62  C   UNL A   1      38.931  30.724  30.763  1.00  0.00     0.064 A 
ATOM     63  C   UNL A   1      38.762  30.606  32.151  1.00  0.00     0.173 A 
ATOM     64  C   UNL A   1      37.879  31.282  30.021  1.00  0.00     0.173 A 
ATOM     65  F   UNL A   1      39.732  30.068  32.907  1.00  0.00    -0.203 F 
ATOM     66  C   UNL A   1      37.577  31.004  32.765  1.00  0.00     0.198 A 
ATOM     67  C   UNL A   1      36.709  31.708  30.641  1.00  0.00     0.198 A 
ATOM     68  F   UNL A   1      37.990  31.423  28.691  1.00  0.00    -0.203 F 
ATOM     69  F   UNL A   1      37.419  30.836  34.085  1.00  0.00    -0.200 F 
ATOM     70  C   UNL A   1      36.555  31.561  32.012  1.00  0.00     0.200 A 
ATOM     71  F   UNL A   1      35.728  32.260  29.913  1.00  0.00    -0.200 F 
ATOM     72  F   UNL A   1      35.419  31.953  32.605  1.00  0.00    -0.200 F 
ENDBRANCH  48  62
BRANCH  49  73
ATOM     73  C   UNL A   1      47.132  27.631  25.976  1.00  0.00     0.064 A 
ATOM     74  C   UNL A   1      48.248  27.123  26.654  1.00  0.00     0.173 A 
ATOM     75  C   UNL A   1      47.205  27.725  24.579  1.00  0.00     0.173 A 
ATOM     76  F   UNL A   1      48.237  27.038  27.992  1.00  0.00    -0.203 F 
ATOM     77  C   UNL A   1      49.399  26.743  25.964  1.00  0.00     0.198 A 
ATOM     78  C   UNL A   1      48.344  27.316  23.887  1.00  0.00     0.198 A 
ATOM     79  F   UNL A   1      46.165  28.205  23.881  1.00  0.00    -0.203 F 
ATOM     80  F   UNL A   1      50.469  26.307  26.641  1.00  0.00    -0.200 F 
ATOM     81  C   UNL A   1      49.442  26.834  24.582  1.00  0.00     0.200 A 
ATOM     82  F   UNL A   1      48.376  27.393  22.550  1.00  0.00    -0.200 F 
ATOM     83  F   UNL A   1      50.547  26.465  23.918  1.00  0.00    -0.200 F 
ENDBRANCH  49  73
BRANCH  61  84
ATOM     84  C   UNL A   1      45.403  33.532  29.272  1.00  0.00     0.064 A 
ATOM     85  C   UNL A   1      46.234  33.689  30.391  1.00  0.00     0.173 A 
ATOM     86  C   UNL A   1      45.320  34.598  28.362  1.00  0.00     0.173 A 
ATOM     87  F   UNL A   1      46.338  32.706  31.299  1.00  0.00    -0.203 F 
ATOM     88  C   UNL A   1      46.935  34.874  30.601  1.00  0.00     0.198 A 
ATOM     89  C   UNL A   1      46.047  35.768  28.558  1.00  0.00     0.198 A 
ATOM     90  F   UNL A   1      44.545  34.496  27.271  1.00  0.00    -0.203 F 
ATOM     91  F   UNL A   1      47.686  35.020  31.701  1.00  0.00    -0.200 F 
ATOM     92  C   UNL A   1      46.848  35.909  29.681  1.00  0.00     0.200 A 
ATOM     93  F   UNL A   1      45.974  36.759  27.659  1.00  0.00    -0.200 F 
ATOM     94  F   UNL A   1      47.532  37.044  29.879  1.00  0.00    -0.200 F 
ENDBRANCH  61  84
ENDBRANCH  35  36
ENDBRANCH  28  30
ENDBRANCH  27  28
ENDBRANCH  26  27
ENDBRANCH  25  26
ENDBRANCH   1  25
TORSDOF 17
ENDMDL
MODEL 2
REMARK VINA RESULT:     -11.6      4.413      8.463
REMARK SMILES CC1(C)CCN(S(=O)(=O)c2ccc(O)c(C(=O)OCCOCCOC(=O)c3ccc(-c4c5nc(c(-c6c(F)c(F)c(F)c(F)c6F)c6ccc([nH]6)c(-c6c(F)c(F)c(F)c(F)c6F)c6nc(c(-c7c(F)c(F)c(F)c(F)c7F)c7ccc4[nH]7)C=C6)C=C5)cc3)c2)C1
REMARK SMILES IDX 21 1 20 2 19 3 18 4 16 5 17 6 15 7 10 8 11 9 90 10 12 11
REMARK SMILES IDX 13 12 7 13 8 14 9 15 6 16 1 17 2 18 3 19 4 20 91 21 5 22
REMARK SMILES IDX 14 23 22 25 23 26 24 27 25 28 26 29 27 30 28 31 89 32 29 33
REMARK SMILES IDX 88 34 30 35 31 36 32 37 82 38 33 39 87 40 81 41 83 42 34 43
REMARK SMILES IDX 86 44 80 45 79 46 35 48 67 49 47 50 66 51 48 52 51 53 65 54
REMARK SMILES IDX 84 55 49 56 50 57 64 59 85 60 52 61 36 62 37 63 45 64 38 65
REMARK SMILES IDX 39 66 43 67 46 68 40 69 41 70 44 71 42 72 68 73 69 74 77 75
REMARK SMILES IDX 70 76 71 77 75 78 78 79 72 80 73 81 76 82 74 83 53 84 54 85
REMARK SMILES IDX 62 86 55 87 56 88 60 89 63 90 57 91 58 92 61 93 59 94
REMARK H PARENT 14 24 83 47 51 58
REMARK Flexibility Score: inf
ROOT
ATOM      1  O   UNL A   1      40.502  21.839  27.024  1.00  0.00    -0.374 OA
ENDROOT
BRANCH   1   2
ATOM      2  C   UNL A   1      39.275  22.338  26.495  1.00  0.00     0.202 C 
BRANCH   2   3
ATOM      3  C   UNL A   1      38.551  21.433  25.494  1.00  0.00     0.261 C 
BRANCH   3   4
ATOM      4  O   UNL A   1      37.145  21.719  25.486  1.00  0.00    -0.460 OA
BRANCH   4   5
ATOM      5  C   UNL A   1      36.341  20.733  25.017  1.00  0.00     0.342 C 
ATOM      6  O   UNL A   1      36.605  19.543  24.960  1.00  0.00    -0.246 OA
BRANCH   5   7
ATOM      7  C   UNL A   1      34.977  21.260  24.774  1.00  0.00     0.103 A 
ATOM      8  C   UNL A   1      33.638  23.158  24.091  1.00  0.00     0.083 A 
ATOM      9  C   UNL A   1      32.483  22.372  24.156  1.00  0.00     0.025 A 
ATOM     10  C   UNL A   1      34.885  22.608  24.390  1.00  0.00     0.041 A 
ATOM     11  C   UNL A   1      32.569  21.040  24.559  1.00  0.00     0.048 A 
ATOM     12  C   UNL A   1      33.816  20.483  24.864  1.00  0.00     0.130 A 
BRANCH   8  13
ATOM     13  S   UNL A   1      33.525  24.840  23.520  1.00  0.00     0.243 S 
ATOM     14  O   UNL A   1      33.669  24.826  22.081  1.00  0.00    -0.207 OA
ATOM     15  O   UNL A   1      34.398  25.647  24.345  1.00  0.00    -0.207 OA
BRANCH  13  16
ATOM     16  N   UNL A   1      31.918  25.261  23.884  1.00  0.00    -0.197 NA
ATOM     17  C   UNL A   1      28.930  26.276  24.000  1.00  0.00     0.012 C 
ATOM     18  C   UNL A   1      30.263  27.010  23.787  1.00  0.00    -0.020 C 
ATOM     19  C   UNL A   1      29.996  28.375  23.148  1.00  0.00     0.012 C 
ATOM     20  C   UNL A   1      31.050  27.142  25.091  1.00  0.00     0.024 C 
ATOM     21  C   UNL A   1      31.230  26.178  22.934  1.00  0.00     0.109 C 
ATOM     22  C   UNL A   1      31.712  25.781  25.266  1.00  0.00     0.103 C 
ENDBRANCH  13  16
ENDBRANCH   8  13
BRANCH  12  23
ATOM     23  O   UNL A   1      33.878  19.178  25.262  1.00  0.00    -0.507 OA
ATOM     24  H   UNL A   1      33.630  18.495  24.670  1.00  0.00     0.293 HD
ENDBRANCH  12  23
ENDBRANCH   5   7
ENDBRANCH   4   5
ENDBRANCH   3   4
ENDBRANCH   2   3
ENDBRANCH   1   2
BRANCH   1  25
ATOM     25  C   UNL A   1      41.410  21.225  26.109  1.00  0.00     0.202 C 
BRANCH  25  26
ATOM     26  C   UNL A   1      42.708  21.988  25.816  1.00  0.00     0.261 C 
BRANCH  26  27
ATOM     27  O   UNL A   1      42.523  23.052  24.865  1.00  0.00    -0.460 OA
BRANCH  27  28
ATOM     28  C   UNL A   1      43.378  24.093  25.008  1.00  0.00     0.338 C 
ATOM     29  O   UNL A   1      44.418  24.293  24.402  1.00  0.00    -0.246 OA
BRANCH  28  30
ATOM     30  C   UNL A   1      42.799  25.094  25.923  1.00  0.00     0.060 A 
ATOM     31  C   UNL A   1      43.636  26.122  26.376  1.00  0.00     0.016 A 
ATOM     32  C   UNL A   1      41.489  24.985  26.393  1.00  0.00     0.016 A 
ATOM     33  C   UNL A   1      43.178  27.023  27.336  1.00  0.00     0.010 A 
ATOM     34  C   UNL A   1      41.034  25.888  27.361  1.00  0.00     0.010 A 
ATOM     35  C   UNL A   1      41.886  26.889  27.860  1.00  0.00    -0.014 A 
BRANCH  35  36
ATOM     36  C   UNL A   1      41.471  27.716  29.020  1.00  0.00     0.031 A 
ATOM     37  C   UNL A   1      42.237  27.607  30.309  1.00  0.00     0.074 A 
ATOM     38  C   UNL A   1      40.433  28.566  28.922  1.00  0.00     0.049 A 
ATOM     39  N   UNL A   1      42.018  28.191  31.460  1.00  0.00    -0.248 NA
ATOM     40  C   UNL A   1      43.405  26.713  30.300  1.00  0.00     0.031 C 
ATOM     41  C   UNL A   1      39.638  28.788  27.716  1.00  0.00     0.029 A 
ATOM     42  N   UNL A   1      39.867  29.394  29.858  1.00  0.00    -0.354 N 
ATOM     43  C   UNL A   1      43.013  27.731  32.313  1.00  0.00     0.074 A 
ATOM     44  C   UNL A   1      43.817  26.793  31.558  1.00  0.00     0.031 C 
ATOM     45  C   UNL A   1      38.676  29.687  27.989  1.00  0.00     0.029 A 
ATOM     46  C   UNL A   1      38.769  30.074  29.396  1.00  0.00     0.049 A 
ATOM     47  H   UNL A   1      40.215  29.490  30.774  1.00  0.00     0.167 HD
ATOM     48  C   UNL A   1      43.240  28.066  33.605  1.00  0.00     0.037 A 
ATOM     49  C   UNL A   1      37.921  30.898  30.042  1.00  0.00     0.037 A 
ATOM     50  C   UNL A   1      42.440  29.003  34.351  1.00  0.00     0.049 A 
ATOM     51  C   UNL A   1      38.153  31.203  31.500  1.00  0.00     0.074 A 
ATOM     52  C   UNL A   1      42.602  29.429  35.658  1.00  0.00     0.029 A 
ATOM     53  N   UNL A   1      41.319  29.654  33.856  1.00  0.00    -0.354 N 
ATOM     54  N   UNL A   1      39.110  30.784  32.292  1.00  0.00    -0.248 NA
ATOM     55  C   UNL A   1      37.187  32.099  32.152  1.00  0.00     0.031 C 
ATOM     56  C   UNL A   1      41.547  30.291  35.972  1.00  0.00     0.029 A 
ATOM     57  C   UNL A   1      40.763  30.455  34.841  1.00  0.00     0.049 A 
ATOM     58  H   UNL A   1      40.969  29.560  32.939  1.00  0.00     0.167 HD
ATOM     59  C   UNL A   1      38.883  31.391  33.521  1.00  0.00     0.074 A 
ATOM     60  C   UNL A   1      37.701  32.213  33.368  1.00  0.00     0.031 C 
ATOM     61  C   UNL A   1      39.592  31.278  34.672  1.00  0.00     0.037 A 
BRANCH  48  62
ATOM     62  C   UNL A   1      44.385  27.395  34.308  1.00  0.00     0.064 A 
ATOM     63  C   UNL A   1      44.236  26.160  34.955  1.00  0.00     0.173 A 
ATOM     64  C   UNL A   1      45.660  27.982  34.304  1.00  0.00     0.173 A 
ATOM     65  F   UNL A   1      43.035  25.561  35.000  1.00  0.00    -0.203 F 
ATOM     66  C   UNL A   1      45.312  25.551  35.595  1.00  0.00     0.198 A 
ATOM     67  C   UNL A   1      46.741  27.356  34.917  1.00  0.00     0.198 A 
ATOM     68  F   UNL A   1      45.860  29.161  33.694  1.00  0.00    -0.203 F 
ATOM     69  F   UNL A   1      45.134  24.395  36.249  1.00  0.00    -0.200 F 
ATOM     70  C   UNL A   1      46.564  26.145  35.569  1.00  0.00     0.200 A 
ATOM     71  F   UNL A   1      47.954  27.925  34.877  1.00  0.00    -0.200 F 
ATOM     72  F   UNL A   1      47.602  25.554  36.178  1.00  0.00    -0.200 F 
ENDBRANCH  48  62
BRANCH  49  73
ATOM     73  C   UNL A   1      36.763  31.487  29.318  1.00  0.00     0.064 A 
ATOM     74  C   UNL A   1      35.666  30.698  28.944  1.00  0.00     0.173 A 
ATOM     75  C   UNL A   1      36.736  32.846  28.975  1.00  0.00     0.173 A 
ATOM     76  F   UNL A   1      35.657  29.388  29.226  1.00  0.00    -0.203 F 
ATOM     77  C   UNL A   1      34.596  31.243  28.236  1.00  0.00     0.198 A 
ATOM     78  C   UNL A   1      35.651  33.396  28.295  1.00  0.00     0.198 A 
ATOM     79  F   UNL A   1      37.760  33.645  29.309  1.00  0.00    -0.203 F 
ATOM     80  F   UNL A   1      33.583  30.456  27.847  1.00  0.00    -0.200 F 
ATOM     81  C   UNL A   1      34.586  32.592  27.919  1.00  0.00     0.200 A 
ATOM     82  F   UNL A   1      35.640  34.704  28.002  1.00  0.00    -0.200 F 
ATOM     83  F   UNL A   1      33.555  33.116  27.242  1.00  0.00    -0.200 F 
ENDBRANCH  49  73
BRANCH  61  84
ATOM     84  C   UNL A   1      39.141  32.098  35.848  1.00  0.00     0.064 A 
ATOM     85  C   UNL A   1      38.292  31.574  36.834  1.00  0.00     0.173 A 
ATOM     86  C   UNL A   1      39.606  33.413  36.013  1.00  0.00     0.173 A 
ATOM     87  F   UNL A   1      37.808  30.328  36.717  1.00  0.00    -0.203 F 
ATOM     88  C   UNL A   1      37.905  32.344  37.928  1.00  0.00     0.198 A 
ATOM     89  C   UNL A   1      39.244  34.168  37.125  1.00  0.00     0.198 A 
ATOM     90  F   UNL A   1      40.426  33.959  35.104  1.00  0.00    -0.203 F 
ATOM     91  F   UNL A   1      37.055  31.840  38.832  1.00  0.00    -0.200 F 
ATOM     92  C   UNL A   1      38.387  33.637  38.077  1.00  0.00     0.200 A 
ATOM     93  F   UNL A   1      39.724  35.410  37.275  1.00  0.00    -0.200 F 
ATOM     94  F   UNL A   1      38.023  34.373  39.137  1.00  0.00    -0.200 F 
ENDBRANCH  61  84
ENDBRANCH  35  36
ENDBRANCH  28  30
ENDBRANCH  27  28
ENDBRANCH  26  27
ENDBRANCH  25  26
ENDBRANCH   1  25
TORSDOF 17
ENDMDL
MODEL 3
REMARK VINA RESULT:     -11.6      3.268      8.082
REMARK SMILES CC1(C)CCN(S(=O)(=O)c2ccc(O)c(C(=O)OCCOCCOC(=O)c3ccc(-c4c5nc(c(-c6c(F)c(F)c(F)c(F)c6F)c6ccc([nH]6)c(-c6c(F)c(F)c(F)c(F)c6F)c6nc(c(-c7c(F)c(F)c(F)c(F)c7F)c7ccc4[nH]7)C=C6)C=C5)cc3)c2)C1
REMARK SMILES IDX 21 1 20 2 19 3 18 4 16 5 17 6 15 7 10 8 11 9 90 10 12 11
REMARK SMILES IDX 13 12 7 13 8 14 9 15 6 16 1 17 2 18 3 19 4 20 91 21 5 22
REMARK SMILES IDX 14 23 22 25 23 26 24 27 25 28 26 29 27 30 28 31 89 32 29 33
REMARK SMILES IDX 88 34 30 35 31 36 32 37 82 38 33 39 87 40 81 41 83 42 34 43
REMARK SMILES IDX 86 44 80 45 79 46 35 48 67 49 47 50 66 51 48 52 51 53 65 54
REMARK SMILES IDX 84 55 49 56 50 57 64 59 85 60 52 61 36 62 37 63 45 64 38 65
REMARK SMILES IDX 39 66 43 67 46 68 40 69 41 70 44 71 42 72 68 73 69 74 77 75
REMARK SMILES IDX 70 76 71 77 75 78 78 79 72 80 73 81 76 82 74 83 53 84 54 85
REMARK SMILES IDX 62 86 55 87 56 88 60 89 63 90 57 91 58 92 61 93 59 94
REMARK H PARENT 14 24 83 47 51 58
REMARK Flexibility Score: inf
ROOT
ATOM      1  O   UNL A   1      34.558  33.381  28.652  1.00  0.00    -0.374 OA
ENDROOT
BRANCH   1   2
ATOM      2  C   UNL A   1      33.725  32.577  27.819  1.00  0.00     0.202 C 
BRANCH   2   3
ATOM      3  C   UNL A   1      34.028  31.077  27.802  1.00  0.00     0.261 C 
BRANCH   3   4
ATOM      4  O   UNL A   1      33.552  30.483  26.584  1.00  0.00    -0.460 OA
BRANCH   4   5
ATOM      5  C   UNL A   1      33.092  29.213  26.684  1.00  0.00     0.342 C 
ATOM      6  O   UNL A   1      33.166  28.484  27.660  1.00  0.00    -0.246 OA
BRANCH   5   7
ATOM      7  C   UNL A   1      32.266  28.875  25.499  1.00  0.00     0.103 A 
ATOM      8  C   UNL A   1      31.639  27.175  23.894  1.00  0.00     0.083 A 
ATOM      9  C   UNL A   1      30.690  28.040  23.341  1.00  0.00     0.025 A 
ATOM     10  C   UNL A   1      32.423  27.582  24.975  1.00  0.00     0.041 A 
ATOM     11  C   UNL A   1      30.549  29.333  23.846  1.00  0.00     0.048 A 
ATOM     12  C   UNL A   1      31.333  29.749  24.927  1.00  0.00     0.130 A 
BRANCH   8  13
ATOM     13  S   UNL A   1      31.772  25.509  23.281  1.00  0.00     0.243 S 
ATOM     14  O   UNL A   1      32.264  25.579  21.922  1.00  0.00    -0.207 OA
ATOM     15  O   UNL A   1      30.533  24.826  23.588  1.00  0.00    -0.207 OA
BRANCH  13  16
ATOM     16  N   UNL A   1      32.997  24.840  24.251  1.00  0.00    -0.197 NA
ATOM     17  C   UNL A   1      35.648  23.812  25.625  1.00  0.00     0.012 C 
ATOM     18  C   UNL A   1      35.012  23.519  24.258  1.00  0.00    -0.020 C 
ATOM     19  C   UNL A   1      36.074  22.946  23.316  1.00  0.00     0.012 C 
ATOM     20  C   UNL A   1      33.807  22.587  24.382  1.00  0.00     0.024 C 
ATOM     21  C   UNL A   1      34.364  24.775  23.662  1.00  0.00     0.109 C 
ATOM     22  C   UNL A   1      32.673  23.503  24.826  1.00  0.00     0.103 C 
ENDBRANCH  13  16
ENDBRANCH   8  13
BRANCH  12  23
ATOM     23  O   UNL A   1      31.184  31.020  25.402  1.00  0.00    -0.507 OA
ATOM     24  H   UNL A   1      31.905  31.454  25.815  1.00  0.00     0.293 HD
ENDBRANCH  12  23
ENDBRANCH   5   7
ENDBRANCH   4   5
ENDBRANCH   3   4
ENDBRANCH   2   3
ENDBRANCH   1   2
BRANCH   1  25
ATOM     25  C   UNL A   1      33.927  34.109  29.705  1.00  0.00     0.202 C 
BRANCH  25  26
ATOM     26  C   UNL A   1      34.454  33.857  31.124  1.00  0.00     0.261 C 
BRANCH  26  27
ATOM     27  O   UNL A   1      34.558  32.456  31.437  1.00  0.00    -0.460 OA
BRANCH  27  28
ATOM     28  C   UNL A   1      35.514  32.149  32.347  1.00  0.00     0.338 C 
ATOM     29  O   UNL A   1      35.476  32.318  33.554  1.00  0.00    -0.246 OA
BRANCH  28  30
ATOM     30  C   UNL A   1      36.605  31.404  31.693  1.00  0.00     0.060 A 
ATOM     31  C   UNL A   1      37.665  30.964  32.497  1.00  0.00     0.016 A 
ATOM     32  C   UNL A   1      36.634  31.209  30.311  1.00  0.00     0.016 A 
ATOM     33  C   UNL A   1      38.780  30.364  31.915  1.00  0.00     0.010 A 
ATOM     34  C   UNL A   1      37.757  30.611  29.729  1.00  0.00     0.010 A 
ATOM     35  C   UNL A   1      38.849  30.216  30.524  1.00  0.00    -0.014 A 
BRANCH  35  36
ATOM     36  C   UNL A   1      40.112  29.765  29.890  1.00  0.00     0.031 A 
ATOM     37  C   UNL A   1      41.242  30.744  29.733  1.00  0.00     0.074 A 
ATOM     38  C   UNL A   1      40.257  28.495  29.474  1.00  0.00     0.049 A 
ATOM     39  N   UNL A   1      42.409  30.584  29.164  1.00  0.00    -0.248 NA
ATOM     40  C   UNL A   1      41.024  32.089  30.291  1.00  0.00     0.031 C 
ATOM     41  C   UNL A   1      39.249  27.445  29.604  1.00  0.00     0.029 A 
ATOM     42  N   UNL A   1      41.310  27.877  28.846  1.00  0.00    -0.354 N 
ATOM     43  C   UNL A   1      43.061  31.805  29.285  1.00  0.00     0.074 A 
ATOM     44  C   UNL A   1      42.146  32.707  29.953  1.00  0.00     0.031 C 
ATOM     45  C   UNL A   1      39.728  26.312  29.063  1.00  0.00     0.029 A 
ATOM     46  C   UNL A   1      41.060  26.568  28.517  1.00  0.00     0.049 A 
ATOM     47  H   UNL A   1      42.162  28.329  28.651  1.00  0.00     0.167 HD
ATOM     48  C   UNL A   1      44.310  32.140  28.884  1.00  0.00     0.037 A 
ATOM     49  C   UNL A   1      41.813  25.686  27.832  1.00  0.00     0.037 A 
ATOM     50  C   UNL A   1      45.218  31.238  28.224  1.00  0.00     0.049 A 
ATOM     51  C   UNL A   1      43.173  26.103  27.335  1.00  0.00     0.074 A 
ATOM     52  C   UNL A   1      46.514  31.475  27.799  1.00  0.00     0.029 A 
ATOM     53  N   UNL A   1      44.920  29.926  27.884  1.00  0.00    -0.354 N 
ATOM     54  N   UNL A   1      43.791  27.249  27.476  1.00  0.00    -0.248 NA
ATOM     55  C   UNL A   1      43.941  25.098  26.585  1.00  0.00     0.031 C 
ATOM     56  C   UNL A   1      46.979  30.326  27.151  1.00  0.00     0.029 A 
ATOM     57  C   UNL A   1      45.998  29.351  27.229  1.00  0.00     0.049 A 
ATOM     58  H   UNL A   1      44.068  29.471  28.080  1.00  0.00     0.167 HD
ATOM     59  C   UNL A   1      45.030  27.096  26.866  1.00  0.00     0.074 A 
ATOM     60  C   UNL A   1      45.079  25.740  26.360  1.00  0.00     0.031 C 
ATOM     61  C   UNL A   1      46.037  27.995  26.740  1.00  0.00     0.037 A 
BRANCH  48  62
ATOM     62  C   UNL A   1      44.762  33.552  29.123  1.00  0.00     0.064 A 
ATOM     63  C   UNL A   1      45.453  33.922  30.287  1.00  0.00     0.173 A 
ATOM     64  C   UNL A   1      44.531  34.544  28.157  1.00  0.00     0.173 A 
ATOM     65  F   UNL A   1      45.690  33.016  31.248  1.00  0.00    -0.203 F 
ATOM     66  C   UNL A   1      45.870  35.235  30.486  1.00  0.00     0.198 A 
ATOM     67  C   UNL A   1      44.977  35.848  28.345  1.00  0.00     0.198 A 
ATOM     68  F   UNL A   1      43.879  34.244  27.023  1.00  0.00    -0.203 F 
ATOM     69  F   UNL A   1      46.485  35.575  31.627  1.00  0.00    -0.200 F 
ATOM     70  C   UNL A   1      45.639  36.195  29.513  1.00  0.00     0.200 A 
ATOM     71  F   UNL A   1      44.766  36.771  27.396  1.00  0.00    -0.200 F 
ATOM     72  F   UNL A   1      46.049  37.457  29.702  1.00  0.00    -0.200 F 
ENDBRANCH  48  62
BRANCH  49  73
ATOM     73  C   UNL A   1      41.293  24.318  27.566  1.00  0.00     0.064 A 
ATOM     74  C   UNL A   1      41.890  23.191  28.148  1.00  0.00     0.173 A 
ATOM     75  C   UNL A   1      40.199  24.109  26.713  1.00  0.00     0.173 A 
ATOM     76  F   UNL A   1      42.955  23.336  28.949  1.00  0.00    -0.203 F 
ATOM     77  C   UNL A   1      41.425  21.906  27.872  1.00  0.00     0.198 A 
ATOM     78  C   UNL A   1      39.715  22.827  26.462  1.00  0.00     0.198 A 
ATOM     79  F   UNL A   1      39.592  25.154  26.129  1.00  0.00    -0.203 F 
ATOM     80  F   UNL A   1      42.044  20.844  28.402  1.00  0.00    -0.200 F 
ATOM     81  C   UNL A   1      40.334  21.726  27.035  1.00  0.00     0.200 A 
ATOM     82  F   UNL A   1      38.653  22.659  25.664  1.00  0.00    -0.200 F 
ATOM     83  F   UNL A   1      39.884  20.491  26.773  1.00  0.00    -0.200 F 
ENDBRANCH  49  73
BRANCH  61  84
ATOM     84  C   UNL A   1      47.300  27.534  26.068  1.00  0.00     0.064 A 
ATOM     85  C   UNL A   1      48.360  26.968  26.792  1.00  0.00     0.173 A 
ATOM     86  C   UNL A   1      47.430  27.619  24.672  1.00  0.00     0.173 A 
ATOM     87  F   UNL A   1      48.292  26.878  28.129  1.00  0.00    -0.203 F 
ATOM     88  C   UNL A   1      49.512  26.527  26.147  1.00  0.00     0.198 A 
ATOM     89  C   UNL A   1      48.569  27.146  24.028  1.00  0.00     0.198 A 
ATOM     90  F   UNL A   1      46.443  28.144  23.932  1.00  0.00    -0.203 F 
ATOM     91  F   UNL A   1      50.532  26.034  26.863  1.00  0.00    -0.200 F 
ATOM     92  C   UNL A   1      49.613  26.608  24.765  1.00  0.00     0.200 A 
ATOM     93  F   UNL A   1      48.657  27.210  22.692  1.00  0.00    -0.200 F 
ATOM     94  F   UNL A   1      50.718  26.173  24.145  1.00  0.00    -0.200 F 
ENDBRANCH  61  84
ENDBRANCH  35  36
ENDBRANCH  28  30
ENDBRANCH  27  28
ENDBRANCH  26  27
ENDBRANCH  25  26
ENDBRANCH   1  25
TORSDOF 17
ENDMDL
