MODEL 1
REMARK VINA RESULT:     -12.2      0.000      0.000
REMARK SMILES Cc1noc(C[N@H+]2CCC[C@@H](c3ccc(C(=O)OCCOCCOC(=O)c4ccc(-c5c6nc(c(-c7c(F)c(F)c(F)c(F)c7F)c7ccc([nH]7)c(-c7c(F)c(F)c(F)c(F)c7F)c7nc(c(-c8c(F)c(F)c(F)c(F)c8F)c8ccc5[nH]8)C=C7)C=C6)cc4)cc3)C2)n1
REMARK SMILES IDX 20 1 19 2 18 3 16 4 17 5 15 6 12 7 13 8 91 9 14 10 90 11
REMARK SMILES IDX 11 12 7 13 8 14 92 15 9 17 10 18 6 19 5 20 1 21 2 22 3 23
REMARK SMILES IDX 93 24 4 25 21 26 22 27 23 28 24 29 25 30 26 31 27 32 28 33
REMARK SMILES IDX 89 34 29 35 88 36 30 37 31 38 32 39 82 40 33 41 87 42 81 43
REMARK SMILES IDX 83 44 34 45 86 46 80 47 79 48 35 50 67 51 47 52 66 53 48 54
REMARK SMILES IDX 51 55 65 56 84 57 49 58 50 59 64 61 85 62 52 63 36 64 37 65
REMARK SMILES IDX 45 66 38 67 39 68 43 69 46 70 40 71 41 72 44 73 42 74 68 75
REMARK SMILES IDX 69 76 77 77 70 78 71 79 75 80 78 81 72 82 73 83 76 84 74 85
REMARK SMILES IDX 53 86 54 87 62 88 55 89 56 90 60 91 63 92 57 93 58 94 61 95
REMARK SMILES IDX 59 96
REMARK H PARENT 7 16 83 49 51 60
REMARK Flexibility Score: inf
ROOT
ATOM      1  C   UNL A   1      42.753  19.848  25.782  1.00  0.00     0.202 C 
ENDROOT
BRANCH   1   2
ATOM      2  C   UNL A   1      41.548  19.579  26.689  1.00  0.00     0.261 C 
BRANCH   2   3
ATOM      3  O   UNL A   1      40.352  20.160  26.146  1.00  0.00    -0.460 OA
BRANCH   3   4
ATOM      4  C   UNL A   1      40.004  21.342  26.708  1.00  0.00     0.338 C 
ATOM      5  O   UNL A   1      40.614  21.949  27.575  1.00  0.00    -0.246 OA
BRANCH   4   6
ATOM      6  C   UNL A   1      38.834  21.919  26.011  1.00  0.00     0.060 A 
ATOM      7  C   UNL A   1      36.518  23.105  24.966  1.00  0.00    -0.039 A 
ATOM      8  C   UNL A   1      37.441  23.865  25.704  1.00  0.00     0.005 A 
ATOM      9  C   UNL A   1      36.824  21.767  24.673  1.00  0.00     0.005 A 
ATOM     10  C   UNL A   1      38.579  23.273  26.240  1.00  0.00     0.016 A 
ATOM     11  C   UNL A   1      37.987  21.174  25.186  1.00  0.00     0.016 A 
BRANCH   7  12
ATOM     12  C   UNL A   1      35.132  23.671  24.663  1.00  0.00     0.074 C 
ATOM     13  N   UNL A   1      32.688  22.957  24.871  1.00  0.00    -0.327 N 
ATOM     14  C   UNL A   1      32.421  24.140  25.698  1.00  0.00     0.262 C 
ATOM     15  C   UNL A   1      34.100  22.549  24.941  1.00  0.00     0.270 C 
ATOM     16  H   UNL A   1      32.483  23.218  23.907  1.00  0.00     0.348 HD
ATOM     17  C   UNL A   1      33.330  25.307  25.309  1.00  0.00     0.062 C 
ATOM     18  C   UNL A   1      34.804  24.935  25.470  1.00  0.00     0.020 C 
BRANCH  13  19
ATOM     19  C   UNL A   1      31.798  21.816  25.244  1.00  0.00     0.364 C 
BRANCH  19  20
ATOM     20  C   UNL A   1      32.253  20.460  24.792  1.00  0.00     0.281 A 
ATOM     21  C   UNL A   1      32.874  17.008  24.915  1.00  0.00     0.093 C 
ATOM     22  C   UNL A   1      32.681  18.427  24.557  1.00  0.00     0.169 A 
ATOM     23  N   UNL A   1      32.496  18.843  23.298  1.00  0.00    -0.063 NA
ATOM     24  N   UNL A   1      32.584  19.405  25.508  1.00  0.00    -0.191 NA
ATOM     25  O   UNL A   1      32.212  20.205  23.450  1.00  0.00    -0.333 OA
ENDBRANCH  19  20
ENDBRANCH  13  19
ENDBRANCH   7  12
ENDBRANCH   4   6
ENDBRANCH   3   4
ENDBRANCH   2   3
ENDBRANCH   1   2
BRANCH   1  26
ATOM     26  O   UNL A   1      43.536  20.998  26.098  1.00  0.00    -0.374 OA
BRANCH  26  27
ATOM     27  C   UNL A   1      44.516  21.404  25.139  1.00  0.00     0.202 C 
BRANCH  27  28
ATOM     28  C   UNL A   1      44.077  22.476  24.134  1.00  0.00     0.261 C 
BRANCH  28  29
ATOM     29  O   UNL A   1      43.365  23.547  24.781  1.00  0.00    -0.460 OA
BRANCH  29  30
ATOM     30  C   UNL A   1      44.117  24.621  25.111  1.00  0.00     0.338 C 
ATOM     31  O   UNL A   1      45.175  24.973  24.609  1.00  0.00    -0.246 OA
BRANCH  30  32
ATOM     32  C   UNL A   1      43.382  25.462  26.072  1.00  0.00     0.060 A 
ATOM     33  C   UNL A   1      43.789  26.796  26.213  1.00  0.00     0.016 A 
ATOM     34  C   UNL A   1      42.348  24.948  26.858  1.00  0.00     0.016 A 
ATOM     35  C   UNL A   1      43.191  27.611  27.171  1.00  0.00     0.010 A 
ATOM     36  C   UNL A   1      41.757  25.763  27.827  1.00  0.00     0.010 A 
ATOM     37  C   UNL A   1      42.197  27.088  28.008  1.00  0.00    -0.014 A 
BRANCH  37  38
ATOM     38  C   UNL A   1      41.715  27.884  29.162  1.00  0.00     0.031 A 
ATOM     39  C   UNL A   1      42.473  27.820  30.457  1.00  0.00     0.074 A 
ATOM     40  C   UNL A   1      40.629  28.667  29.052  1.00  0.00     0.049 A 
ATOM     41  N   UNL A   1      42.216  28.401  31.602  1.00  0.00    -0.248 NA
ATOM     42  C   UNL A   1      43.686  26.987  30.462  1.00  0.00     0.031 C 
ATOM     43  C   UNL A   1      39.842  28.852  27.835  1.00  0.00     0.029 A 
ATOM     44  N   UNL A   1      40.003  29.455  29.984  1.00  0.00    -0.354 N 
ATOM     45  C   UNL A   1      43.232  28.003  32.461  1.00  0.00     0.074 A 
ATOM     46  C   UNL A   1      44.090  27.104  31.717  1.00  0.00     0.031 C 
ATOM     47  C   UNL A   1      38.833  29.702  28.096  1.00  0.00     0.029 A 
ATOM     48  C   UNL A   1      38.885  30.090  29.504  1.00  0.00     0.049 A 
ATOM     49  H   UNL A   1      40.324  29.555  30.910  1.00  0.00     0.167 HD
ATOM     50  C   UNL A   1      43.436  28.361  33.752  1.00  0.00     0.037 A 
ATOM     51  C   UNL A   1      37.997  30.880  30.138  1.00  0.00     0.037 A 
ATOM     52  C   UNL A   1      42.577  29.248  34.491  1.00  0.00     0.049 A 
ATOM     53  C   UNL A   1      38.184  31.175  31.604  1.00  0.00     0.074 A 
ATOM     54  C   UNL A   1      42.710  29.694  35.794  1.00  0.00     0.029 A 
ATOM     55  N   UNL A   1      41.413  29.814  33.992  1.00  0.00    -0.354 N 
ATOM     56  N   UNL A   1      39.160  30.819  32.404  1.00  0.00    -0.248 NA
ATOM     57  C   UNL A   1      37.139  31.977  32.254  1.00  0.00     0.031 C 
ATOM     58  C   UNL A   1      41.598  30.485  36.101  1.00  0.00     0.029 A 
ATOM     59  C   UNL A   1      40.797  30.575  34.973  1.00  0.00     0.049 A 
ATOM     60  H   UNL A   1      41.075  29.694  33.076  1.00  0.00     0.167 HD
ATOM     61  C   UNL A   1      38.862  31.373  33.641  1.00  0.00     0.074 A 
ATOM     62  C   UNL A   1      37.618  32.099  33.485  1.00  0.00     0.031 C 
ATOM     63  C   UNL A   1      39.558  31.291  34.803  1.00  0.00     0.037 A 
BRANCH  50  64
ATOM     64  C   UNL A   1      44.621  27.759  34.451  1.00  0.00     0.064 A 
ATOM     65  C   UNL A   1      45.874  28.393  34.459  1.00  0.00     0.173 A 
ATOM     66  C   UNL A   1      44.501  26.533  35.121  1.00  0.00     0.173 A 
ATOM     67  F   UNL A   1      46.044  29.561  33.821  1.00  0.00    -0.203 F 
ATOM     68  C   UNL A   1      46.970  27.802  35.080  1.00  0.00     0.198 A 
ATOM     69  C   UNL A   1      45.593  25.960  35.767  1.00  0.00     0.198 A 
ATOM     70  F   UNL A   1      43.326  25.888  35.148  1.00  0.00    -0.203 F 
ATOM     71  F   UNL A   1      48.170  28.396  35.025  1.00  0.00    -0.200 F 
ATOM     72  C   UNL A   1      46.829  26.588  35.737  1.00  0.00     0.200 A 
ATOM     73  F   UNL A   1      45.452  24.792  36.409  1.00  0.00    -0.200 F 
ATOM     74  F   UNL A   1      47.887  26.019  36.331  1.00  0.00    -0.200 F 
ENDBRANCH  50  64
BRANCH  51  75
ATOM     75  C   UNL A   1      36.847  31.449  29.391  1.00  0.00     0.064 A 
ATOM     76  C   UNL A   1      36.806  32.812  29.066  1.00  0.00     0.173 A 
ATOM     77  C   UNL A   1      35.765  30.650  28.992  1.00  0.00     0.173 A 
ATOM     78  F   UNL A   1      37.804  33.621  29.450  1.00  0.00    -0.203 F 
ATOM     79  C   UNL A   1      35.724  33.355  28.377  1.00  0.00     0.198 A 
ATOM     80  C   UNL A   1      34.695  31.189  28.282  1.00  0.00     0.198 A 
ATOM     81  F   UNL A   1      35.754  29.341  29.285  1.00  0.00    -0.203 F 
ATOM     82  F   UNL A   1      35.693  34.668  28.111  1.00  0.00    -0.200 F 
ATOM     83  C   UNL A   1      34.673  32.542  27.980  1.00  0.00     0.200 A 
ATOM     84  F   UNL A   1      33.686  30.399  27.892  1.00  0.00    -0.200 F 
ATOM     85  F   UNL A   1      33.636  33.065  27.313  1.00  0.00    -0.200 F 
ENDBRANCH  51  75
BRANCH  63  86
ATOM     86  C   UNL A   1      39.005  32.024  35.991  1.00  0.00     0.064 A 
ATOM     87  C   UNL A   1      38.164  31.392  36.919  1.00  0.00     0.173 A 
ATOM     88  C   UNL A   1      39.354  33.363  36.227  1.00  0.00     0.173 A 
ATOM     89  F   UNL A   1      37.787  30.118  36.730  1.00  0.00    -0.203 F 
ATOM     90  C   UNL A   1      37.678  32.079  38.028  1.00  0.00     0.198 A 
ATOM     91  C   UNL A   1      38.889  34.037  37.352  1.00  0.00     0.198 A 
ATOM     92  F   UNL A   1      40.159  34.011  35.373  1.00  0.00    -0.203 F 
ATOM     93  F   UNL A   1      36.841  31.468  38.879  1.00  0.00    -0.200 F 
ATOM     94  C   UNL A   1      38.046  33.398  38.248  1.00  0.00     0.200 A 
ATOM     95  F   UNL A   1      39.257  35.308  37.569  1.00  0.00    -0.200 F 
ATOM     96  F   UNL A   1      37.583  34.055  39.320  1.00  0.00    -0.200 F 
ENDBRANCH  63  86
ENDBRANCH  37  38
ENDBRANCH  30  32
ENDBRANCH  29  30
ENDBRANCH  28  29
ENDBRANCH  27  28
ENDBRANCH  26  27
ENDBRANCH   1  26
TORSDOF 17
ENDMDL
MODEL 2
REMARK VINA RESULT:     -12.0      3.636      8.893
REMARK SMILES Cc1noc(C[N@H+]2CCC[C@@H](c3ccc(C(=O)OCCOCCOC(=O)c4ccc(-c5c6nc(c(-c7c(F)c(F)c(F)c(F)c7F)c7ccc([nH]7)c(-c7c(F)c(F)c(F)c(F)c7F)c7nc(c(-c8c(F)c(F)c(F)c(F)c8F)c8ccc5[nH]8)C=C7)C=C6)cc4)cc3)C2)n1
REMARK SMILES IDX 20 1 19 2 18 3 16 4 17 5 15 6 12 7 13 8 91 9 14 10 90 11
REMARK SMILES IDX 11 12 7 13 8 14 92 15 9 17 10 18 6 19 5 20 1 21 2 22 3 23
REMARK SMILES IDX 93 24 4 25 21 26 22 27 23 28 24 29 25 30 26 31 27 32 28 33
REMARK SMILES IDX 89 34 29 35 88 36 30 37 31 38 32 39 82 40 33 41 87 42 81 43
REMARK SMILES IDX 83 44 34 45 86 46 80 47 79 48 35 50 67 51 47 52 66 53 48 54
REMARK SMILES IDX 51 55 65 56 84 57 49 58 50 59 64 61 85 62 52 63 36 64 37 65
REMARK SMILES IDX 45 66 38 67 39 68 43 69 46 70 40 71 41 72 44 73 42 74 68 75
REMARK SMILES IDX 69 76 77 77 70 78 71 79 75 80 78 81 72 82 73 83 76 84 74 85
REMARK SMILES IDX 53 86 54 87 62 88 55 89 56 90 60 91 63 92 57 93 58 94 61 95
REMARK SMILES IDX 59 96
REMARK H PARENT 7 16 83 49 51 60
REMARK Flexibility Score: inf
ROOT
ATOM      1  C   UNL A   1      32.391  29.889  25.738  1.00  0.00     0.202 C 
ENDROOT
BRANCH   1   2
ATOM      2  C   UNL A   1      31.201  29.710  24.791  1.00  0.00     0.261 C 
BRANCH   2   3
ATOM      3  O   UNL A   1      31.438  28.647  23.856  1.00  0.00    -0.460 OA
BRANCH   3   4
ATOM      4  C   UNL A   1      30.344  27.899  23.574  1.00  0.00     0.338 C 
ATOM      5  O   UNL A   1      29.431  28.193  22.818  1.00  0.00    -0.246 OA
BRANCH   4   6
ATOM      6  C   UNL A   1      30.463  26.560  24.190  1.00  0.00     0.060 A 
ATOM      7  C   UNL A   1      30.935  24.127  25.502  1.00  0.00    -0.039 A 
ATOM      8  C   UNL A   1      30.732  25.309  26.235  1.00  0.00     0.005 A 
ATOM      9  C   UNL A   1      30.796  24.165  24.106  1.00  0.00     0.005 A 
ATOM     10  C   UNL A   1      30.519  26.518  25.584  1.00  0.00     0.016 A 
ATOM     11  C   UNL A   1      30.550  25.379  23.448  1.00  0.00     0.016 A 
BRANCH   7  12
ATOM     12  C   UNL A   1      31.486  22.883  26.196  1.00  0.00     0.074 C 
ATOM     13  N   UNL A   1      32.408  20.587  25.557  1.00  0.00    -0.327 N 
ATOM     14  C   UNL A   1      33.656  20.901  26.265  1.00  0.00     0.262 C 
ATOM     15  C   UNL A   1      31.716  21.805  25.106  1.00  0.00     0.270 C 
ATOM     16  H   UNL A   1      31.803  20.110  26.224  1.00  0.00     0.348 HD
ATOM     17  C   UNL A   1      33.403  21.837  27.448  1.00  0.00     0.062 C 
ATOM     18  C   UNL A   1      32.774  23.151  26.987  1.00  0.00     0.020 C 
BRANCH  13  19
ATOM     19  C   UNL A   1      32.649  19.669  24.404  1.00  0.00     0.364 C 
BRANCH  19  20
ATOM     20  C   UNL A   1      33.004  18.255  24.760  1.00  0.00     0.281 A 
ATOM     21  C   UNL A   1      32.548  14.861  25.525  1.00  0.00     0.093 C 
ATOM     22  C   UNL A   1      33.044  16.208  25.180  1.00  0.00     0.169 A 
ATOM     23  N   UNL A   1      34.240  16.423  24.618  1.00  0.00    -0.063 NA
ATOM     24  N   UNL A   1      32.267  17.323  25.327  1.00  0.00    -0.191 NA
ATOM     25  O   UNL A   1      34.219  17.794  24.338  1.00  0.00    -0.333 OA
ENDBRANCH  19  20
ENDBRANCH  13  19
ENDBRANCH   7  12
ENDBRANCH   4   6
ENDBRANCH   3   4
ENDBRANCH   2   3
ENDBRANCH   1   2
BRANCH   1  26
ATOM     26  O   UNL A   1      32.207  30.802  26.817  1.00  0.00    -0.374 OA
BRANCH  26  27
ATOM     27  C   UNL A   1      31.376  31.940  26.575  1.00  0.00     0.202 C 
BRANCH  27  28
ATOM     28  C   UNL A   1      31.990  33.308  26.897  1.00  0.00     0.261 C 
BRANCH  28  29
ATOM     29  O   UNL A   1      32.843  33.246  28.054  1.00  0.00    -0.460 OA
BRANCH  29  30
ATOM     30  C   UNL A   1      33.964  33.999  27.984  1.00  0.00     0.338 C 
ATOM     31  O   UNL A   1      34.043  35.200  27.769  1.00  0.00    -0.246 OA
BRANCH  30  32
ATOM     32  C   UNL A   1      35.126  33.194  28.400  1.00  0.00     0.060 A 
ATOM     33  C   UNL A   1      34.881  31.903  28.889  1.00  0.00     0.016 A 
ATOM     34  C   UNL A   1      36.426  33.704  28.362  1.00  0.00     0.016 A 
ATOM     35  C   UNL A   1      35.932  31.132  29.382  1.00  0.00     0.010 A 
ATOM     36  C   UNL A   1      37.477  32.934  28.868  1.00  0.00     0.010 A 
ATOM     37  C   UNL A   1      37.230  31.658  29.407  1.00  0.00    -0.014 A 
BRANCH  37  38
ATOM     38  C   UNL A   1      38.304  30.929  30.124  1.00  0.00     0.031 A 
ATOM     39  C   UNL A   1      38.557  31.245  31.570  1.00  0.00     0.074 A 
ATOM     40  C   UNL A   1      39.029  29.986  29.500  1.00  0.00     0.049 A 
ATOM     41  N   UNL A   1      39.463  30.760  32.382  1.00  0.00    -0.248 NA
ATOM     42  C   UNL A   1      37.669  32.243  32.185  1.00  0.00     0.031 C 
ATOM     43  C   UNL A   1      38.843  29.556  28.117  1.00  0.00     0.029 A 
ATOM     44  N   UNL A   1      40.072  29.220  29.956  1.00  0.00    -0.354 N 
ATOM     45  C   UNL A   1      39.254  31.394  33.600  1.00  0.00     0.074 A 
ATOM     46  C   UNL A   1      38.159  32.324  33.411  1.00  0.00     0.031 C 
ATOM     47  C   UNL A   1      39.744  28.600  27.834  1.00  0.00     0.029 A 
ATOM     48  C   UNL A   1      40.591  28.378  29.005  1.00  0.00     0.049 A 
ATOM     49  H   UNL A   1      40.415  29.269  30.878  1.00  0.00     0.167 HD
ATOM     50  C   UNL A   1      39.910  31.212  34.771  1.00  0.00     0.037 A 
ATOM     51  C   UNL A   1      41.642  27.538  29.071  1.00  0.00     0.037 A 
ATOM     52  C   UNL A   1      41.002  30.293  34.952  1.00  0.00     0.049 A 
ATOM     53  C   UNL A   1      42.426  27.435  30.353  1.00  0.00     0.074 A 
ATOM     54  C   UNL A   1      41.716  30.015  36.104  1.00  0.00     0.029 A 
ATOM     55  N   UNL A   1      41.548  29.509  33.946  1.00  0.00    -0.354 N 
ATOM     56  N   UNL A   1      42.209  28.016  31.508  1.00  0.00    -0.248 NA
ATOM     57  C   UNL A   1      43.608  26.562  30.336  1.00  0.00     0.031 C 
ATOM     58  C   UNL A   1      42.730  29.106  35.782  1.00  0.00     0.029 A 
ATOM     59  C   UNL A   1      42.614  28.776  34.440  1.00  0.00     0.049 A 
ATOM     60  H   UNL A   1      41.224  29.479  33.017  1.00  0.00     0.167 HD
ATOM     61  C   UNL A   1      43.206  27.561  32.360  1.00  0.00     0.074 A 
ATOM     62  C   UNL A   1      44.025  26.646  31.592  1.00  0.00     0.031 C 
ATOM     63  C   UNL A   1      43.422  27.870  33.663  1.00  0.00     0.037 A 
BRANCH  50  64
ATOM     64  C   UNL A   1      39.478  32.054  35.936  1.00  0.00     0.064 A 
ATOM     65  C   UNL A   1      40.080  33.291  36.218  1.00  0.00     0.173 A 
ATOM     66  C   UNL A   1      38.448  31.618  36.782  1.00  0.00     0.173 A 
ATOM     67  F   UNL A   1      41.080  33.746  35.448  1.00  0.00    -0.203 F 
ATOM     68  C   UNL A   1      39.692  34.040  37.325  1.00  0.00     0.198 A 
ATOM     69  C   UNL A   1      38.042  32.384  37.872  1.00  0.00     0.198 A 
ATOM     70  F   UNL A   1      37.836  30.446  36.556  1.00  0.00    -0.203 F 
ATOM     71  F   UNL A   1      40.321  35.189  37.609  1.00  0.00    -0.200 F 
ATOM     72  C   UNL A   1      38.671  33.589  38.149  1.00  0.00     0.200 A 
ATOM     73  F   UNL A   1      37.049  31.951  38.661  1.00  0.00    -0.200 F 
ATOM     74  F   UNL A   1      38.302  34.310  39.217  1.00  0.00    -0.200 F 
ENDBRANCH  50  64
BRANCH  51  75
ATOM     75  C   UNL A   1      42.018  26.728  27.885  1.00  0.00     0.064 A 
ATOM     76  C   UNL A   1      41.488  25.444  27.696  1.00  0.00     0.173 A 
ATOM     77  C   UNL A   1      42.915  27.213  26.921  1.00  0.00     0.173 A 
ATOM     78  F   UNL A   1      40.649  24.927  28.606  1.00  0.00    -0.203 F 
ATOM     79  C   UNL A   1      41.846  24.672  26.594  1.00  0.00     0.198 A 
ATOM     80  C   UNL A   1      43.254  26.450  25.805  1.00  0.00     0.198 A 
ATOM     81  F   UNL A   1      43.454  28.433  27.058  1.00  0.00    -0.203 F 
ATOM     82  F   UNL A   1      41.354  23.435  26.456  1.00  0.00    -0.200 F 
ATOM     83  C   UNL A   1      42.724  25.179  25.645  1.00  0.00     0.200 A 
ATOM     84  F   UNL A   1      44.094  26.946  24.887  1.00  0.00    -0.200 F 
ATOM     85  F   UNL A   1      43.063  24.438  24.582  1.00  0.00    -0.200 F 
ENDBRANCH  51  75
BRANCH  63  86
ATOM     86  C   UNL A   1      44.575  27.196  34.350  1.00  0.00     0.064 A 
ATOM     87  C   UNL A   1      45.837  27.802  34.432  1.00  0.00     0.173 A 
ATOM     88  C   UNL A   1      44.404  25.949  34.968  1.00  0.00     0.173 A 
ATOM     89  F   UNL A   1      46.058  28.987  33.841  1.00  0.00    -0.203 F 
ATOM     90  C   UNL A   1      46.891  27.174  35.091  1.00  0.00     0.198 A 
ATOM     91  C   UNL A   1      45.451  25.338  35.651  1.00  0.00     0.198 A 
ATOM     92  F   UNL A   1      43.215  25.330  34.923  1.00  0.00    -0.203 F 
ATOM     93  F   UNL A   1      48.101  27.751  35.120  1.00  0.00    -0.200 F 
ATOM     94  C   UNL A   1      46.695  25.947  35.707  1.00  0.00     0.200 A 
ATOM     95  F   UNL A   1      45.256  24.157  36.257  1.00  0.00    -0.200 F 
ATOM     96  F   UNL A   1      47.708  25.348  36.348  1.00  0.00    -0.200 F 
ENDBRANCH  63  86
ENDBRANCH  37  38
ENDBRANCH  30  32
ENDBRANCH  29  30
ENDBRANCH  28  29
ENDBRANCH  27  28
ENDBRANCH  26  27
ENDBRANCH   1  26
TORSDOF 17
ENDMDL
MODEL 3
REMARK VINA RESULT:     -11.7      4.746      7.826
REMARK SMILES Cc1noc(C[N@H+]2CCC[C@@H](c3ccc(C(=O)OCCOCCOC(=O)c4ccc(-c5c6nc(c(-c7c(F)c(F)c(F)c(F)c7F)c7ccc([nH]7)c(-c7c(F)c(F)c(F)c(F)c7F)c7nc(c(-c8c(F)c(F)c(F)c(F)c8F)c8ccc5[nH]8)C=C7)C=C6)cc4)cc3)C2)n1
REMARK SMILES IDX 20 1 19 2 18 3 16 4 17 5 15 6 12 7 13 8 91 9 14 10 90 11
REMARK SMILES IDX 11 12 7 13 8 14 92 15 9 17 10 18 6 19 5 20 1 21 2 22 3 23
REMARK SMILES IDX 93 24 4 25 21 26 22 27 23 28 24 29 25 30 26 31 27 32 28 33
REMARK SMILES IDX 89 34 29 35 88 36 30 37 31 38 32 39 82 40 33 41 87 42 81 43
REMARK SMILES IDX 83 44 34 45 86 46 80 47 79 48 35 50 67 51 47 52 66 53 48 54
REMARK SMILES IDX 51 55 65 56 84 57 49 58 50 59 64 61 85 62 52 63 36 64 37 65
REMARK SMILES IDX 45 66 38 67 39 68 43 69 46 70 40 71 41 72 44 73 42 74 68 75
REMARK SMILES IDX 69 76 77 77 70 78 71 79 75 80 78 81 72 82 73 83 76 84 74 85
REMARK SMILES IDX 53 86 54 87 62 88 55 89 56 90 60 91 63 92 57 93 58 94 61 95
REMARK SMILES IDX 59 96
REMARK H PARENT 7 16 83 49 51 60
REMARK Flexibility Score: inf
ROOT
ATOM      1  C   UNL A   1      35.577  21.401  25.975  1.00  0.00     0.202 C 
ENDROOT
BRANCH   1   2
ATOM      2  C   UNL A   1      34.550  22.239  25.209  1.00  0.00     0.261 C 
BRANCH   2   3
ATOM      3  O   UNL A   1      33.756  21.417  24.339  1.00  0.00    -0.460 OA
BRANCH   3   4
ATOM      4  C   UNL A   1      32.503  21.175  24.794  1.00  0.00     0.338 C 
ATOM      5  O   UNL A   1      32.077  20.121  25.242  1.00  0.00    -0.246 OA
BRANCH   4   6
ATOM      6  C   UNL A   1      31.720  22.428  24.837  1.00  0.00     0.060 A 
ATOM      7  C   UNL A   1      30.460  24.933  24.756  1.00  0.00    -0.039 A 
ATOM      8  C   UNL A   1      30.792  24.259  23.569  1.00  0.00     0.005 A 
ATOM      9  C   UNL A   1      30.675  24.285  25.983  1.00  0.00     0.005 A 
ATOM     10  C   UNL A   1      31.436  23.028  23.608  1.00  0.00     0.016 A 
ATOM     11  C   UNL A   1      31.295  23.029  26.026  1.00  0.00     0.016 A 
BRANCH   7  12
ATOM     12  C   UNL A   1      30.058  26.405  24.713  1.00  0.00     0.074 C 
ATOM     13  N   UNL A   1      31.185  28.690  24.512  1.00  0.00    -0.327 N 
ATOM     14  C   UNL A   1      30.382  28.971  23.315  1.00  0.00     0.262 C 
ATOM     15  C   UNL A   1      31.361  27.244  24.723  1.00  0.00     0.270 C 
ATOM     16  H   UNL A   1      30.668  29.064  25.308  1.00  0.00     0.348 HD
ATOM     17  C   UNL A   1      29.022  28.274  23.382  1.00  0.00     0.062 C 
ATOM     18  C   UNL A   1      29.184  26.760  23.502  1.00  0.00     0.020 C 
BRANCH  13  19
ATOM     19  C   UNL A   1      32.512  29.373  24.454  1.00  0.00     0.364 C 
BRANCH  19  20
ATOM     20  C   UNL A   1      33.196  29.582  25.773  1.00  0.00     0.281 A 
ATOM     21  C   UNL A   1      35.746  29.517  28.183  1.00  0.00     0.093 C 
ATOM     22  C   UNL A   1      34.528  29.731  27.377  1.00  0.00     0.169 A 
ATOM     23  N   UNL A   1      33.674  30.738  27.600  1.00  0.00    -0.063 NA
ATOM     24  N   UNL A   1      34.242  28.964  26.282  1.00  0.00    -0.191 NA
ATOM     25  O   UNL A   1      32.777  30.639  26.530  1.00  0.00    -0.333 OA
ENDBRANCH  19  20
ENDBRANCH  13  19
ENDBRANCH   7  12
ENDBRANCH   4   6
ENDBRANCH   3   4
ENDBRANCH   2   3
ENDBRANCH   1   2
BRANCH   1  26
ATOM     26  O   UNL A   1      36.319  20.455  25.207  1.00  0.00    -0.374 OA
BRANCH  26  27
ATOM     27  C   UNL A   1      37.663  20.802  24.867  1.00  0.00     0.202 C 
BRANCH  27  28
ATOM     28  C   UNL A   1      38.767  20.001  25.568  1.00  0.00     0.261 C 
BRANCH  28  29
ATOM     29  O   UNL A   1      39.963  20.784  25.735  1.00  0.00    -0.460 OA
BRANCH  29  30
ATOM     30  C   UNL A   1      40.482  20.782  26.984  1.00  0.00     0.338 C 
ATOM     31  O   UNL A   1      40.817  19.814  27.651  1.00  0.00    -0.246 OA
BRANCH  30  32
ATOM     32  C   UNL A   1      40.783  22.165  27.396  1.00  0.00     0.060 A 
ATOM     33  C   UNL A   1      40.136  23.203  26.710  1.00  0.00     0.016 A 
ATOM     34  C   UNL A   1      41.716  22.448  28.396  1.00  0.00     0.016 A 
ATOM     35  C   UNL A   1      40.451  24.530  26.994  1.00  0.00     0.010 A 
ATOM     36  C   UNL A   1      42.039  23.780  28.672  1.00  0.00     0.010 A 
ATOM     37  C   UNL A   1      41.430  24.824  27.951  1.00  0.00    -0.014 A 
BRANCH  37  38
ATOM     38  C   UNL A   1      41.917  26.217  28.099  1.00  0.00     0.031 A 
ATOM     39  C   UNL A   1      43.259  26.582  27.533  1.00  0.00     0.074 A 
ATOM     40  C   UNL A   1      41.165  27.146  28.711  1.00  0.00     0.049 A 
ATOM     41  N   UNL A   1      43.898  27.725  27.577  1.00  0.00    -0.248 NA
ATOM     42  C   UNL A   1      43.980  25.515  26.823  1.00  0.00     0.031 C 
ATOM     43  C   UNL A   1      39.827  26.926  29.254  1.00  0.00     0.029 A 
ATOM     44  N   UNL A   1      41.426  28.467  28.978  1.00  0.00    -0.354 N 
ATOM     45  C   UNL A   1      45.093  27.512  26.902  1.00  0.00     0.074 A 
ATOM     46  C   UNL A   1      45.107  26.123  26.490  1.00  0.00     0.031 C 
ATOM     47  C   UNL A   1      39.381  28.074  29.792  1.00  0.00     0.029 A 
ATOM     48  C   UNL A   1      40.417  29.098  29.662  1.00  0.00     0.049 A 
ATOM     49  H   UNL A   1      42.257  28.919  28.706  1.00  0.00     0.167 HD
ATOM     50  C   UNL A   1      46.086  28.397  26.643  1.00  0.00     0.037 A 
ATOM     51  C   UNL A   1      40.350  30.355  30.142  1.00  0.00     0.037 A 
ATOM     52  C   UNL A   1      46.073  29.774  27.060  1.00  0.00     0.049 A 
ATOM     53  C   UNL A   1      41.514  31.288  29.937  1.00  0.00     0.074 A 
ATOM     54  C   UNL A   1      47.016  30.758  26.825  1.00  0.00     0.029 A 
ATOM     55  N   UNL A   1      45.066  30.358  27.815  1.00  0.00    -0.354 N 
ATOM     56  N   UNL A   1      42.629  31.091  29.276  1.00  0.00    -0.248 NA
ATOM     57  C   UNL A   1      41.411  32.618  30.554  1.00  0.00     0.031 C 
ATOM     58  C   UNL A   1      46.607  31.922  27.485  1.00  0.00     0.029 A 
ATOM     59  C   UNL A   1      45.382  31.679  28.087  1.00  0.00     0.049 A 
ATOM     60  H   UNL A   1      44.246  29.901  28.112  1.00  0.00     0.167 HD
ATOM     61  C   UNL A   1      43.347  32.276  29.373  1.00  0.00     0.074 A 
ATOM     62  C   UNL A   1      42.536  33.192  30.150  1.00  0.00     0.031 C 
ATOM     63  C   UNL A   1      44.566  32.579  28.863  1.00  0.00     0.037 A 
BRANCH  50  64
ATOM     64  C   UNL A   1      47.284  27.883  25.898  1.00  0.00     0.064 A 
ATOM     65  C   UNL A   1      48.449  27.471  26.565  1.00  0.00     0.173 A 
ATOM     66  C   UNL A   1      47.266  27.801  24.498  1.00  0.00     0.173 A 
ATOM     67  F   UNL A   1      48.521  27.543  27.903  1.00  0.00    -0.203 F 
ATOM     68  C   UNL A   1      49.563  27.034  25.856  1.00  0.00     0.198 A 
ATOM     69  C   UNL A   1      48.373  27.335  23.793  1.00  0.00     0.198 A 
ATOM     70  F   UNL A   1      46.178  28.178  23.811  1.00  0.00    -0.203 F 
ATOM     71  F   UNL A   1      50.685  26.702  26.510  1.00  0.00    -0.200 F 
ATOM     72  C   UNL A   1      49.524  26.962  24.471  1.00  0.00     0.200 A 
ATOM     73  F   UNL A   1      48.329  27.257  22.456  1.00  0.00    -0.200 F 
ATOM     74  F   UNL A   1      50.600  26.544  23.789  1.00  0.00    -0.200 F 
ENDBRANCH  50  64
BRANCH  51  75
ATOM     75  C   UNL A   1      39.135  30.805  30.867  1.00  0.00     0.064 A 
ATOM     76  C   UNL A   1      38.097  31.459  30.190  1.00  0.00     0.173 A 
ATOM     77  C   UNL A   1      38.987  30.601  32.247  1.00  0.00     0.173 A 
ATOM     78  F   UNL A   1      38.205  31.702  28.875  1.00  0.00    -0.203 F 
ATOM     79  C   UNL A   1      36.960  31.897  30.865  1.00  0.00     0.198 A 
ATOM     80  C   UNL A   1      37.839  31.017  32.918  1.00  0.00     0.198 A 
ATOM     81  F   UNL A   1      39.955  29.986  32.942  1.00  0.00    -0.203 F 
ATOM     82  F   UNL A   1      35.998  32.551  30.201  1.00  0.00    -0.200 F 
ATOM     83  C   UNL A   1      36.829  31.670  32.228  1.00  0.00     0.200 A 
ATOM     84  F   UNL A   1      37.713  30.788  34.232  1.00  0.00    -0.200 F 
ATOM     85  F   UNL A   1      35.733  32.086  32.876  1.00  0.00    -0.200 F 
ENDBRANCH  51  75
BRANCH  63  86
ATOM     86  C   UNL A   1      45.090  33.966  29.105  1.00  0.00     0.064 A 
ATOM     87  C   UNL A   1      45.911  34.260  30.203  1.00  0.00     0.173 A 
ATOM     88  C   UNL A   1      44.800  35.002  28.205  1.00  0.00     0.173 A 
ATOM     89  F   UNL A   1      46.203  33.307  31.103  1.00  0.00    -0.203 F 
ATOM     90  C   UNL A   1      46.406  35.546  30.402  1.00  0.00     0.198 A 
ATOM     91  C   UNL A   1      45.321  36.279  28.391  1.00  0.00     0.198 A 
ATOM     92  F   UNL A   1      44.024  34.772  27.135  1.00  0.00    -0.203 F 
ATOM     93  F   UNL A   1      47.154  35.815  31.482  1.00  0.00    -0.200 F 
ATOM     94  C   UNL A   1      46.119  36.552  29.492  1.00  0.00     0.200 A 
ATOM     95  F   UNL A   1      45.052  37.247  27.503  1.00  0.00    -0.200 F 
ATOM     96  F   UNL A   1      46.603  37.787  29.680  1.00  0.00    -0.200 F 
ENDBRANCH  63  86
ENDBRANCH  37  38
ENDBRANCH  30  32
ENDBRANCH  29  30
ENDBRANCH  28  29
ENDBRANCH  27  28
ENDBRANCH  26  27
ENDBRANCH   1  26
TORSDOF 17
ENDMDL
