MODEL 1
REMARK VINA RESULT:     -12.0      0.000      0.000
REMARK SMILES Cc1nc(-c2ccc(S(=O)(=O)N3CC[NH2+][C@H](C(=O)OCCOCCOC(=O)c4ccc(-c5c6nc(c(-c7c(F)c(F)c(F)c(F)c7F)c7ccc([nH]7)c(-c7c(F)c(F)c(F)c(F)c7F)c7nc(c(-c8c(F)c(F)c(F)c(F)c8F)c8ccc5[nH]8)C=C7)C=C6)cc4)C3)s2)cs1
REMARK SMILES IDX 21 1 20 2 19 3 17 4 18 5 16 6 12 7 13 8 91 9 14 10 15 11
REMARK SMILES IDX 9 14 10 15 11 16 8 17 5 18 6 19 92 20 7 21 4 22 1 23 2 24
REMARK SMILES IDX 3 25 94 26 93 27 22 28 23 29 24 30 25 31 26 32 27 33 28 34
REMARK SMILES IDX 29 35 90 36 30 37 89 38 31 39 32 40 33 41 83 42 34 43 88 44
REMARK SMILES IDX 82 45 84 46 35 47 87 48 81 49 80 50 36 52 68 53 48 54 67 55
REMARK SMILES IDX 49 56 52 57 66 58 85 59 50 60 51 61 65 63 86 64 53 65 37 66
REMARK SMILES IDX 38 67 46 68 39 69 40 70 44 71 47 72 41 73 42 74 45 75 43 76
REMARK SMILES IDX 69 77 70 78 78 79 71 80 72 81 76 82 79 83 73 84 74 85 77 86
REMARK SMILES IDX 75 87 54 88 55 89 63 90 56 91 57 92 61 93 64 94 58 95 59 96
REMARK SMILES IDX 62 97 60 98
REMARK H PARENT 15 12 15 13 84 51 52 62
REMARK Flexibility Score: inf
ROOT
ATOM      1  C   UNL A   1      40.305  21.292  26.328  1.00  0.00     0.202 C 
ENDROOT
BRANCH   1   2
ATOM      2  C   UNL A   1      39.072  22.185  26.178  1.00  0.00     0.261 C 
BRANCH   2   3
ATOM      3  O   UNL A   1      37.926  21.470  25.676  1.00  0.00    -0.459 OA
BRANCH   3   4
ATOM      4  C   UNL A   1      37.102  22.235  24.912  1.00  0.00     0.366 C 
ATOM      5  O   UNL A   1      37.389  22.681  23.805  1.00  0.00    -0.245 OA
BRANCH   4   6
ATOM      6  C   UNL A   1      35.752  22.506  25.541  1.00  0.00     0.308 C 
ATOM      7  N   UNL A   1      33.972  24.132  25.800  1.00  0.00    -0.185 NA
ATOM      8  C   UNL A   1      33.414  23.387  26.963  1.00  0.00     0.164 C 
ATOM      9  C   UNL A   1      35.445  23.990  25.671  1.00  0.00     0.180 C 
ATOM     10  C   UNL A   1      34.025  21.971  27.156  1.00  0.00     0.278 C 
ATOM     11  N   UNL A   1      35.459  21.787  26.816  1.00  0.00    -0.332 N 
ATOM     12  H   UNL A   1      35.659  20.793  26.702  1.00  0.00     0.347 HD
ATOM     13  H   UNL A   1      36.041  22.162  27.565  1.00  0.00     0.347 HD
BRANCH   7  14
ATOM     14  S   UNL A   1      33.075  24.326  24.365  1.00  0.00     0.253 S 
ATOM     15  O   UNL A   1      31.922  23.465  24.492  1.00  0.00    -0.206 OA
ATOM     16  O   UNL A   1      33.996  24.210  23.252  1.00  0.00    -0.206 OA
BRANCH  14  17
ATOM     17  C   UNL A   1      32.421  25.993  24.215  1.00  0.00     0.135 A 
ATOM     18  C   UNL A   1      30.831  27.854  23.810  1.00  0.00     0.055 A 
ATOM     19  C   UNL A   1      32.089  28.304  24.137  1.00  0.00     0.023 A 
ATOM     20  S   UNL A   1      30.740  26.152  23.851  1.00  0.00    -0.121 S 
ATOM     21  C   UNL A   1      33.010  27.242  24.294  1.00  0.00     0.034 A 
BRANCH  18  22
ATOM     22  C   UNL A   1      29.759  28.826  23.428  1.00  0.00     0.091 A 
ATOM     23  C   UNL A   1      28.852  32.356  23.472  1.00  0.00     0.079 C 
ATOM     24  C   UNL A   1      28.929  30.880  23.314  1.00  0.00     0.090 A 
ATOM     25  N   UNL A   1      29.896  30.150  23.818  1.00  0.00    -0.241 NA
ATOM     26  S   UNL A   1      27.739  30.007  22.436  1.00  0.00    -0.127 S 
ATOM     27  C   UNL A   1      28.635  28.556  22.678  1.00  0.00     0.096 A 
ENDBRANCH  18  22
ENDBRANCH  14  17
ENDBRANCH   7  14
ENDBRANCH   4   6
ENDBRANCH   3   4
ENDBRANCH   2   3
ENDBRANCH   1   2
BRANCH   1  28
ATOM     28  O   UNL A   1      41.569  21.906  26.557  1.00  0.00    -0.374 OA
BRANCH  28  29
ATOM     29  C   UNL A   1      42.740  21.273  26.048  1.00  0.00     0.202 C 
BRANCH  29  30
ATOM     30  C   UNL A   1      43.799  22.148  25.361  1.00  0.00     0.261 C 
BRANCH  30  31
ATOM     31  O   UNL A   1      43.261  23.303  24.687  1.00  0.00    -0.460 OA
BRANCH  31  32
ATOM     32  C   UNL A   1      43.943  24.451  24.934  1.00  0.00     0.338 C 
ATOM     33  O   UNL A   1      45.020  24.787  24.469  1.00  0.00    -0.246 OA
BRANCH  32  34
ATOM     34  C   UNL A   1      43.133  25.386  25.734  1.00  0.00     0.060 A 
ATOM     35  C   UNL A   1      43.767  26.552  26.184  1.00  0.00     0.016 A 
ATOM     36  C   UNL A   1      41.842  25.069  26.161  1.00  0.00     0.016 A 
ATOM     37  C   UNL A   1      43.139  27.375  27.113  1.00  0.00     0.010 A 
ATOM     38  C   UNL A   1      41.217  25.890  27.108  1.00  0.00     0.010 A 
ATOM     39  C   UNL A   1      41.885  27.017  27.623  1.00  0.00    -0.014 A 
BRANCH  39  40
ATOM     40  C   UNL A   1      41.395  27.719  28.834  1.00  0.00     0.031 A 
ATOM     41  C   UNL A   1      42.169  27.572  30.117  1.00  0.00     0.074 A 
ATOM     42  C   UNL A   1      40.340  28.549  28.771  1.00  0.00     0.049 A 
ATOM     43  N   UNL A   1      41.974  28.145  31.278  1.00  0.00    -0.248 NA
ATOM     44  C   UNL A   1      43.323  26.659  30.084  1.00  0.00     0.031 C 
ATOM     45  C   UNL A   1      39.541  28.806  27.576  1.00  0.00     0.029 A 
ATOM     46  N   UNL A   1      39.770  29.339  29.737  1.00  0.00    -0.354 N 
ATOM     47  C   UNL A   1      42.980  27.666  32.108  1.00  0.00     0.074 A 
ATOM     48  C   UNL A   1      43.761  26.728  31.332  1.00  0.00     0.031 C 
ATOM     49  C   UNL A   1      38.580  29.696  27.879  1.00  0.00     0.029 A 
ATOM     50  C   UNL A   1      38.688  30.056  29.291  1.00  0.00     0.049 A 
ATOM     51  H   UNL A   1      40.105  29.387  30.662  1.00  0.00     0.167 HD
ATOM     52  C   UNL A   1      43.237  27.990  33.397  1.00  0.00     0.037 A 
ATOM     53  C   UNL A   1      37.877  30.903  29.955  1.00  0.00     0.037 A 
ATOM     54  C   UNL A   1      42.460  28.925  34.168  1.00  0.00     0.049 A 
ATOM     55  C   UNL A   1      38.152  31.204  31.405  1.00  0.00     0.074 A 
ATOM     56  C   UNL A   1      42.644  29.327  35.479  1.00  0.00     0.029 A 
ATOM     57  N   UNL A   1      41.347  29.601  33.693  1.00  0.00    -0.354 N 
ATOM     58  N   UNL A   1      39.119  30.767  32.174  1.00  0.00    -0.248 NA
ATOM     59  C   UNL A   1      37.225  32.128  32.076  1.00  0.00     0.031 C 
ATOM     60  C   UNL A   1      41.614  30.215  35.811  1.00  0.00     0.029 A 
ATOM     61  C   UNL A   1      40.819  30.403  34.692  1.00  0.00     0.049 A 
ATOM     62  H   UNL A   1      40.985  29.524  32.781  1.00  0.00     0.167 HD
ATOM     63  C   UNL A   1      38.935  31.379  33.408  1.00  0.00     0.074 A 
ATOM     64  C   UNL A   1      37.771  32.232  33.279  1.00  0.00     0.031 C 
ATOM     65  C   UNL A   1      39.664  31.249  34.544  1.00  0.00     0.037 A 
BRANCH  52  66
ATOM     66  C   UNL A   1      44.394  27.306  34.063  1.00  0.00     0.064 A 
ATOM     67  C   UNL A   1      44.245  26.075  34.720  1.00  0.00     0.173 A 
ATOM     68  C   UNL A   1      45.676  27.876  34.022  1.00  0.00     0.173 A 
ATOM     69  F   UNL A   1      43.038  25.496  34.801  1.00  0.00    -0.203 F 
ATOM     70  C   UNL A   1      45.330  25.453  35.333  1.00  0.00     0.198 A 
ATOM     71  C   UNL A   1      46.763  27.239  34.612  1.00  0.00     0.198 A 
ATOM     72  F   UNL A   1      45.874  29.051  33.405  1.00  0.00    -0.203 F 
ATOM     73  F   UNL A   1      45.155  24.301  35.995  1.00  0.00    -0.200 F 
ATOM     74  C   UNL A   1      46.589  26.032  35.273  1.00  0.00     0.200 A 
ATOM     75  F   UNL A   1      47.981  27.795  34.546  1.00  0.00    -0.200 F 
ATOM     76  F   UNL A   1      47.633  25.431  35.859  1.00  0.00    -0.200 F 
ENDBRANCH  52  66
BRANCH  53  77
ATOM     77  C   UNL A   1      36.728  31.531  29.252  1.00  0.00     0.064 A 
ATOM     78  C   UNL A   1      36.732  32.895  28.928  1.00  0.00     0.173 A 
ATOM     79  C   UNL A   1      35.594  30.781  28.905  1.00  0.00     0.173 A 
ATOM     80  F   UNL A   1      37.782  33.659  29.261  1.00  0.00    -0.203 F 
ATOM     81  C   UNL A   1      35.638  33.488  28.300  1.00  0.00     0.198 A 
ATOM     82  C   UNL A   1      34.513  31.369  28.254  1.00  0.00     0.198 A 
ATOM     83  F   UNL A   1      35.541  29.473  29.196  1.00  0.00    -0.203 F 
ATOM     84  F   UNL A   1      35.649  34.803  28.042  1.00  0.00    -0.200 F 
ATOM     85  C   UNL A   1      34.532  32.724  27.958  1.00  0.00     0.200 A 
ATOM     86  F   UNL A   1      33.451  30.625  27.916  1.00  0.00    -0.200 F 
ATOM     87  F   UNL A   1      33.482  33.295  27.352  1.00  0.00    -0.200 F 
ENDBRANCH  53  77
BRANCH  65  88
ATOM     88  C   UNL A   1      39.243  32.072  35.727  1.00  0.00     0.064 A 
ATOM     89  C   UNL A   1      39.697  33.386  35.910  1.00  0.00     0.173 A 
ATOM     90  C   UNL A   1      38.348  31.548  36.672  1.00  0.00     0.173 A 
ATOM     91  F   UNL A   1      40.564  33.927  35.040  1.00  0.00    -0.203 F 
ATOM     92  C   UNL A   1      39.293  34.135  37.011  1.00  0.00     0.198 A 
ATOM     93  C   UNL A   1      37.923  32.311  37.756  1.00  0.00     0.198 A 
ATOM     94  F   UNL A   1      37.876  30.299  36.539  1.00  0.00    -0.203 F 
ATOM     95  F   UNL A   1      39.779  35.371  37.192  1.00  0.00    -0.200 F 
ATOM     96  C   UNL A   1      38.403  33.600  37.929  1.00  0.00     0.200 A 
ATOM     97  F   UNL A   1      37.051  31.797  38.636  1.00  0.00    -0.200 F 
ATOM     98  F   UNL A   1      38.012  34.325  38.987  1.00  0.00    -0.200 F 
ENDBRANCH  65  88
ENDBRANCH  39  40
ENDBRANCH  32  34
ENDBRANCH  31  32
ENDBRANCH  30  31
ENDBRANCH  29  30
ENDBRANCH  28  29
ENDBRANCH   1  28
TORSDOF 17
ENDMDL
MODEL 2
REMARK VINA RESULT:     -11.8      4.446      6.745
REMARK SMILES Cc1nc(-c2ccc(S(=O)(=O)N3CC[NH2+][C@H](C(=O)OCCOCCOC(=O)c4ccc(-c5c6nc(c(-c7c(F)c(F)c(F)c(F)c7F)c7ccc([nH]7)c(-c7c(F)c(F)c(F)c(F)c7F)c7nc(c(-c8c(F)c(F)c(F)c(F)c8F)c8ccc5[nH]8)C=C7)C=C6)cc4)C3)s2)cs1
REMARK SMILES IDX 21 1 20 2 19 3 17 4 18 5 16 6 12 7 13 8 91 9 14 10 15 11
REMARK SMILES IDX 9 14 10 15 11 16 8 17 5 18 6 19 92 20 7 21 4 22 1 23 2 24
REMARK SMILES IDX 3 25 94 26 93 27 22 28 23 29 24 30 25 31 26 32 27 33 28 34
REMARK SMILES IDX 29 35 90 36 30 37 89 38 31 39 32 40 33 41 83 42 34 43 88 44
REMARK SMILES IDX 82 45 84 46 35 47 87 48 81 49 80 50 36 52 68 53 48 54 67 55
REMARK SMILES IDX 49 56 52 57 66 58 85 59 50 60 51 61 65 63 86 64 53 65 37 66
REMARK SMILES IDX 38 67 46 68 39 69 40 70 44 71 47 72 41 73 42 74 45 75 43 76
REMARK SMILES IDX 69 77 70 78 78 79 71 80 72 81 76 82 79 83 73 84 74 85 77 86
REMARK SMILES IDX 75 87 54 88 55 89 63 90 56 91 57 92 61 93 64 94 58 95 59 96
REMARK SMILES IDX 62 97 60 98
REMARK H PARENT 15 12 15 13 84 51 52 62
REMARK Flexibility Score: inf
ROOT
ATOM      1  C   UNL A   1      35.454  19.966  24.993  1.00  0.00     0.202 C 
ENDROOT
BRANCH   1   2
ATOM      2  C   UNL A   1      35.476  21.493  24.902  1.00  0.00     0.261 C 
BRANCH   2   3
ATOM      3  O   UNL A   1      35.016  22.129  26.110  1.00  0.00    -0.459 OA
BRANCH   3   4
ATOM      4  C   UNL A   1      34.615  23.414  25.927  1.00  0.00     0.366 C 
ATOM      5  O   UNL A   1      35.371  24.365  25.747  1.00  0.00    -0.245 OA
BRANCH   4   6
ATOM      6  C   UNL A   1      33.113  23.602  25.954  1.00  0.00     0.308 C 
ATOM      7  N   UNL A   1      31.295  25.136  25.484  1.00  0.00    -0.185 NA
ATOM      8  C   UNL A   1      30.354  24.327  26.310  1.00  0.00     0.164 C 
ATOM      9  C   UNL A   1      32.698  25.066  25.965  1.00  0.00     0.180 C 
ATOM     10  C   UNL A   1      30.911  22.936  26.719  1.00  0.00     0.278 C 
ATOM     11  N   UNL A   1      32.367  22.829  26.990  1.00  0.00    -0.332 N 
ATOM     12  H   UNL A   1      32.651  21.849  26.956  1.00  0.00     0.347 HD
ATOM     13  H   UNL A   1      32.573  23.205  27.915  1.00  0.00     0.347 HD
BRANCH   7  14
ATOM     14  S   UNL A   1      31.049  25.336  23.811  1.00  0.00     0.253 S 
ATOM     15  O   UNL A   1      30.396  24.130  23.353  1.00  0.00    -0.206 OA
ATOM     16  O   UNL A   1      32.297  25.795  23.235  1.00  0.00    -0.206 OA
BRANCH  14  17
ATOM     17  C   UNL A   1      29.896  26.671  23.467  1.00  0.00     0.135 A 
ATOM     18  C   UNL A   1      29.014  28.864  22.710  1.00  0.00     0.055 A 
ATOM     19  C   UNL A   1      28.036  28.069  23.260  1.00  0.00     0.023 A 
ATOM     20  S   UNL A   1      30.519  28.065  22.659  1.00  0.00    -0.121 S 
ATOM     21  C   UNL A   1      28.556  26.851  23.758  1.00  0.00     0.034 A 
BRANCH  18  22
ATOM     22  C   UNL A   1      28.699  30.265  22.290  1.00  0.00     0.091 A 
ATOM     23  C   UNL A   1      29.062  33.764  23.245  1.00  0.00     0.079 C 
ATOM     24  C   UNL A   1      28.754  32.460  22.599  1.00  0.00     0.090 A 
ATOM     25  N   UNL A   1      28.996  31.301  23.163  1.00  0.00    -0.241 NA
ATOM     26  S   UNL A   1      28.056  32.377  21.033  1.00  0.00    -0.127 S 
ATOM     27  C   UNL A   1      28.166  30.659  21.082  1.00  0.00     0.096 A 
ENDBRANCH  18  22
ENDBRANCH  14  17
ENDBRANCH   7  14
ENDBRANCH   4   6
ENDBRANCH   3   4
ENDBRANCH   2   3
ENDBRANCH   1   2
BRANCH   1  28
ATOM     28  O   UNL A   1      36.685  19.258  24.887  1.00  0.00    -0.374 OA
BRANCH  28  29
ATOM     29  C   UNL A   1      37.905  19.986  24.989  1.00  0.00     0.202 C 
BRANCH  29  30
ATOM     30  C   UNL A   1      39.179  19.218  25.373  1.00  0.00     0.261 C 
BRANCH  30  31
ATOM     31  O   UNL A   1      40.027  19.916  26.307  1.00  0.00    -0.460 OA
BRANCH  31  32
ATOM     32  C   UNL A   1      41.349  19.643  26.159  1.00  0.00     0.338 C 
ATOM     33  O   UNL A   1      41.850  18.621  25.718  1.00  0.00    -0.246 OA
BRANCH  32  34
ATOM     34  C   UNL A   1      42.170  20.833  26.440  1.00  0.00     0.060 A 
ATOM     35  C   UNL A   1      42.322  21.198  27.785  1.00  0.00     0.016 A 
ATOM     36  C   UNL A   1      42.651  21.658  25.421  1.00  0.00     0.016 A 
ATOM     37  C   UNL A   1      42.901  22.419  28.116  1.00  0.00     0.010 A 
ATOM     38  C   UNL A   1      43.219  22.894  25.756  1.00  0.00     0.010 A 
ATOM     39  C   UNL A   1      43.300  23.298  27.101  1.00  0.00    -0.014 A 
BRANCH  39  40
ATOM     40  C   UNL A   1      43.599  24.703  27.470  1.00  0.00     0.031 A 
ATOM     41  C   UNL A   1      44.985  25.235  27.224  1.00  0.00     0.074 A 
ATOM     42  C   UNL A   1      42.630  25.518  27.923  1.00  0.00     0.049 A 
ATOM     43  N   UNL A   1      45.456  26.444  27.399  1.00  0.00    -0.248 NA
ATOM     44  C   UNL A   1      45.972  24.275  26.705  1.00  0.00     0.031 C 
ATOM     45  C   UNL A   1      41.243  25.128  28.158  1.00  0.00     0.029 A 
ATOM     46  N   UNL A   1      42.670  26.849  28.254  1.00  0.00    -0.354 N 
ATOM     47  C   UNL A   1      46.789  26.389  27.008  1.00  0.00     0.074 A 
ATOM     48  C   UNL A   1      47.063  25.022  26.623  1.00  0.00     0.031 C 
ATOM     49  C   UNL A   1      40.559  26.199  28.595  1.00  0.00     0.029 A 
ATOM     50  C   UNL A   1      41.465  27.342  28.687  1.00  0.00     0.049 A 
ATOM     51  H   UNL A   1      43.485  27.397  28.186  1.00  0.00     0.167 HD
ATOM     52  C   UNL A   1      47.698  27.391  26.962  1.00  0.00     0.037 A 
ATOM     53  C   UNL A   1      41.138  28.578  29.113  1.00  0.00     0.037 A 
ATOM     54  C   UNL A   1      47.423  28.752  27.343  1.00  0.00     0.049 A 
ATOM     55  C   UNL A   1      42.183  29.663  29.104  1.00  0.00     0.074 A 
ATOM     56  C   UNL A   1      48.274  29.843  27.324  1.00  0.00     0.029 A 
ATOM     57  N   UNL A   1      46.201  29.204  27.816  1.00  0.00    -0.354 N 
ATOM     58  N   UNL A   1      43.432  29.608  28.710  1.00  0.00    -0.248 NA
ATOM     59  C   UNL A   1      41.767  30.987  29.591  1.00  0.00     0.031 C 
ATOM     60  C   UNL A   1      47.578  30.947  27.829  1.00  0.00     0.029 A 
ATOM     61  C   UNL A   1      46.280  30.555  28.114  1.00  0.00     0.049 A 
ATOM     62  H   UNL A   1      45.395  28.649  27.924  1.00  0.00     0.167 HD
ATOM     63  C   UNL A   1      43.943  30.890  28.874  1.00  0.00     0.074 A 
ATOM     64  C   UNL A   1      42.862  31.705  29.390  1.00  0.00     0.031 C 
ATOM     65  C   UNL A   1      45.192  31.351  28.621  1.00  0.00     0.037 A 
BRANCH  52  66
ATOM     66  C   UNL A   1      49.084  27.045  26.505  1.00  0.00     0.064 A 
ATOM     67  C   UNL A   1      50.101  26.719  27.415  1.00  0.00     0.173 A 
ATOM     68  C   UNL A   1      49.394  27.014  25.137  1.00  0.00     0.173 A 
ATOM     69  F   UNL A   1      49.860  26.750  28.735  1.00  0.00    -0.203 F 
ATOM     70  C   UNL A   1      51.383  26.401  26.974  1.00  0.00     0.198 A 
ATOM     71  C   UNL A   1      50.669  26.669  24.698  1.00  0.00     0.198 A 
ATOM     72  F   UNL A   1      48.457  27.316  24.224  1.00  0.00    -0.203 F 
ATOM     73  F   UNL A   1      52.351  26.137  27.863  1.00  0.00    -0.200 F 
ATOM     74  C   UNL A   1      51.664  26.369  25.616  1.00  0.00     0.200 A 
ATOM     75  F   UNL A   1      50.937  26.630  23.385  1.00  0.00    -0.200 F 
ATOM     76  F   UNL A   1      52.897  26.057  25.193  1.00  0.00    -0.200 F 
ENDBRANCH  52  66
BRANCH  53  77
ATOM     77  C   UNL A   1      39.755  28.858  29.581  1.00  0.00     0.064 A 
ATOM     78  C   UNL A   1      39.402  28.718  30.930  1.00  0.00     0.173 A 
ATOM     79  C   UNL A   1      38.753  29.254  28.682  1.00  0.00     0.173 A 
ATOM     80  F   UNL A   1      40.317  28.316  31.824  1.00  0.00    -0.203 F 
ATOM     81  C   UNL A   1      38.096  28.947  31.359  1.00  0.00     0.198 A 
ATOM     82  C   UNL A   1      37.455  29.508  29.116  1.00  0.00     0.198 A 
ATOM     83  F   UNL A   1      39.041  29.399  27.380  1.00  0.00    -0.203 F 
ATOM     84  F   UNL A   1      37.774  28.762  32.647  1.00  0.00    -0.200 F 
ATOM     85  C   UNL A   1      37.125  29.347  30.454  1.00  0.00     0.200 A 
ATOM     86  F   UNL A   1      36.524  29.906  28.239  1.00  0.00    -0.200 F 
ATOM     87  F   UNL A   1      35.870  29.570  30.867  1.00  0.00    -0.200 F 
ENDBRANCH  53  77
BRANCH  65  88
ATOM     88  C   UNL A   1      45.449  32.810  28.866  1.00  0.00     0.064 A 
ATOM     89  C   UNL A   1      45.194  33.778  27.884  1.00  0.00     0.173 A 
ATOM     90  C   UNL A   1      45.924  33.246  30.112  1.00  0.00     0.173 A 
ATOM     91  F   UNL A   1      44.752  33.409  26.671  1.00  0.00    -0.203 F 
ATOM     92  C   UNL A   1      45.434  35.127  28.130  1.00  0.00     0.198 A 
ATOM     93  C   UNL A   1      46.133  34.599  30.364  1.00  0.00     0.198 A 
ATOM     94  F   UNL A   1      46.174  32.362  31.089  1.00  0.00    -0.203 F 
ATOM     95  F   UNL A   1      45.232  36.029  27.159  1.00  0.00    -0.200 F 
ATOM     96  C   UNL A   1      45.897  35.537  29.371  1.00  0.00     0.200 A 
ATOM     97  F   UNL A   1      46.569  34.996  31.569  1.00  0.00    -0.200 F 
ATOM     98  F   UNL A   1      46.124  36.836  29.607  1.00  0.00    -0.200 F 
ENDBRANCH  65  88
ENDBRANCH  39  40
ENDBRANCH  32  34
ENDBRANCH  31  32
ENDBRANCH  30  31
ENDBRANCH  29  30
ENDBRANCH  28  29
ENDBRANCH   1  28
TORSDOF 17
ENDMDL
MODEL 3
REMARK VINA RESULT:     -11.7      2.062      4.333
REMARK SMILES Cc1nc(-c2ccc(S(=O)(=O)N3CC[NH2+][C@H](C(=O)OCCOCCOC(=O)c4ccc(-c5c6nc(c(-c7c(F)c(F)c(F)c(F)c7F)c7ccc([nH]7)c(-c7c(F)c(F)c(F)c(F)c7F)c7nc(c(-c8c(F)c(F)c(F)c(F)c8F)c8ccc5[nH]8)C=C7)C=C6)cc4)C3)s2)cs1
REMARK SMILES IDX 21 1 20 2 19 3 17 4 18 5 16 6 12 7 13 8 91 9 14 10 15 11
REMARK SMILES IDX 9 14 10 15 11 16 8 17 5 18 6 19 92 20 7 21 4 22 1 23 2 24
REMARK SMILES IDX 3 25 94 26 93 27 22 28 23 29 24 30 25 31 26 32 27 33 28 34
REMARK SMILES IDX 29 35 90 36 30 37 89 38 31 39 32 40 33 41 83 42 34 43 88 44
REMARK SMILES IDX 82 45 84 46 35 47 87 48 81 49 80 50 36 52 68 53 48 54 67 55
REMARK SMILES IDX 49 56 52 57 66 58 85 59 50 60 51 61 65 63 86 64 53 65 37 66
REMARK SMILES IDX 38 67 46 68 39 69 40 70 44 71 47 72 41 73 42 74 45 75 43 76
REMARK SMILES IDX 69 77 70 78 78 79 71 80 72 81 76 82 79 83 73 84 74 85 77 86
REMARK SMILES IDX 75 87 54 88 55 89 63 90 56 91 57 92 61 93 64 94 58 95 59 96
REMARK SMILES IDX 62 97 60 98
REMARK H PARENT 15 12 15 13 84 51 52 62
REMARK Flexibility Score: inf
ROOT
ATOM      1  C   UNL A   1      39.307  21.839  25.895  1.00  0.00     0.202 C 
ENDROOT
BRANCH   1   2
ATOM      2  C   UNL A   1      38.237  22.909  26.116  1.00  0.00     0.261 C 
BRANCH   2   3
ATOM      3  O   UNL A   1      37.280  22.969  25.041  1.00  0.00    -0.459 OA
BRANCH   3   4
ATOM      4  C   UNL A   1      36.032  22.571  25.403  1.00  0.00     0.366 C 
ATOM      5  O   UNL A   1      35.752  21.459  25.841  1.00  0.00    -0.245 OA
BRANCH   4   6
ATOM      6  C   UNL A   1      34.970  23.636  25.230  1.00  0.00     0.308 C 
ATOM      7  N   UNL A   1      33.084  24.359  23.889  1.00  0.00    -0.185 NA
ATOM      8  C   UNL A   1      33.157  25.732  24.464  1.00  0.00     0.164 C 
ATOM      9  C   UNL A   1      34.406  23.686  23.818  1.00  0.00     0.180 C 
ATOM     10  C   UNL A   1      34.096  25.849  25.697  1.00  0.00     0.278 C 
ATOM     11  N   UNL A   1      35.317  25.004  25.715  1.00  0.00    -0.332 N 
ATOM     12  H   UNL A   1      35.680  24.947  26.667  1.00  0.00     0.347 HD
ATOM     13  H   UNL A   1      36.028  25.414  25.110  1.00  0.00     0.347 HD
BRANCH   7  14
ATOM     14  S   UNL A   1      31.716  23.374  24.132  1.00  0.00     0.253 S 
ATOM     15  O   UNL A   1      30.757  23.759  23.122  1.00  0.00    -0.206 OA
ATOM     16  O   UNL A   1      31.395  23.411  25.545  1.00  0.00    -0.206 OA
BRANCH  14  17
ATOM     17  C   UNL A   1      32.083  21.643  23.817  1.00  0.00     0.135 A 
ATOM     18  C   UNL A   1      32.740  19.282  24.206  1.00  0.00     0.055 A 
ATOM     19  C   UNL A   1      32.454  19.533  22.884  1.00  0.00     0.023 A 
ATOM     20  S   UNL A   1      32.488  20.660  25.178  1.00  0.00    -0.121 S 
ATOM     21  C   UNL A   1      32.153  20.896  22.655  1.00  0.00     0.034 A 
BRANCH  18  22
ATOM     22  C   UNL A   1      33.256  17.941  24.623  1.00  0.00     0.091 A 
ATOM     23  C   UNL A   1      32.263  14.726  26.025  1.00  0.00     0.079 C 
ATOM     24  C   UNL A   1      32.967  15.905  25.455  1.00  0.00     0.090 A 
ATOM     25  N   UNL A   1      32.385  17.064  25.254  1.00  0.00    -0.241 NA
ATOM     26  S   UNL A   1      34.620  15.831  25.001  1.00  0.00    -0.127 S 
ATOM     27  C   UNL A   1      34.525  17.447  24.412  1.00  0.00     0.096 A 
ENDBRANCH  18  22
ENDBRANCH  14  17
ENDBRANCH   7  14
ENDBRANCH   4   6
ENDBRANCH   3   4
ENDBRANCH   2   3
ENDBRANCH   1   2
BRANCH   1  28
ATOM     28  O   UNL A   1      40.545  21.956  26.590  1.00  0.00    -0.374 OA
BRANCH  28  29
ATOM     29  C   UNL A   1      41.691  21.297  26.061  1.00  0.00     0.202 C 
BRANCH  29  30
ATOM     30  C   UNL A   1      42.933  22.144  25.742  1.00  0.00     0.261 C 
BRANCH  30  31
ATOM     31  O   UNL A   1      42.680  23.245  24.847  1.00  0.00    -0.460 OA
BRANCH  31  32
ATOM     32  C   UNL A   1      43.450  24.336  25.087  1.00  0.00     0.338 C 
ATOM     33  O   UNL A   1      44.555  24.580  24.629  1.00  0.00    -0.246 OA
BRANCH  32  34
ATOM     34  C   UNL A   1      42.713  25.343  25.870  1.00  0.00     0.060 A 
ATOM     35  C   UNL A   1      43.446  26.434  26.357  1.00  0.00     0.016 A 
ATOM     36  C   UNL A   1      41.381  25.157  26.248  1.00  0.00     0.016 A 
ATOM     37  C   UNL A   1      42.873  27.308  27.273  1.00  0.00     0.010 A 
ATOM     38  C   UNL A   1      40.810  26.030  27.183  1.00  0.00     0.010 A 
ATOM     39  C   UNL A   1      41.571  27.077  27.735  1.00  0.00    -0.014 A 
BRANCH  39  40
ATOM     40  C   UNL A   1      41.113  27.815  28.937  1.00  0.00     0.031 A 
ATOM     41  C   UNL A   1      41.894  27.669  30.216  1.00  0.00     0.074 A 
ATOM     42  C   UNL A   1      40.082  28.675  28.867  1.00  0.00     0.049 A 
ATOM     43  N   UNL A   1      41.726  28.269  31.367  1.00  0.00    -0.248 NA
ATOM     44  C   UNL A   1      43.020  26.723  30.190  1.00  0.00     0.031 C 
ATOM     45  C   UNL A   1      39.280  28.933  27.674  1.00  0.00     0.029 A 
ATOM     46  N   UNL A   1      39.544  29.498  29.823  1.00  0.00    -0.354 N 
ATOM     47  C   UNL A   1      42.724  27.775  32.198  1.00  0.00     0.074 A 
ATOM     48  C   UNL A   1      43.471  26.802  31.433  1.00  0.00     0.031 C 
ATOM     49  C   UNL A   1      38.349  29.856  27.968  1.00  0.00     0.029 A 
ATOM     50  C   UNL A   1      38.479  30.239  29.373  1.00  0.00     0.049 A 
ATOM     51  H   UNL A   1      39.888  29.553  30.744  1.00  0.00     0.167 HD
ATOM     52  C   UNL A   1      43.002  28.115  33.479  1.00  0.00     0.037 A 
ATOM     53  C   UNL A   1      37.699  31.121  30.028  1.00  0.00     0.037 A 
ATOM     54  C   UNL A   1      42.260  29.087  34.238  1.00  0.00     0.049 A 
ATOM     55  C   UNL A   1      37.995  31.440  31.470  1.00  0.00     0.074 A 
ATOM     56  C   UNL A   1      42.467  29.507  35.540  1.00  0.00     0.029 A 
ATOM     57  N   UNL A   1      41.163  29.786  33.760  1.00  0.00    -0.354 N 
ATOM     58  N   UNL A   1      38.956  30.989  32.239  1.00  0.00    -0.248 NA
ATOM     59  C   UNL A   1      37.102  32.403  32.132  1.00  0.00     0.031 C 
ATOM     60  C   UNL A   1      41.467  30.431  35.864  1.00  0.00     0.029 A 
ATOM     61  C   UNL A   1      40.667  30.621  34.748  1.00  0.00     0.049 A 
ATOM     62  H   UNL A   1      40.790  29.703  32.853  1.00  0.00     0.167 HD
ATOM     63  C   UNL A   1      38.801  31.629  33.462  1.00  0.00     0.074 A 
ATOM     64  C   UNL A   1      37.661  32.513  33.328  1.00  0.00     0.031 C 
ATOM     65  C   UNL A   1      39.536  31.498  34.594  1.00  0.00     0.037 A 
BRANCH  52  66
ATOM     66  C   UNL A   1      44.145  27.410  34.147  1.00  0.00     0.064 A 
ATOM     67  C   UNL A   1      43.963  26.204  34.841  1.00  0.00     0.173 A 
ATOM     68  C   UNL A   1      45.445  27.933  34.072  1.00  0.00     0.173 A 
ATOM     69  F   UNL A   1      42.737  25.670  34.956  1.00  0.00    -0.203 F 
ATOM     70  C   UNL A   1      45.035  25.562  35.457  1.00  0.00     0.198 A 
ATOM     71  C   UNL A   1      46.518  27.275  34.665  1.00  0.00     0.198 A 
ATOM     72  F   UNL A   1      45.674  29.083  33.419  1.00  0.00    -0.203 F 
ATOM     73  F   UNL A   1      44.830  24.435  36.153  1.00  0.00    -0.200 F 
ATOM     74  C   UNL A   1      46.312  26.094  35.362  1.00  0.00     0.200 A 
ATOM     75  F   UNL A   1      47.754  27.786  34.565  1.00  0.00    -0.200 F 
ATOM     76  F   UNL A   1      47.343  25.473  35.951  1.00  0.00    -0.200 F 
ENDBRANCH  52  66
BRANCH  53  77
ATOM     77  C   UNL A   1      36.563  31.770  29.322  1.00  0.00     0.064 A 
ATOM     78  C   UNL A   1      36.563  33.146  29.056  1.00  0.00     0.173 A 
ATOM     79  C   UNL A   1      35.444  31.026  28.916  1.00  0.00     0.173 A 
ATOM     80  F   UNL A   1      37.597  33.903  29.448  1.00  0.00    -0.203 F 
ATOM     81  C   UNL A   1      35.480  33.757  28.426  1.00  0.00     0.198 A 
ATOM     82  C   UNL A   1      34.375  31.633  28.263  1.00  0.00     0.198 A 
ATOM     83  F   UNL A   1      35.395  29.706  29.150  1.00  0.00    -0.203 F 
ATOM     84  F   UNL A   1      35.486  35.081  28.224  1.00  0.00    -0.200 F 
ATOM     85  C   UNL A   1      34.390  33.000  28.025  1.00  0.00     0.200 A 
ATOM     86  F   UNL A   1      33.329  30.896  27.867  1.00  0.00    -0.200 F 
ATOM     87  F   UNL A   1      33.351  33.587  27.416  1.00  0.00    -0.200 F 
ENDBRANCH  53  77
BRANCH  65  88
ATOM     88  C   UNL A   1      39.149  32.354  35.766  1.00  0.00     0.064 A 
ATOM     89  C   UNL A   1      38.304  31.879  36.778  1.00  0.00     0.173 A 
ATOM     90  C   UNL A   1      39.660  33.655  35.892  1.00  0.00     0.173 A 
ATOM     91  F   UNL A   1      37.779  30.646  36.696  1.00  0.00    -0.203 F 
ATOM     92  C   UNL A   1      37.959  32.685  37.860  1.00  0.00     0.198 A 
ATOM     93  C   UNL A   1      39.337  34.447  36.990  1.00  0.00     0.198 A 
ATOM     94  F   UNL A   1      40.481  34.154  34.956  1.00  0.00    -0.203 F 
ATOM     95  F   UNL A   1      37.109  32.228  38.790  1.00  0.00    -0.200 F 
ATOM     96  C   UNL A   1      38.480  33.965  37.968  1.00  0.00     0.200 A 
ATOM     97  F   UNL A   1      39.852  35.680  37.100  1.00  0.00    -0.200 F 
ATOM     98  F   UNL A   1      38.150  34.738  39.012  1.00  0.00    -0.200 F 
ENDBRANCH  65  88
ENDBRANCH  39  40
ENDBRANCH  32  34
ENDBRANCH  31  32
ENDBRANCH  30  31
ENDBRANCH  29  30
ENDBRANCH  28  29
ENDBRANCH   1  28
TORSDOF 17
ENDMDL
