MODEL 1
REMARK VINA RESULT:     -12.1      0.000      0.000
REMARK SMILES C[C@@H]1Cc2ccccc2N1C(=O)CSc1ncc(C(=O)OCCOCCOC(=O)c2ccc(-c3c4nc(c(-c5c(F)c(F)c(F)c(F)c5F)c5ccc([nH]5)c(-c5c(F)c(F)c(F)c(F)c5F)c5nc(c(-c6c(F)c(F)c(F)c(F)c6F)c6ccc3[nH]6)C=C5)C=C4)cc2)n1-c1ccc(F)cc1
REMARK SMILES IDX 23 1 22 2 21 3 19 4 20 5 18 6 15 7 16 8 93 9 17 10 14 11
REMARK SMILES IDX 13 12 11 13 12 14 10 15 1 16 2 17 3 18 4 19 9 20 5 21 8 22
REMARK SMILES IDX 6 23 7 24 94 25 95 26 100 27 96 28 99 29 97 30 98 31 24 32
REMARK SMILES IDX 25 33 26 34 27 35 28 36 29 37 30 38 31 39 92 40 32 41 91 42
REMARK SMILES IDX 33 43 34 44 35 45 85 46 36 47 90 48 84 49 86 50 37 51 89 52
REMARK SMILES IDX 83 53 82 54 38 56 70 57 50 58 69 59 51 60 54 61 68 62 87 63
REMARK SMILES IDX 52 64 53 65 67 67 88 68 55 69 39 70 40 71 48 72 41 73 42 74
REMARK SMILES IDX 46 75 49 76 43 77 44 78 47 79 45 80 71 81 72 82 80 83 73 84
REMARK SMILES IDX 74 85 78 86 81 87 75 88 76 89 79 90 77 91 56 92 57 93 65 94
REMARK SMILES IDX 58 95 59 96 63 97 66 98 60 99 61 100 64 101 62 102
REMARK H PARENT 86 55 54 66
REMARK Flexibility Score: inf
ROOT
ATOM      1  C   UNL A   1      39.507  22.413  26.552  1.00  0.00     0.202 C 
ENDROOT
BRANCH   1   2
ATOM      2  C   UNL A   1      38.248  22.908  25.833  1.00  0.00     0.261 C 
BRANCH   2   3
ATOM      3  O   UNL A   1      37.434  21.831  25.358  1.00  0.00    -0.459 OA
BRANCH   3   4
ATOM      4  C   UNL A   1      36.548  22.216  24.404  1.00  0.00     0.357 C 
ATOM      5  O   UNL A   1      36.822  22.934  23.443  1.00  0.00    -0.244 OA
BRANCH   4   6
ATOM      6  C   UNL A   1      35.262  21.635  24.630  1.00  0.00     0.152 A 
ATOM      7  C   UNL A   1      33.090  21.574  25.043  1.00  0.00     0.173 A 
ATOM      8  N   UNL A   1      33.514  20.370  25.349  1.00  0.00    -0.230 NA
ATOM      9  N   UNL A   1      34.082  22.330  24.461  1.00  0.00    -0.282 N 
ATOM     10  C   UNL A   1      34.863  20.388  25.072  1.00  0.00     0.148 A 
BRANCH   7  11
ATOM     11  S   UNL A   1      31.507  22.209  25.243  1.00  0.00    -0.078 SA
BRANCH  11  12
ATOM     12  C   UNL A   1      31.685  23.615  26.344  1.00  0.00     0.178 C 
BRANCH  12  13
ATOM     13  C   UNL A   1      30.605  24.673  26.286  1.00  0.00     0.237 C 
ATOM     14  O   UNL A   1      29.576  24.463  26.950  1.00  0.00    -0.274 OA
BRANCH  13  15
ATOM     15  N   UNL A   1      30.752  25.877  25.621  1.00  0.00    -0.308 N 
ATOM     16  C   UNL A   1      30.051  25.134  23.301  1.00  0.00     0.032 C 
ATOM     17  C   UNL A   1      29.903  26.157  24.432  1.00  0.00     0.092 C 
ATOM     18  C   UNL A   1      30.283  27.562  23.922  1.00  0.00     0.063 C 
ATOM     19  C   UNL A   1      31.363  27.964  24.872  1.00  0.00    -0.022 A 
ATOM     20  C   UNL A   1      31.539  27.019  25.885  1.00  0.00     0.047 A 
ATOM     21  C   UNL A   1      32.097  29.144  24.826  1.00  0.00     0.006 A 
ATOM     22  C   UNL A   1      32.368  27.332  26.951  1.00  0.00     0.026 A 
ATOM     23  C   UNL A   1      33.012  29.399  25.843  1.00  0.00     0.000 A 
ATOM     24  C   UNL A   1      33.131  28.507  26.912  1.00  0.00     0.002 A 
ENDBRANCH  13  15
ENDBRANCH  12  13
ENDBRANCH  11  12
ENDBRANCH   7  11
BRANCH   9  25
ATOM     25  C   UNL A   1      33.931  23.518  23.710  1.00  0.00     0.049 A 
ATOM     26  C   UNL A   1      33.487  23.452  22.389  1.00  0.00     0.030 A 
ATOM     27  C   UNL A   1      34.177  24.747  24.336  1.00  0.00     0.030 A 
ATOM     28  C   UNL A   1      33.268  24.642  21.694  1.00  0.00     0.041 A 
ATOM     29  C   UNL A   1      33.947  25.929  23.636  1.00  0.00     0.041 A 
ATOM     30  C   UNL A   1      33.492  25.865  22.323  1.00  0.00     0.123 A 
ATOM     31  F   UNL A   1      33.269  27.001  21.650  1.00  0.00    -0.207 F 
ENDBRANCH   9  25
ENDBRANCH   4   6
ENDBRANCH   3   4
ENDBRANCH   2   3
ENDBRANCH   1   2
BRANCH   1  32
ATOM     32  O   UNL A   1      40.108  21.194  26.131  1.00  0.00    -0.374 OA
BRANCH  32  33
ATOM     33  C   UNL A   1      40.980  20.528  27.049  1.00  0.00     0.202 C 
BRANCH  33  34
ATOM     34  C   UNL A   1      42.238  19.830  26.506  1.00  0.00     0.261 C 
BRANCH  34  35
ATOM     35  O   UNL A   1      42.715  20.493  25.330  1.00  0.00    -0.460 OA
BRANCH  35  36
ATOM     36  C   UNL A   1      44.025  20.855  25.373  1.00  0.00     0.338 C 
ATOM     37  O   UNL A   1      44.970  20.284  24.859  1.00  0.00    -0.246 OA
BRANCH  36  38
ATOM     38  C   UNL A   1      44.011  22.274  25.779  1.00  0.00     0.060 A 
ATOM     39  C   UNL A   1      44.642  22.675  26.960  1.00  0.00     0.016 A 
ATOM     40  C   UNL A   1      43.052  23.087  25.153  1.00  0.00     0.016 A 
ATOM     41  C   UNL A   1      44.240  23.862  27.560  1.00  0.00     0.010 A 
ATOM     42  C   UNL A   1      42.643  24.266  25.767  1.00  0.00     0.010 A 
ATOM     43  C   UNL A   1      43.213  24.635  26.988  1.00  0.00    -0.014 A 
BRANCH  43  44
ATOM     44  C   UNL A   1      42.900  25.909  27.637  1.00  0.00     0.031 A 
ATOM     45  C   UNL A   1      43.868  26.998  27.322  1.00  0.00     0.074 A 
ATOM     46  C   UNL A   1      41.793  26.208  28.345  1.00  0.00     0.049 A 
ATOM     47  N   UNL A   1      44.572  27.719  28.134  1.00  0.00    -0.248 NA
ATOM     48  C   UNL A   1      44.124  27.261  25.897  1.00  0.00     0.031 C 
ATOM     49  C   UNL A   1      40.562  25.435  28.500  1.00  0.00     0.029 A 
ATOM     50  N   UNL A   1      41.520  27.367  29.017  1.00  0.00    -0.354 N 
ATOM     51  C   UNL A   1      45.283  28.610  27.333  1.00  0.00     0.074 A 
ATOM     52  C   UNL A   1      45.037  28.228  25.966  1.00  0.00     0.031 C 
ATOM     53  C   UNL A   1      39.609  26.225  29.049  1.00  0.00     0.029 A 
ATOM     54  C   UNL A   1      40.192  27.516  29.385  1.00  0.00     0.049 A 
ATOM     55  H   UNL A   1      42.209  28.040  29.222  1.00  0.00     0.167 HD
ATOM     56  C   UNL A   1      45.925  29.699  27.832  1.00  0.00     0.037 A 
ATOM     57  C   UNL A   1      39.608  28.647  29.849  1.00  0.00     0.037 A 
ATOM     58  C   UNL A   1      46.175  29.589  29.240  1.00  0.00     0.049 A 
ATOM     59  C   UNL A   1      40.676  29.549  30.348  1.00  0.00     0.074 A 
ATOM     60  C   UNL A   1      46.909  28.726  30.031  1.00  0.00     0.029 A 
ATOM     61  N   UNL A   1      45.395  30.305  30.111  1.00  0.00    -0.354 N 
ATOM     62  N   UNL A   1      41.377  29.348  31.427  1.00  0.00    -0.248 NA
ATOM     63  C   UNL A   1      41.211  30.543  29.430  1.00  0.00     0.031 C 
ATOM     64  C   UNL A   1      46.184  28.632  31.255  1.00  0.00     0.029 A 
ATOM     65  C   UNL A   1      45.060  29.446  31.127  1.00  0.00     0.049 A 
ATOM     66  H   UNL A   1      45.128  31.249  30.025  1.00  0.00     0.167 HD
ATOM     67  C   UNL A   1      42.624  29.880  31.141  1.00  0.00     0.074 A 
ATOM     68  C   UNL A   1      42.429  30.699  29.952  1.00  0.00     0.031 C 
ATOM     69  C   UNL A   1      43.752  29.391  31.732  1.00  0.00     0.037 A 
BRANCH  56  70
ATOM     70  C   UNL A   1      46.121  30.981  27.071  1.00  0.00     0.064 A 
ATOM     71  C   UNL A   1      47.411  31.530  26.938  1.00  0.00     0.173 A 
ATOM     72  C   UNL A   1      45.054  31.825  26.697  1.00  0.00     0.173 A 
ATOM     73  F   UNL A   1      48.494  30.826  27.301  1.00  0.00    -0.203 F 
ATOM     74  C   UNL A   1      47.612  32.842  26.502  1.00  0.00     0.198 A 
ATOM     75  C   UNL A   1      45.261  33.115  26.208  1.00  0.00     0.198 A 
ATOM     76  F   UNL A   1      43.776  31.473  26.888  1.00  0.00    -0.203 F 
ATOM     77  F   UNL A   1      48.849  33.357  26.494  1.00  0.00    -0.200 F 
ATOM     78  C   UNL A   1      46.538  33.632  26.137  1.00  0.00     0.200 A 
ATOM     79  F   UNL A   1      44.206  33.872  25.879  1.00  0.00    -0.200 F 
ATOM     80  F   UNL A   1      46.725  34.905  25.763  1.00  0.00    -0.200 F 
ENDBRANCH  56  70
BRANCH  57  81
ATOM     81  C   UNL A   1      38.224  29.134  29.634  1.00  0.00     0.064 A 
ATOM     82  C   UNL A   1      37.444  29.593  30.709  1.00  0.00     0.173 A 
ATOM     83  C   UNL A   1      37.746  29.429  28.343  1.00  0.00     0.173 A 
ATOM     84  F   UNL A   1      37.849  29.397  31.973  1.00  0.00    -0.203 F 
ATOM     85  C   UNL A   1      36.271  30.329  30.503  1.00  0.00     0.198 A 
ATOM     86  C   UNL A   1      36.570  30.151  28.140  1.00  0.00     0.198 A 
ATOM     87  F   UNL A   1      38.459  29.109  27.255  1.00  0.00    -0.203 F 
ATOM     88  F   UNL A   1      35.592  30.812  31.554  1.00  0.00    -0.200 F 
ATOM     89  C   UNL A   1      35.841  30.616  29.219  1.00  0.00     0.200 A 
ATOM     90  F   UNL A   1      36.184  30.452  26.891  1.00  0.00    -0.200 F 
ATOM     91  F   UNL A   1      34.754  31.373  29.021  1.00  0.00    -0.200 F 
ENDBRANCH  57  81
BRANCH  69  92
ATOM     92  C   UNL A   1      43.590  28.478  32.911  1.00  0.00     0.064 A 
ATOM     93  C   UNL A   1      43.518  27.078  32.802  1.00  0.00     0.173 A 
ATOM     94  C   UNL A   1      43.671  29.025  34.199  1.00  0.00     0.173 A 
ATOM     95  F   UNL A   1      43.548  26.477  31.605  1.00  0.00    -0.203 F 
ATOM     96  C   UNL A   1      43.482  26.269  33.937  1.00  0.00     0.198 A 
ATOM     97  C   UNL A   1      43.672  28.212  35.329  1.00  0.00     0.198 A 
ATOM     98  F   UNL A   1      43.804  30.351  34.359  1.00  0.00    -0.203 F 
ATOM     99  F   UNL A   1      43.405  24.936  33.808  1.00  0.00    -0.200 F 
ATOM    100  C   UNL A   1      43.567  26.836  35.198  1.00  0.00     0.200 A 
ATOM    101  F   UNL A   1      43.809  28.759  36.544  1.00  0.00    -0.200 F 
ATOM    102  F   UNL A   1      43.581  26.055  36.286  1.00  0.00    -0.200 F 
ENDBRANCH  69  92
ENDBRANCH  43  44
ENDBRANCH  36  38
ENDBRANCH  35  36
ENDBRANCH  34  35
ENDBRANCH  33  34
ENDBRANCH  32  33
ENDBRANCH   1  32
TORSDOF 19
ENDMDL
MODEL 2
REMARK VINA RESULT:     -12.1      3.107      8.508
REMARK SMILES C[C@@H]1Cc2ccccc2N1C(=O)CSc1ncc(C(=O)OCCOCCOC(=O)c2ccc(-c3c4nc(c(-c5c(F)c(F)c(F)c(F)c5F)c5ccc([nH]5)c(-c5c(F)c(F)c(F)c(F)c5F)c5nc(c(-c6c(F)c(F)c(F)c(F)c6F)c6ccc3[nH]6)C=C5)C=C4)cc2)n1-c1ccc(F)cc1
REMARK SMILES IDX 23 1 22 2 21 3 19 4 20 5 18 6 15 7 16 8 93 9 17 10 14 11
REMARK SMILES IDX 13 12 11 13 12 14 10 15 1 16 2 17 3 18 4 19 9 20 5 21 8 22
REMARK SMILES IDX 6 23 7 24 94 25 95 26 100 27 96 28 99 29 97 30 98 31 24 32
REMARK SMILES IDX 25 33 26 34 27 35 28 36 29 37 30 38 31 39 92 40 32 41 91 42
REMARK SMILES IDX 33 43 34 44 35 45 85 46 36 47 90 48 84 49 86 50 37 51 89 52
REMARK SMILES IDX 83 53 82 54 38 56 70 57 50 58 69 59 51 60 54 61 68 62 87 63
REMARK SMILES IDX 52 64 53 65 67 67 88 68 55 69 39 70 40 71 48 72 41 73 42 74
REMARK SMILES IDX 46 75 49 76 43 77 44 78 47 79 45 80 71 81 72 82 80 83 73 84
REMARK SMILES IDX 74 85 78 86 81 87 75 88 76 89 79 90 77 91 56 92 57 93 65 94
REMARK SMILES IDX 58 95 59 96 63 97 66 98 60 99 61 100 64 101 62 102
REMARK H PARENT 86 55 54 66
REMARK Flexibility Score: inf
ROOT
ATOM      1  C   UNL A   1      33.276  30.697  27.557  1.00  0.00     0.202 C 
ENDROOT
BRANCH   1   2
ATOM      2  C   UNL A   1      32.966  30.074  26.193  1.00  0.00     0.261 C 
BRANCH   2   3
ATOM      3  O   UNL A   1      31.720  29.369  26.188  1.00  0.00    -0.459 OA
BRANCH   3   4
ATOM      4  C   UNL A   1      31.843  28.071  26.568  1.00  0.00     0.357 C 
ATOM      5  O   UNL A   1      31.407  27.604  27.618  1.00  0.00    -0.244 OA
BRANCH   4   6
ATOM      6  C   UNL A   1      32.501  27.300  25.561  1.00  0.00     0.152 A 
ATOM      7  C   UNL A   1      32.709  25.841  23.911  1.00  0.00     0.173 A 
ATOM      8  N   UNL A   1      33.926  25.971  24.386  1.00  0.00    -0.230 NA
ATOM      9  N   UNL A   1      31.838  26.737  24.490  1.00  0.00    -0.282 N 
ATOM     10  C   UNL A   1      33.814  26.897  25.399  1.00  0.00     0.148 A 
BRANCH   7  11
ATOM     11  S   UNL A   1      32.173  24.767  22.683  1.00  0.00    -0.078 SA
BRANCH  11  12
ATOM     12  C   UNL A   1      31.387  23.402  23.541  1.00  0.00     0.178 C 
BRANCH  12  13
ATOM     13  C   UNL A   1      32.293  22.320  24.086  1.00  0.00     0.237 C 
ATOM     14  O   UNL A   1      32.163  21.182  23.605  1.00  0.00    -0.274 OA
BRANCH  13  15
ATOM     15  N   UNL A   1      33.301  22.561  25.004  1.00  0.00    -0.308 N 
ATOM     16  C   UNL A   1      31.911  23.600  26.852  1.00  0.00     0.032 C 
ATOM     17  C   UNL A   1      32.973  22.569  26.454  1.00  0.00     0.092 C 
ATOM     18  C   UNL A   1      34.285  22.846  27.216  1.00  0.00     0.063 C 
ATOM     19  C   UNL A   1      35.270  23.004  26.105  1.00  0.00    -0.022 A 
ATOM     20  C   UNL A   1      34.694  22.740  24.861  1.00  0.00     0.047 A 
ATOM     21  C   UNL A   1      36.617  23.322  26.243  1.00  0.00     0.006 A 
ATOM     22  C   UNL A   1      35.518  22.656  23.750  1.00  0.00     0.026 A 
ATOM     23  C   UNL A   1      37.416  23.345  25.104  1.00  0.00     0.000 A 
ATOM     24  C   UNL A   1      36.873  22.993  23.866  1.00  0.00     0.002 A 
ENDBRANCH  13  15
ENDBRANCH  12  13
ENDBRANCH  11  12
ENDBRANCH   7  11
BRANCH   9  25
ATOM     25  C   UNL A   1      30.564  27.126  24.019  1.00  0.00     0.049 A 
ATOM     26  C   UNL A   1      29.439  26.375  24.361  1.00  0.00     0.030 A 
ATOM     27  C   UNL A   1      30.455  28.299  23.261  1.00  0.00     0.030 A 
ATOM     28  C   UNL A   1      28.183  26.824  23.953  1.00  0.00     0.041 A 
ATOM     29  C   UNL A   1      29.195  28.742  22.865  1.00  0.00     0.041 A 
ATOM     30  C   UNL A   1      28.071  28.003  23.218  1.00  0.00     0.123 A 
ATOM     31  F   UNL A   1      26.860  28.430  22.839  1.00  0.00    -0.207 F 
ENDBRANCH   9  25
ENDBRANCH   4   6
ENDBRANCH   3   4
ENDBRANCH   2   3
ENDBRANCH   1   2
BRANCH   1  32
ATOM     32  O   UNL A   1      34.634  30.859  27.950  1.00  0.00    -0.374 OA
BRANCH  32  33
ATOM     33  C   UNL A   1      35.202  32.170  27.864  1.00  0.00     0.202 C 
BRANCH  33  34
ATOM     34  C   UNL A   1      34.818  33.218  28.922  1.00  0.00     0.261 C 
BRANCH  34  35
ATOM     35  O   UNL A   1      35.770  33.227  29.991  1.00  0.00    -0.460 OA
BRANCH  35  36
ATOM     36  C   UNL A   1      35.433  32.455  31.059  1.00  0.00     0.338 C 
ATOM     37  O   UNL A   1      34.323  32.276  31.526  1.00  0.00    -0.246 OA
BRANCH  36  38
ATOM     38  C   UNL A   1      36.588  31.557  31.253  1.00  0.00     0.060 A 
ATOM     39  C   UNL A   1      37.886  32.076  31.299  1.00  0.00     0.016 A 
ATOM     40  C   UNL A   1      36.359  30.192  31.012  1.00  0.00     0.016 A 
ATOM     41  C   UNL A   1      38.952  31.234  31.013  1.00  0.00     0.010 A 
ATOM     42  C   UNL A   1      37.429  29.357  30.711  1.00  0.00     0.010 A 
ATOM     43  C   UNL A   1      38.722  29.886  30.678  1.00  0.00    -0.014 A 
BRANCH  43  44
ATOM     44  C   UNL A   1      39.900  29.044  30.465  1.00  0.00     0.031 A 
ATOM     45  C   UNL A   1      40.671  28.762  31.711  1.00  0.00     0.074 A 
ATOM     46  C   UNL A   1      40.253  28.416  29.326  1.00  0.00     0.049 A 
ATOM     47  N   UNL A   1      41.919  28.991  31.962  1.00  0.00    -0.248 NA
ATOM     48  C   UNL A   1      39.913  28.211  32.844  1.00  0.00     0.031 C 
ATOM     49  C   UNL A   1      39.493  28.257  28.088  1.00  0.00     0.029 A 
ATOM     50  N   UNL A   1      41.386  27.688  29.092  1.00  0.00    -0.354 N 
ATOM     51  C   UNL A   1      42.141  28.510  33.250  1.00  0.00     0.074 A 
ATOM     52  C   UNL A   1      40.859  28.122  33.777  1.00  0.00     0.031 C 
ATOM     53  C   UNL A   1      40.096  27.323  27.315  1.00  0.00     0.029 A 
ATOM     54  C   UNL A   1      41.336  26.904  27.950  1.00  0.00     0.049 A 
ATOM     55  H   UNL A   1      42.171  27.717  29.685  1.00  0.00     0.167 HD
ATOM     56  C   UNL A   1      43.387  28.329  33.765  1.00  0.00     0.037 A 
ATOM     57  C   UNL A   1      42.210  25.927  27.606  1.00  0.00     0.037 A 
ATOM     58  C   UNL A   1      44.385  29.077  33.058  1.00  0.00     0.049 A 
ATOM     59  C   UNL A   1      43.465  26.137  28.371  1.00  0.00     0.074 A 
ATOM     60  C   UNL A   1      44.613  30.422  32.836  1.00  0.00     0.029 A 
ATOM     61  N   UNL A   1      45.220  28.420  32.192  1.00  0.00    -0.354 N 
ATOM     62  N   UNL A   1      44.310  27.106  28.162  1.00  0.00    -0.248 NA
ATOM     63  C   UNL A   1      43.617  25.434  29.635  1.00  0.00     0.031 C 
ATOM     64  C   UNL A   1      45.195  30.494  31.537  1.00  0.00     0.029 A 
ATOM     65  C   UNL A   1      45.284  29.188  31.057  1.00  0.00     0.049 A 
ATOM     66  H   UNL A   1      45.682  27.565  32.352  1.00  0.00     0.167 HD
ATOM     67  C   UNL A   1      44.830  27.394  29.414  1.00  0.00     0.074 A 
ATOM     68  C   UNL A   1      44.456  26.265  30.255  1.00  0.00     0.031 C 
ATOM     69  C   UNL A   1      45.276  28.646  29.721  1.00  0.00     0.037 A 
BRANCH  56  70
ATOM     70  C   UNL A   1      43.731  27.274  34.780  1.00  0.00     0.064 A 
ATOM     71  C   UNL A   1      44.165  27.650  36.065  1.00  0.00     0.173 A 
ATOM     72  C   UNL A   1      43.903  25.913  34.448  1.00  0.00     0.173 A 
ATOM     73  F   UNL A   1      44.083  28.927  36.468  1.00  0.00    -0.203 F 
ATOM     74  C   UNL A   1      44.766  26.737  36.936  1.00  0.00     0.198 A 
ATOM     75  C   UNL A   1      44.450  24.993  35.340  1.00  0.00     0.198 A 
ATOM     76  F   UNL A   1      43.645  25.449  33.218  1.00  0.00    -0.203 F 
ATOM     77  F   UNL A   1      45.262  27.162  38.106  1.00  0.00    -0.200 F 
ATOM     78  C   UNL A   1      44.907  25.410  36.574  1.00  0.00     0.200 A 
ATOM     79  F   UNL A   1      44.597  23.715  34.964  1.00  0.00    -0.200 F 
ATOM     80  F   UNL A   1      45.524  24.544  37.388  1.00  0.00    -0.200 F 
ENDBRANCH  56  70
BRANCH  57  81
ATOM     81  C   UNL A   1      41.949  24.658  26.885  1.00  0.00     0.064 A 
ATOM     82  C   UNL A   1      42.852  24.173  25.923  1.00  0.00     0.173 A 
ATOM     83  C   UNL A   1      40.963  23.755  27.328  1.00  0.00     0.173 A 
ATOM     84  F   UNL A   1      43.852  24.950  25.481  1.00  0.00    -0.203 F 
ATOM     85  C   UNL A   1      42.790  22.855  25.457  1.00  0.00     0.198 A 
ATOM     86  C   UNL A   1      40.894  22.446  26.851  1.00  0.00     0.198 A 
ATOM     87  F   UNL A   1      40.108  24.094  28.303  1.00  0.00    -0.203 F 
ATOM     88  F   UNL A   1      43.713  22.407  24.594  1.00  0.00    -0.200 F 
ATOM     89  C   UNL A   1      41.817  21.990  25.929  1.00  0.00     0.200 A 
ATOM     90  F   UNL A   1      39.969  21.610  27.344  1.00  0.00    -0.200 F 
ATOM     91  F   UNL A   1      41.795  20.711  25.531  1.00  0.00    -0.200 F 
ENDBRANCH  57  81
BRANCH  69  92
ATOM     92  C   UNL A   1      45.474  29.619  28.595  1.00  0.00     0.064 A 
ATOM     93  C   UNL A   1      44.434  30.387  28.045  1.00  0.00     0.173 A 
ATOM     94  C   UNL A   1      46.780  29.896  28.170  1.00  0.00     0.173 A 
ATOM     95  F   UNL A   1      43.173  30.256  28.482  1.00  0.00    -0.203 F 
ATOM     96  C   UNL A   1      44.690  31.358  27.079  1.00  0.00     0.198 A 
ATOM     97  C   UNL A   1      47.037  30.892  27.232  1.00  0.00     0.198 A 
ATOM     98  F   UNL A   1      47.817  29.234  28.708  1.00  0.00    -0.203 F 
ATOM     99  F   UNL A   1      43.680  32.075  26.563  1.00  0.00    -0.200 F 
ATOM    100  C   UNL A   1      45.992  31.615  26.680  1.00  0.00     0.200 A 
ATOM    101  F   UNL A   1      48.301  31.174  26.887  1.00  0.00    -0.200 F 
ATOM    102  F   UNL A   1      46.242  32.581  25.786  1.00  0.00    -0.200 F 
ENDBRANCH  69  92
ENDBRANCH  43  44
ENDBRANCH  36  38
ENDBRANCH  35  36
ENDBRANCH  34  35
ENDBRANCH  33  34
ENDBRANCH  32  33
ENDBRANCH   1  32
TORSDOF 19
ENDMDL
MODEL 3
REMARK VINA RESULT:     -11.9      3.327      8.724
REMARK SMILES C[C@@H]1Cc2ccccc2N1C(=O)CSc1ncc(C(=O)OCCOCCOC(=O)c2ccc(-c3c4nc(c(-c5c(F)c(F)c(F)c(F)c5F)c5ccc([nH]5)c(-c5c(F)c(F)c(F)c(F)c5F)c5nc(c(-c6c(F)c(F)c(F)c(F)c6F)c6ccc3[nH]6)C=C5)C=C4)cc2)n1-c1ccc(F)cc1
REMARK SMILES IDX 23 1 22 2 21 3 19 4 20 5 18 6 15 7 16 8 93 9 17 10 14 11
REMARK SMILES IDX 13 12 11 13 12 14 10 15 1 16 2 17 3 18 4 19 9 20 5 21 8 22
REMARK SMILES IDX 6 23 7 24 94 25 95 26 100 27 96 28 99 29 97 30 98 31 24 32
REMARK SMILES IDX 25 33 26 34 27 35 28 36 29 37 30 38 31 39 92 40 32 41 91 42
REMARK SMILES IDX 33 43 34 44 35 45 85 46 36 47 90 48 84 49 86 50 37 51 89 52
REMARK SMILES IDX 83 53 82 54 38 56 70 57 50 58 69 59 51 60 54 61 68 62 87 63
REMARK SMILES IDX 52 64 53 65 67 67 88 68 55 69 39 70 40 71 48 72 41 73 42 74
REMARK SMILES IDX 46 75 49 76 43 77 44 78 47 79 45 80 71 81 72 82 80 83 73 84
REMARK SMILES IDX 74 85 78 86 81 87 75 88 76 89 79 90 77 91 56 92 57 93 65 94
REMARK SMILES IDX 58 95 59 96 63 97 66 98 60 99 61 100 64 101 62 102
REMARK H PARENT 86 55 54 66
REMARK Flexibility Score: inf
ROOT
ATOM      1  C   UNL A   1      34.107  31.385  27.985  1.00  0.00     0.202 C 
ENDROOT
BRANCH   1   2
ATOM      2  C   UNL A   1      33.340  30.469  27.028  1.00  0.00     0.261 C 
BRANCH   2   3
ATOM      3  O   UNL A   1      33.167  29.150  27.559  1.00  0.00    -0.459 OA
BRANCH   3   4
ATOM      4  C   UNL A   1      32.008  28.566  27.161  1.00  0.00     0.357 C 
ATOM      5  O   UNL A   1      31.116  28.190  27.921  1.00  0.00    -0.244 OA
BRANCH   4   6
ATOM      6  C   UNL A   1      31.931  28.491  25.737  1.00  0.00     0.152 A 
ATOM      7  C   UNL A   1      32.475  27.850  23.691  1.00  0.00     0.173 A 
ATOM      8  N   UNL A   1      31.777  28.947  23.513  1.00  0.00    -0.230 NA
ATOM      9  N   UNL A   1      32.470  27.450  25.008  1.00  0.00    -0.282 N 
ATOM     10  C   UNL A   1      31.410  29.343  24.781  1.00  0.00     0.148 A 
BRANCH   7  11
ATOM     11  S   UNL A   1      33.283  26.919  22.496  1.00  0.00    -0.078 SA
BRANCH  11  12
ATOM     12  C   UNL A   1      32.220  25.509  22.178  1.00  0.00     0.178 C 
BRANCH  12  13
ATOM     13  C   UNL A   1      32.891  24.231  21.725  1.00  0.00     0.237 C 
ATOM     14  O   UNL A   1      33.285  24.189  20.547  1.00  0.00    -0.274 OA
BRANCH  13  15
ATOM     15  N   UNL A   1      33.165  23.172  22.573  1.00  0.00    -0.308 N 
ATOM     16  C   UNL A   1      30.854  22.853  23.564  1.00  0.00     0.032 C 
ATOM     17  C   UNL A   1      32.080  22.211  22.906  1.00  0.00     0.092 C 
ATOM     18  C   UNL A   1      32.685  21.149  23.846  1.00  0.00     0.063 C 
ATOM     19  C   UNL A   1      34.094  21.622  23.995  1.00  0.00    -0.022 A 
ATOM     20  C   UNL A   1      34.359  22.724  23.180  1.00  0.00     0.047 A 
ATOM     21  C   UNL A   1      35.073  21.042  24.794  1.00  0.00     0.006 A 
ATOM     22  C   UNL A   1      35.667  23.163  23.058  1.00  0.00     0.026 A 
ATOM     23  C   UNL A   1      36.363  21.562  24.751  1.00  0.00     0.000 A 
ATOM     24  C   UNL A   1      36.663  22.604  23.870  1.00  0.00     0.002 A 
ENDBRANCH  13  15
ENDBRANCH  12  13
ENDBRANCH  11  12
ENDBRANCH   7  11
BRANCH   9  25
ATOM     25  C   UNL A   1      32.811  26.179  25.523  1.00  0.00     0.049 A 
ATOM     26  C   UNL A   1      34.151  25.798  25.599  1.00  0.00     0.030 A 
ATOM     27  C   UNL A   1      31.789  25.350  26.004  1.00  0.00     0.030 A 
ATOM     28  C   UNL A   1      34.469  24.574  26.187  1.00  0.00     0.041 A 
ATOM     29  C   UNL A   1      32.118  24.133  26.596  1.00  0.00     0.041 A 
ATOM     30  C   UNL A   1      33.455  23.758  26.684  1.00  0.00     0.123 A 
ATOM     31  F   UNL A   1      33.771  22.589  27.255  1.00  0.00    -0.207 F 
ENDBRANCH   9  25
ENDBRANCH   4   6
ENDBRANCH   3   4
ENDBRANCH   2   3
ENDBRANCH   1   2
BRANCH   1  32
ATOM     32  O   UNL A   1      35.047  32.311  27.452  1.00  0.00    -0.374 OA
BRANCH  32  33
ATOM     33  C   UNL A   1      35.131  33.603  28.060  1.00  0.00     0.202 C 
BRANCH  33  34
ATOM     34  C   UNL A   1      34.687  33.767  29.523  1.00  0.00     0.261 C 
BRANCH  34  35
ATOM     35  O   UNL A   1      35.767  33.467  30.414  1.00  0.00    -0.460 OA
BRANCH  35  36
ATOM     36  C   UNL A   1      35.593  32.346  31.163  1.00  0.00     0.338 C 
ATOM     37  O   UNL A   1      34.621  32.044  31.832  1.00  0.00    -0.246 OA
BRANCH  36  38
ATOM     38  C   UNL A   1      36.603  31.396  30.659  1.00  0.00     0.060 A 
ATOM     39  C   UNL A   1      36.498  30.033  30.953  1.00  0.00     0.016 A 
ATOM     40  C   UNL A   1      37.816  31.954  30.223  1.00  0.00     0.016 A 
ATOM     41  C   UNL A   1      37.641  29.247  30.893  1.00  0.00     0.010 A 
ATOM     42  C   UNL A   1      38.961  31.166  30.180  1.00  0.00     0.010 A 
ATOM     43  C   UNL A   1      38.880  29.821  30.548  1.00  0.00    -0.014 A 
BRANCH  43  44
ATOM     44  C   UNL A   1      40.022  28.914  30.431  1.00  0.00     0.031 A 
ATOM     45  C   UNL A   1      40.665  28.585  31.736  1.00  0.00     0.074 A 
ATOM     46  C   UNL A   1      40.436  28.270  29.322  1.00  0.00     0.049 A 
ATOM     47  N   UNL A   1      41.898  28.742  32.095  1.00  0.00    -0.248 NA
ATOM     48  C   UNL A   1      39.782  28.075  32.796  1.00  0.00     0.031 C 
ATOM     49  C   UNL A   1      39.777  28.158  28.022  1.00  0.00     0.029 A 
ATOM     50  N   UNL A   1      41.541  27.478  29.181  1.00  0.00    -0.354 N 
ATOM     51  C   UNL A   1      41.981  28.245  33.395  1.00  0.00     0.074 A 
ATOM     52  C   UNL A   1      40.638  27.930  33.807  1.00  0.00     0.031 C 
ATOM     53  C   UNL A   1      40.390  27.192  27.297  1.00  0.00     0.029 A 
ATOM     54  C   UNL A   1      41.546  26.701  28.033  1.00  0.00     0.049 A 
ATOM     55  H   UNL A   1      42.273  27.460  29.839  1.00  0.00     0.167 HD
ATOM     56  C   UNL A   1      43.165  27.992  34.013  1.00  0.00     0.037 A 
ATOM     57  C   UNL A   1      42.389  25.677  27.758  1.00  0.00     0.037 A 
ATOM     58  C   UNL A   1      44.261  28.684  33.400  1.00  0.00     0.049 A 
ATOM     59  C   UNL A   1      43.583  25.813  28.629  1.00  0.00     0.074 A 
ATOM     60  C   UNL A   1      44.584  30.014  33.208  1.00  0.00     0.029 A 
ATOM     61  N   UNL A   1      45.130  27.982  32.603  1.00  0.00    -0.354 N 
ATOM     62  N   UNL A   1      44.497  26.732  28.501  1.00  0.00    -0.248 NA
ATOM     63  C   UNL A   1      43.586  25.099  29.897  1.00  0.00     0.031 C 
ATOM     64  C   UNL A   1      45.279  30.055  31.965  1.00  0.00     0.029 A 
ATOM     65  C   UNL A   1      45.334  28.748  31.484  1.00  0.00     0.049 A 
ATOM     66  H   UNL A   1      45.527  27.102  32.797  1.00  0.00     0.167 HD
ATOM     67  C   UNL A   1      44.922  26.987  29.795  1.00  0.00     0.074 A 
ATOM     68  C   UNL A   1      44.414  25.879  30.593  1.00  0.00     0.031 C 
ATOM     69  C   UNL A   1      45.411  28.211  30.148  1.00  0.00     0.037 A 
BRANCH  56  70
ATOM     70  C   UNL A   1      43.360  26.916  35.046  1.00  0.00     0.064 A 
ATOM     71  C   UNL A   1      43.681  27.265  36.372  1.00  0.00     0.173 A 
ATOM     72  C   UNL A   1      43.505  25.552  34.718  1.00  0.00     0.173 A 
ATOM     73  F   UNL A   1      43.614  28.542  36.778  1.00  0.00    -0.203 F 
ATOM     74  C   UNL A   1      44.151  26.321  37.288  1.00  0.00     0.198 A 
ATOM     75  C   UNL A   1      43.920  24.602  35.651  1.00  0.00     0.198 A 
ATOM     76  F   UNL A   1      43.351  25.107  33.464  1.00  0.00    -0.203 F 
ATOM     77  F   UNL A   1      44.546  26.717  38.506  1.00  0.00    -0.200 F 
ATOM     78  C   UNL A   1      44.269  24.992  36.928  1.00  0.00     0.200 A 
ATOM     79  F   UNL A   1      44.048  23.322  35.277  1.00  0.00    -0.200 F 
ATOM     80  F   UNL A   1      44.764  24.094  37.790  1.00  0.00    -0.200 F 
ENDBRANCH  56  70
BRANCH  57  81
ATOM     81  C   UNL A   1      42.119  24.426  27.008  1.00  0.00     0.064 A 
ATOM     82  C   UNL A   1      43.057  23.914  26.094  1.00  0.00     0.173 A 
ATOM     83  C   UNL A   1      41.074  23.561  27.382  1.00  0.00     0.173 A 
ATOM     84  F   UNL A   1      44.110  24.654  25.719  1.00  0.00    -0.203 F 
ATOM     85  C   UNL A   1      42.968  22.605  25.608  1.00  0.00     0.198 A 
ATOM     86  C   UNL A   1      40.980  22.260  26.887  1.00  0.00     0.198 A 
ATOM     87  F   UNL A   1      40.178  23.924  28.311  1.00  0.00    -0.203 F 
ATOM     88  F   UNL A   1      43.921  22.128  24.794  1.00  0.00    -0.200 F 
ATOM     89  C   UNL A   1      41.936  21.776  26.014  1.00  0.00     0.200 A 
ATOM     90  F   UNL A   1      39.996  21.457  27.316  1.00  0.00    -0.200 F 
ATOM     91  F   UNL A   1      41.885  20.503  25.599  1.00  0.00    -0.200 F 
ENDBRANCH  57  81
BRANCH  69  92
ATOM     92  C   UNL A   1      45.760  29.174  29.051  1.00  0.00     0.064 A 
ATOM     93  C   UNL A   1      47.024  29.226  28.441  1.00  0.00     0.173 A 
ATOM     94  C   UNL A   1      44.738  29.956  28.496  1.00  0.00     0.173 A 
ATOM     95  F   UNL A   1      48.020  28.426  28.846  1.00  0.00    -0.203 F 
ATOM     96  C   UNL A   1      47.263  30.061  27.350  1.00  0.00     0.198 A 
ATOM     97  C   UNL A   1      44.970  30.761  27.384  1.00  0.00     0.198 A 
ATOM     98  F   UNL A   1      43.496  29.898  29.002  1.00  0.00    -0.203 F 
ATOM     99  F   UNL A   1      48.480  30.099  26.788  1.00  0.00    -0.200 F 
ATOM    100  C   UNL A   1      46.233  30.820  26.818  1.00  0.00     0.200 A 
ATOM    101  F   UNL A   1      43.960  31.453  26.839  1.00  0.00    -0.200 F 
ATOM    102  F   UNL A   1      46.451  31.586  25.740  1.00  0.00    -0.200 F 
ENDBRANCH  69  92
ENDBRANCH  43  44
ENDBRANCH  36  38
ENDBRANCH  35  36
ENDBRANCH  34  35
ENDBRANCH  33  34
ENDBRANCH  32  33
ENDBRANCH   1  32
TORSDOF 19
ENDMDL
