MODEL 1
REMARK VINA RESULT:     -10.8      0.000      0.000
REMARK SMILES CC[NH2+][C@]1(C(=O)OCCOCCOC(=O)c2ccc(-c3c4nc(c(-c5c(F)c(F)c(F)c(F)c5F)c5ccc([nH]5)c(-c5c(F)c(F)c(F)c(F)c5F)c5nc(c(-c6c(F)c(F)c(F)c(F)c6F)c6ccc3[nH]6)C=C5)C=C4)cc2)CC[C@@H]([N@@H+]2CCO[C@@H](CC)C2)C1
REMARK SMILES IDX 10 1 9 2 8 3 7 4 5 5 6 6 4 7 79 8 90 9 80 10 81 11 3 12 2 15
REMARK SMILES IDX 1 16 82 17 83 18 89 19 84 21 86 22 85 23 87 24 88 25 11 26
REMARK SMILES IDX 12 27 13 28 14 29 15 30 16 31 17 32 78 33 18 34 77 35 19 36
REMARK SMILES IDX 20 37 21 38 71 39 22 40 76 41 70 42 72 43 23 44 75 45 69 46
REMARK SMILES IDX 68 47 24 49 56 50 36 51 55 52 37 53 40 54 54 55 73 56 38 57
REMARK SMILES IDX 39 58 53 60 74 61 41 62 25 63 26 64 34 65 27 66 28 67 32 68
REMARK SMILES IDX 35 69 29 70 30 71 33 72 31 73 57 74 58 75 66 76 59 77 60 78
REMARK SMILES IDX 64 79 67 80 61 81 62 82 65 83 63 84 42 85 43 86 51 87 44 88
REMARK SMILES IDX 45 89 49 90 52 91 46 92 47 93 50 94 48 95
REMARK H PARENT 3 13 3 14 82 20 72 48 40 59
REMARK Flexibility Score: inf
ROOT
ATOM      1  O   UNL A   1      32.575  30.463  26.540  1.00  0.00    -0.374 OA
ENDROOT
BRANCH   1   2
ATOM      2  C   UNL A   1      32.266  29.171  26.011  1.00  0.00     0.202 C 
BRANCH   2   3
ATOM      3  C   UNL A   1      31.398  28.273  26.900  1.00  0.00     0.261 C 
BRANCH   3   4
ATOM      4  O   UNL A   1      32.041  27.003  27.126  1.00  0.00    -0.459 OA
BRANCH   4   5
ATOM      5  C   UNL A   1      31.572  25.957  26.398  1.00  0.00     0.368 C 
ATOM      6  O   UNL A   1      30.425  25.526  26.502  1.00  0.00    -0.245 OA
BRANCH   5   7
ATOM      7  C   UNL A   1      32.556  25.448  25.303  1.00  0.00     0.200 C 
ATOM      8  C   UNL A   1      33.979  25.735  25.838  1.00  0.00     0.087 C 
ATOM      9  C   UNL A   1      32.525  23.908  25.276  1.00  0.00     0.146 C 
ATOM     10  C   UNL A   1      34.866  24.619  25.308  1.00  0.00     0.072 C 
ATOM     11  C   UNL A   1      33.954  23.395  25.128  1.00  0.00     0.191 C 
BRANCH   7  12
ATOM     12  N   UNL A   1      32.393  26.077  23.965  1.00  0.00    -0.332 N 
ATOM     13  H   UNL A   1      32.053  27.029  24.107  1.00  0.00     0.347 HD
ATOM     14  H   UNL A   1      33.311  26.022  23.521  1.00  0.00     0.347 HD
BRANCH  12  15
ATOM     15  C   UNL A   1      31.471  25.407  23.043  1.00  0.00     0.257 C 
ATOM     16  C   UNL A   1      31.748  25.841  21.610  1.00  0.00     0.071 C 
ENDBRANCH  12  15
ENDBRANCH   7  12
BRANCH  11  17
ATOM     17  N   UNL A   1      34.320  22.231  25.945  1.00  0.00    -0.328 N 
ATOM     18  C   UNL A   1      35.769  22.049  26.147  1.00  0.00     0.291 C 
ATOM     19  C   UNL A   1      33.687  20.933  25.627  1.00  0.00     0.294 C 
ATOM     20  H   UNL A   1      33.896  22.521  26.827  1.00  0.00     0.348 HD
ATOM     21  C   UNL A   1      36.463  21.146  25.113  1.00  0.00     0.222 C 
ATOM     22  C   UNL A   1      34.441  20.029  24.615  1.00  0.00     0.173 C 
ATOM     23  O   UNL A   1      35.817  19.874  25.005  1.00  0.00    -0.367 OA
BRANCH  22  24
ATOM     24  C   UNL A   1      33.826  18.633  24.472  1.00  0.00     0.034 C 
ATOM     25  C   UNL A   1      32.493  18.641  23.739  1.00  0.00     0.007 C 
ENDBRANCH  22  24
ENDBRANCH  11  17
ENDBRANCH   5   7
ENDBRANCH   4   5
ENDBRANCH   3   4
ENDBRANCH   2   3
ENDBRANCH   1   2
BRANCH   1  26
ATOM     26  C   UNL A   1      31.533  31.434  26.491  1.00  0.00     0.202 C 
BRANCH  26  27
ATOM     27  C   UNL A   1      31.931  32.863  26.867  1.00  0.00     0.261 C 
BRANCH  27  28
ATOM     28  O   UNL A   1      32.734  32.866  28.060  1.00  0.00    -0.460 OA
BRANCH  28  29
ATOM     29  C   UNL A   1      33.806  33.689  28.005  1.00  0.00     0.338 C 
ATOM     30  O   UNL A   1      33.801  34.902  27.849  1.00  0.00    -0.246 OA
BRANCH  29  31
ATOM     31  C   UNL A   1      35.031  32.942  28.342  1.00  0.00     0.060 A 
ATOM     32  C   UNL A   1      34.872  31.609  28.738  1.00  0.00     0.016 A 
ATOM     33  C   UNL A   1      36.296  33.535  28.326  1.00  0.00     0.016 A 
ATOM     34  C   UNL A   1      35.968  30.880  29.187  1.00  0.00     0.010 A 
ATOM     35  C   UNL A   1      37.396  32.803  28.784  1.00  0.00     0.010 A 
ATOM     36  C   UNL A   1      37.228  31.489  29.257  1.00  0.00    -0.014 A 
BRANCH  36  37
ATOM     37  C   UNL A   1      38.320  30.800  29.983  1.00  0.00     0.031 A 
ATOM     38  C   UNL A   1      38.551  31.134  31.431  1.00  0.00     0.074 A 
ATOM     39  C   UNL A   1      39.060  29.855  29.379  1.00  0.00     0.049 A 
ATOM     40  N   UNL A   1      39.451  30.669  32.260  1.00  0.00    -0.248 NA
ATOM     41  C   UNL A   1      37.645  32.130  32.025  1.00  0.00     0.031 C 
ATOM     42  C   UNL A   1      38.900  29.415  27.995  1.00  0.00     0.029 A 
ATOM     43  N   UNL A   1      40.098  29.094  29.858  1.00  0.00    -0.354 N 
ATOM     44  C   UNL A   1      39.223  31.318  33.466  1.00  0.00     0.074 A 
ATOM     45  C   UNL A   1      38.123  32.234  33.256  1.00  0.00     0.031 C 
ATOM     46  C   UNL A   1      39.815  28.465  27.732  1.00  0.00     0.029 A 
ATOM     47  C   UNL A   1      40.642  28.255  28.919  1.00  0.00     0.049 A 
ATOM     48  H   UNL A   1      40.420  29.147  30.787  1.00  0.00     0.167 HD
ATOM     49  C   UNL A   1      39.866  31.156  34.647  1.00  0.00     0.037 A 
ATOM     50  C   UNL A   1      41.702  27.428  29.006  1.00  0.00     0.037 A 
ATOM     51  C   UNL A   1      40.956  30.239  34.853  1.00  0.00     0.049 A 
ATOM     52  C   UNL A   1      42.446  27.316  30.312  1.00  0.00     0.074 A 
ATOM     53  C   UNL A   1      41.661  29.985  36.017  1.00  0.00     0.029 A 
ATOM     54  N   UNL A   1      41.504  29.429  33.869  1.00  0.00    -0.354 N 
ATOM     55  N   UNL A   1      42.208  27.913  31.455  1.00  0.00    -0.248 NA
ATOM     56  C   UNL A   1      43.602  26.409  30.341  1.00  0.00     0.031 C 
ATOM     57  C   UNL A   1      42.671  29.063  35.723  1.00  0.00     0.029 A 
ATOM     58  C   UNL A   1      42.558  28.696  34.391  1.00  0.00     0.049 A 
ATOM     59  H   UNL A   1      41.190  29.382  32.937  1.00  0.00     0.167 HD
ATOM     60  C   UNL A   1      43.164  27.435  32.344  1.00  0.00     0.074 A 
ATOM     61  C   UNL A   1      43.975  26.486  31.610  1.00  0.00     0.031 C 
ATOM     62  C   UNL A   1      43.351  27.751  33.649  1.00  0.00     0.037 A 
BRANCH  49  63
ATOM     63  C   UNL A   1      39.426  32.008  35.801  1.00  0.00     0.064 A 
ATOM     64  C   UNL A   1      39.964  33.284  36.026  1.00  0.00     0.173 A 
ATOM     65  C   UNL A   1      38.426  31.554  36.675  1.00  0.00     0.173 A 
ATOM     66  F   UNL A   1      40.933  33.759  35.228  1.00  0.00    -0.203 F 
ATOM     67  C   UNL A   1      39.534  34.064  37.097  1.00  0.00     0.198 A 
ATOM     68  C   UNL A   1      37.977  32.350  37.726  1.00  0.00     0.198 A 
ATOM     69  F   UNL A   1      37.877  30.343  36.503  1.00  0.00    -0.203 F 
ATOM     70  F   UNL A   1      40.095  35.261  37.319  1.00  0.00    -0.200 F 
ATOM     71  C   UNL A   1      38.537  33.600  37.940  1.00  0.00     0.200 A 
ATOM     72  F   UNL A   1      37.005  31.904  38.533  1.00  0.00    -0.200 F 
ATOM     73  F   UNL A   1      38.118  34.356  38.965  1.00  0.00    -0.200 F 
ENDBRANCH  49  63
BRANCH  50  74
ATOM     74  C   UNL A   1      42.134  26.649  27.816  1.00  0.00     0.064 A 
ATOM     75  C   UNL A   1      41.595  25.385  27.541  1.00  0.00     0.173 A 
ATOM     76  C   UNL A   1      43.109  27.148  26.939  1.00  0.00     0.173 A 
ATOM     77  F   UNL A   1      40.679  24.855  28.365  1.00  0.00    -0.203 F 
ATOM     78  C   UNL A   1      42.029  24.640  26.445  1.00  0.00     0.198 A 
ATOM     79  C   UNL A   1      43.520  26.416  25.826  1.00  0.00     0.198 A 
ATOM     80  F   UNL A   1      43.657  28.352  27.158  1.00  0.00    -0.203 F 
ATOM     81  F   UNL A   1      41.532  23.414  26.233  1.00  0.00    -0.200 F 
ATOM     82  C   UNL A   1      42.986  25.159  25.586  1.00  0.00     0.200 A 
ATOM     83  F   UNL A   1      44.435  26.925  24.992  1.00  0.00    -0.200 F 
ATOM     84  F   UNL A   1      43.400  24.444  24.531  1.00  0.00    -0.200 F 
ENDBRANCH  50  74
BRANCH  62  85
ATOM     85  C   UNL A   1      44.452  27.038  34.381  1.00  0.00     0.064 A 
ATOM     86  C   UNL A   1      45.739  27.583  34.490  1.00  0.00     0.173 A 
ATOM     87  C   UNL A   1      44.202  25.814  35.021  1.00  0.00     0.173 A 
ATOM     88  F   UNL A   1      46.035  28.744  33.886  1.00  0.00    -0.203 F 
ATOM     89  C   UNL A   1      46.743  26.916  35.189  1.00  0.00     0.198 A 
ATOM     90  C   UNL A   1      45.198  25.165  35.746  1.00  0.00     0.198 A 
ATOM     91  F   UNL A   1      42.984  25.253  34.955  1.00  0.00    -0.203 F 
ATOM     92  F   UNL A   1      47.978  27.433  35.239  1.00  0.00    -0.200 F 
ATOM     93  C   UNL A   1      46.469  25.713  35.822  1.00  0.00     0.200 A 
ATOM     94  F   UNL A   1      44.927  24.011  36.370  1.00  0.00    -0.200 F 
ATOM     95  F   UNL A   1      47.434  25.076  36.502  1.00  0.00    -0.200 F 
ENDBRANCH  62  85
ENDBRANCH  36  37
ENDBRANCH  29  31
ENDBRANCH  28  29
ENDBRANCH  27  28
ENDBRANCH  26  27
ENDBRANCH   1  26
TORSDOF 18
ENDMDL
MODEL 2
REMARK VINA RESULT:     -10.7      2.720      8.605
REMARK SMILES CC[NH2+][C@]1(C(=O)OCCOCCOC(=O)c2ccc(-c3c4nc(c(-c5c(F)c(F)c(F)c(F)c5F)c5ccc([nH]5)c(-c5c(F)c(F)c(F)c(F)c5F)c5nc(c(-c6c(F)c(F)c(F)c(F)c6F)c6ccc3[nH]6)C=C5)C=C4)cc2)CC[C@@H]([N@@H+]2CCO[C@@H](CC)C2)C1
REMARK SMILES IDX 10 1 9 2 8 3 7 4 5 5 6 6 4 7 79 8 90 9 80 10 81 11 3 12 2 15
REMARK SMILES IDX 1 16 82 17 83 18 89 19 84 21 86 22 85 23 87 24 88 25 11 26
REMARK SMILES IDX 12 27 13 28 14 29 15 30 16 31 17 32 78 33 18 34 77 35 19 36
REMARK SMILES IDX 20 37 21 38 71 39 22 40 76 41 70 42 72 43 23 44 75 45 69 46
REMARK SMILES IDX 68 47 24 49 56 50 36 51 55 52 37 53 40 54 54 55 73 56 38 57
REMARK SMILES IDX 39 58 53 60 74 61 41 62 25 63 26 64 34 65 27 66 28 67 32 68
REMARK SMILES IDX 35 69 29 70 30 71 33 72 31 73 57 74 58 75 66 76 59 77 60 78
REMARK SMILES IDX 64 79 67 80 61 81 62 82 65 83 63 84 42 85 43 86 51 87 44 88
REMARK SMILES IDX 45 89 49 90 52 91 46 92 47 93 50 94 48 95
REMARK H PARENT 3 13 3 14 82 20 72 48 40 59
REMARK Flexibility Score: inf
ROOT
ATOM      1  O   UNL A   1      40.882  21.147  25.459  1.00  0.00    -0.374 OA
ENDROOT
BRANCH   1   2
ATOM      2  C   UNL A   1      39.683  21.219  26.235  1.00  0.00     0.202 C 
BRANCH   2   3
ATOM      3  C   UNL A   1      38.675  22.294  25.811  1.00  0.00     0.261 C 
BRANCH   3   4
ATOM      4  O   UNL A   1      37.325  21.861  26.071  1.00  0.00    -0.459 OA
BRANCH   4   5
ATOM      5  C   UNL A   1      36.341  22.736  25.739  1.00  0.00     0.368 C 
ATOM      6  O   UNL A   1      36.560  23.825  25.212  1.00  0.00    -0.245 OA
BRANCH   5   7
ATOM      7  C   UNL A   1      34.899  22.179  25.934  1.00  0.00     0.200 C 
ATOM      8  C   UNL A   1      34.335  22.879  27.193  1.00  0.00     0.087 C 
ATOM      9  C   UNL A   1      33.992  22.737  24.820  1.00  0.00     0.146 C 
ATOM     10  C   UNL A   1      32.841  23.037  26.959  1.00  0.00     0.072 C 
ATOM     11  C   UNL A   1      32.653  23.133  25.437  1.00  0.00     0.191 C 
BRANCH   7  12
ATOM     12  N   UNL A   1      34.808  20.704  26.102  1.00  0.00    -0.332 N 
ATOM     13  H   UNL A   1      35.696  20.379  26.487  1.00  0.00     0.347 HD
ATOM     14  H   UNL A   1      34.004  20.546  26.711  1.00  0.00     0.347 HD
BRANCH  12  15
ATOM     15  C   UNL A   1      34.537  19.930  24.887  1.00  0.00     0.257 C 
ATOM     16  C   UNL A   1      35.637  18.901  24.660  1.00  0.00     0.071 C 
ENDBRANCH  12  15
ENDBRANCH   7  12
BRANCH  11  17
ATOM     17  N   UNL A   1      32.065  24.394  24.968  1.00  0.00    -0.328 N 
ATOM     18  C   UNL A   1      32.547  24.849  23.652  1.00  0.00     0.291 C 
ATOM     19  C   UNL A   1      32.021  25.532  25.912  1.00  0.00     0.294 C 
ATOM     20  H   UNL A   1      31.095  24.089  24.879  1.00  0.00     0.348 HD
ATOM     21  C   UNL A   1      33.759  25.794  23.692  1.00  0.00     0.222 C 
ATOM     22  C   UNL A   1      33.243  26.490  25.890  1.00  0.00     0.173 C 
ATOM     23  O   UNL A   1      33.525  26.918  24.546  1.00  0.00    -0.367 OA
BRANCH  22  24
ATOM     24  C   UNL A   1      33.049  27.740  26.757  1.00  0.00     0.034 C 
ATOM     25  C   UNL A   1      31.619  27.909  27.247  1.00  0.00     0.007 C 
ENDBRANCH  22  24
ENDBRANCH  11  17
ENDBRANCH   5   7
ENDBRANCH   4   5
ENDBRANCH   3   4
ENDBRANCH   2   3
ENDBRANCH   1   2
BRANCH   1  26
ATOM     26  C   UNL A   1      42.100  21.002  26.186  1.00  0.00     0.202 C 
BRANCH  26  27
ATOM     27  C   UNL A   1      43.291  21.807  25.663  1.00  0.00     0.261 C 
BRANCH  27  28
ATOM     28  O   UNL A   1      42.841  22.916  24.865  1.00  0.00    -0.460 OA
BRANCH  28  29
ATOM     29  C   UNL A   1      43.583  24.038  25.006  1.00  0.00     0.338 C 
ATOM     30  O   UNL A   1      44.602  24.333  24.397  1.00  0.00    -0.246 OA
BRANCH  29  31
ATOM     31  C   UNL A   1      42.894  24.988  25.897  1.00  0.00     0.060 A 
ATOM     32  C   UNL A   1      43.523  26.219  26.119  1.00  0.00     0.016 A 
ATOM     33  C   UNL A   1      41.695  24.674  26.543  1.00  0.00     0.016 A 
ATOM     34  C   UNL A   1      42.994  27.116  27.040  1.00  0.00     0.010 A 
ATOM     35  C   UNL A   1      41.168  25.574  27.474  1.00  0.00     0.010 A 
ATOM     36  C   UNL A   1      41.839  26.778  27.758  1.00  0.00    -0.014 A 
BRANCH  36  37
ATOM     37  C   UNL A   1      41.443  27.610  28.917  1.00  0.00     0.031 A 
ATOM     38  C   UNL A   1      42.245  27.514  30.186  1.00  0.00     0.074 A 
ATOM     39  C   UNL A   1      40.419  28.476  28.826  1.00  0.00     0.049 A 
ATOM     40  N   UNL A   1      42.077  28.135  31.326  1.00  0.00    -0.248 NA
ATOM     41  C   UNL A   1      43.391  26.591  30.167  1.00  0.00     0.031 C 
ATOM     42  C   UNL A   1      39.598  28.688  27.637  1.00  0.00     0.029 A 
ATOM     43  N   UNL A   1      39.896  29.338  29.757  1.00  0.00    -0.354 N 
ATOM     44  C   UNL A   1      43.090  27.674  32.158  1.00  0.00     0.074 A 
ATOM     45  C   UNL A   1      43.847  26.697  31.405  1.00  0.00     0.031 C 
ATOM     46  C   UNL A   1      38.666  29.617  27.912  1.00  0.00     0.029 A 
ATOM     47  C   UNL A   1      38.807  30.040  29.305  1.00  0.00     0.049 A 
ATOM     48  H   UNL A   1      40.267  29.442  30.663  1.00  0.00     0.167 HD
ATOM     49  C   UNL A   1      43.369  28.041  33.431  1.00  0.00     0.037 A 
ATOM     50  C   UNL A   1      38.006  30.908  29.952  1.00  0.00     0.037 A 
ATOM     51  C   UNL A   1      42.616  29.018  34.173  1.00  0.00     0.049 A 
ATOM     52  C   UNL A   1      38.296  31.249  31.391  1.00  0.00     0.074 A 
ATOM     53  C   UNL A   1      42.830  29.475  35.461  1.00  0.00     0.029 A 
ATOM     54  N   UNL A   1      41.497  29.684  33.693  1.00  0.00    -0.354 N 
ATOM     55  N   UNL A   1      39.269  30.829  32.162  1.00  0.00    -0.248 NA
ATOM     56  C   UNL A   1      37.377  32.191  32.047  1.00  0.00     0.031 C 
ATOM     57  C   UNL A   1      41.809  30.376  35.781  1.00  0.00     0.029 A 
ATOM     58  C   UNL A   1      40.993  30.526  34.671  1.00  0.00     0.049 A 
ATOM     59  H   UNL A   1      41.118  29.573  32.791  1.00  0.00     0.167 HD
ATOM     60  C   UNL A   1      39.098  31.474  33.381  1.00  0.00     0.074 A 
ATOM     61  C   UNL A   1      37.935  32.326  33.241  1.00  0.00     0.031 C 
ATOM     62  C   UNL A   1      39.838  31.373  34.513  1.00  0.00     0.037 A 
BRANCH  49  63
ATOM     63  C   UNL A   1      44.521  27.364  34.113  1.00  0.00     0.064 A 
ATOM     64  C   UNL A   1      45.814  27.910  34.100  1.00  0.00     0.173 A 
ATOM     65  C   UNL A   1      44.322  26.168  34.821  1.00  0.00     0.173 A 
ATOM     66  F   UNL A   1      46.061  29.043  33.425  1.00  0.00    -0.203 F 
ATOM     67  C   UNL A   1      46.868  27.271  34.747  1.00  0.00     0.198 A 
ATOM     68  C   UNL A   1      45.372  25.549  35.493  1.00  0.00     0.198 A 
ATOM     69  F   UNL A   1      43.105  25.605  34.867  1.00  0.00    -0.203 F 
ATOM     70  F   UNL A   1      48.103  27.787  34.682  1.00  0.00    -0.200 F 
ATOM     71  C   UNL A   1      46.645  26.097  35.450  1.00  0.00     0.200 A 
ATOM     72  F   UNL A   1      45.152  24.421  36.181  1.00  0.00    -0.200 F 
ATOM     73  F   UNL A   1      47.659  25.488  36.081  1.00  0.00    -0.200 F 
ENDBRANCH  49  63
BRANCH  50  74
ATOM     74  C   UNL A   1      36.842  31.507  29.248  1.00  0.00     0.064 A 
ATOM     75  C   UNL A   1      36.820  32.867  28.908  1.00  0.00     0.173 A 
ATOM     76  C   UNL A   1      35.719  30.734  28.917  1.00  0.00     0.173 A 
ATOM     77  F   UNL A   1      37.858  33.653  29.227  1.00  0.00    -0.203 F 
ATOM     78  C   UNL A   1      35.711  33.434  28.282  1.00  0.00     0.198 A 
ATOM     79  C   UNL A   1      34.623  31.295  28.264  1.00  0.00     0.198 A 
ATOM     80  F   UNL A   1      35.689  29.428  29.222  1.00  0.00    -0.203 F 
ATOM     81  F   UNL A   1      35.696  34.747  28.012  1.00  0.00    -0.200 F 
ATOM     82  C   UNL A   1      34.617  32.646  27.955  1.00  0.00     0.200 A 
ATOM     83  F   UNL A   1      33.574  30.529  27.939  1.00  0.00    -0.200 F 
ATOM     84  F   UNL A   1      33.553  33.192  27.350  1.00  0.00    -0.200 F 
ENDBRANCH  50  74
BRANCH  62  85
ATOM     85  C   UNL A   1      39.438  32.230  35.679  1.00  0.00     0.064 A 
ATOM     86  C   UNL A   1      39.935  33.530  35.845  1.00  0.00     0.173 A 
ATOM     87  C   UNL A   1      38.507  31.759  36.620  1.00  0.00     0.173 A 
ATOM     88  F   UNL A   1      40.837  34.023  34.982  1.00  0.00    -0.203 F 
ATOM     89  C   UNL A   1      39.539  34.318  36.923  1.00  0.00     0.198 A 
ATOM     90  C   UNL A   1      38.088  32.561  37.678  1.00  0.00     0.198 A 
ATOM     91  F   UNL A   1      37.992  30.526  36.503  1.00  0.00    -0.203 F 
ATOM     92  F   UNL A   1      40.065  35.540  37.087  1.00  0.00    -0.200 F 
ATOM     93  C   UNL A   1      38.610  33.836  37.833  1.00  0.00     0.200 A 
ATOM     94  F   UNL A   1      37.178  32.099  38.547  1.00  0.00    -0.200 F 
ATOM     95  F   UNL A   1      38.222  34.598  38.865  1.00  0.00    -0.200 F 
ENDBRANCH  62  85
ENDBRANCH  36  37
ENDBRANCH  29  31
ENDBRANCH  28  29
ENDBRANCH  27  28
ENDBRANCH  26  27
ENDBRANCH   1  26
TORSDOF 18
ENDMDL
MODEL 3
REMARK VINA RESULT:     -10.7      1.261      1.902
REMARK SMILES CC[NH2+][C@]1(C(=O)OCCOCCOC(=O)c2ccc(-c3c4nc(c(-c5c(F)c(F)c(F)c(F)c5F)c5ccc([nH]5)c(-c5c(F)c(F)c(F)c(F)c5F)c5nc(c(-c6c(F)c(F)c(F)c(F)c6F)c6ccc3[nH]6)C=C5)C=C4)cc2)CC[C@@H]([N@@H+]2CCO[C@@H](CC)C2)C1
REMARK SMILES IDX 10 1 9 2 8 3 7 4 5 5 6 6 4 7 79 8 90 9 80 10 81 11 3 12 2 15
REMARK SMILES IDX 1 16 82 17 83 18 89 19 84 21 86 22 85 23 87 24 88 25 11 26
REMARK SMILES IDX 12 27 13 28 14 29 15 30 16 31 17 32 78 33 18 34 77 35 19 36
REMARK SMILES IDX 20 37 21 38 71 39 22 40 76 41 70 42 72 43 23 44 75 45 69 46
REMARK SMILES IDX 68 47 24 49 56 50 36 51 55 52 37 53 40 54 54 55 73 56 38 57
REMARK SMILES IDX 39 58 53 60 74 61 41 62 25 63 26 64 34 65 27 66 28 67 32 68
REMARK SMILES IDX 35 69 29 70 30 71 33 72 31 73 57 74 58 75 66 76 59 77 60 78
REMARK SMILES IDX 64 79 67 80 61 81 62 82 65 83 63 84 42 85 43 86 51 87 44 88
REMARK SMILES IDX 45 89 49 90 52 91 46 92 47 93 50 94 48 95
REMARK H PARENT 3 13 3 14 82 20 72 48 40 59
REMARK Flexibility Score: inf
ROOT
ATOM      1  O   UNL A   1      32.862  29.385  24.693  1.00  0.00    -0.374 OA
ENDROOT
BRANCH   1   2
ATOM      2  C   UNL A   1      32.766  28.666  23.461  1.00  0.00     0.202 C 
BRANCH   2   3
ATOM      3  C   UNL A   1      33.918  27.701  23.157  1.00  0.00     0.261 C 
BRANCH   3   4
ATOM      4  O   UNL A   1      33.437  26.346  23.054  1.00  0.00    -0.459 OA
BRANCH   4   5
ATOM      5  C   UNL A   1      33.374  25.644  24.215  1.00  0.00     0.368 C 
ATOM      6  O   UNL A   1      34.020  25.943  25.218  1.00  0.00    -0.245 OA
BRANCH   5   7
ATOM      7  C   UNL A   1      32.293  24.522  24.225  1.00  0.00     0.200 C 
ATOM      8  C   UNL A   1      32.773  23.456  23.211  1.00  0.00     0.087 C 
ATOM      9  C   UNL A   1      32.375  23.759  25.560  1.00  0.00     0.146 C 
ATOM     10  C   UNL A   1      32.300  22.114  23.749  1.00  0.00     0.072 C 
ATOM     11  C   UNL A   1      32.229  22.266  25.277  1.00  0.00     0.191 C 
BRANCH   7  12
ATOM     12  N   UNL A   1      30.919  24.965  23.867  1.00  0.00    -0.332 N 
ATOM     13  H   UNL A   1      30.935  25.277  22.896  1.00  0.00     0.347 HD
ATOM     14  H   UNL A   1      30.317  24.158  24.037  1.00  0.00     0.347 HD
BRANCH  12  15
ATOM     15  C   UNL A   1      30.358  26.050  24.677  1.00  0.00     0.257 C 
ATOM     16  C   UNL A   1      29.332  26.835  23.871  1.00  0.00     0.071 C 
ENDBRANCH  12  15
ENDBRANCH   7  12
BRANCH  11  17
ATOM     17  N   UNL A   1      33.116  21.368  26.026  1.00  0.00    -0.328 N 
ATOM     18  C   UNL A   1      34.521  21.808  26.099  1.00  0.00     0.291 C 
ATOM     19  C   UNL A   1      33.056  19.921  25.723  1.00  0.00     0.294 C 
ATOM     20  H   UNL A   1      32.690  21.461  26.948  1.00  0.00     0.348 HD
ATOM     21  C   UNL A   1      35.434  21.270  24.985  1.00  0.00     0.222 C 
ATOM     22  C   UNL A   1      34.025  19.407  24.624  1.00  0.00     0.173 C 
ATOM     23  O   UNL A   1      35.370  19.843  24.893  1.00  0.00    -0.367 OA
BRANCH  22  24
ATOM     24  C   UNL A   1      34.037  17.880  24.492  1.00  0.00     0.034 C 
ATOM     25  C   UNL A   1      33.459  17.391  23.172  1.00  0.00     0.007 C 
ENDBRANCH  22  24
ENDBRANCH  11  17
ENDBRANCH   5   7
ENDBRANCH   4   5
ENDBRANCH   3   4
ENDBRANCH   2   3
ENDBRANCH   1   2
BRANCH   1  26
ATOM     26  C   UNL A   1      31.632  29.729  25.325  1.00  0.00     0.202 C 
BRANCH  26  27
ATOM     27  C   UNL A   1      31.689  30.896  26.312  1.00  0.00     0.261 C 
BRANCH  27  28
ATOM     28  O   UNL A   1      32.706  30.670  27.304  1.00  0.00    -0.460 OA
BRANCH  28  29
ATOM     29  C   UNL A   1      33.497  31.741  27.542  1.00  0.00     0.338 C 
ATOM     30  O   UNL A   1      33.159  32.916  27.587  1.00  0.00    -0.246 OA
BRANCH  29  31
ATOM     31  C   UNL A   1      34.846  31.293  27.930  1.00  0.00     0.060 A 
ATOM     32  C   UNL A   1      35.018  29.923  28.160  1.00  0.00     0.016 A 
ATOM     33  C   UNL A   1      35.905  32.185  28.117  1.00  0.00     0.016 A 
ATOM     34  C   UNL A   1      36.230  29.445  28.646  1.00  0.00     0.010 A 
ATOM     35  C   UNL A   1      37.121  31.704  28.612  1.00  0.00     0.010 A 
ATOM     36  C   UNL A   1      37.273  30.339  28.919  1.00  0.00    -0.014 A 
BRANCH  36  37
ATOM     37  C   UNL A   1      38.449  29.861  29.683  1.00  0.00     0.031 A 
ATOM     38  C   UNL A   1      38.662  30.374  31.080  1.00  0.00     0.074 A 
ATOM     39  C   UNL A   1      39.285  28.947  29.161  1.00  0.00     0.049 A 
ATOM     40  N   UNL A   1      39.623  30.106  31.928  1.00  0.00    -0.248 NA
ATOM     41  C   UNL A   1      37.656  31.318  31.592  1.00  0.00     0.031 C 
ATOM     42  C   UNL A   1      39.155  28.346  27.836  1.00  0.00     0.029 A 
ATOM     43  N   UNL A   1      40.411  28.367  29.688  1.00  0.00    -0.354 N 
ATOM     44  C   UNL A   1      39.340  30.851  33.066  1.00  0.00     0.074 A 
ATOM     45  C   UNL A   1      38.137  31.607  32.791  1.00  0.00     0.031 C 
ATOM     46  C   UNL A   1      40.170  27.484  27.649  1.00  0.00     0.029 A 
ATOM     47  C   UNL A   1      41.035  27.498  28.828  1.00  0.00     0.049 A 
ATOM     48  H   UNL A   1      40.740  28.555  30.597  1.00  0.00     0.167 HD
ATOM     49  C   UNL A   1      40.016  30.891  34.238  1.00  0.00     0.037 A 
ATOM     50  C   UNL A   1      42.184  26.812  28.971  1.00  0.00     0.037 A 
ATOM     51  C   UNL A   1      41.208  30.132  34.509  1.00  0.00     0.049 A 
ATOM     52  C   UNL A   1      42.957  26.926  30.260  1.00  0.00     0.074 A 
ATOM     53  C   UNL A   1      41.956  30.086  35.673  1.00  0.00     0.029 A 
ATOM     54  N   UNL A   1      41.831  29.288  33.600  1.00  0.00    -0.354 N 
ATOM     55  N   UNL A   1      42.670  27.612  31.340  1.00  0.00    -0.248 NA
ATOM     56  C   UNL A   1      44.211  26.165  30.352  1.00  0.00     0.031 C 
ATOM     57  C   UNL A   1      43.062  29.259  35.450  1.00  0.00     0.029 A 
ATOM     58  C   UNL A   1      42.971  28.741  34.168  1.00  0.00     0.049 A 
ATOM     59  H   UNL A   1      41.510  29.106  32.687  1.00  0.00     0.167 HD
ATOM     60  C   UNL A   1      43.688  27.344  32.248  1.00  0.00     0.074 A 
ATOM     61  C   UNL A   1      44.592  26.421  31.595  1.00  0.00     0.031 C 
ATOM     62  C   UNL A   1      43.858  27.818  33.506  1.00  0.00     0.037 A 
BRANCH  49  63
ATOM     63  C   UNL A   1      39.498  31.806  35.308  1.00  0.00     0.064 A 
ATOM     64  C   UNL A   1      38.607  31.360  36.297  1.00  0.00     0.173 A 
ATOM     65  C   UNL A   1      39.928  33.142  35.367  1.00  0.00     0.173 A 
ATOM     66  F   UNL A   1      38.154  30.098  36.277  1.00  0.00    -0.203 F 
ATOM     67  C   UNL A   1      38.146  32.223  37.287  1.00  0.00     0.198 A 
ATOM     68  C   UNL A   1      39.488  33.993  36.377  1.00  0.00     0.198 A 
ATOM     69  F   UNL A   1      40.781  33.618  34.448  1.00  0.00    -0.203 F 
ATOM     70  F   UNL A   1      37.259  31.788  38.193  1.00  0.00    -0.200 F 
ATOM     71  C   UNL A   1      38.592  33.535  37.332  1.00  0.00     0.200 A 
ATOM     72  F   UNL A   1      39.930  35.256  36.425  1.00  0.00    -0.200 F 
ATOM     73  F   UNL A   1      38.155  34.362  38.292  1.00  0.00    -0.200 F 
ENDBRANCH  49  63
BRANCH  50  74
ATOM     74  C   UNL A   1      42.686  25.964  27.858  1.00  0.00     0.064 A 
ATOM     75  C   UNL A   1      42.327  24.613  27.756  1.00  0.00     0.173 A 
ATOM     76  C   UNL A   1      43.549  26.485  26.882  1.00  0.00     0.173 A 
ATOM     77  F   UNL A   1      41.525  24.062  28.679  1.00  0.00    -0.203 F 
ATOM     78  C   UNL A   1      42.828  23.810  26.733  1.00  0.00     0.198 A 
ATOM     79  C   UNL A   1      44.025  25.689  25.842  1.00  0.00     0.198 A 
ATOM     80  F   UNL A   1      43.924  27.771  26.935  1.00  0.00    -0.203 F 
ATOM     81  F   UNL A   1      42.508  22.510  26.687  1.00  0.00    -0.200 F 
ATOM     82  C   UNL A   1      43.671  24.351  25.773  1.00  0.00     0.200 A 
ATOM     83  F   UNL A   1      44.829  26.218  24.910  1.00  0.00    -0.200 F 
ATOM     84  F   UNL A   1      44.150  23.579  24.788  1.00  0.00    -0.200 F 
ENDBRANCH  50  74
BRANCH  62  85
ATOM     85  C   UNL A   1      45.045  27.318  34.278  1.00  0.00     0.064 A 
ATOM     86  C   UNL A   1      46.279  27.984  34.247  1.00  0.00     0.173 A 
ATOM     87  C   UNL A   1      44.933  26.183  35.096  1.00  0.00     0.173 A 
ATOM     88  F   UNL A   1      46.443  29.066  33.472  1.00  0.00    -0.203 F 
ATOM     89  C   UNL A   1      47.364  27.516  34.984  1.00  0.00     0.198 A 
ATOM     90  C   UNL A   1      46.010  25.737  35.857  1.00  0.00     0.198 A 
ATOM     91  F   UNL A   1      43.772  25.514  35.169  1.00  0.00    -0.203 F 
ATOM     92  F   UNL A   1      48.547  28.141  34.901  1.00  0.00    -0.200 F 
ATOM     93  C   UNL A   1      47.226  26.398  35.794  1.00  0.00     0.200 A 
ATOM     94  F   UNL A   1      45.870  24.666  36.651  1.00  0.00    -0.200 F 
ATOM     95  F   UNL A   1      48.269  25.954  36.510  1.00  0.00    -0.200 F 
ENDBRANCH  62  85
ENDBRANCH  36  37
ENDBRANCH  29  31
ENDBRANCH  28  29
ENDBRANCH  27  28
ENDBRANCH  26  27
ENDBRANCH   1  26
TORSDOF 18
ENDMDL
