MODEL 1
REMARK VINA RESULT:     -12.6      0.000      0.000
REMARK SMILES CC(C)C[C@H](C(=O)OCCOCCOC(=O)c1ccc(-c2c3nc(c(-c4c(F)c(F)c(F)c(F)c4F)c4ccc([nH]4)c(-c4c(F)c(F)c(F)c(F)c4F)c4nc(c(-c5c(F)c(F)c(F)c(F)c5F)c5ccc2[nH]5)C=C4)C=C3)cc1)N1C(=O)/C(=C2\C(=O)Nc3ccc(Br)cc32)SC1=S
REMARK SMILES IDX 11 1 10 2 9 3 8 4 6 5 7 6 5 7 4 8 2 9 1 10 3 11 80 12 81 13
REMARK SMILES IDX 96 14 82 15 83 16 95 17 97 18 84 19 85 20 94 21 86 22 87 23
REMARK SMILES IDX 88 24 93 25 89 27 91 28 90 29 92 30 12 31 13 32 14 33 15 34
REMARK SMILES IDX 16 35 17 36 18 37 79 38 19 39 78 40 20 41 21 42 22 43 72 44
REMARK SMILES IDX 23 45 77 46 71 47 73 48 24 49 76 50 70 51 69 52 25 54 57 55
REMARK SMILES IDX 37 56 56 57 38 58 41 59 55 60 74 61 39 62 40 63 54 65 75 66
REMARK SMILES IDX 42 67 26 68 27 69 35 70 28 71 29 72 33 73 36 74 30 75 31 76
REMARK SMILES IDX 34 77 32 78 58 79 59 80 67 81 60 82 61 83 65 84 68 85 62 86
REMARK SMILES IDX 63 87 66 88 64 89 43 90 44 91 52 92 45 93 46 94 50 95 53 96
REMARK SMILES IDX 47 97 48 98 51 99 49 100
REMARK H PARENT 87 26 73 53 41 64
REMARK Flexibility Score: inf
ROOT
ATOM      1  O   UNL A   1      41.697  20.384  26.676  1.00  0.00    -0.374 OA
ENDROOT
BRANCH   1   2
ATOM      2  C   UNL A   1      40.385  20.377  26.102  1.00  0.00     0.202 C 
BRANCH   2   3
ATOM      3  C   UNL A   1      39.623  21.703  26.127  1.00  0.00     0.261 C 
BRANCH   3   4
ATOM      4  O   UNL A   1      38.283  21.501  25.634  1.00  0.00    -0.462 OA
BRANCH   4   5
ATOM      5  C   UNL A   1      37.460  22.587  25.699  1.00  0.00     0.329 C 
ATOM      6  O   UNL A   1      37.793  23.670  26.169  1.00  0.00    -0.250 OA
BRANCH   5   7
ATOM      7  C   UNL A   1      36.160  22.395  24.863  1.00  0.00     0.202 C 
BRANCH   7   8
ATOM      8  C   UNL A   1      35.593  21.060  25.473  1.00  0.00     0.040 C 
BRANCH   8   9
ATOM      9  C   UNL A   1      34.703  20.140  24.626  1.00  0.00    -0.015 C 
ATOM     10  C   UNL A   1      35.190  18.692  24.635  1.00  0.00     0.007 C 
ATOM     11  C   UNL A   1      33.247  20.198  25.104  1.00  0.00     0.007 C 
ENDBRANCH   8   9
ENDBRANCH   7   8
BRANCH   7  12
ATOM     12  N   UNL A   1      35.174  23.509  24.971  1.00  0.00    -0.278 N 
ATOM     13  C   UNL A   1      34.423  23.887  23.869  1.00  0.00     0.267 C 
ATOM     14  C   UNL A   1      34.445  23.828  26.084  1.00  0.00     0.149 C 
ATOM     15  O   UNL A   1      34.247  23.173  22.895  1.00  0.00    -0.268 OA
ATOM     16  C   UNL A   1      33.685  25.167  24.153  1.00  0.00     0.093 C 
ATOM     17  S   UNL A   1      33.829  25.453  25.857  1.00  0.00    -0.053 SA
ATOM     18  S   UNL A   1      33.908  22.855  27.326  1.00  0.00    -0.052 S 
ATOM     19  C   UNL A   1      32.931  25.899  23.320  1.00  0.00     0.069 C 
ATOM     20  C   UNL A   1      32.655  25.543  21.882  1.00  0.00     0.257 C 
ATOM     21  C   UNL A   1      32.112  27.100  23.603  1.00  0.00     0.013 A 
ATOM     22  O   UNL A   1      33.291  24.826  21.131  1.00  0.00    -0.269 OA
ATOM     23  N   UNL A   1      31.562  26.311  21.525  1.00  0.00    -0.321 N 
ATOM     24  C   UNL A   1      31.265  27.254  22.500  1.00  0.00     0.049 A 
ATOM     25  C   UNL A   1      32.140  28.086  24.579  1.00  0.00     0.026 A 
ATOM     26  H   UNL A   1      31.059  26.203  20.686  1.00  0.00     0.170 HD
ATOM     27  C   UNL A   1      30.397  28.320  22.351  1.00  0.00     0.028 A 
ATOM     28  C   UNL A   1      31.292  29.191  24.431  1.00  0.00     0.018 A 
ATOM     29  C   UNL A   1      30.418  29.305  23.337  1.00  0.00     0.018 A 
ATOM     30  Br  UNL A   1      31.386  30.603  25.689  1.00  0.00    -0.051 Br
ENDBRANCH   7  12
ENDBRANCH   5   7
ENDBRANCH   4   5
ENDBRANCH   3   4
ENDBRANCH   2   3
ENDBRANCH   1   2
BRANCH   1  31
ATOM     31  C   UNL A   1      42.795  20.130  25.809  1.00  0.00     0.202 C 
BRANCH  31  32
ATOM     32  C   UNL A   1      43.673  21.325  25.405  1.00  0.00     0.261 C 
BRANCH  32  33
ATOM     33  O   UNL A   1      42.951  22.508  25.042  1.00  0.00    -0.460 OA
BRANCH  33  34
ATOM     34  C   UNL A   1      43.720  23.630  24.988  1.00  0.00     0.338 C 
ATOM     35  O   UNL A   1      44.642  23.871  24.235  1.00  0.00    -0.246 OA
BRANCH  34  36
ATOM     36  C   UNL A   1      43.228  24.585  25.994  1.00  0.00     0.060 A 
ATOM     37  C   UNL A   1      43.757  25.878  26.049  1.00  0.00     0.016 A 
ATOM     38  C   UNL A   1      42.281  24.172  26.922  1.00  0.00     0.016 A 
ATOM     39  C   UNL A   1      43.311  26.780  27.025  1.00  0.00     0.010 A 
ATOM     40  C   UNL A   1      41.847  25.077  27.891  1.00  0.00     0.010 A 
ATOM     41  C   UNL A   1      42.340  26.396  27.959  1.00  0.00    -0.014 A 
BRANCH  41  42
ATOM     42  C   UNL A   1      41.878  27.305  29.055  1.00  0.00     0.031 A 
ATOM     43  C   UNL A   1      42.587  27.276  30.387  1.00  0.00     0.074 A 
ATOM     44  C   UNL A   1      40.791  28.095  28.919  1.00  0.00     0.049 A 
ATOM     45  N   UNL A   1      42.258  27.842  31.523  1.00  0.00    -0.248 NA
ATOM     46  C   UNL A   1      43.806  26.458  30.463  1.00  0.00     0.031 C 
ATOM     47  C   UNL A   1      39.961  28.212  27.721  1.00  0.00     0.029 A 
ATOM     48  N   UNL A   1      40.180  28.936  29.823  1.00  0.00    -0.354 N 
ATOM     49  C   UNL A   1      43.206  27.415  32.445  1.00  0.00     0.074 A 
ATOM     50  C   UNL A   1      44.066  26.476  31.760  1.00  0.00     0.031 C 
ATOM     51  C   UNL A   1      38.956  29.073  27.960  1.00  0.00     0.029 A 
ATOM     52  C   UNL A   1      39.060  29.566  29.331  1.00  0.00     0.049 A 
ATOM     53  H   UNL A   1      40.514  29.075  30.739  1.00  0.00     0.167 HD
ATOM     54  C   UNL A   1      43.387  27.801  33.732  1.00  0.00     0.037 A 
ATOM     55  C   UNL A   1      38.215  30.443  29.913  1.00  0.00     0.037 A 
ATOM     56  C   UNL A   1      42.604  28.804  34.401  1.00  0.00     0.049 A 
ATOM     57  C   UNL A   1      38.456  30.892  31.333  1.00  0.00     0.074 A 
ATOM     58  C   UNL A   1      42.771  29.320  35.675  1.00  0.00     0.029 A 
ATOM     59  N   UNL A   1      41.525  29.466  33.840  1.00  0.00    -0.354 N 
ATOM     60  N   UNL A   1      39.391  30.519  32.172  1.00  0.00    -0.248 NA
ATOM     61  C   UNL A   1      37.532  31.898  31.881  1.00  0.00     0.031 C 
ATOM     62  C   UNL A   1      41.773  30.275  35.896  1.00  0.00     0.029 A 
ATOM     63  C   UNL A   1      41.012  30.382  34.744  1.00  0.00     0.049 A 
ATOM     64  H   UNL A   1      41.174  29.310  32.934  1.00  0.00     0.167 HD
ATOM     65  C   UNL A   1      39.193  31.271  33.324  1.00  0.00     0.074 A 
ATOM     66  C   UNL A   1      38.053  32.126  33.078  1.00  0.00     0.031 C 
ATOM     67  C   UNL A   1      39.896  31.254  34.483  1.00  0.00     0.037 A 
BRANCH  54  68
ATOM     68  C   UNL A   1      44.506  27.151  34.494  1.00  0.00     0.064 A 
ATOM     69  C   UNL A   1      44.294  26.007  35.280  1.00  0.00     0.173 A 
ATOM     70  C   UNL A   1      45.809  27.668  34.428  1.00  0.00     0.173 A 
ATOM     71  F   UNL A   1      43.065  25.479  35.384  1.00  0.00    -0.203 F 
ATOM     72  C   UNL A   1      45.332  25.435  36.009  1.00  0.00     0.198 A 
ATOM     73  C   UNL A   1      46.853  27.070  35.129  1.00  0.00     0.198 A 
ATOM     74  F   UNL A   1      46.068  28.754  33.684  1.00  0.00    -0.203 F 
ATOM     75  F   UNL A   1      45.088  24.387  36.808  1.00  0.00    -0.200 F 
ATOM     76  C   UNL A   1      46.612  25.963  35.928  1.00  0.00     0.200 A 
ATOM     77  F   UNL A   1      48.092  27.572  35.037  1.00  0.00    -0.200 F 
ATOM     78  F   UNL A   1      47.610  25.410  36.630  1.00  0.00    -0.200 F 
ENDBRANCH  54  68
BRANCH  55  79
ATOM     79  C   UNL A   1      37.068  31.002  29.147  1.00  0.00     0.064 A 
ATOM     80  C   UNL A   1      37.081  32.333  28.703  1.00  0.00     0.173 A 
ATOM     81  C   UNL A   1      35.920  30.241  28.890  1.00  0.00     0.173 A 
ATOM     82  F   UNL A   1      38.145  33.111  28.953  1.00  0.00    -0.203 F 
ATOM     83  C   UNL A   1      35.978  32.890  28.058  1.00  0.00     0.198 A 
ATOM     84  C   UNL A   1      34.827  30.790  28.220  1.00  0.00     0.198 A 
ATOM     85  F   UNL A   1      35.857  28.964  29.298  1.00  0.00    -0.203 F 
ATOM     86  F   UNL A   1      35.995  34.181  27.702  1.00  0.00    -0.200 F 
ATOM     87  C   UNL A   1      34.853  32.117  27.815  1.00  0.00     0.200 A 
ATOM     88  F   UNL A   1      33.742  30.041  27.985  1.00  0.00    -0.200 F 
ATOM     89  F   UNL A   1      33.788  32.656  27.206  1.00  0.00    -0.200 F 
ENDBRANCH  55  79
BRANCH  67  90
ATOM     90  C   UNL A   1      39.500  32.222  35.560  1.00  0.00     0.064 A 
ATOM     91  C   UNL A   1      38.572  31.882  36.554  1.00  0.00     0.173 A 
ATOM     92  C   UNL A   1      40.104  33.487  35.632  1.00  0.00     0.173 A 
ATOM     93  F   UNL A   1      37.956  30.690  36.523  1.00  0.00    -0.203 F 
ATOM     94  C   UNL A   1      38.250  32.779  37.570  1.00  0.00     0.198 A 
ATOM     95  C   UNL A   1      39.802  34.370  36.665  1.00  0.00     0.198 A 
ATOM     96  F   UNL A   1      41.005  33.859  34.709  1.00  0.00    -0.203 F 
ATOM     97  F   UNL A   1      37.333  32.446  38.489  1.00  0.00    -0.200 F 
ATOM     98  C   UNL A   1      38.871  34.018  37.630  1.00  0.00     0.200 A 
ATOM     99  F   UNL A   1      40.414  35.560  36.729  1.00  0.00    -0.200 F 
ATOM    100  F   UNL A   1      38.570  34.873  38.617  1.00  0.00    -0.200 F 
ENDBRANCH  67  90
ENDBRANCH  41  42
ENDBRANCH  34  36
ENDBRANCH  33  34
ENDBRANCH  32  33
ENDBRANCH  31  32
ENDBRANCH   1  31
TORSDOF 17
ENDMDL
MODEL 2
REMARK VINA RESULT:     -11.9      3.720      9.284
REMARK SMILES CC(C)C[C@H](C(=O)OCCOCCOC(=O)c1ccc(-c2c3nc(c(-c4c(F)c(F)c(F)c(F)c4F)c4ccc([nH]4)c(-c4c(F)c(F)c(F)c(F)c4F)c4nc(c(-c5c(F)c(F)c(F)c(F)c5F)c5ccc2[nH]5)C=C4)C=C3)cc1)N1C(=O)/C(=C2\C(=O)Nc3ccc(Br)cc32)SC1=S
REMARK SMILES IDX 11 1 10 2 9 3 8 4 6 5 7 6 5 7 4 8 2 9 1 10 3 11 80 12 81 13
REMARK SMILES IDX 96 14 82 15 83 16 95 17 97 18 84 19 85 20 94 21 86 22 87 23
REMARK SMILES IDX 88 24 93 25 89 27 91 28 90 29 92 30 12 31 13 32 14 33 15 34
REMARK SMILES IDX 16 35 17 36 18 37 79 38 19 39 78 40 20 41 21 42 22 43 72 44
REMARK SMILES IDX 23 45 77 46 71 47 73 48 24 49 76 50 70 51 69 52 25 54 57 55
REMARK SMILES IDX 37 56 56 57 38 58 41 59 55 60 74 61 39 62 40 63 54 65 75 66
REMARK SMILES IDX 42 67 26 68 27 69 35 70 28 71 29 72 33 73 36 74 30 75 31 76
REMARK SMILES IDX 34 77 32 78 58 79 59 80 67 81 60 82 61 83 65 84 68 85 62 86
REMARK SMILES IDX 63 87 66 88 64 89 43 90 44 91 52 92 45 93 46 94 50 95 53 96
REMARK SMILES IDX 47 97 48 98 51 99 49 100
REMARK H PARENT 87 26 73 53 41 64
REMARK Flexibility Score: inf
ROOT
ATOM      1  O   UNL A   1      34.510  31.196  27.481  1.00  0.00    -0.374 OA
ENDROOT
BRANCH   1   2
ATOM      2  C   UNL A   1      34.615  29.769  27.418  1.00  0.00     0.202 C 
BRANCH   2   3
ATOM      3  C   UNL A   1      34.030  29.098  26.175  1.00  0.00     0.261 C 
BRANCH   3   4
ATOM      4  O   UNL A   1      32.754  28.507  26.499  1.00  0.00    -0.462 OA
BRANCH   4   5
ATOM      5  C   UNL A   1      31.708  28.893  25.713  1.00  0.00     0.329 C 
ATOM      6  O   UNL A   1      31.410  30.063  25.497  1.00  0.00    -0.250 OA
BRANCH   5   7
ATOM      7  C   UNL A   1      31.112  27.707  24.897  1.00  0.00     0.202 C 
BRANCH   7   8
ATOM      8  C   UNL A   1      30.748  28.415  23.541  1.00  0.00     0.040 C 
BRANCH   8   9
ATOM      9  C   UNL A   1      29.361  28.215  22.912  1.00  0.00    -0.015 C 
ATOM     10  C   UNL A   1      28.511  27.211  23.688  1.00  0.00     0.007 C 
ATOM     11  C   UNL A   1      28.614  29.551  22.805  1.00  0.00     0.007 C 
ENDBRANCH   8   9
ENDBRANCH   7   8
BRANCH   7  12
ATOM     12  N   UNL A   1      32.043  26.561  24.686  1.00  0.00    -0.278 N 
ATOM     13  C   UNL A   1      31.605  25.260  24.884  1.00  0.00     0.267 C 
ATOM     14  C   UNL A   1      33.055  26.511  23.768  1.00  0.00     0.149 C 
ATOM     15  O   UNL A   1      30.429  24.937  24.892  1.00  0.00    -0.268 OA
ATOM     16  C   UNL A   1      32.769  24.306  24.843  1.00  0.00     0.093 C 
ATOM     17  S   UNL A   1      34.123  25.203  24.237  1.00  0.00    -0.053 SA
ATOM     18  S   UNL A   1      33.195  27.264  22.287  1.00  0.00    -0.052 S 
ATOM     19  C   UNL A   1      32.774  22.986  25.077  1.00  0.00     0.069 C 
ATOM     20  C   UNL A   1      31.552  22.175  25.421  1.00  0.00     0.257 C 
ATOM     21  C   UNL A   1      33.881  22.011  24.940  1.00  0.00     0.013 A 
ATOM     22  O   UNL A   1      30.493  22.542  25.898  1.00  0.00    -0.269 OA
ATOM     23  N   UNL A   1      31.917  20.860  25.195  1.00  0.00    -0.321 N 
ATOM     24  C   UNL A   1      33.282  20.747  24.960  1.00  0.00     0.049 A 
ATOM     25  C   UNL A   1      35.265  22.106  24.959  1.00  0.00     0.026 A 
ATOM     26  H   UNL A   1      31.291  20.101  25.199  1.00  0.00     0.170 HD
ATOM     27  C   UNL A   1      33.999  19.565  24.937  1.00  0.00     0.028 A 
ATOM     28  C   UNL A   1      36.011  20.921  24.968  1.00  0.00     0.018 A 
ATOM     29  C   UNL A   1      35.390  19.661  24.944  1.00  0.00     0.018 A 
ATOM     30  Br  UNL A   1      37.897  21.017  25.103  1.00  0.00    -0.051 Br
ENDBRANCH   7  12
ENDBRANCH   5   7
ENDBRANCH   4   5
ENDBRANCH   3   4
ENDBRANCH   2   3
ENDBRANCH   1   2
BRANCH   1  31
ATOM     31  C   UNL A   1      33.221  31.751  27.702  1.00  0.00     0.202 C 
BRANCH  31  32
ATOM     32  C   UNL A   1      33.005  33.223  27.316  1.00  0.00     0.261 C 
BRANCH  32  33
ATOM     33  O   UNL A   1      32.266  33.996  28.269  1.00  0.00    -0.460 OA
BRANCH  33  34
ATOM     34  C   UNL A   1      32.964  35.037  28.799  1.00  0.00     0.338 C 
ATOM     35  O   UNL A   1      32.689  36.219  28.760  1.00  0.00    -0.246 OA
BRANCH  34  36
ATOM     36  C   UNL A   1      34.141  34.503  29.502  1.00  0.00     0.060 A 
ATOM     37  C   UNL A   1      35.408  34.594  28.916  1.00  0.00     0.016 A 
ATOM     38  C   UNL A   1      33.976  33.859  30.721  1.00  0.00     0.016 A 
ATOM     39  C   UNL A   1      36.526  34.062  29.570  1.00  0.00     0.010 A 
ATOM     40  C   UNL A   1      35.095  33.329  31.361  1.00  0.00     0.010 A 
ATOM     41  C   UNL A   1      36.389  33.426  30.811  1.00  0.00    -0.014 A 
BRANCH  41  42
ATOM     42  C   UNL A   1      37.545  32.789  31.518  1.00  0.00     0.031 A 
ATOM     43  C   UNL A   1      38.262  31.631  30.869  1.00  0.00     0.074 A 
ATOM     44  C   UNL A   1      37.920  33.166  32.760  1.00  0.00     0.049 A 
ATOM     45  N   UNL A   1      39.168  30.823  31.364  1.00  0.00    -0.248 NA
ATOM     46  C   UNL A   1      37.868  31.307  29.489  1.00  0.00     0.031 C 
ATOM     47  C   UNL A   1      37.310  34.233  33.552  1.00  0.00     0.029 A 
ATOM     48  N   UNL A   1      38.899  32.663  33.589  1.00  0.00    -0.354 N 
ATOM     49  C   UNL A   1      39.416  29.882  30.371  1.00  0.00     0.074 A 
ATOM     50  C   UNL A   1      38.504  30.165  29.286  1.00  0.00     0.031 C 
ATOM     51  C   UNL A   1      37.927  34.308  34.745  1.00  0.00     0.029 A 
ATOM     52  C   UNL A   1      38.973  33.290  34.811  1.00  0.00     0.049 A 
ATOM     53  H   UNL A   1      39.493  31.922  33.329  1.00  0.00     0.167 HD
ATOM     54  C   UNL A   1      40.350  28.900  30.334  1.00  0.00     0.037 A 
ATOM     55  C   UNL A   1      39.790  33.075  35.863  1.00  0.00     0.037 A 
ATOM     56  C   UNL A   1      41.329  28.664  31.360  1.00  0.00     0.049 A 
ATOM     57  C   UNL A   1      40.849  32.003  35.787  1.00  0.00     0.074 A 
ATOM     58  C   UNL A   1      42.366  27.748  31.368  1.00  0.00     0.029 A 
ATOM     59  N   UNL A   1      41.410  29.370  32.550  1.00  0.00    -0.354 N 
ATOM     60  N   UNL A   1      41.106  31.159  34.819  1.00  0.00    -0.248 NA
ATOM     61  C   UNL A   1      41.745  31.868  36.947  1.00  0.00     0.031 C 
ATOM     62  C   UNL A   1      43.060  27.880  32.576  1.00  0.00     0.029 A 
ATOM     63  C   UNL A   1      42.477  28.905  33.301  1.00  0.00     0.049 A 
ATOM     64  H   UNL A   1      40.800  30.094  32.821  1.00  0.00     0.167 HD
ATOM     65  C   UNL A   1      42.212  30.426  35.233  1.00  0.00     0.074 A 
ATOM     66  C   UNL A   1      42.583  30.926  36.538  1.00  0.00     0.031 C 
ATOM     67  C   UNL A   1      42.862  29.428  34.586  1.00  0.00     0.037 A 
BRANCH  54  68
ATOM     68  C   UNL A   1      40.375  28.021  29.116  1.00  0.00     0.064 A 
ATOM     69  C   UNL A   1      41.144  28.350  27.988  1.00  0.00     0.173 A 
ATOM     70  C   UNL A   1      39.635  26.830  29.080  1.00  0.00     0.173 A 
ATOM     71  F   UNL A   1      41.862  29.483  27.969  1.00  0.00    -0.203 F 
ATOM     72  C   UNL A   1      41.132  27.545  26.853  1.00  0.00     0.198 A 
ATOM     73  C   UNL A   1      39.657  26.007  27.957  1.00  0.00     0.198 A 
ATOM     74  F   UNL A   1      38.892  26.463  30.135  1.00  0.00    -0.203 F 
ATOM     75  F   UNL A   1      41.817  27.919  25.763  1.00  0.00    -0.200 F 
ATOM     76  C   UNL A   1      40.394  26.372  26.840  1.00  0.00     0.200 A 
ATOM     77  F   UNL A   1      38.955  24.866  27.952  1.00  0.00    -0.200 F 
ATOM     78  F   UNL A   1      40.384  25.598  25.746  1.00  0.00    -0.200 F 
ENDBRANCH  54  68
BRANCH  55  79
ATOM     79  C   UNL A   1      39.677  33.916  37.086  1.00  0.00     0.064 A 
ATOM     80  C   UNL A   1      38.912  33.489  38.183  1.00  0.00     0.173 A 
ATOM     81  C   UNL A   1      40.283  35.177  37.165  1.00  0.00     0.173 A 
ATOM     82  F   UNL A   1      38.287  32.303  38.141  1.00  0.00    -0.203 F 
ATOM     83  C   UNL A   1      38.733  34.305  39.299  1.00  0.00     0.198 A 
ATOM     84  C   UNL A   1      40.126  35.981  38.293  1.00  0.00     0.198 A 
ATOM     85  F   UNL A   1      41.020  35.631  36.140  1.00  0.00    -0.203 F 
ATOM     86  F   UNL A   1      37.946  33.898  40.303  1.00  0.00    -0.200 F 
ATOM     87  C   UNL A   1      39.342  35.550  39.353  1.00  0.00     0.200 A 
ATOM     88  F   UNL A   1      40.716  37.183  38.344  1.00  0.00    -0.200 F 
ATOM     89  F   UNL A   1      39.160  36.339  40.421  1.00  0.00    -0.200 F 
ENDBRANCH  55  79
BRANCH  67  90
ATOM     90  C   UNL A   1      44.077  28.839  35.244  1.00  0.00     0.064 A 
ATOM     91  C   UNL A   1      45.360  29.359  35.024  1.00  0.00     0.173 A 
ATOM     92  C   UNL A   1      43.946  27.780  36.155  1.00  0.00     0.173 A 
ATOM     93  F   UNL A   1      45.542  30.364  34.153  1.00  0.00    -0.203 F 
ATOM     94  C   UNL A   1      46.470  28.828  35.678  1.00  0.00     0.198 A 
ATOM     95  C   UNL A   1      45.053  27.269  36.828  1.00  0.00     0.198 A 
ATOM     96  F   UNL A   1      42.739  27.251  36.407  1.00  0.00    -0.203 F 
ATOM     97  F   UNL A   1      47.692  29.316  35.424  1.00  0.00    -0.200 F 
ATOM     98  C   UNL A   1      46.314  27.790  36.585  1.00  0.00     0.200 A 
ATOM     99  F   UNL A   1      44.897  26.277  37.715  1.00  0.00    -0.200 F 
ATOM    100  F   UNL A   1      47.381  27.290  37.223  1.00  0.00    -0.200 F 
ENDBRANCH  67  90
ENDBRANCH  41  42
ENDBRANCH  34  36
ENDBRANCH  33  34
ENDBRANCH  32  33
ENDBRANCH  31  32
ENDBRANCH   1  31
TORSDOF 17
ENDMDL
MODEL 3
REMARK VINA RESULT:     -11.9      3.938      9.427
REMARK SMILES CC(C)C[C@H](C(=O)OCCOCCOC(=O)c1ccc(-c2c3nc(c(-c4c(F)c(F)c(F)c(F)c4F)c4ccc([nH]4)c(-c4c(F)c(F)c(F)c(F)c4F)c4nc(c(-c5c(F)c(F)c(F)c(F)c5F)c5ccc2[nH]5)C=C4)C=C3)cc1)N1C(=O)/C(=C2\C(=O)Nc3ccc(Br)cc32)SC1=S
REMARK SMILES IDX 11 1 10 2 9 3 8 4 6 5 7 6 5 7 4 8 2 9 1 10 3 11 80 12 81 13
REMARK SMILES IDX 96 14 82 15 83 16 95 17 97 18 84 19 85 20 94 21 86 22 87 23
REMARK SMILES IDX 88 24 93 25 89 27 91 28 90 29 92 30 12 31 13 32 14 33 15 34
REMARK SMILES IDX 16 35 17 36 18 37 79 38 19 39 78 40 20 41 21 42 22 43 72 44
REMARK SMILES IDX 23 45 77 46 71 47 73 48 24 49 76 50 70 51 69 52 25 54 57 55
REMARK SMILES IDX 37 56 56 57 38 58 41 59 55 60 74 61 39 62 40 63 54 65 75 66
REMARK SMILES IDX 42 67 26 68 27 69 35 70 28 71 29 72 33 73 36 74 30 75 31 76
REMARK SMILES IDX 34 77 32 78 58 79 59 80 67 81 60 82 61 83 65 84 68 85 62 86
REMARK SMILES IDX 63 87 66 88 64 89 43 90 44 91 52 92 45 93 46 94 50 95 53 96
REMARK SMILES IDX 47 97 48 98 51 99 49 100
REMARK H PARENT 87 26 73 53 41 64
REMARK Flexibility Score: inf
ROOT
ATOM      1  O   UNL A   1      33.111  34.047  28.933  1.00  0.00    -0.374 OA
ENDROOT
BRANCH   1   2
ATOM      2  C   UNL A   1      33.126  33.225  27.760  1.00  0.00     0.202 C 
BRANCH   2   3
ATOM      3  C   UNL A   1      33.535  31.765  27.956  1.00  0.00     0.261 C 
BRANCH   3   4
ATOM      4  O   UNL A   1      32.612  30.905  27.257  1.00  0.00    -0.462 OA
BRANCH   4   5
ATOM      5  C   UNL A   1      33.179  29.899  26.529  1.00  0.00     0.329 C 
ATOM      6  O   UNL A   1      34.382  29.666  26.506  1.00  0.00    -0.250 OA
BRANCH   5   7
ATOM      7  C   UNL A   1      32.117  28.910  25.961  1.00  0.00     0.202 C 
BRANCH   7   8
ATOM      8  C   UNL A   1      31.599  29.699  24.703  1.00  0.00     0.040 C 
BRANCH   8   9
ATOM      9  C   UNL A   1      30.151  29.524  24.223  1.00  0.00    -0.015 C 
ATOM     10  C   UNL A   1      29.529  30.840  23.761  1.00  0.00     0.007 C 
ATOM     11  C   UNL A   1      30.073  28.492  23.091  1.00  0.00     0.007 C 
ENDBRANCH   8   9
ENDBRANCH   7   8
BRANCH   7  12
ATOM     12  N   UNL A   1      32.648  27.568  25.586  1.00  0.00    -0.278 N 
ATOM     13  C   UNL A   1      31.890  26.429  25.813  1.00  0.00     0.267 C 
ATOM     14  C   UNL A   1      33.473  27.299  24.529  1.00  0.00     0.149 C 
ATOM     15  O   UNL A   1      30.682  26.445  25.985  1.00  0.00    -0.268 OA
ATOM     16  C   UNL A   1      32.719  25.195  25.578  1.00  0.00     0.093 C 
ATOM     17  S   UNL A   1      34.179  25.719  24.804  1.00  0.00    -0.053 SA
ATOM     18  S   UNL A   1      33.622  28.081  23.064  1.00  0.00    -0.052 S 
ATOM     19  C   UNL A   1      32.381  23.912  25.775  1.00  0.00     0.069 C 
ATOM     20  C   UNL A   1      31.036  23.450  26.273  1.00  0.00     0.257 C 
ATOM     21  C   UNL A   1      33.137  22.680  25.453  1.00  0.00     0.013 A 
ATOM     22  O   UNL A   1      30.198  24.064  26.909  1.00  0.00    -0.269 OA
ATOM     23  N   UNL A   1      30.980  22.104  25.962  1.00  0.00    -0.321 N 
ATOM     24  C   UNL A   1      32.213  21.633  25.527  1.00  0.00     0.049 A 
ATOM     25  C   UNL A   1      34.481  22.387  25.271  1.00  0.00     0.026 A 
ATOM     26  H   UNL A   1      30.171  21.550  26.039  1.00  0.00     0.170 HD
ATOM     27  C   UNL A   1      32.556  20.303  25.370  1.00  0.00     0.028 A 
ATOM     28  C   UNL A   1      34.855  21.043  25.140  1.00  0.00     0.018 A 
ATOM     29  C   UNL A   1      33.904  20.009  25.176  1.00  0.00     0.018 A 
ATOM     30  Br  UNL A   1      36.691  20.604  25.000  1.00  0.00    -0.051 Br
ENDBRANCH   7  12
ENDBRANCH   5   7
ENDBRANCH   4   5
ENDBRANCH   3   4
ENDBRANCH   2   3
ENDBRANCH   1   2
BRANCH   1  31
ATOM     31  C   UNL A   1      33.401  35.429  28.770  1.00  0.00     0.202 C 
BRANCH  31  32
ATOM     32  C   UNL A   1      32.861  36.398  29.834  1.00  0.00     0.261 C 
BRANCH  32  33
ATOM     33  O   UNL A   1      32.153  35.776  30.913  1.00  0.00    -0.460 OA
BRANCH  33  34
ATOM     34  C   UNL A   1      32.653  36.068  32.144  1.00  0.00     0.338 C 
ATOM     35  O   UNL A   1      32.234  36.873  32.952  1.00  0.00    -0.246 OA
BRANCH  34  36
ATOM     36  C   UNL A   1      33.811  35.198  32.399  1.00  0.00     0.060 A 
ATOM     37  C   UNL A   1      33.619  33.895  32.868  1.00  0.00     0.016 A 
ATOM     38  C   UNL A   1      35.094  35.700  32.227  1.00  0.00     0.016 A 
ATOM     39  C   UNL A   1      34.721  33.074  33.139  1.00  0.00     0.010 A 
ATOM     40  C   UNL A   1      36.185  34.876  32.503  1.00  0.00     0.010 A 
ATOM     41  C   UNL A   1      36.026  33.549  32.952  1.00  0.00    -0.014 A 
BRANCH  41  42
ATOM     42  C   UNL A   1      37.234  32.730  33.285  1.00  0.00     0.031 A 
ATOM     43  C   UNL A   1      37.975  32.995  34.573  1.00  0.00     0.074 A 
ATOM     44  C   UNL A   1      37.733  31.811  32.430  1.00  0.00     0.049 A 
ATOM     45  N   UNL A   1      39.132  32.533  34.984  1.00  0.00    -0.248 NA
ATOM     46  C   UNL A   1      37.352  33.949  35.502  1.00  0.00     0.031 C 
ATOM     47  C   UNL A   1      37.173  31.461  31.126  1.00  0.00     0.029 A 
ATOM     48  N   UNL A   1      38.856  31.018  32.527  1.00  0.00    -0.354 N 
ATOM     49  C   UNL A   1      39.383  33.171  36.193  1.00  0.00     0.074 A 
ATOM     50  C   UNL A   1      38.307  34.114  36.403  1.00  0.00     0.031 C 
ATOM     51  C   UNL A   1      37.948  30.526  30.547  1.00  0.00     0.029 A 
ATOM     52  C   UNL A   1      39.067  30.212  31.432  1.00  0.00     0.049 A 
ATOM     53  H   UNL A   1      39.454  31.028  33.309  1.00  0.00     0.167 HD
ATOM     54  C   UNL A   1      40.386  32.962  37.081  1.00  0.00     0.037 A 
ATOM     55  C   UNL A   1      40.045  29.320  31.170  1.00  0.00     0.037 A 
ATOM     56  C   UNL A   1      41.409  31.963  36.937  1.00  0.00     0.049 A 
ATOM     57  C   UNL A   1      41.130  29.072  32.189  1.00  0.00     0.074 A 
ATOM     58  C   UNL A   1      42.414  31.624  37.827  1.00  0.00     0.029 A 
ATOM     59  N   UNL A   1      41.542  31.122  35.844  1.00  0.00    -0.354 N 
ATOM     60  N   UNL A   1      41.322  29.645  33.351  1.00  0.00    -0.248 NA
ATOM     61  C   UNL A   1      42.128  28.040  31.863  1.00  0.00     0.031 C 
ATOM     62  C   UNL A   1      43.173  30.594  37.259  1.00  0.00     0.029 A 
ATOM     63  C   UNL A   1      42.615  30.267  36.035  1.00  0.00     0.049 A 
ATOM     64  H   UNL A   1      40.960  31.129  35.051  1.00  0.00     0.167 HD
ATOM     65  C   UNL A   1      42.429  29.016  33.910  1.00  0.00     0.074 A 
ATOM     66  C   UNL A   1      42.866  28.015  32.963  1.00  0.00     0.031 C 
ATOM     67  C   UNL A   1      43.027  29.249  35.104  1.00  0.00     0.037 A 
BRANCH  54  68
ATOM     68  C   UNL A   1      40.403  33.820  38.314  1.00  0.00     0.064 A 
ATOM     69  C   UNL A   1      41.159  35.002  38.378  1.00  0.00     0.173 A 
ATOM     70  C   UNL A   1      39.643  33.466  39.439  1.00  0.00     0.173 A 
ATOM     71  F   UNL A   1      41.909  35.379  37.332  1.00  0.00    -0.203 F 
ATOM     72  C   UNL A   1      41.193  35.768  39.538  1.00  0.00     0.198 A 
ATOM     73  C   UNL A   1      39.650  34.257  40.585  1.00  0.00     0.198 A 
ATOM     74  F   UNL A   1      38.895  32.352  39.427  1.00  0.00    -0.203 F 
ATOM     75  F   UNL A   1      41.979  36.852  39.599  1.00  0.00    -0.200 F 
ATOM     76  C   UNL A   1      40.434  35.400  40.639  1.00  0.00     0.200 A 
ATOM     77  F   UNL A   1      38.904  33.907  41.642  1.00  0.00    -0.200 F 
ATOM     78  F   UNL A   1      40.468  36.140  41.755  1.00  0.00    -0.200 F 
ENDBRANCH  54  68
BRANCH  55  79
ATOM     79  C   UNL A   1      40.037  28.548  29.897  1.00  0.00     0.064 A 
ATOM     80  C   UNL A   1      39.400  27.301  29.818  1.00  0.00     0.173 A 
ATOM     81  C   UNL A   1      40.706  29.013  28.757  1.00  0.00     0.173 A 
ATOM     82  F   UNL A   1      38.774  26.800  30.893  1.00  0.00    -0.203 F 
ATOM     83  C   UNL A   1      39.458  26.534  28.656  1.00  0.00     0.198 A 
ATOM     84  C   UNL A   1      40.740  28.257  27.586  1.00  0.00     0.198 A 
ATOM     85  F   UNL A   1      41.334  30.198  28.784  1.00  0.00    -0.203 F 
ATOM     86  F   UNL A   1      38.894  25.319  28.629  1.00  0.00    -0.200 F 
ATOM     87  C   UNL A   1      40.126  27.014  27.540  1.00  0.00     0.200 A 
ATOM     88  F   UNL A   1      41.385  28.724  26.508  1.00  0.00    -0.200 F 
ATOM     89  F   UNL A   1      40.192  26.271  26.426  1.00  0.00    -0.200 F 
ENDBRANCH  55  79
BRANCH  67  90
ATOM     90  C   UNL A   1      44.186  28.376  35.491  1.00  0.00     0.064 A 
ATOM     91  C   UNL A   1      44.004  27.176  36.193  1.00  0.00     0.173 A 
ATOM     92  C   UNL A   1      45.490  28.714  35.097  1.00  0.00     0.173 A 
ATOM     93  F   UNL A   1      42.779  26.813  36.603  1.00  0.00    -0.203 F 
ATOM     94  C   UNL A   1      45.087  26.358  36.505  1.00  0.00     0.198 A 
ATOM     95  C   UNL A   1      46.567  27.880  35.386  1.00  0.00     0.198 A 
ATOM     96  F   UNL A   1      45.718  29.848  34.416  1.00  0.00    -0.203 F 
ATOM     97  F   UNL A   1      44.895  25.234  37.210  1.00  0.00    -0.200 F 
ATOM     98  C   UNL A   1      46.365  26.705  36.093  1.00  0.00     0.200 A 
ATOM     99  F   UNL A   1      47.799  28.211  34.974  1.00  0.00    -0.200 F 
ATOM    100  F   UNL A   1      47.404  25.909  36.382  1.00  0.00    -0.200 F 
ENDBRANCH  67  90
ENDBRANCH  41  42
ENDBRANCH  34  36
ENDBRANCH  33  34
ENDBRANCH  32  33
ENDBRANCH  31  32
ENDBRANCH   1  31
TORSDOF 17
ENDMDL
