MODEL 1
REMARK VINA RESULT:     -11.9      0.000      0.000
REMARK SMILES CC(=O)N1CCN(C(=O)c2ccc(=O)n(CCC(=O)OCCOCCOC(=O)c3ccc(-c4c5nc(c(-c6c(F)c(F)c(F)c(F)c6F)c6ccc([nH]6)c(-c6c(F)c(F)c(F)c(F)c6F)c6nc(c(-c7c(F)c(F)c(F)c(F)c7F)c7ccc4[nH]7)C=C6)C=C5)cc3)n2)CC1
REMARK SMILES IDX 22 1 21 2 20 3 18 4 19 5 17 6 16 7 15 8 10 9 11 10 92 11
REMARK SMILES IDX 12 12 13 13 14 14 8 15 1 16 2 17 3 18 4 19 5 20 94 21 6 22
REMARK SMILES IDX 93 23 7 24 9 25 23 26 24 27 25 28 26 29 27 30 28 31 29 32
REMARK SMILES IDX 30 33 91 34 31 35 90 36 32 37 33 38 34 39 84 40 35 41 89 42
REMARK SMILES IDX 83 43 85 44 36 45 88 46 82 47 81 48 37 50 69 51 49 52 68 53
REMARK SMILES IDX 50 54 53 55 67 56 86 57 51 58 52 59 66 61 87 62 54 63 38 64
REMARK SMILES IDX 39 65 47 66 40 67 41 68 45 69 48 70 42 71 43 72 46 73 44 74
REMARK SMILES IDX 70 75 71 76 79 77 72 78 73 79 77 80 80 81 74 82 75 83 78 84
REMARK SMILES IDX 76 85 55 86 56 87 64 88 57 89 58 90 62 91 65 92 59 93 60 94
REMARK SMILES IDX 63 95 61 96
REMARK H PARENT 85 49 53 60
REMARK Flexibility Score: inf
ROOT
ATOM      1  C   UNL A   1      41.037  21.347  26.542  1.00  0.00     0.202 C 
ENDROOT
BRANCH   1   2
ATOM      2  C   UNL A   1      39.600  21.406  25.994  1.00  0.00     0.261 C 
BRANCH   2   3
ATOM      3  O   UNL A   1      38.838  22.537  26.470  1.00  0.00    -0.463 OA
BRANCH   3   4
ATOM      4  C   UNL A   1      37.773  22.929  25.733  1.00  0.00     0.307 C 
ATOM      5  O   UNL A   1      37.259  24.040  25.783  1.00  0.00    -0.252 OA
BRANCH   4   6
ATOM      6  C   UNL A   1      37.239  21.816  24.857  1.00  0.00     0.146 C 
BRANCH   6   7
ATOM      7  C   UNL A   1      36.053  21.030  25.421  1.00  0.00     0.160 C 
BRANCH   7   8
ATOM      8  N   UNL A   1      34.796  21.248  24.699  1.00  0.00    -0.229 N 
ATOM      9  C   UNL A   1      33.560  22.596  23.340  1.00  0.00     0.149 A 
ATOM     10  C   UNL A   1      32.353  21.763  23.474  1.00  0.00     0.042 A 
ATOM     11  N   UNL A   1      34.691  22.409  23.950  1.00  0.00    -0.164 NA
ATOM     12  C   UNL A   1      32.519  20.619  24.127  1.00  0.00     0.076 A 
ATOM     13  C   UNL A   1      33.850  20.242  24.625  1.00  0.00     0.266 A 
ATOM     14  O   UNL A   1      34.033  19.079  24.951  1.00  0.00    -0.268 OA
BRANCH   9  15
ATOM     15  C   UNL A   1      33.408  23.749  22.384  1.00  0.00     0.274 C 
ATOM     16  C   UNL A   1      31.431  28.961  25.357  1.00  0.00     0.114 C 
ATOM     17  C   UNL A   1      31.305  28.528  23.921  1.00  0.00     0.219 C 
ATOM     18  O   UNL A   1      31.032  29.358  23.053  1.00  0.00    -0.275 OA
ATOM     19  N   UNL A   1      31.583  27.207  23.623  1.00  0.00    -0.339 N 
ATOM     20  C   UNL A   1      31.760  26.823  22.217  1.00  0.00     0.141 C 
ATOM     21  C   UNL A   1      31.729  26.101  24.586  1.00  0.00     0.141 C 
ATOM     22  C   UNL A   1      33.129  26.159  22.038  1.00  0.00     0.141 C 
ATOM     23  C   UNL A   1      33.039  25.318  24.363  1.00  0.00     0.141 C 
ATOM     24  N   UNL A   1      33.240  25.009  22.937  1.00  0.00    -0.334 N 
ATOM     25  O   UNL A   1      33.522  23.504  21.189  1.00  0.00    -0.267 OA
ENDBRANCH   9  15
ENDBRANCH   7   8
ENDBRANCH   6   7
ENDBRANCH   4   6
ENDBRANCH   3   4
ENDBRANCH   2   3
ENDBRANCH   1   2
BRANCH   1  26
ATOM     26  O   UNL A   1      42.010  20.763  25.677  1.00  0.00    -0.374 OA
BRANCH  26  27
ATOM     27  C   UNL A   1      43.358  21.186  25.872  1.00  0.00     0.202 C 
BRANCH  27  28
ATOM     28  C   UNL A   1      43.962  22.041  24.744  1.00  0.00     0.261 C 
BRANCH  28  29
ATOM     29  O   UNL A   1      43.399  23.366  24.688  1.00  0.00    -0.460 OA
BRANCH  29  30
ATOM     30  C   UNL A   1      44.213  24.374  25.083  1.00  0.00     0.338 C 
ATOM     31  O   UNL A   1      45.256  24.716  24.558  1.00  0.00    -0.246 OA
BRANCH  30  32
ATOM     32  C   UNL A   1      43.569  25.158  26.173  1.00  0.00     0.060 A 
ATOM     33  C   UNL A   1      42.547  24.652  26.979  1.00  0.00     0.016 A 
ATOM     34  C   UNL A   1      44.018  26.471  26.370  1.00  0.00     0.016 A 
ATOM     35  C   UNL A   1      41.988  25.460  27.984  1.00  0.00     0.010 A 
ATOM     36  C   UNL A   1      43.470  27.269  27.380  1.00  0.00     0.010 A 
ATOM     37  C   UNL A   1      42.455  26.771  28.206  1.00  0.00    -0.014 A 
BRANCH  37  38
ATOM     38  C   UNL A   1      41.989  27.564  29.379  1.00  0.00     0.031 A 
ATOM     39  C   UNL A   1      42.675  27.518  30.718  1.00  0.00     0.074 A 
ATOM     40  C   UNL A   1      40.872  28.307  29.244  1.00  0.00     0.049 A 
ATOM     41  N   UNL A   1      42.390  28.182  31.813  1.00  0.00    -0.248 NA
ATOM     42  C   UNL A   1      43.823  26.612  30.849  1.00  0.00     0.031 C 
ATOM     43  C   UNL A   1      40.077  28.401  28.021  1.00  0.00     0.029 A 
ATOM     44  N   UNL A   1      40.214  29.116  30.137  1.00  0.00    -0.354 N 
ATOM     45  C   UNL A   1      43.327  27.787  32.759  1.00  0.00     0.074 A 
ATOM     46  C   UNL A   1      44.165  26.792  32.119  1.00  0.00     0.031 C 
ATOM     47  C   UNL A   1      39.062  29.253  28.224  1.00  0.00     0.029 A 
ATOM     48  C   UNL A   1      39.105  29.728  29.605  1.00  0.00     0.049 A 
ATOM     49  H   UNL A   1      40.506  29.245  31.068  1.00  0.00     0.167 HD
ATOM     50  C   UNL A   1      43.485  28.224  34.034  1.00  0.00     0.037 A 
ATOM     51  C   UNL A   1      38.215  30.573  30.157  1.00  0.00     0.037 A 
ATOM     52  C   UNL A   1      42.629  29.187  34.687  1.00  0.00     0.049 A 
ATOM     53  C   UNL A   1      38.372  30.996  31.589  1.00  0.00     0.074 A 
ATOM     54  C   UNL A   1      42.741  29.714  35.964  1.00  0.00     0.029 A 
ATOM     55  N   UNL A   1      41.491  29.751  34.129  1.00  0.00    -0.354 N 
ATOM     56  N   UNL A   1      39.313  30.680  32.444  1.00  0.00    -0.248 NA
ATOM     57  C   UNL A   1      37.344  31.894  32.132  1.00  0.00     0.031 C 
ATOM     58  C   UNL A   1      41.640  30.544  36.200  1.00  0.00     0.029 A 
ATOM     59  C   UNL A   1      40.874  30.590  35.048  1.00  0.00     0.049 A 
ATOM     60  H   UNL A   1      41.168  29.581  33.215  1.00  0.00     0.167 HD
ATOM     61  C   UNL A   1      39.002  31.352  33.619  1.00  0.00     0.074 A 
ATOM     62  C   UNL A   1      37.795  32.109  33.360  1.00  0.00     0.031 C 
ATOM     63  C   UNL A   1      39.665  31.337  34.801  1.00  0.00     0.037 A 
BRANCH  50  64
ATOM     64  C   UNL A   1      44.637  27.666  34.827  1.00  0.00     0.064 A 
ATOM     65  C   UNL A   1      45.883  28.311  34.854  1.00  0.00     0.173 A 
ATOM     66  C   UNL A   1      44.479  26.519  35.622  1.00  0.00     0.173 A 
ATOM     67  F   UNL A   1      46.091  29.410  34.112  1.00  0.00    -0.203 F 
ATOM     68  C   UNL A   1      46.935  27.813  35.621  1.00  0.00     0.198 A 
ATOM     69  C   UNL A   1      45.522  26.043  36.414  1.00  0.00     0.198 A 
ATOM     70  F   UNL A   1      43.305  25.871  35.649  1.00  0.00    -0.203 F 
ATOM     71  F   UNL A   1      48.128  28.422  35.593  1.00  0.00    -0.200 F 
ATOM     72  C   UNL A   1      46.752  26.685  36.406  1.00  0.00     0.200 A 
ATOM     73  F   UNL A   1      45.337  24.964  37.186  1.00  0.00    -0.200 F 
ATOM     74  F   UNL A   1      47.761  26.213  37.150  1.00  0.00    -0.200 F 
ENDBRANCH  50  64
BRANCH  51  75
ATOM     75  C   UNL A   1      37.121  31.115  29.312  1.00  0.00     0.064 A 
ATOM     76  C   UNL A   1      36.014  30.320  28.989  1.00  0.00     0.173 A 
ATOM     77  C   UNL A   1      37.122  32.448  28.875  1.00  0.00     0.173 A 
ATOM     78  F   UNL A   1      35.977  29.036  29.370  1.00  0.00    -0.203 F 
ATOM     79  C   UNL A   1      34.944  30.842  28.265  1.00  0.00     0.198 A 
ATOM     80  C   UNL A   1      36.040  32.976  28.179  1.00  0.00     0.198 A 
ATOM     81  F   UNL A   1      38.158  33.249  29.170  1.00  0.00    -0.203 F 
ATOM     82  F   UNL A   1      33.903  30.057  27.956  1.00  0.00    -0.200 F 
ATOM     83  C   UNL A   1      34.951  32.172  27.873  1.00  0.00     0.200 A 
ATOM     84  F   UNL A   1      36.040  34.267  27.820  1.00  0.00    -0.200 F 
ATOM     85  F   UNL A   1      33.907  32.680  27.204  1.00  0.00    -0.200 F 
ENDBRANCH  51  75
BRANCH  63  86
ATOM     86  C   UNL A   1      39.112  32.173  35.923  1.00  0.00     0.064 A 
ATOM     87  C   UNL A   1      38.255  31.630  36.893  1.00  0.00     0.173 A 
ATOM     88  C   UNL A   1      39.494  33.516  36.070  1.00  0.00     0.173 A 
ATOM     89  F   UNL A   1      37.845  30.356  36.794  1.00  0.00    -0.203 F 
ATOM     90  C   UNL A   1      37.791  32.402  37.956  1.00  0.00     0.198 A 
ATOM     91  C   UNL A   1      39.053  34.276  37.151  1.00  0.00     0.198 A 
ATOM     92  F   UNL A   1      40.314  34.087  35.175  1.00  0.00    -0.203 F 
ATOM     93  F   UNL A   1      36.943  31.871  38.847  1.00  0.00    -0.200 F 
ATOM     94  C   UNL A   1      38.200  33.721  38.090  1.00  0.00     0.200 A 
ATOM     95  F   UNL A   1      39.461  35.546  37.287  1.00  0.00    -0.200 F 
ATOM     96  F   UNL A   1      37.765  34.457  39.123  1.00  0.00    -0.200 F 
ENDBRANCH  63  86
ENDBRANCH  37  38
ENDBRANCH  30  32
ENDBRANCH  29  30
ENDBRANCH  28  29
ENDBRANCH  27  28
ENDBRANCH  26  27
ENDBRANCH   1  26
TORSDOF 17
ENDMDL
MODEL 2
REMARK VINA RESULT:     -11.8      2.601      8.477
REMARK SMILES CC(=O)N1CCN(C(=O)c2ccc(=O)n(CCC(=O)OCCOCCOC(=O)c3ccc(-c4c5nc(c(-c6c(F)c(F)c(F)c(F)c6F)c6ccc([nH]6)c(-c6c(F)c(F)c(F)c(F)c6F)c6nc(c(-c7c(F)c(F)c(F)c(F)c7F)c7ccc4[nH]7)C=C6)C=C5)cc3)n2)CC1
REMARK SMILES IDX 22 1 21 2 20 3 18 4 19 5 17 6 16 7 15 8 10 9 11 10 92 11
REMARK SMILES IDX 12 12 13 13 14 14 8 15 1 16 2 17 3 18 4 19 5 20 94 21 6 22
REMARK SMILES IDX 93 23 7 24 9 25 23 26 24 27 25 28 26 29 27 30 28 31 29 32
REMARK SMILES IDX 30 33 91 34 31 35 90 36 32 37 33 38 34 39 84 40 35 41 89 42
REMARK SMILES IDX 83 43 85 44 36 45 88 46 82 47 81 48 37 50 69 51 49 52 68 53
REMARK SMILES IDX 50 54 53 55 67 56 86 57 51 58 52 59 66 61 87 62 54 63 38 64
REMARK SMILES IDX 39 65 47 66 40 67 41 68 45 69 48 70 42 71 43 72 46 73 44 74
REMARK SMILES IDX 70 75 71 76 79 77 72 78 73 79 77 80 80 81 74 82 75 83 78 84
REMARK SMILES IDX 76 85 55 86 56 87 64 88 57 89 58 90 62 91 65 92 59 93 60 94
REMARK SMILES IDX 63 95 61 96
REMARK H PARENT 85 49 53 60
REMARK Flexibility Score: inf
ROOT
ATOM      1  C   UNL A   1      33.315  28.962  23.519  1.00  0.00     0.202 C 
ENDROOT
BRANCH   1   2
ATOM      2  C   UNL A   1      33.755  28.014  22.389  1.00  0.00     0.261 C 
BRANCH   2   3
ATOM      3  O   UNL A   1      33.469  26.623  22.648  1.00  0.00    -0.463 OA
BRANCH   3   4
ATOM      4  C   UNL A   1      32.810  25.930  21.690  1.00  0.00     0.307 C 
ATOM      5  O   UNL A   1      33.179  25.821  20.527  1.00  0.00    -0.252 OA
BRANCH   4   6
ATOM      6  C   UNL A   1      31.517  25.331  22.201  1.00  0.00     0.146 C 
BRANCH   6   7
ATOM      7  C   UNL A   1      31.070  25.788  23.591  1.00  0.00     0.160 C 
BRANCH   7   8
ATOM      8  N   UNL A   1      31.152  24.745  24.617  1.00  0.00    -0.229 N 
ATOM      9  C   UNL A   1      32.095  22.790  25.310  1.00  0.00     0.149 A 
ATOM     10  C   UNL A   1      31.189  22.666  26.464  1.00  0.00     0.042 A 
ATOM     11  N   UNL A   1      32.057  23.719  24.403  1.00  0.00    -0.164 NA
ATOM     12  C   UNL A   1      30.398  23.710  26.684  1.00  0.00     0.076 A 
ATOM     13  C   UNL A   1      30.493  24.899  25.823  1.00  0.00     0.266 A 
ATOM     14  O   UNL A   1      29.980  25.935  26.217  1.00  0.00    -0.268 OA
BRANCH   9  15
ATOM     15  C   UNL A   1      33.150  21.719  25.240  1.00  0.00     0.274 C 
ATOM     16  C   UNL A   1      38.828  23.970  26.857  1.00  0.00     0.114 C 
ATOM     17  C   UNL A   1      38.431  22.802  25.995  1.00  0.00     0.219 C 
ATOM     18  O   UNL A   1      39.255  21.925  25.736  1.00  0.00    -0.275 OA
ATOM     19  N   UNL A   1      37.112  22.725  25.589  1.00  0.00    -0.339 N 
ATOM     20  C   UNL A   1      36.625  21.467  25.007  1.00  0.00     0.141 C 
ATOM     21  C   UNL A   1      36.102  23.794  25.674  1.00  0.00     0.141 C 
ATOM     22  C   UNL A   1      35.415  20.971  25.805  1.00  0.00     0.141 C 
ATOM     23  C   UNL A   1      34.809  23.305  26.359  1.00  0.00     0.141 C 
ATOM     24  N   UNL A   1      34.378  22.003  25.819  1.00  0.00    -0.334 N 
ATOM     25  O   UNL A   1      32.826  20.645  24.748  1.00  0.00    -0.267 OA
ENDBRANCH   9  15
ENDBRANCH   7   8
ENDBRANCH   6   7
ENDBRANCH   4   6
ENDBRANCH   3   4
ENDBRANCH   2   3
ENDBRANCH   1   2
BRANCH   1  26
ATOM     26  O   UNL A   1      31.907  29.096  23.708  1.00  0.00    -0.374 OA
BRANCH  26  27
ATOM     27  C   UNL A   1      31.461  29.187  25.060  1.00  0.00     0.202 C 
BRANCH  27  28
ATOM     28  C   UNL A   1      31.816  30.491  25.796  1.00  0.00     0.261 C 
BRANCH  28  29
ATOM     29  O   UNL A   1      32.827  30.302  26.805  1.00  0.00    -0.460 OA
BRANCH  29  30
ATOM     30  C   UNL A   1      33.441  31.425  27.248  1.00  0.00     0.338 C 
ATOM     31  O   UNL A   1      32.969  32.546  27.284  1.00  0.00    -0.246 OA
BRANCH  30  32
ATOM     32  C   UNL A   1      34.748  31.085  27.873  1.00  0.00     0.060 A 
ATOM     33  C   UNL A   1      35.722  32.038  28.180  1.00  0.00     0.016 A 
ATOM     34  C   UNL A   1      34.997  29.732  28.145  1.00  0.00     0.016 A 
ATOM     35  C   UNL A   1      36.933  31.634  28.765  1.00  0.00     0.010 A 
ATOM     36  C   UNL A   1      36.198  29.332  28.741  1.00  0.00     0.010 A 
ATOM     37  C   UNL A   1      37.178  30.278  29.067  1.00  0.00    -0.014 A 
BRANCH  37  38
ATOM     38  C   UNL A   1      38.382  29.870  29.846  1.00  0.00     0.031 A 
ATOM     39  C   UNL A   1      39.394  28.887  29.324  1.00  0.00     0.074 A 
ATOM     40  C   UNL A   1      38.533  30.362  31.091  1.00  0.00     0.049 A 
ATOM     41  N   UNL A   1      40.503  28.468  29.887  1.00  0.00    -0.248 NA
ATOM     42  C   UNL A   1      39.133  28.293  28.007  1.00  0.00     0.031 C 
ATOM     43  C   UNL A   1      37.601  31.281  31.743  1.00  0.00     0.029 A 
ATOM     44  N   UNL A   1      39.516  30.161  32.028  1.00  0.00    -0.354 N 
ATOM     45  C   UNL A   1      41.079  27.576  28.993  1.00  0.00     0.074 A 
ATOM     46  C   UNL A   1      40.172  27.480  27.865  1.00  0.00     0.031 C 
ATOM     47  C   UNL A   1      38.075  31.598  32.956  1.00  0.00     0.029 A 
ATOM     48  C   UNL A   1      39.319  30.869  33.188  1.00  0.00     0.049 A 
ATOM     49  H   UNL A   1      40.288  29.567  31.883  1.00  0.00     0.167 HD
ATOM     50  C   UNL A   1      42.257  26.911  29.094  1.00  0.00     0.037 A 
ATOM     51  C   UNL A   1      40.048  30.929  34.318  1.00  0.00     0.037 A 
ATOM     52  C   UNL A   1      43.144  26.974  30.232  1.00  0.00     0.049 A 
ATOM     53  C   UNL A   1      41.318  30.136  34.434  1.00  0.00     0.074 A 
ATOM     54  C   UNL A   1      44.377  26.363  30.400  1.00  0.00     0.029 A 
ATOM     55  N   UNL A   1      42.888  27.668  31.406  1.00  0.00    -0.354 N 
ATOM     56  N   UNL A   1      41.892  29.364  33.545  1.00  0.00    -0.248 NA
ATOM     57  C   UNL A   1      42.041  30.226  35.709  1.00  0.00     0.031 C 
ATOM     58  C   UNL A   1      44.834  26.634  31.694  1.00  0.00     0.029 A 
ATOM     59  C   UNL A   1      43.920  27.469  32.313  1.00  0.00     0.049 A 
ATOM     60  H   UNL A   1      42.090  28.220  31.572  1.00  0.00     0.167 HD
ATOM     61  C   UNL A   1      43.051  28.888  34.145  1.00  0.00     0.074 A 
ATOM     62  C   UNL A   1      43.108  29.476  35.467  1.00  0.00     0.031 C 
ATOM     63  C   UNL A   1      43.979  28.042  33.636  1.00  0.00     0.037 A 
BRANCH  50  64
ATOM     64  C   UNL A   1      42.673  26.045  27.934  1.00  0.00     0.064 A 
ATOM     65  C   UNL A   1      42.263  24.706  27.841  1.00  0.00     0.173 A 
ATOM     66  C   UNL A   1      43.425  26.572  26.872  1.00  0.00     0.173 A 
ATOM     67  F   UNL A   1      41.544  24.149  28.828  1.00  0.00    -0.203 F 
ATOM     68  C   UNL A   1      42.616  23.919  26.746  1.00  0.00     0.198 A 
ATOM     69  C   UNL A   1      43.747  25.793  25.763  1.00  0.00     0.198 A 
ATOM     70  F   UNL A   1      43.830  27.850  26.898  1.00  0.00    -0.203 F 
ATOM     71  F   UNL A   1      42.251  22.631  26.704  1.00  0.00    -0.200 F 
ATOM     72  C   UNL A   1      43.351  24.465  25.704  1.00  0.00     0.200 A 
ATOM     73  F   UNL A   1      44.442  26.328  24.749  1.00  0.00    -0.200 F 
ATOM     74  F   UNL A   1      43.682  23.710  24.647  1.00  0.00    -0.200 F 
ENDBRANCH  50  64
BRANCH  51  75
ATOM     75  C   UNL A   1      39.601  31.828  35.412  1.00  0.00     0.064 A 
ATOM     76  C   UNL A   1      40.067  33.147  35.483  1.00  0.00     0.173 A 
ATOM     77  C   UNL A   1      38.651  31.416  36.358  1.00  0.00     0.173 A 
ATOM     78  F   UNL A   1      40.988  33.579  34.610  1.00  0.00    -0.203 F 
ATOM     79  C   UNL A   1      39.594  34.023  36.456  1.00  0.00     0.198 A 
ATOM     80  C   UNL A   1      38.157  32.301  37.312  1.00  0.00     0.198 A 
ATOM     81  F   UNL A   1      38.169  30.164  36.323  1.00  0.00    -0.203 F 
ATOM     82  F   UNL A   1      40.066  35.276  36.512  1.00  0.00    -0.200 F 
ATOM     83  C   UNL A   1      38.630  33.605  37.361  1.00  0.00     0.200 A 
ATOM     84  F   UNL A   1      37.210  31.900  38.170  1.00  0.00    -0.200 F 
ATOM     85  F   UNL A   1      38.153  34.458  38.277  1.00  0.00    -0.200 F 
ENDBRANCH  51  75
BRANCH  63  86
ATOM     86  C   UNL A   1      45.157  27.693  34.504  1.00  0.00     0.064 A 
ATOM     87  C   UNL A   1      45.151  26.563  35.335  1.00  0.00     0.173 A 
ATOM     88  C   UNL A   1      46.332  28.460  34.456  1.00  0.00     0.173 A 
ATOM     89  F   UNL A   1      44.050  25.803  35.432  1.00  0.00    -0.203 F 
ATOM     90  C   UNL A   1      46.268  26.222  36.095  1.00  0.00     0.198 A 
ATOM     91  C   UNL A   1      47.458  28.099  35.192  1.00  0.00     0.198 A 
ATOM     92  F   UNL A   1      46.396  29.550  33.676  1.00  0.00    -0.203 F 
ATOM     93  F   UNL A   1      46.223  25.160  36.910  1.00  0.00    -0.200 F 
ATOM     94  C   UNL A   1      47.425  26.984  36.014  1.00  0.00     0.200 A 
ATOM     95  F   UNL A   1      48.579  28.829  35.101  1.00  0.00    -0.200 F 
ATOM     96  F   UNL A   1      48.504  26.646  36.733  1.00  0.00    -0.200 F 
ENDBRANCH  63  86
ENDBRANCH  37  38
ENDBRANCH  30  32
ENDBRANCH  29  30
ENDBRANCH  28  29
ENDBRANCH  27  28
ENDBRANCH  26  27
ENDBRANCH   1  26
TORSDOF 17
ENDMDL
MODEL 3
REMARK VINA RESULT:     -11.8      0.447      7.100
REMARK SMILES CC(=O)N1CCN(C(=O)c2ccc(=O)n(CCC(=O)OCCOCCOC(=O)c3ccc(-c4c5nc(c(-c6c(F)c(F)c(F)c(F)c6F)c6ccc([nH]6)c(-c6c(F)c(F)c(F)c(F)c6F)c6nc(c(-c7c(F)c(F)c(F)c(F)c7F)c7ccc4[nH]7)C=C6)C=C5)cc3)n2)CC1
REMARK SMILES IDX 22 1 21 2 20 3 18 4 19 5 17 6 16 7 15 8 10 9 11 10 92 11
REMARK SMILES IDX 12 12 13 13 14 14 8 15 1 16 2 17 3 18 4 19 5 20 94 21 6 22
REMARK SMILES IDX 93 23 7 24 9 25 23 26 24 27 25 28 26 29 27 30 28 31 29 32
REMARK SMILES IDX 30 33 91 34 31 35 90 36 32 37 33 38 34 39 84 40 35 41 89 42
REMARK SMILES IDX 83 43 85 44 36 45 88 46 82 47 81 48 37 50 69 51 49 52 68 53
REMARK SMILES IDX 50 54 53 55 67 56 86 57 51 58 52 59 66 61 87 62 54 63 38 64
REMARK SMILES IDX 39 65 47 66 40 67 41 68 45 69 48 70 42 71 43 72 46 73 44 74
REMARK SMILES IDX 70 75 71 76 79 77 72 78 73 79 77 80 80 81 74 82 75 83 78 84
REMARK SMILES IDX 76 85 55 86 56 87 64 88 57 89 58 90 62 91 65 92 59 93 60 94
REMARK SMILES IDX 63 95 61 96
REMARK H PARENT 85 49 53 60
REMARK Flexibility Score: inf
ROOT
ATOM      1  C   UNL A   1      40.916  21.258  26.567  1.00  0.00     0.202 C 
ENDROOT
BRANCH   1   2
ATOM      2  C   UNL A   1      39.605  21.465  25.788  1.00  0.00     0.261 C 
BRANCH   2   3
ATOM      3  O   UNL A   1      38.661  22.331  26.454  1.00  0.00    -0.463 OA
BRANCH   3   4
ATOM      4  C   UNL A   1      37.586  22.748  25.744  1.00  0.00     0.307 C 
ATOM      5  O   UNL A   1      37.006  23.813  25.915  1.00  0.00    -0.252 OA
BRANCH   4   6
ATOM      6  C   UNL A   1      37.134  21.720  24.729  1.00  0.00     0.146 C 
BRANCH   6   7
ATOM      7  C   UNL A   1      36.010  20.784  25.178  1.00  0.00     0.160 C 
BRANCH   7   8
ATOM      8  N   UNL A   1      34.687  21.153  24.670  1.00  0.00    -0.229 N 
ATOM      9  C   UNL A   1      33.432  22.578  23.410  1.00  0.00     0.149 A 
ATOM     10  C   UNL A   1      32.161  21.975  23.844  1.00  0.00     0.042 A 
ATOM     11  N   UNL A   1      34.618  22.251  23.828  1.00  0.00    -0.164 NA
ATOM     12  C   UNL A   1      32.274  20.875  24.579  1.00  0.00     0.076 A 
ATOM     13  C   UNL A   1      33.603  20.319  24.874  1.00  0.00     0.266 A 
ATOM     14  O   UNL A   1      33.667  19.172  25.287  1.00  0.00    -0.268 OA
BRANCH   9  15
ATOM     15  C   UNL A   1      33.277  23.660  22.374  1.00  0.00     0.274 C 
ATOM     16  C   UNL A   1      31.403  29.097  24.991  1.00  0.00     0.114 C 
ATOM     17  C   UNL A   1      31.249  28.562  23.593  1.00  0.00     0.219 C 
ATOM     18  O   UNL A   1      30.970  29.330  22.671  1.00  0.00    -0.275 OA
ATOM     19  N   UNL A   1      31.509  27.220  23.388  1.00  0.00    -0.339 N 
ATOM     20  C   UNL A   1      31.658  26.733  22.010  1.00  0.00     0.141 C 
ATOM     21  C   UNL A   1      31.658  26.186  24.426  1.00  0.00     0.141 C 
ATOM     22  C   UNL A   1      33.017  26.042  21.859  1.00  0.00     0.141 C 
ATOM     23  C   UNL A   1      32.956  25.373  24.240  1.00  0.00     0.141 C 
ATOM     24  N   UNL A   1      33.131  24.959  22.837  1.00  0.00    -0.334 N 
ATOM     25  O   UNL A   1      33.369  23.328  21.199  1.00  0.00    -0.267 OA
ENDBRANCH   9  15
ENDBRANCH   7   8
ENDBRANCH   6   7
ENDBRANCH   4   6
ENDBRANCH   3   4
ENDBRANCH   2   3
ENDBRANCH   1   2
BRANCH   1  26
ATOM     26  O   UNL A   1      41.944  20.545  25.879  1.00  0.00    -0.374 OA
BRANCH  26  27
ATOM     27  C   UNL A   1      43.271  21.041  26.044  1.00  0.00     0.202 C 
BRANCH  27  28
ATOM     28  C   UNL A   1      43.800  21.931  24.905  1.00  0.00     0.261 C 
BRANCH  28  29
ATOM     29  O   UNL A   1      43.109  23.192  24.818  1.00  0.00    -0.460 OA
BRANCH  29  30
ATOM     30  C   UNL A   1      43.843  24.292  25.109  1.00  0.00     0.338 C 
ATOM     31  O   UNL A   1      44.835  24.681  24.522  1.00  0.00    -0.246 OA
BRANCH  30  32
ATOM     32  C   UNL A   1      43.167  25.097  26.162  1.00  0.00     0.060 A 
ATOM     33  C   UNL A   1      42.134  24.601  26.962  1.00  0.00     0.016 A 
ATOM     34  C   UNL A   1      43.596  26.421  26.332  1.00  0.00     0.016 A 
ATOM     35  C   UNL A   1      41.545  25.429  27.932  1.00  0.00     0.010 A 
ATOM     36  C   UNL A   1      43.018  27.240  27.308  1.00  0.00     0.010 A 
ATOM     37  C   UNL A   1      41.992  26.752  28.127  1.00  0.00    -0.014 A 
BRANCH  37  38
ATOM     38  C   UNL A   1      41.492  27.571  29.268  1.00  0.00     0.031 A 
ATOM     39  C   UNL A   1      40.280  28.457  29.166  1.00  0.00     0.074 A 
ATOM     40  C   UNL A   1      42.194  27.557  30.419  1.00  0.00     0.049 A 
ATOM     41  N   UNL A   1      39.721  29.199  30.093  1.00  0.00    -0.248 NA
ATOM     42  C   UNL A   1      39.610  28.525  27.861  1.00  0.00     0.031 C 
ATOM     43  C   UNL A   1      43.417  26.787  30.639  1.00  0.00     0.029 A 
ATOM     44  N   UNL A   1      41.985  28.205  31.611  1.00  0.00    -0.354 N 
ATOM     45  C   UNL A   1      38.628  29.810  29.492  1.00  0.00     0.074 A 
ATOM     46  C   UNL A   1      38.629  29.385  28.105  1.00  0.00     0.031 C 
ATOM     47  C   UNL A   1      43.828  26.972  31.901  1.00  0.00     0.029 A 
ATOM     48  C   UNL A   1      42.927  27.910  32.565  1.00  0.00     0.049 A 
ATOM     49  H   UNL A   1      41.233  28.821  31.767  1.00  0.00     0.167 HD
ATOM     50  C   UNL A   1      37.704  30.635  30.046  1.00  0.00     0.037 A 
ATOM     51  C   UNL A   1      43.064  28.343  33.832  1.00  0.00     0.037 A 
ATOM     52  C   UNL A   1      37.722  31.091  31.416  1.00  0.00     0.049 A 
ATOM     53  C   UNL A   1      42.064  29.305  34.407  1.00  0.00     0.074 A 
ATOM     54  C   UNL A   1      36.802  31.897  32.069  1.00  0.00     0.029 A 
ATOM     55  N   UNL A   1      38.718  30.805  32.339  1.00  0.00    -0.354 N 
ATOM     56  N   UNL A   1      40.989  29.806  33.852  1.00  0.00    -0.248 NA
ATOM     57  C   UNL A   1      42.297  29.758  35.785  1.00  0.00     0.031 C 
ATOM     58  C   UNL A   1      37.272  32.149  33.362  1.00  0.00     0.029 A 
ATOM     59  C   UNL A   1      38.453  31.448  33.542  1.00  0.00     0.049 A 
ATOM     60  H   UNL A   1      39.498  30.231  32.167  1.00  0.00     0.167 HD
ATOM     61  C   UNL A   1      40.407  30.621  34.815  1.00  0.00     0.074 A 
ATOM     62  C   UNL A   1      41.239  30.529  35.997  1.00  0.00     0.031 C 
ATOM     63  C   UNL A   1      39.282  31.371  34.719  1.00  0.00     0.037 A 
BRANCH  50  64
ATOM     64  C   UNL A   1      36.575  31.109  29.169  1.00  0.00     0.064 A 
ATOM     65  C   UNL A   1      35.528  30.250  28.801  1.00  0.00     0.173 A 
ATOM     66  C   UNL A   1      36.498  32.447  28.750  1.00  0.00     0.173 A 
ATOM     67  F   UNL A   1      35.551  28.960  29.172  1.00  0.00    -0.203 F 
ATOM     68  C   UNL A   1      34.465  30.703  28.022  1.00  0.00     0.198 A 
ATOM     69  C   UNL A   1      35.417  32.905  28.000  1.00  0.00     0.198 A 
ATOM     70  F   UNL A   1      37.461  33.318  29.086  1.00  0.00    -0.203 F 
ATOM     71  F   UNL A   1      33.502  29.850  27.646  1.00  0.00    -0.200 F 
ATOM     72  C   UNL A   1      34.406  32.031  27.630  1.00  0.00     0.200 A 
ATOM     73  F   UNL A   1      35.352  34.194  27.638  1.00  0.00    -0.200 F 
ATOM     74  F   UNL A   1      33.377  32.468  26.889  1.00  0.00    -0.200 F 
ENDBRANCH  50  64
BRANCH  51  75
ATOM     75  C   UNL A   1      44.179  27.811  34.656  1.00  0.00     0.064 A 
ATOM     76  C   UNL A   1      44.055  26.579  35.310  1.00  0.00     0.173 A 
ATOM     77  C   UNL A   1      45.409  28.481  34.745  1.00  0.00     0.173 A 
ATOM     78  F   UNL A   1      42.894  25.912  35.267  1.00  0.00    -0.203 F 
ATOM     79  C   UNL A   1      45.123  26.033  36.018  1.00  0.00     0.198 A 
ATOM     80  C   UNL A   1      46.483  27.920  35.428  1.00  0.00     0.198 A 
ATOM     81  F   UNL A   1      45.576  29.660  34.126  1.00  0.00    -0.203 F 
ATOM     82  F   UNL A   1      44.974  24.860  36.648  1.00  0.00    -0.200 F 
ATOM     83  C   UNL A   1      46.340  26.696  36.066  1.00  0.00     0.200 A 
ATOM     84  F   UNL A   1      47.664  28.554  35.453  1.00  0.00    -0.200 F 
ATOM     85  F   UNL A   1      47.375  26.155  36.721  1.00  0.00    -0.200 F 
ENDBRANCH  51  75
BRANCH  63  86
ATOM     86  C   UNL A   1      38.864  32.161  35.929  1.00  0.00     0.064 A 
ATOM     87  C   UNL A   1      38.147  31.572  36.981  1.00  0.00     0.173 A 
ATOM     88  C   UNL A   1      39.240  33.506  36.069  1.00  0.00     0.173 A 
ATOM     89  F   UNL A   1      37.749  30.294  36.894  1.00  0.00    -0.203 F 
ATOM     90  C   UNL A   1      37.810  32.302  38.120  1.00  0.00     0.198 A 
ATOM     91  C   UNL A   1      38.929  34.224  37.222  1.00  0.00     0.198 A 
ATOM     92  F   UNL A   1      39.929  34.121  35.096  1.00  0.00    -0.203 F 
ATOM     93  F   UNL A   1      37.092  31.726  39.093  1.00  0.00    -0.200 F 
ATOM     94  C   UNL A   1      38.211  33.623  38.244  1.00  0.00     0.200 A 
ATOM     95  F   UNL A   1      39.330  35.497  37.346  1.00  0.00    -0.200 F 
ATOM     96  F   UNL A   1      37.901  34.319  39.347  1.00  0.00    -0.200 F 
ENDBRANCH  63  86
ENDBRANCH  37  38
ENDBRANCH  30  32
ENDBRANCH  29  30
ENDBRANCH  28  29
ENDBRANCH  27  28
ENDBRANCH  26  27
ENDBRANCH   1  26
TORSDOF 17
ENDMDL
