MODEL 1
REMARK VINA RESULT:     -10.9      0.000      0.000
REMARK SMILES CC[NH2+][C@]1(C(=O)OCCOCCOC(=O)c2ccc(-c3c4nc(c(-c5c(F)c(F)c(F)c(F)c5F)c5ccc([nH]5)c(-c5c(F)c(F)c(F)c(F)c5F)c5nc(c(-c6c(F)c(F)c(F)c(F)c6F)c6ccc3[nH]6)C=C5)C=C4)cc2)CCC[C@H]1CCSc1ccc(Cl)cc1
REMARK SMILES IDX 9 1 8 2 7 3 5 4 6 5 4 6 79 7 82 8 80 9 81 10 3 11 2 14 1 15
REMARK SMILES IDX 83 16 84 17 85 18 86 19 87 20 92 21 88 22 91 23 89 24 90 25
REMARK SMILES IDX 10 26 11 27 12 28 13 29 14 30 15 31 16 32 17 33 78 34 18 35
REMARK SMILES IDX 77 36 19 37 20 38 21 39 71 40 22 41 76 42 70 43 72 44 23 45
REMARK SMILES IDX 75 46 69 47 68 48 24 50 56 51 36 52 55 53 37 54 40 55 54 56
REMARK SMILES IDX 73 57 38 58 39 59 53 61 74 62 41 63 25 64 26 65 34 66 27 67
REMARK SMILES IDX 28 68 32 69 35 70 29 71 30 72 33 73 31 74 57 75 58 76 66 77
REMARK SMILES IDX 59 78 60 79 64 80 67 81 61 82 62 83 65 84 63 85 42 86 43 87
REMARK SMILES IDX 51 88 44 89 45 90 49 91 52 92 46 93 47 94 50 95 48 96
REMARK H PARENT 3 12 3 13 72 49 40 60
REMARK Flexibility Score: inf
ROOT
ATOM      1  C   UNL A   1      31.855  29.618  25.840  1.00  0.00     0.202 C 
ENDROOT
BRANCH   1   2
ATOM      2  C   UNL A   1      32.522  28.359  26.385  1.00  0.00     0.261 C 
BRANCH   2   3
ATOM      3  O   UNL A   1      32.440  27.318  25.385  1.00  0.00    -0.459 OA
BRANCH   3   4
ATOM      4  C   UNL A   1      31.574  26.310  25.610  1.00  0.00     0.368 C 
ATOM      5  O   UNL A   1      30.864  26.237  26.610  1.00  0.00    -0.245 OA
BRANCH   4   6
ATOM      6  C   UNL A   1      31.474  25.305  24.425  1.00  0.00     0.197 C 
ATOM      7  C   UNL A   1      32.654  25.481  23.450  1.00  0.00     0.081 C 
ATOM      8  C   UNL A   1      31.521  23.755  24.658  1.00  0.00     0.063 C 
ATOM      9  C   UNL A   1      32.504  24.329  22.455  1.00  0.00     0.008 C 
ATOM     10  C   UNL A   1      31.694  23.252  23.189  1.00  0.00     0.011 C 
BRANCH   6  11
ATOM     11  N   UNL A   1      30.274  25.736  23.612  1.00  0.00    -0.332 N 
ATOM     12  H   UNL A   1      30.485  25.589  22.625  1.00  0.00     0.347 HD
ATOM     13  H   UNL A   1      29.483  25.177  23.931  1.00  0.00     0.347 HD
BRANCH  11  14
ATOM     14  C   UNL A   1      29.906  27.138  23.799  1.00  0.00     0.257 C 
ATOM     15  C   UNL A   1      30.269  27.955  22.571  1.00  0.00     0.071 C 
ENDBRANCH  11  14
ENDBRANCH   6  11
BRANCH   8  16
ATOM     16  C   UNL A   1      32.673  23.097  25.478  1.00  0.00     0.022 C 
BRANCH  16  17
ATOM     17  C   UNL A   1      32.861  21.578  25.596  1.00  0.00     0.075 C 
BRANCH  17  18
ATOM     18  S   UNL A   1      34.204  20.786  24.652  1.00  0.00    -0.126 SA
BRANCH  18  19
ATOM     19  C   UNL A   1      33.920  19.044  24.869  1.00  0.00     0.007 A 
ATOM     20  C   UNL A   1      34.688  18.046  24.261  1.00  0.00     0.016 A 
ATOM     21  C   UNL A   1      32.789  18.675  25.607  1.00  0.00     0.016 A 
ATOM     22  C   UNL A   1      34.343  16.696  24.415  1.00  0.00     0.021 A 
ATOM     23  C   UNL A   1      32.442  17.333  25.765  1.00  0.00     0.021 A 
ATOM     24  C   UNL A   1      33.219  16.347  25.164  1.00  0.00     0.041 A 
ATOM     25  Cl  UNL A   1      32.799  14.692  25.373  1.00  0.00    -0.084 Cl
ENDBRANCH  18  19
ENDBRANCH  17  18
ENDBRANCH  16  17
ENDBRANCH   8  16
ENDBRANCH   4   6
ENDBRANCH   3   4
ENDBRANCH   2   3
ENDBRANCH   1   2
BRANCH   1  26
ATOM     26  O   UNL A   1      32.200  30.808  26.552  1.00  0.00    -0.374 OA
BRANCH  26  27
ATOM     27  C   UNL A   1      31.242  31.863  26.532  1.00  0.00     0.202 C 
BRANCH  27  28
ATOM     28  C   UNL A   1      31.771  33.218  27.009  1.00  0.00     0.261 C 
BRANCH  28  29
ATOM     29  O   UNL A   1      33.211  33.279  26.996  1.00  0.00    -0.460 OA
BRANCH  29  30
ATOM     30  C   UNL A   1      33.761  33.522  28.210  1.00  0.00     0.338 C 
ATOM     31  O   UNL A   1      33.266  34.150  29.130  1.00  0.00    -0.246 OA
BRANCH  30  32
ATOM     32  C   UNL A   1      35.057  32.827  28.356  1.00  0.00     0.060 A 
ATOM     33  C   UNL A   1      35.013  31.467  28.683  1.00  0.00     0.016 A 
ATOM     34  C   UNL A   1      36.278  33.506  28.319  1.00  0.00     0.016 A 
ATOM     35  C   UNL A   1      36.174  30.804  29.069  1.00  0.00     0.010 A 
ATOM     36  C   UNL A   1      37.448  32.837  28.704  1.00  0.00     0.010 A 
ATOM     37  C   UNL A   1      37.388  31.501  29.140  1.00  0.00    -0.014 A 
BRANCH  37  38
ATOM     38  C   UNL A   1      38.526  30.871  29.857  1.00  0.00     0.031 A 
ATOM     39  C   UNL A   1      38.738  31.193  31.314  1.00  0.00     0.074 A 
ATOM     40  C   UNL A   1      39.303  29.957  29.252  1.00  0.00     0.049 A 
ATOM     41  N   UNL A   1      39.616  30.708  32.156  1.00  0.00    -0.248 NA
ATOM     42  C   UNL A   1      37.839  32.198  31.902  1.00  0.00     0.031 C 
ATOM     43  C   UNL A   1      39.183  29.536  27.859  1.00  0.00     0.029 A 
ATOM     44  N   UNL A   1      40.344  29.209  29.744  1.00  0.00    -0.354 N 
ATOM     45  C   UNL A   1      39.374  31.345  33.367  1.00  0.00     0.074 A 
ATOM     46  C   UNL A   1      38.294  32.282  33.142  1.00  0.00     0.031 C 
ATOM     47  C   UNL A   1      40.111  28.597  27.606  1.00  0.00     0.029 A 
ATOM     48  C   UNL A   1      40.900  28.366  28.815  1.00  0.00     0.049 A 
ATOM     49  H   UNL A   1      40.661  29.272  30.674  1.00  0.00     0.167 HD
ATOM     50  C   UNL A   1      39.981  31.155  34.562  1.00  0.00     0.037 A 
ATOM     51  C   UNL A   1      41.931  27.505  28.931  1.00  0.00     0.037 A 
ATOM     52  C   UNL A   1      41.048  30.218  34.793  1.00  0.00     0.049 A 
ATOM     53  C   UNL A   1      42.617  27.342  30.262  1.00  0.00     0.074 A 
ATOM     54  C   UNL A   1      41.716  29.941  35.974  1.00  0.00     0.029 A 
ATOM     55  N   UNL A   1      41.606  29.404  33.819  1.00  0.00    -0.354 N 
ATOM     56  N   UNL A   1      42.358  27.925  31.408  1.00  0.00    -0.248 NA
ATOM     57  C   UNL A   1      43.734  26.388  30.317  1.00  0.00     0.031 C 
ATOM     58  C   UNL A   1      42.706  28.990  35.705  1.00  0.00     0.029 A 
ATOM     59  C   UNL A   1      42.624  28.638  34.367  1.00  0.00     0.049 A 
ATOM     60  H   UNL A   1      41.321  29.374  32.877  1.00  0.00     0.167 HD
ATOM     61  C   UNL A   1      43.258  27.391  32.321  1.00  0.00     0.074 A 
ATOM     62  C   UNL A   1      44.058  26.424  31.601  1.00  0.00     0.031 C 
ATOM     63  C   UNL A   1      43.409  27.677  33.638  1.00  0.00     0.037 A 
BRANCH  50  64
ATOM     64  C   UNL A   1      39.514  31.995  35.714  1.00  0.00     0.064 A 
ATOM     65  C   UNL A   1      38.515  31.550  36.593  1.00  0.00     0.173 A 
ATOM     66  C   UNL A   1      40.091  33.251  35.959  1.00  0.00     0.173 A 
ATOM     67  F   UNL A   1      37.921  30.364  36.395  1.00  0.00    -0.203 F 
ATOM     68  C   UNL A   1      38.093  32.342  37.660  1.00  0.00     0.198 A 
ATOM     69  C   UNL A   1      39.686  34.027  37.041  1.00  0.00     0.198 A 
ATOM     70  F   UNL A   1      41.052  33.723  35.150  1.00  0.00    -0.203 F 
ATOM     71  F   UNL A   1      37.106  31.916  38.459  1.00  0.00    -0.200 F 
ATOM     72  C   UNL A   1      38.684  33.576  37.886  1.00  0.00     0.200 A 
ATOM     73  F   UNL A   1      40.263  35.217  37.264  1.00  0.00    -0.200 F 
ATOM     74  F   UNL A   1      38.280  34.334  38.914  1.00  0.00    -0.200 F 
ENDBRANCH  50  64
BRANCH  51  75
ATOM     75  C   UNL A   1      42.375  26.719  27.751  1.00  0.00     0.064 A 
ATOM     76  C   UNL A   1      41.751  25.512  27.407  1.00  0.00     0.173 A 
ATOM     77  C   UNL A   1      43.451  27.147  26.960  1.00  0.00     0.173 A 
ATOM     78  F   UNL A   1      40.735  25.048  28.150  1.00  0.00    -0.203 F 
ATOM     79  C   UNL A   1      42.199  24.753  26.328  1.00  0.00     0.198 A 
ATOM     80  C   UNL A   1      43.881  26.401  25.866  1.00  0.00     0.198 A 
ATOM     81  F   UNL A   1      44.084  28.293  27.252  1.00  0.00    -0.203 F 
ATOM     82  F   UNL A   1      41.616  23.579  26.051  1.00  0.00    -0.200 F 
ATOM     83  C   UNL A   1      43.260  25.201  25.555  1.00  0.00     0.200 A 
ATOM     84  F   UNL A   1      44.901  26.840  25.117  1.00  0.00    -0.200 F 
ATOM     85  F   UNL A   1      43.691  24.469  24.519  1.00  0.00    -0.200 F 
ENDBRANCH  51  75
BRANCH  63  86
ATOM     86  C   UNL A   1      44.460  26.911  34.391  1.00  0.00     0.064 A 
ATOM     87  C   UNL A   1      45.769  27.397  34.529  1.00  0.00     0.173 A 
ATOM     88  C   UNL A   1      44.148  25.684  34.998  1.00  0.00     0.173 A 
ATOM     89  F   UNL A   1      46.121  28.557  33.957  1.00  0.00    -0.203 F 
ATOM     90  C   UNL A   1      46.735  26.666  35.216  1.00  0.00     0.198 A 
ATOM     91  C   UNL A   1      45.108  24.971  35.710  1.00  0.00     0.198 A 
ATOM     92  F   UNL A   1      42.908  25.178  34.904  1.00  0.00    -0.203 F 
ATOM     93  F   UNL A   1      47.992  27.122  35.287  1.00  0.00    -0.200 F 
ATOM     94  C   UNL A   1      46.403  25.456  35.810  1.00  0.00     0.200 A 
ATOM     95  F   UNL A   1      44.782  23.809  36.293  1.00  0.00    -0.200 F 
ATOM     96  F   UNL A   1      47.334  24.755  36.469  1.00  0.00    -0.200 F 
ENDBRANCH  63  86
ENDBRANCH  37  38
ENDBRANCH  30  32
ENDBRANCH  29  30
ENDBRANCH  28  29
ENDBRANCH  27  28
ENDBRANCH  26  27
ENDBRANCH   1  26
TORSDOF 20
ENDMDL
MODEL 2
REMARK VINA RESULT:     -10.8      2.802      4.593
REMARK SMILES CC[NH2+][C@]1(C(=O)OCCOCCOC(=O)c2ccc(-c3c4nc(c(-c5c(F)c(F)c(F)c(F)c5F)c5ccc([nH]5)c(-c5c(F)c(F)c(F)c(F)c5F)c5nc(c(-c6c(F)c(F)c(F)c(F)c6F)c6ccc3[nH]6)C=C5)C=C4)cc2)CCC[C@H]1CCSc1ccc(Cl)cc1
REMARK SMILES IDX 9 1 8 2 7 3 5 4 6 5 4 6 79 7 82 8 80 9 81 10 3 11 2 14 1 15
REMARK SMILES IDX 83 16 84 17 85 18 86 19 87 20 92 21 88 22 91 23 89 24 90 25
REMARK SMILES IDX 10 26 11 27 12 28 13 29 14 30 15 31 16 32 17 33 78 34 18 35
REMARK SMILES IDX 77 36 19 37 20 38 21 39 71 40 22 41 76 42 70 43 72 44 23 45
REMARK SMILES IDX 75 46 69 47 68 48 24 50 56 51 36 52 55 53 37 54 40 55 54 56
REMARK SMILES IDX 73 57 38 58 39 59 53 61 74 62 41 63 25 64 26 65 34 66 27 67
REMARK SMILES IDX 28 68 32 69 35 70 29 71 30 72 33 73 31 74 57 75 58 76 66 77
REMARK SMILES IDX 59 78 60 79 64 80 67 81 61 82 62 83 65 84 63 85 42 86 43 87
REMARK SMILES IDX 51 88 44 89 45 90 49 91 52 92 46 93 47 94 50 95 48 96
REMARK H PARENT 3 12 3 13 72 49 40 60
REMARK Flexibility Score: inf
ROOT
ATOM      1  C   UNL A   1      32.685  32.652  27.504  1.00  0.00     0.202 C 
ENDROOT
BRANCH   1   2
ATOM      2  C   UNL A   1      31.508  31.906  26.881  1.00  0.00     0.261 C 
BRANCH   2   3
ATOM      3  O   UNL A   1      32.020  30.842  26.047  1.00  0.00    -0.459 OA
BRANCH   3   4
ATOM      4  C   UNL A   1      32.101  29.612  26.592  1.00  0.00     0.368 C 
ATOM      5  O   UNL A   1      31.405  29.242  27.536  1.00  0.00    -0.245 OA
BRANCH   4   6
ATOM      6  C   UNL A   1      33.078  28.664  25.837  1.00  0.00     0.197 C 
ATOM      7  C   UNL A   1      33.137  27.280  26.513  1.00  0.00     0.081 C 
ATOM      8  C   UNL A   1      32.828  28.247  24.346  1.00  0.00     0.063 C 
ATOM      9  C   UNL A   1      33.990  26.430  25.570  1.00  0.00     0.008 C 
ATOM     10  C   UNL A   1      33.875  27.097  24.193  1.00  0.00     0.011 C 
BRANCH   6  11
ATOM     11  N   UNL A   1      34.463  29.228  26.060  1.00  0.00    -0.332 N 
ATOM     12  H   UNL A   1      35.142  28.579  25.662  1.00  0.00     0.347 HD
ATOM     13  H   UNL A   1      34.487  30.142  25.610  1.00  0.00     0.347 HD
BRANCH  11  14
ATOM     14  C   UNL A   1      34.797  29.437  27.466  1.00  0.00     0.257 C 
ATOM     15  C   UNL A   1      36.141  30.134  27.600  1.00  0.00     0.071 C 
ENDBRANCH  11  14
ENDBRANCH   6  11
BRANCH   8  16
ATOM     16  C   UNL A   1      31.460  27.647  23.896  1.00  0.00     0.022 C 
BRANCH  16  17
ATOM     17  C   UNL A   1      31.340  26.428  22.969  1.00  0.00     0.075 C 
BRANCH  17  18
ATOM     18  S   UNL A   1      30.269  25.044  23.477  1.00  0.00    -0.126 SA
BRANCH  18  19
ATOM     19  C   UNL A   1      31.232  24.171  24.690  1.00  0.00     0.007 A 
ATOM     20  C   UNL A   1      31.010  24.251  26.068  1.00  0.00     0.016 A 
ATOM     21  C   UNL A   1      32.340  23.455  24.221  1.00  0.00     0.016 A 
ATOM     22  C   UNL A   1      31.872  23.597  26.962  1.00  0.00     0.021 A 
ATOM     23  C   UNL A   1      33.199  22.802  25.106  1.00  0.00     0.021 A 
ATOM     24  C   UNL A   1      32.964  22.879  26.475  1.00  0.00     0.041 A 
ATOM     25  Cl  UNL A   1      34.014  22.060  27.563  1.00  0.00    -0.084 Cl
ENDBRANCH  18  19
ENDBRANCH  17  18
ENDBRANCH  16  17
ENDBRANCH   8  16
ENDBRANCH   4   6
ENDBRANCH   3   4
ENDBRANCH   2   3
ENDBRANCH   1   2
BRANCH   1  26
ATOM     26  O   UNL A   1      32.409  34.022  27.798  1.00  0.00    -0.374 OA
BRANCH  26  27
ATOM     27  C   UNL A   1      33.501  34.805  28.271  1.00  0.00     0.202 C 
BRANCH  27  28
ATOM     28  C   UNL A   1      33.178  35.693  29.476  1.00  0.00     0.261 C 
BRANCH  28  29
ATOM     29  O   UNL A   1      32.667  34.938  30.592  1.00  0.00    -0.460 OA
BRANCH  29  30
ATOM     30  C   UNL A   1      32.819  35.554  31.789  1.00  0.00     0.338 C 
ATOM     31  O   UNL A   1      32.109  36.425  32.263  1.00  0.00    -0.246 OA
BRANCH  30  32
ATOM     32  C   UNL A   1      33.937  34.964  32.553  1.00  0.00     0.060 A 
ATOM     33  C   UNL A   1      35.142  35.676  32.566  1.00  0.00     0.016 A 
ATOM     34  C   UNL A   1      33.863  33.688  33.120  1.00  0.00     0.016 A 
ATOM     35  C   UNL A   1      36.300  35.079  33.056  1.00  0.00     0.010 A 
ATOM     36  C   UNL A   1      35.029  33.090  33.617  1.00  0.00     0.010 A 
ATOM     37  C   UNL A   1      36.262  33.760  33.529  1.00  0.00    -0.014 A 
BRANCH  37  38
ATOM     38  C   UNL A   1      37.547  33.044  33.734  1.00  0.00     0.031 A 
ATOM     39  C   UNL A   1      38.329  33.297  34.997  1.00  0.00     0.074 A 
ATOM     40  C   UNL A   1      37.968  32.116  32.859  1.00  0.00     0.049 A 
ATOM     41  N   UNL A   1      39.434  32.734  35.421  1.00  0.00    -0.248 NA
ATOM     42  C   UNL A   1      37.795  34.324  35.906  1.00  0.00     0.031 C 
ATOM     43  C   UNL A   1      37.288  31.756  31.617  1.00  0.00     0.029 A 
ATOM     44  N   UNL A   1      39.069  31.296  32.893  1.00  0.00    -0.354 N 
ATOM     45  C   UNL A   1      39.722  33.335  36.640  1.00  0.00     0.074 A 
ATOM     46  C   UNL A   1      38.702  34.335  36.871  1.00  0.00     0.031 C 
ATOM     47  C   UNL A   1      37.984  30.782  31.006  1.00  0.00     0.029 A 
ATOM     48  C   UNL A   1      39.165  30.462  31.807  1.00  0.00     0.049 A 
ATOM     49  H   UNL A   1      39.726  31.306  33.625  1.00  0.00     0.167 HD
ATOM     50  C   UNL A   1      40.734  33.067  37.500  1.00  0.00     0.037 A 
ATOM     51  C   UNL A   1      40.103  29.545  31.497  1.00  0.00     0.037 A 
ATOM     52  C   UNL A   1      41.745  32.067  37.280  1.00  0.00     0.049 A 
ATOM     53  C   UNL A   1      41.242  29.295  32.451  1.00  0.00     0.074 A 
ATOM     54  C   UNL A   1      42.801  31.709  38.101  1.00  0.00     0.029 A 
ATOM     55  N   UNL A   1      41.827  31.264  36.153  1.00  0.00    -0.354 N 
ATOM     56  N   UNL A   1      41.486  29.845  33.616  1.00  0.00    -0.248 NA
ATOM     57  C   UNL A   1      42.229  28.283  32.050  1.00  0.00     0.031 C 
ATOM     58  C   UNL A   1      43.546  30.720  37.451  1.00  0.00     0.029 A 
ATOM     59  C   UNL A   1      42.927  30.426  36.247  1.00  0.00     0.049 A 
ATOM     60  H   UNL A   1      41.196  31.286  35.397  1.00  0.00     0.167 HD
ATOM     61  C   UNL A   1      42.635  29.230  34.096  1.00  0.00     0.074 A 
ATOM     62  C   UNL A   1      43.029  28.251  33.105  1.00  0.00     0.031 C 
ATOM     63  C   UNL A   1      43.305  29.454  35.254  1.00  0.00     0.037 A 
BRANCH  50  64
ATOM     64  C   UNL A   1      40.806  33.884  38.757  1.00  0.00     0.064 A 
ATOM     65  C   UNL A   1      41.583  35.049  38.834  1.00  0.00     0.173 A 
ATOM     66  C   UNL A   1      40.065  33.512  39.889  1.00  0.00     0.173 A 
ATOM     67  F   UNL A   1      42.320  35.441  37.785  1.00  0.00    -0.203 F 
ATOM     68  C   UNL A   1      41.637  35.798  40.009  1.00  0.00     0.198 A 
ATOM     69  C   UNL A   1      40.101  34.277  41.051  1.00  0.00     0.198 A 
ATOM     70  F   UNL A   1      39.304  32.408  39.867  1.00  0.00    -0.203 F 
ATOM     71  F   UNL A   1      42.422  36.882  40.075  1.00  0.00    -0.200 F 
ATOM     72  C   UNL A   1      40.891  35.415  41.113  1.00  0.00     0.200 A 
ATOM     73  F   UNL A   1      39.372  33.911  42.116  1.00  0.00    -0.200 F 
ATOM     74  F   UNL A   1      40.941  36.138  42.240  1.00  0.00    -0.200 F 
ENDBRANCH  50  64
BRANCH  51  75
ATOM     75  C   UNL A   1      40.002  28.784  30.224  1.00  0.00     0.064 A 
ATOM     76  C   UNL A   1      39.414  27.513  30.185  1.00  0.00     0.173 A 
ATOM     77  C   UNL A   1      40.516  29.304  29.028  1.00  0.00     0.173 A 
ATOM     78  F   UNL A   1      38.932  26.962  31.310  1.00  0.00    -0.203 F 
ATOM     79  C   UNL A   1      39.362  26.781  29.000  1.00  0.00     0.198 A 
ATOM     80  C   UNL A   1      40.440  28.584  27.839  1.00  0.00     0.198 A 
ATOM     81  F   UNL A   1      41.093  30.516  29.016  1.00  0.00    -0.203 F 
ATOM     82  F   UNL A   1      38.839  25.548  29.000  1.00  0.00    -0.200 F 
ATOM     83  C   UNL A   1      39.871  27.320  27.827  1.00  0.00     0.200 A 
ATOM     84  F   UNL A   1      40.925  29.110  26.707  1.00  0.00    -0.200 F 
ATOM     85  F   UNL A   1      39.822  26.615  26.689  1.00  0.00    -0.200 F 
ENDBRANCH  51  75
BRANCH  63  86
ATOM     86  C   UNL A   1      44.515  28.606  35.523  1.00  0.00     0.064 A 
ATOM     87  C   UNL A   1      44.420  27.383  36.205  1.00  0.00     0.173 A 
ATOM     88  C   UNL A   1      45.782  29.013  35.079  1.00  0.00     0.173 A 
ATOM     89  F   UNL A   1      43.234  26.956  36.662  1.00  0.00    -0.203 F 
ATOM     90  C   UNL A   1      45.554  26.617  36.461  1.00  0.00     0.198 A 
ATOM     91  C   UNL A   1      46.910  28.230  35.310  1.00  0.00     0.198 A 
ATOM     92  F   UNL A   1      45.927  30.170  34.414  1.00  0.00    -0.203 F 
ATOM     93  F   UNL A   1      45.448  25.481  37.163  1.00  0.00    -0.200 F 
ATOM     94  C   UNL A   1      46.797  27.038  36.010  1.00  0.00     0.200 A 
ATOM     95  F   UNL A   1      48.107  28.632  34.863  1.00  0.00    -0.200 F 
ATOM     96  F   UNL A   1      47.887  26.300  36.259  1.00  0.00    -0.200 F 
ENDBRANCH  63  86
ENDBRANCH  37  38
ENDBRANCH  30  32
ENDBRANCH  29  30
ENDBRANCH  28  29
ENDBRANCH  27  28
ENDBRANCH  26  27
ENDBRANCH   1  26
TORSDOF 20
ENDMDL
MODEL 3
REMARK VINA RESULT:     -10.5      2.327      4.152
REMARK SMILES CC[NH2+][C@]1(C(=O)OCCOCCOC(=O)c2ccc(-c3c4nc(c(-c5c(F)c(F)c(F)c(F)c5F)c5ccc([nH]5)c(-c5c(F)c(F)c(F)c(F)c5F)c5nc(c(-c6c(F)c(F)c(F)c(F)c6F)c6ccc3[nH]6)C=C5)C=C4)cc2)CCC[C@H]1CCSc1ccc(Cl)cc1
REMARK SMILES IDX 9 1 8 2 7 3 5 4 6 5 4 6 79 7 82 8 80 9 81 10 3 11 2 14 1 15
REMARK SMILES IDX 83 16 84 17 85 18 86 19 87 20 92 21 88 22 91 23 89 24 90 25
REMARK SMILES IDX 10 26 11 27 12 28 13 29 14 30 15 31 16 32 17 33 78 34 18 35
REMARK SMILES IDX 77 36 19 37 20 38 21 39 71 40 22 41 76 42 70 43 72 44 23 45
REMARK SMILES IDX 75 46 69 47 68 48 24 50 56 51 36 52 55 53 37 54 40 55 54 56
REMARK SMILES IDX 73 57 38 58 39 59 53 61 74 62 41 63 25 64 26 65 34 66 27 67
REMARK SMILES IDX 28 68 32 69 35 70 29 71 30 72 33 73 31 74 57 75 58 76 66 77
REMARK SMILES IDX 59 78 60 79 64 80 67 81 61 82 62 83 65 84 63 85 42 86 43 87
REMARK SMILES IDX 51 88 44 89 45 90 49 91 52 92 46 93 47 94 50 95 48 96
REMARK H PARENT 3 12 3 13 72 49 40 60
REMARK Flexibility Score: inf
ROOT
ATOM      1  C   UNL A   1      31.761  28.201  27.074  1.00  0.00     0.202 C 
ENDROOT
BRANCH   1   2
ATOM      2  C   UNL A   1      31.220  26.847  26.622  1.00  0.00     0.261 C 
BRANCH   2   3
ATOM      3  O   UNL A   1      32.264  25.857  26.763  1.00  0.00    -0.459 OA
BRANCH   3   4
ATOM      4  C   UNL A   1      31.933  24.571  26.535  1.00  0.00     0.368 C 
ATOM      5  O   UNL A   1      31.167  23.931  27.252  1.00  0.00    -0.245 OA
BRANCH   4   6
ATOM      6  C   UNL A   1      32.520  24.007  25.208  1.00  0.00     0.197 C 
ATOM      7  C   UNL A   1      31.454  23.993  24.094  1.00  0.00     0.081 C 
ATOM      8  C   UNL A   1      33.703  24.721  24.466  1.00  0.00     0.063 C 
ATOM      9  C   UNL A   1      32.221  23.582  22.836  1.00  0.00     0.008 C 
ATOM     10  C   UNL A   1      33.685  23.958  23.102  1.00  0.00     0.011 C 
BRANCH   6  11
ATOM     11  N   UNL A   1      32.790  22.541  25.460  1.00  0.00    -0.332 N 
ATOM     12  H   UNL A   1      32.016  22.161  26.005  1.00  0.00     0.347 HD
ATOM     13  H   UNL A   1      32.883  22.095  24.548  1.00  0.00     0.347 HD
BRANCH  11  14
ATOM     14  C   UNL A   1      34.032  22.286  26.186  1.00  0.00     0.257 C 
ATOM     15  C   UNL A   1      34.799  21.138  25.549  1.00  0.00     0.071 C 
ENDBRANCH  11  14
ENDBRANCH   6  11
BRANCH   8  16
ATOM     16  C   UNL A   1      33.634  26.239  24.112  1.00  0.00     0.022 C 
BRANCH  16  17
ATOM     17  C   UNL A   1      33.460  26.761  22.679  1.00  0.00     0.075 C 
BRANCH  17  18
ATOM     18  S   UNL A   1      33.044  28.519  22.432  1.00  0.00    -0.126 SA
BRANCH  18  19
ATOM     19  C   UNL A   1      31.272  28.569  22.562  1.00  0.00     0.007 A 
ATOM     20  C   UNL A   1      30.492  29.664  22.177  1.00  0.00     0.016 A 
ATOM     21  C   UNL A   1      30.653  27.482  23.190  1.00  0.00     0.016 A 
ATOM     22  C   UNL A   1      29.106  29.656  22.394  1.00  0.00     0.021 A 
ATOM     23  C   UNL A   1      29.274  27.468  23.406  1.00  0.00     0.021 A 
ATOM     24  C   UNL A   1      28.506  28.558  23.011  1.00  0.00     0.041 A 
ATOM     25  Cl  UNL A   1      26.804  28.533  23.263  1.00  0.00    -0.084 Cl
ENDBRANCH  18  19
ENDBRANCH  17  18
ENDBRANCH  16  17
ENDBRANCH   8  16
ENDBRANCH   4   6
ENDBRANCH   3   4
ENDBRANCH   2   3
ENDBRANCH   1   2
BRANCH   1  26
ATOM     26  O   UNL A   1      33.187  28.258  27.143  1.00  0.00    -0.374 OA
BRANCH  26  27
ATOM     27  C   UNL A   1      33.777  29.553  27.065  1.00  0.00     0.202 C 
BRANCH  27  28
ATOM     28  C   UNL A   1      32.795  30.716  27.232  1.00  0.00     0.261 C 
BRANCH  28  29
ATOM     29  O   UNL A   1      33.321  31.955  26.718  1.00  0.00    -0.460 OA
BRANCH  29  30
ATOM     30  C   UNL A   1      33.349  32.959  27.628  1.00  0.00     0.338 C 
ATOM     31  O   UNL A   1      32.512  33.830  27.787  1.00  0.00    -0.246 OA
BRANCH  30  32
ATOM     32  C   UNL A   1      34.514  32.829  28.528  1.00  0.00     0.060 A 
ATOM     33  C   UNL A   1      35.777  33.051  27.966  1.00  0.00     0.016 A 
ATOM     34  C   UNL A   1      34.395  32.365  29.841  1.00  0.00     0.016 A 
ATOM     35  C   UNL A   1      36.925  32.717  28.678  1.00  0.00     0.010 A 
ATOM     36  C   UNL A   1      35.553  32.033  30.559  1.00  0.00     0.010 A 
ATOM     37  C   UNL A   1      36.818  32.150  29.956  1.00  0.00    -0.014 A 
BRANCH  37  38
ATOM     38  C   UNL A   1      38.019  31.509  30.549  1.00  0.00     0.031 A 
ATOM     39  C   UNL A   1      38.385  31.826  31.976  1.00  0.00     0.074 A 
ATOM     40  C   UNL A   1      38.721  30.590  29.865  1.00  0.00     0.049 A 
ATOM     41  N   UNL A   1      39.343  31.332  32.721  1.00  0.00    -0.248 NA
ATOM     42  C   UNL A   1      37.561  32.838  32.656  1.00  0.00     0.031 C 
ATOM     43  C   UNL A   1      38.451  30.172  28.491  1.00  0.00     0.029 A 
ATOM     44  N   UNL A   1      39.801  29.832  30.244  1.00  0.00    -0.354 N 
ATOM     45  C   UNL A   1      39.234  31.969  33.951  1.00  0.00     0.074 A 
ATOM     46  C   UNL A   1      38.145  32.915  33.842  1.00  0.00     0.031 C 
ATOM     47  C   UNL A   1      39.340  29.227  28.142  1.00  0.00     0.029 A 
ATOM     48  C   UNL A   1      40.249  28.986  29.262  1.00  0.00     0.049 A 
ATOM     49  H   UNL A   1      40.214  29.890  31.136  1.00  0.00     0.167 HD
ATOM     50  C   UNL A   1      39.962  31.771  35.076  1.00  0.00     0.037 A 
ATOM     51  C   UNL A   1      41.279  28.116  29.268  1.00  0.00     0.037 A 
ATOM     52  C   UNL A   1      41.039  30.824  35.193  1.00  0.00     0.049 A 
ATOM     53  C   UNL A   1      42.100  27.945  30.519  1.00  0.00     0.074 A 
ATOM     54  C   UNL A   1      41.824  30.539  36.297  1.00  0.00     0.029 A 
ATOM     55  N   UNL A   1      41.484  30.008  34.165  1.00  0.00    -0.354 N 
ATOM     56  N   UNL A   1      41.967  28.528  31.687  1.00  0.00    -0.248 NA
ATOM     57  C   UNL A   1      43.208  26.981  30.456  1.00  0.00     0.031 C 
ATOM     58  C   UNL A   1      42.773  29.581  35.924  1.00  0.00     0.029 A 
ATOM     59  C   UNL A   1      42.547  29.232  34.602  1.00  0.00     0.049 A 
ATOM     60  H   UNL A   1      41.102  29.982  33.258  1.00  0.00     0.167 HD
ATOM     61  C   UNL A   1      42.953  27.985  32.500  1.00  0.00     0.074 A 
ATOM     62  C   UNL A   1      43.665  27.012  31.699  1.00  0.00     0.031 C 
ATOM     63  C   UNL A   1      43.244  28.266  33.794  1.00  0.00     0.037 A 
BRANCH  50  64
ATOM     64  C   UNL A   1      39.624  32.613  36.272  1.00  0.00     0.064 A 
ATOM     65  C   UNL A   1      40.315  33.801  36.555  1.00  0.00     0.173 A 
ATOM     66  C   UNL A   1      38.578  32.241  37.130  1.00  0.00     0.173 A 
ATOM     67  F   UNL A   1      41.333  34.193  35.775  1.00  0.00    -0.203 F 
ATOM     68  C   UNL A   1      39.988  34.572  37.669  1.00  0.00     0.198 A 
ATOM     69  C   UNL A   1      38.237  33.028  38.226  1.00  0.00     0.198 A 
ATOM     70  F   UNL A   1      37.884  31.116  36.902  1.00  0.00    -0.203 F 
ATOM     71  F   UNL A   1      40.692  35.678  37.946  1.00  0.00    -0.200 F 
ATOM     72  C   UNL A   1      38.945  34.188  38.499  1.00  0.00     0.200 A 
ATOM     73  F   UNL A   1      37.222  32.661  39.023  1.00  0.00    -0.200 F 
ATOM     74  F   UNL A   1      38.629  34.933  39.568  1.00  0.00    -0.200 F 
ENDBRANCH  50  64
BRANCH  51  75
ATOM     75  C   UNL A   1      41.590  27.328  28.046  1.00  0.00     0.064 A 
ATOM     76  C   UNL A   1      41.025  26.064  27.836  1.00  0.00     0.173 A 
ATOM     77  C   UNL A   1      42.481  27.816  27.079  1.00  0.00     0.173 A 
ATOM     78  F   UNL A   1      40.188  25.544  28.747  1.00  0.00    -0.203 F 
ATOM     79  C   UNL A   1      41.354  25.307  26.713  1.00  0.00     0.198 A 
ATOM     80  C   UNL A   1      42.789  27.071  25.944  1.00  0.00     0.198 A 
ATOM     81  F   UNL A   1      43.053  29.019  27.238  1.00  0.00    -0.203 F 
ATOM     82  F   UNL A   1      40.837  24.081  26.561  1.00  0.00    -0.200 F 
ATOM     83  C   UNL A   1      42.232  25.814  25.766  1.00  0.00     0.200 A 
ATOM     84  F   UNL A   1      43.631  27.565  25.028  1.00  0.00    -0.200 F 
ATOM     85  F   UNL A   1      42.549  25.084  24.688  1.00  0.00    -0.200 F 
ENDBRANCH  51  75
BRANCH  63  86
ATOM     86  C   UNL A   1      44.361  27.490  34.432  1.00  0.00     0.064 A 
ATOM     87  C   UNL A   1      45.678  27.973  34.450  1.00  0.00     0.173 A 
ATOM     88  C   UNL A   1      44.107  26.254  35.049  1.00  0.00     0.173 A 
ATOM     89  F   UNL A   1      45.975  29.141  33.862  1.00  0.00    -0.203 F 
ATOM     90  C   UNL A   1      46.704  27.233  35.031  1.00  0.00     0.198 A 
ATOM     91  C   UNL A   1      45.130  25.531  35.656  1.00  0.00     0.198 A 
ATOM     92  F   UNL A   1      42.863  25.750  35.068  1.00  0.00    -0.203 F 
ATOM     93  F   UNL A   1      47.964  27.688  34.986  1.00  0.00    -0.200 F 
ATOM     94  C   UNL A   1      46.429  26.016  35.637  1.00  0.00     0.200 A 
ATOM     95  F   UNL A   1      44.860  24.362  36.252  1.00  0.00    -0.200 F 
ATOM     96  F   UNL A   1      47.419  25.305  36.194  1.00  0.00    -0.200 F 
ENDBRANCH  63  86
ENDBRANCH  37  38
ENDBRANCH  30  32
ENDBRANCH  29  30
ENDBRANCH  28  29
ENDBRANCH  27  28
ENDBRANCH  26  27
ENDBRANCH   1  26
TORSDOF 20
ENDMDL
