MODEL 1
REMARK VINA RESULT:     -11.7      0.000      0.000
REMARK SMILES C[N@H+]1CCO[C@H](CNC(=O)N2CC[C@@](C)(C(=O)OCCOCCOC(=O)c3ccc(-c4c5nc(c(-c6c(F)c(F)c(F)c(F)c6F)c6ccc([nH]6)c(-c6c(F)c(F)c(F)c(F)c6F)c6nc(c(-c7c(F)c(F)c(F)c(F)c7F)c7ccc4[nH]7)C=C6)C=C5)cc3)C2)C1
REMARK SMILES IDX 20 1 19 2 18 3 16 4 17 5 14 6 11 7 12 8 90 9 13 10 15 11
REMARK SMILES IDX 9 12 8 13 10 15 7 16 6 17 1 18 2 19 3 20 91 21 4 23 5 24
REMARK SMILES IDX 21 25 22 26 23 27 24 28 25 29 26 30 27 31 28 32 89 33 29 34
REMARK SMILES IDX 88 35 30 36 31 37 32 38 82 39 33 40 87 41 81 42 83 43 34 44
REMARK SMILES IDX 86 45 80 46 79 47 35 49 67 50 47 51 66 52 48 53 51 54 65 55
REMARK SMILES IDX 84 56 49 57 50 58 64 60 85 61 52 62 36 63 37 64 45 65 38 66
REMARK SMILES IDX 39 67 43 68 46 69 40 70 41 71 44 72 42 73 68 74 69 75 77 76
REMARK SMILES IDX 70 77 71 78 75 79 78 80 72 81 73 82 76 83 74 84 53 85 54 86
REMARK SMILES IDX 62 87 55 88 56 89 60 90 63 91 57 92 58 93 61 94 59 95
REMARK H PARENT 8 14 2 22 83 48 51 59
REMARK Flexibility Score: inf
ROOT
ATOM      1  C   UNL A   1      32.442  28.481  23.283  1.00  0.00     0.202 C 
ENDROOT
BRANCH   1   2
ATOM      2  C   UNL A   1      32.007  27.321  22.384  1.00  0.00     0.261 C 
BRANCH   2   3
ATOM      3  O   UNL A   1      31.108  26.435  23.082  1.00  0.00    -0.463 OA
BRANCH   3   4
ATOM      4  C   UNL A   1      31.562  25.175  23.320  1.00  0.00     0.313 C 
ATOM      5  O   UNL A   1      32.039  24.445  22.460  1.00  0.00    -0.252 OA
BRANCH   4   6
ATOM      6  C   UNL A   1      31.500  24.792  24.800  1.00  0.00     0.084 C 
ATOM      7  N   UNL A   1      32.631  22.761  25.399  1.00  0.00    -0.324 N 
ATOM      8  C   UNL A   1      33.636  23.791  25.198  1.00  0.00     0.122 C 
ATOM      9  C   UNL A   1      31.314  23.284  25.053  1.00  0.00     0.139 C 
ATOM     10  C   UNL A   1      32.872  25.079  25.441  1.00  0.00     0.042 C 
ATOM     11  C   UNL A   1      30.399  25.612  25.481  1.00  0.00     0.026 C 
BRANCH   7  12
ATOM     12  C   UNL A   1      32.913  21.676  26.175  1.00  0.00     0.317 C 
ATOM     13  N   UNL A   1      32.540  20.435  25.795  1.00  0.00    -0.335 N 
ATOM     14  H   UNL A   1      32.346  19.819  26.538  1.00  0.00     0.165 HD
ATOM     15  O   UNL A   1      33.509  21.773  27.249  1.00  0.00    -0.249 OA
BRANCH  13  16
ATOM     16  C   UNL A   1      32.378  19.854  24.468  1.00  0.00     0.155 C 
BRANCH  16  17
ATOM     17  C   UNL A   1      32.660  18.339  24.480  1.00  0.00     0.192 C 
ATOM     18  C   UNL A   1      32.265  15.514  25.801  1.00  0.00     0.332 C 
ATOM     19  N   UNL A   1      33.391  16.428  25.988  1.00  0.00    -0.333 N 
ATOM     20  C   UNL A   1      34.451  16.195  24.984  1.00  0.00     0.290 C 
ATOM     21  C   UNL A   1      32.978  17.846  25.910  1.00  0.00     0.296 C 
ATOM     22  H   UNL A   1      33.751  16.237  26.923  1.00  0.00     0.348 HD
ATOM     23  C   UNL A   1      34.130  16.713  23.574  1.00  0.00     0.222 C 
ATOM     24  O   UNL A   1      33.777  18.099  23.598  1.00  0.00    -0.365 OA
ENDBRANCH  16  17
ENDBRANCH  13  16
ENDBRANCH   7  12
ENDBRANCH   4   6
ENDBRANCH   3   4
ENDBRANCH   2   3
ENDBRANCH   1   2
BRANCH   1  25
ATOM     25  O   UNL A   1      31.413  29.034  24.105  1.00  0.00    -0.374 OA
BRANCH  25  26
ATOM     26  C   UNL A   1      31.708  29.152  25.495  1.00  0.00     0.202 C 
BRANCH  26  27
ATOM     27  C   UNL A   1      31.789  30.585  26.030  1.00  0.00     0.261 C 
BRANCH  27  28
ATOM     28  O   UNL A   1      32.551  30.641  27.250  1.00  0.00    -0.460 OA
BRANCH  28  29
ATOM     29  C   UNL A   1      33.309  31.753  27.394  1.00  0.00     0.338 C 
ATOM     30  O   UNL A   1      32.939  32.918  27.314  1.00  0.00    -0.246 OA
BRANCH  29  31
ATOM     31  C   UNL A   1      34.666  31.391  27.842  1.00  0.00     0.060 A 
ATOM     32  C   UNL A   1      34.908  30.042  28.136  1.00  0.00     0.016 A 
ATOM     33  C   UNL A   1      35.663  32.349  28.044  1.00  0.00     0.016 A 
ATOM     34  C   UNL A   1      36.121  29.655  28.695  1.00  0.00     0.010 A 
ATOM     35  C   UNL A   1      36.880  31.959  28.612  1.00  0.00     0.010 A 
ATOM     36  C   UNL A   1      37.098  30.617  28.980  1.00  0.00    -0.014 A 
BRANCH  36  37
ATOM     37  C   UNL A   1      38.262  30.252  29.822  1.00  0.00     0.031 A 
ATOM     38  C   UNL A   1      39.264  29.266  29.286  1.00  0.00     0.074 A 
ATOM     39  C   UNL A   1      38.458  30.815  31.027  1.00  0.00     0.049 A 
ATOM     40  N   UNL A   1      40.314  28.746  29.869  1.00  0.00    -0.248 NA
ATOM     41  C   UNL A   1      39.055  28.811  27.902  1.00  0.00     0.031 C 
ATOM     42  C   UNL A   1      37.611  31.840  31.628  1.00  0.00     0.029 A 
ATOM     43  N   UNL A   1      39.435  30.589  31.965  1.00  0.00    -0.354 N 
ATOM     44  C   UNL A   1      40.891  27.907  28.926  1.00  0.00     0.074 A 
ATOM     45  C   UNL A   1      40.056  27.957  27.745  1.00  0.00     0.031 C 
ATOM     46  C   UNL A   1      38.090  32.138  32.848  1.00  0.00     0.029 A 
ATOM     47  C   UNL A   1      39.242  31.288  33.130  1.00  0.00     0.049 A 
ATOM     48  H   UNL A   1      40.199  29.987  31.817  1.00  0.00     0.167 HD
ATOM     49  C   UNL A   1      42.022  27.170  29.030  1.00  0.00     0.037 A 
ATOM     50  C   UNL A   1      39.895  31.216  34.307  1.00  0.00     0.037 A 
ATOM     51  C   UNL A   1      42.856  27.126  30.202  1.00  0.00     0.049 A 
ATOM     52  C   UNL A   1      41.079  30.302  34.443  1.00  0.00     0.074 A 
ATOM     53  C   UNL A   1      44.037  26.431  30.395  1.00  0.00     0.029 A 
ATOM     54  N   UNL A   1      42.591  27.801  31.384  1.00  0.00    -0.354 N 
ATOM     55  N   UNL A   1      41.620  29.512  33.549  1.00  0.00    -0.248 NA
ATOM     56  C   UNL A   1      41.752  30.279  35.750  1.00  0.00     0.031 C 
ATOM     57  C   UNL A   1      44.462  26.646  31.710  1.00  0.00     0.029 A 
ATOM     58  C   UNL A   1      43.571  27.516  32.320  1.00  0.00     0.049 A 
ATOM     59  H   UNL A   1      41.821  28.395  31.535  1.00  0.00     0.167 HD
ATOM     60  C   UNL A   1      42.714  28.925  34.170  1.00  0.00     0.074 A 
ATOM     61  C   UNL A   1      42.758  29.446  35.521  1.00  0.00     0.031 C 
ATOM     62  C   UNL A   1      43.608  28.044  33.660  1.00  0.00     0.037 A 
BRANCH  49  63
ATOM     63  C   UNL A   1      42.415  26.333  27.850  1.00  0.00     0.064 A 
ATOM     64  C   UNL A   1      41.862  25.063  27.630  1.00  0.00     0.173 A 
ATOM     65  C   UNL A   1      43.329  26.824  26.908  1.00  0.00     0.173 A 
ATOM     66  F   UNL A   1      40.994  24.542  28.511  1.00  0.00    -0.203 F 
ATOM     67  C   UNL A   1      42.227  24.307  26.519  1.00  0.00     0.198 A 
ATOM     68  C   UNL A   1      43.672  26.077  25.784  1.00  0.00     0.198 A 
ATOM     69  F   UNL A   1      43.885  28.035  27.071  1.00  0.00    -0.203 F 
ATOM     70  F   UNL A   1      41.718  23.078  26.351  1.00  0.00    -0.200 F 
ATOM     71  C   UNL A   1      43.125  24.816  25.594  1.00  0.00     0.200 A 
ATOM     72  F   UNL A   1      44.532  26.576  24.885  1.00  0.00    -0.200 F 
ATOM     73  F   UNL A   1      43.470  24.090  24.522  1.00  0.00    -0.200 F 
ENDBRANCH  49  63
BRANCH  50  74
ATOM     74  C   UNL A   1      39.411  32.003  35.467  1.00  0.00     0.064 A 
ATOM     75  C   UNL A   1      38.529  31.453  36.407  1.00  0.00     0.173 A 
ATOM     76  C   UNL A   1      39.813  33.334  35.647  1.00  0.00     0.173 A 
ATOM     77  F   UNL A   1      38.091  30.195  36.256  1.00  0.00    -0.203 F 
ATOM     78  C   UNL A   1      38.066  32.209  37.482  1.00  0.00     0.198 A 
ATOM     79  C   UNL A   1      39.371  34.078  36.736  1.00  0.00     0.198 A 
ATOM     80  F   UNL A   1      40.653  33.907  34.771  1.00  0.00    -0.203 F 
ATOM     81  F   UNL A   1      37.197  31.672  38.349  1.00  0.00    -0.200 F 
ATOM     82  C   UNL A   1      38.493  33.518  37.651  1.00  0.00     0.200 A 
ATOM     83  F   UNL A   1      39.803  35.337  36.902  1.00  0.00    -0.200 F 
ATOM     84  F   UNL A   1      38.056  34.240  38.691  1.00  0.00    -0.200 F 
ENDBRANCH  50  74
BRANCH  62  85
ATOM     85  C   UNL A   1      44.741  27.620  34.546  1.00  0.00     0.064 A 
ATOM     86  C   UNL A   1      45.937  28.346  34.613  1.00  0.00     0.173 A 
ATOM     87  C   UNL A   1      44.606  26.494  35.373  1.00  0.00     0.173 A 
ATOM     88  F   UNL A   1      46.120  29.419  33.827  1.00  0.00    -0.203 F 
ATOM     89  C   UNL A   1      46.966  27.951  35.464  1.00  0.00     0.198 A 
ATOM     90  C   UNL A   1      45.626  26.118  36.242  1.00  0.00     0.198 A 
ATOM     91  F   UNL A   1      43.478  25.768  35.348  1.00  0.00    -0.203 F 
ATOM     92  F   UNL A   1      48.117  28.636  35.483  1.00  0.00    -0.200 F 
ATOM     93  C   UNL A   1      46.806  26.843  36.284  1.00  0.00     0.200 A 
ATOM     94  F   UNL A   1      45.464  25.053  37.041  1.00  0.00    -0.200 F 
ATOM     95  F   UNL A   1      47.794  26.470  37.108  1.00  0.00    -0.200 F 
ENDBRANCH  62  85
ENDBRANCH  36  37
ENDBRANCH  29  31
ENDBRANCH  28  29
ENDBRANCH  27  28
ENDBRANCH  26  27
ENDBRANCH  25  26
ENDBRANCH   1  25
TORSDOF 17
ENDMDL
MODEL 2
REMARK VINA RESULT:     -11.6      0.123      1.579
REMARK SMILES C[N@H+]1CCO[C@H](CNC(=O)N2CC[C@@](C)(C(=O)OCCOCCOC(=O)c3ccc(-c4c5nc(c(-c6c(F)c(F)c(F)c(F)c6F)c6ccc([nH]6)c(-c6c(F)c(F)c(F)c(F)c6F)c6nc(c(-c7c(F)c(F)c(F)c(F)c7F)c7ccc4[nH]7)C=C6)C=C5)cc3)C2)C1
REMARK SMILES IDX 20 1 19 2 18 3 16 4 17 5 14 6 11 7 12 8 90 9 13 10 15 11
REMARK SMILES IDX 9 12 8 13 10 15 7 16 6 17 1 18 2 19 3 20 91 21 4 23 5 24
REMARK SMILES IDX 21 25 22 26 23 27 24 28 25 29 26 30 27 31 28 32 89 33 29 34
REMARK SMILES IDX 88 35 30 36 31 37 32 38 82 39 33 40 87 41 81 42 83 43 34 44
REMARK SMILES IDX 86 45 80 46 79 47 35 49 67 50 47 51 66 52 48 53 51 54 65 55
REMARK SMILES IDX 84 56 49 57 50 58 64 60 85 61 52 62 36 63 37 64 45 65 38 66
REMARK SMILES IDX 39 67 43 68 46 69 40 70 41 71 44 72 42 73 68 74 69 75 77 76
REMARK SMILES IDX 70 77 71 78 75 79 78 80 72 81 73 82 76 83 74 84 53 85 54 86
REMARK SMILES IDX 62 87 55 88 56 89 60 90 63 91 57 92 58 93 61 94 59 95
REMARK H PARENT 8 14 2 22 83 48 51 59
REMARK Flexibility Score: inf
ROOT
ATOM      1  C   UNL A   1      32.478  28.475  23.333  1.00  0.00     0.202 C 
ENDROOT
BRANCH   1   2
ATOM      2  C   UNL A   1      32.030  27.332  22.418  1.00  0.00     0.261 C 
BRANCH   2   3
ATOM      3  O   UNL A   1      31.117  26.450  23.103  1.00  0.00    -0.463 OA
BRANCH   3   4
ATOM      4  C   UNL A   1      31.557  25.184  23.336  1.00  0.00     0.313 C 
ATOM      5  O   UNL A   1      32.028  24.452  22.474  1.00  0.00    -0.252 OA
BRANCH   4   6
ATOM      6  C   UNL A   1      31.490  24.796  24.815  1.00  0.00     0.084 C 
ATOM      7  N   UNL A   1      32.634  22.772  25.414  1.00  0.00    -0.324 N 
ATOM      8  C   UNL A   1      33.632  23.810  25.222  1.00  0.00     0.122 C 
ATOM      9  C   UNL A   1      31.314  23.285  25.062  1.00  0.00     0.139 C 
ATOM     10  C   UNL A   1      32.856  25.092  25.465  1.00  0.00     0.042 C 
ATOM     11  C   UNL A   1      30.379  25.605  25.492  1.00  0.00     0.026 C 
BRANCH   7  12
ATOM     12  C   UNL A   1      32.920  21.687  26.188  1.00  0.00     0.317 C 
ATOM     13  N   UNL A   1      32.573  20.442  25.794  1.00  0.00    -0.335 N 
ATOM     14  H   UNL A   1      32.376  19.818  26.530  1.00  0.00     0.165 HD
ATOM     15  O   UNL A   1      33.495  21.786  27.273  1.00  0.00    -0.249 OA
BRANCH  13  16
ATOM     16  C   UNL A   1      32.444  19.867  24.461  1.00  0.00     0.155 C 
BRANCH  16  17
ATOM     17  C   UNL A   1      32.716  18.350  24.475  1.00  0.00     0.192 C 
ATOM     18  C   UNL A   1      32.126  15.497  25.655  1.00  0.00     0.332 C 
ATOM     19  N   UNL A   1      33.217  16.398  26.023  1.00  0.00    -0.333 N 
ATOM     20  C   UNL A   1      34.408  16.181  25.174  1.00  0.00     0.290 C 
ATOM     21  C   UNL A   1      32.825  17.820  25.923  1.00  0.00     0.296 C 
ATOM     22  H   UNL A   1      33.440  16.182  26.995  1.00  0.00     0.348 HD
ATOM     23  C   UNL A   1      34.293  16.736  23.747  1.00  0.00     0.222 C 
ATOM     24  O   UNL A   1      33.945  18.124  23.755  1.00  0.00    -0.365 OA
ENDBRANCH  16  17
ENDBRANCH  13  16
ENDBRANCH   7  12
ENDBRANCH   4   6
ENDBRANCH   3   4
ENDBRANCH   2   3
ENDBRANCH   1   2
BRANCH   1  25
ATOM     25  O   UNL A   1      31.434  29.103  24.079  1.00  0.00    -0.374 OA
BRANCH  25  26
ATOM     26  C   UNL A   1      31.650  29.236  25.483  1.00  0.00     0.202 C 
BRANCH  26  27
ATOM     27  C   UNL A   1      31.756  30.674  25.998  1.00  0.00     0.261 C 
BRANCH  27  28
ATOM     28  O   UNL A   1      32.493  30.729  27.234  1.00  0.00    -0.460 OA
BRANCH  28  29
ATOM     29  C   UNL A   1      33.244  31.843  27.396  1.00  0.00     0.338 C 
ATOM     30  O   UNL A   1      32.867  33.006  27.335  1.00  0.00    -0.246 OA
BRANCH  29  31
ATOM     31  C   UNL A   1      34.603  31.482  27.839  1.00  0.00     0.060 A 
ATOM     32  C   UNL A   1      34.843  30.136  28.146  1.00  0.00     0.016 A 
ATOM     33  C   UNL A   1      35.604  32.439  28.022  1.00  0.00     0.016 A 
ATOM     34  C   UNL A   1      36.059  29.751  28.702  1.00  0.00     0.010 A 
ATOM     35  C   UNL A   1      36.824  32.052  28.587  1.00  0.00     0.010 A 
ATOM     36  C   UNL A   1      37.041  30.714  28.969  1.00  0.00    -0.014 A 
BRANCH  36  37
ATOM     37  C   UNL A   1      38.210  30.354  29.807  1.00  0.00     0.031 A 
ATOM     38  C   UNL A   1      39.221  29.383  29.263  1.00  0.00     0.074 A 
ATOM     39  C   UNL A   1      38.401  30.911  31.015  1.00  0.00     0.049 A 
ATOM     40  N   UNL A   1      40.277  28.870  29.840  1.00  0.00    -0.248 NA
ATOM     41  C   UNL A   1      39.015  28.935  27.876  1.00  0.00     0.031 C 
ATOM     42  C   UNL A   1      37.544  31.923  31.624  1.00  0.00     0.029 A 
ATOM     43  N   UNL A   1      39.382  30.689  31.951  1.00  0.00    -0.354 N 
ATOM     44  C   UNL A   1      40.861  28.043  28.891  1.00  0.00     0.074 A 
ATOM     45  C   UNL A   1      40.025  28.093  27.711  1.00  0.00     0.031 C 
ATOM     46  C   UNL A   1      38.022  32.217  32.846  1.00  0.00     0.029 A 
ATOM     47  C   UNL A   1      39.183  31.377  33.121  1.00  0.00     0.049 A 
ATOM     48  H   UNL A   1      40.151  30.096  31.797  1.00  0.00     0.167 HD
ATOM     49  C   UNL A   1      42.000  27.318  28.989  1.00  0.00     0.037 A 
ATOM     50  C   UNL A   1      39.837  31.303  34.297  1.00  0.00     0.037 A 
ATOM     51  C   UNL A   1      42.836  27.274  30.159  1.00  0.00     0.049 A 
ATOM     52  C   UNL A   1      41.031  30.400  34.425  1.00  0.00     0.074 A 
ATOM     53  C   UNL A   1      44.025  26.589  30.346  1.00  0.00     0.029 A 
ATOM     54  N   UNL A   1      42.565  27.938  31.346  1.00  0.00    -0.354 N 
ATOM     55  N   UNL A   1      41.579  29.622  33.525  1.00  0.00    -0.248 NA
ATOM     56  C   UNL A   1      41.706  30.375  35.731  1.00  0.00     0.031 C 
ATOM     57  C   UNL A   1      44.448  26.800  31.662  1.00  0.00     0.029 A 
ATOM     58  C   UNL A   1      43.550  27.656  32.279  1.00  0.00     0.049 A 
ATOM     59  H   UNL A   1      41.789  28.522  31.503  1.00  0.00     0.167 HD
ATOM     60  C   UNL A   1      42.680  29.043  34.141  1.00  0.00     0.074 A 
ATOM     61  C   UNL A   1      42.721  29.555  35.495  1.00  0.00     0.031 C 
ATOM     62  C   UNL A   1      43.582  28.175  33.623  1.00  0.00     0.037 A 
BRANCH  49  63
ATOM     63  C   UNL A   1      42.401  26.493  27.802  1.00  0.00     0.064 A 
ATOM     64  C   UNL A   1      43.344  26.952  26.871  1.00  0.00     0.173 A 
ATOM     65  C   UNL A   1      41.861  25.213  27.616  1.00  0.00     0.173 A 
ATOM     66  F   UNL A   1      43.878  28.177  26.996  1.00  0.00    -0.203 F 
ATOM     67  C   UNL A   1      43.715  26.165  25.783  1.00  0.00     0.198 A 
ATOM     68  C   UNL A   1      42.255  24.418  26.542  1.00  0.00     0.198 A 
ATOM     69  F   UNL A   1      40.957  24.727  28.480  1.00  0.00    -0.203 F 
ATOM     70  F   UNL A   1      44.587  26.640  24.881  1.00  0.00    -0.200 F 
ATOM     71  C   UNL A   1      43.177  24.897  25.624  1.00  0.00     0.200 A 
ATOM     72  F   UNL A   1      41.741  23.189  26.397  1.00  0.00    -0.200 F 
ATOM     73  F   UNL A   1      43.541  24.138  24.581  1.00  0.00    -0.200 F 
ENDBRANCH  49  63
BRANCH  50  74
ATOM     74  C   UNL A   1      39.347  32.077  35.463  1.00  0.00     0.064 A 
ATOM     75  C   UNL A   1      39.732  33.407  35.672  1.00  0.00     0.173 A 
ATOM     76  C   UNL A   1      38.490  31.487  36.404  1.00  0.00     0.173 A 
ATOM     77  F   UNL A   1      40.576  34.001  34.817  1.00  0.00    -0.203 F 
ATOM     78  C   UNL A   1      39.279  34.117  36.783  1.00  0.00     0.198 A 
ATOM     79  C   UNL A   1      38.018  32.206  37.498  1.00  0.00     0.198 A 
ATOM     80  F   UNL A   1      38.098  30.213  36.250  1.00  0.00    -0.203 F 
ATOM     81  F   UNL A   1      39.687  35.378  36.980  1.00  0.00    -0.200 F 
ATOM     82  C   UNL A   1      38.416  33.519  37.691  1.00  0.00     0.200 A 
ATOM     83  F   UNL A   1      37.170  31.626  38.360  1.00  0.00    -0.200 F 
ATOM     84  F   UNL A   1      37.974  34.206  38.752  1.00  0.00    -0.200 F 
ENDBRANCH  50  74
BRANCH  62  85
ATOM     85  C   UNL A   1      44.721  27.756  34.505  1.00  0.00     0.064 A 
ATOM     86  C   UNL A   1      45.906  28.499  34.582  1.00  0.00     0.173 A 
ATOM     87  C   UNL A   1      44.602  26.618  35.317  1.00  0.00     0.173 A 
ATOM     88  F   UNL A   1      46.074  29.584  33.810  1.00  0.00    -0.203 F 
ATOM     89  C   UNL A   1      46.940  28.108  35.429  1.00  0.00     0.198 A 
ATOM     90  C   UNL A   1      45.626  26.245  36.183  1.00  0.00     0.198 A 
ATOM     91  F   UNL A   1      43.485  25.875  35.281  1.00  0.00    -0.203 F 
ATOM     92  F   UNL A   1      48.081  28.810  35.458  1.00  0.00    -0.200 F 
ATOM     93  C   UNL A   1      46.796  26.987  36.234  1.00  0.00     0.200 A 
ATOM     94  F   UNL A   1      45.480  25.169  36.967  1.00  0.00    -0.200 F 
ATOM     95  F   UNL A   1      47.788  26.618  37.055  1.00  0.00    -0.200 F 
ENDBRANCH  62  85
ENDBRANCH  36  37
ENDBRANCH  29  31
ENDBRANCH  28  29
ENDBRANCH  27  28
ENDBRANCH  26  27
ENDBRANCH  25  26
ENDBRANCH   1  25
TORSDOF 17
ENDMDL
MODEL 3
REMARK VINA RESULT:     -11.6      1.338      7.626
REMARK SMILES C[N@H+]1CCO[C@H](CNC(=O)N2CC[C@@](C)(C(=O)OCCOCCOC(=O)c3ccc(-c4c5nc(c(-c6c(F)c(F)c(F)c(F)c6F)c6ccc([nH]6)c(-c6c(F)c(F)c(F)c(F)c6F)c6nc(c(-c7c(F)c(F)c(F)c(F)c7F)c7ccc4[nH]7)C=C6)C=C5)cc3)C2)C1
REMARK SMILES IDX 20 1 19 2 18 3 16 4 17 5 14 6 11 7 12 8 90 9 13 10 15 11
REMARK SMILES IDX 9 12 8 13 10 15 7 16 6 17 1 18 2 19 3 20 91 21 4 23 5 24
REMARK SMILES IDX 21 25 22 26 23 27 24 28 25 29 26 30 27 31 28 32 89 33 29 34
REMARK SMILES IDX 88 35 30 36 31 37 32 38 82 39 33 40 87 41 81 42 83 43 34 44
REMARK SMILES IDX 86 45 80 46 79 47 35 49 67 50 47 51 66 52 48 53 51 54 65 55
REMARK SMILES IDX 84 56 49 57 50 58 64 60 85 61 52 62 36 63 37 64 45 65 38 66
REMARK SMILES IDX 39 67 43 68 46 69 40 70 41 71 44 72 42 73 68 74 69 75 77 76
REMARK SMILES IDX 70 77 71 78 75 79 78 80 72 81 73 82 76 83 74 84 53 85 54 86
REMARK SMILES IDX 62 87 55 88 56 89 60 90 63 91 57 92 58 93 61 94 59 95
REMARK H PARENT 8 14 2 22 83 48 51 59
REMARK Flexibility Score: inf
ROOT
ATOM      1  C   UNL A   1      31.852  29.561  26.530  1.00  0.00     0.202 C 
ENDROOT
BRANCH   1   2
ATOM      2  C   UNL A   1      31.463  29.416  25.057  1.00  0.00     0.261 C 
BRANCH   2   3
ATOM      3  O   UNL A   1      30.946  28.096  24.787  1.00  0.00    -0.463 OA
BRANCH   3   4
ATOM      4  C   UNL A   1      31.718  27.290  24.010  1.00  0.00     0.313 C 
ATOM      5  O   UNL A   1      31.930  27.483  22.819  1.00  0.00    -0.252 OA
BRANCH   4   6
ATOM      6  C   UNL A   1      32.378  26.158  24.802  1.00  0.00     0.084 C 
ATOM      7  N   UNL A   1      30.874  24.611  25.856  1.00  0.00    -0.324 N 
ATOM      8  C   UNL A   1      30.910  24.304  24.436  1.00  0.00     0.122 C 
ATOM      9  C   UNL A   1      31.659  25.812  26.121  1.00  0.00     0.139 C 
ATOM     10  C   UNL A   1      32.254  24.853  23.993  1.00  0.00     0.042 C 
ATOM     11  C   UNL A   1      33.848  26.511  25.045  1.00  0.00     0.026 C 
BRANCH   7  12
ATOM     12  C   UNL A   1      30.501  23.653  26.751  1.00  0.00     0.317 C 
ATOM     13  N   UNL A   1      31.287  22.579  26.986  1.00  0.00    -0.335 N 
ATOM     14  H   UNL A   1      30.799  21.760  27.237  1.00  0.00     0.165 HD
ATOM     15  O   UNL A   1      29.442  23.714  27.377  1.00  0.00    -0.249 OA
BRANCH  13  16
ATOM     16  C   UNL A   1      32.735  22.430  26.933  1.00  0.00     0.155 C 
BRANCH  16  17
ATOM     17  C   UNL A   1      33.172  21.633  25.688  1.00  0.00     0.192 C 
ATOM     18  C   UNL A   1      32.454  20.265  22.950  1.00  0.00     0.332 C 
ATOM     19  N   UNL A   1      32.567  19.621  24.258  1.00  0.00    -0.333 N 
ATOM     20  C   UNL A   1      33.949  19.166  24.519  1.00  0.00     0.290 C 
ATOM     21  C   UNL A   1      32.155  20.517  25.360  1.00  0.00     0.296 C 
ATOM     22  H   UNL A   1      31.938  18.819  24.227  1.00  0.00     0.348 HD
ATOM     23  C   UNL A   1      34.942  20.285  24.868  1.00  0.00     0.222 C 
ATOM     24  O   UNL A   1      34.472  21.073  25.966  1.00  0.00    -0.365 OA
ENDBRANCH  16  17
ENDBRANCH  13  16
ENDBRANCH   7  12
ENDBRANCH   4   6
ENDBRANCH   3   4
ENDBRANCH   2   3
ENDBRANCH   1   2
BRANCH   1  25
ATOM     25  O   UNL A   1      32.342  30.849  26.907  1.00  0.00    -0.374 OA
BRANCH  25  26
ATOM     26  C   UNL A   1      31.473  31.953  26.664  1.00  0.00     0.202 C 
BRANCH  26  27
ATOM     27  C   UNL A   1      32.098  33.337  26.866  1.00  0.00     0.261 C 
BRANCH  27  28
ATOM     28  O   UNL A   1      32.616  33.482  28.202  1.00  0.00    -0.460 OA
BRANCH  28  29
ATOM     29  C   UNL A   1      33.738  34.232  28.296  1.00  0.00     0.338 C 
ATOM     30  O   UNL A   1      33.816  35.454  28.285  1.00  0.00    -0.246 OA
BRANCH  29  31
ATOM     31  C   UNL A   1      34.901  33.375  28.591  1.00  0.00     0.060 A 
ATOM     32  C   UNL A   1      34.644  32.093  29.095  1.00  0.00     0.016 A 
ATOM     33  C   UNL A   1      36.215  33.831  28.452  1.00  0.00     0.016 A 
ATOM     34  C   UNL A   1      35.693  31.287  29.525  1.00  0.00     0.010 A 
ATOM     35  C   UNL A   1      37.269  33.022  28.891  1.00  0.00     0.010 A 
ATOM     36  C   UNL A   1      37.009  31.764  29.469  1.00  0.00    -0.014 A 
BRANCH  36  37
ATOM     37  C   UNL A   1      38.085  31.029  30.178  1.00  0.00     0.031 A 
ATOM     38  C   UNL A   1      38.363  31.362  31.618  1.00  0.00     0.074 A 
ATOM     39  C   UNL A   1      38.778  30.050  29.572  1.00  0.00     0.049 A 
ATOM     40  N   UNL A   1      39.296  30.903  32.413  1.00  0.00    -0.248 NA
ATOM     41  C   UNL A   1      37.460  32.339  32.248  1.00  0.00     0.031 C 
ATOM     42  C   UNL A   1      38.555  29.575  28.210  1.00  0.00     0.029 A 
ATOM     43  N   UNL A   1      39.823  29.287  30.031  1.00  0.00    -0.354 N 
ATOM     44  C   UNL A   1      39.093  31.533  33.633  1.00  0.00     0.074 A 
ATOM     45  C   UNL A   1      37.972  32.433  33.467  1.00  0.00     0.031 C 
ATOM     46  C   UNL A   1      39.455  28.616  27.933  1.00  0.00     0.029 A 
ATOM     47  C   UNL A   1      40.347  28.451  29.077  1.00  0.00     0.049 A 
ATOM     48  H   UNL A   1      40.163  29.333  30.953  1.00  0.00     0.167 HD
ATOM     49  C   UNL A   1      39.772  31.366  34.792  1.00  0.00     0.037 A 
ATOM     50  C   UNL A   1      41.448  27.675  29.109  1.00  0.00     0.037 A 
ATOM     51  C   UNL A   1      40.883  30.466  34.960  1.00  0.00     0.049 A 
ATOM     52  C   UNL A   1      42.261  27.593  30.369  1.00  0.00     0.074 A 
ATOM     53  C   UNL A   1      41.619  30.207  36.103  1.00  0.00     0.029 A 
ATOM     54  N   UNL A   1      41.422  29.683  33.950  1.00  0.00    -0.354 N 
ATOM     55  N   UNL A   1      42.065  28.189  31.519  1.00  0.00    -0.248 NA
ATOM     56  C   UNL A   1      43.443  26.719  30.339  1.00  0.00     0.031 C 
ATOM     57  C   UNL A   1      42.634  29.303  35.774  1.00  0.00     0.029 A 
ATOM     58  C   UNL A   1      42.499  28.961  34.437  1.00  0.00     0.049 A 
ATOM     59  H   UNL A   1      41.088  29.645  33.025  1.00  0.00     0.167 HD
ATOM     60  C   UNL A   1      43.074  27.738  32.359  1.00  0.00     0.074 A 
ATOM     61  C   UNL A   1      43.885  26.821  31.585  1.00  0.00     0.031 C 
ATOM     62  C   UNL A   1      43.296  28.048  33.659  1.00  0.00     0.037 A 
BRANCH  49  63
ATOM     63  C   UNL A   1      39.346  32.191  35.970  1.00  0.00     0.064 A 
ATOM     64  C   UNL A   1      39.847  33.484  36.183  1.00  0.00     0.173 A 
ATOM     65  C   UNL A   1      38.398  31.695  36.874  1.00  0.00     0.173 A 
ATOM     66  F   UNL A   1      40.769  33.997  35.355  1.00  0.00    -0.203 F 
ATOM     67  C   UNL A   1      39.428  34.241  37.275  1.00  0.00     0.198 A 
ATOM     68  C   UNL A   1      37.960  32.466  37.949  1.00  0.00     0.198 A 
ATOM     69  F   UNL A   1      37.886  30.465  36.713  1.00  0.00    -0.203 F 
ATOM     70  F   UNL A   1      39.951  35.458  37.484  1.00  0.00    -0.200 F 
ATOM     71  C   UNL A   1      38.480  33.735  38.151  1.00  0.00     0.200 A 
ATOM     72  F   UNL A   1      37.036  31.978  38.788  1.00  0.00    -0.200 F 
ATOM     73  F   UNL A   1      38.071  34.468  39.196  1.00  0.00    -0.200 F 
ENDBRANCH  49  63
BRANCH  50  74
ATOM     74  C   UNL A   1      41.871  26.946  27.888  1.00  0.00     0.064 A 
ATOM     75  C   UNL A   1      42.707  27.541  26.935  1.00  0.00     0.173 A 
ATOM     76  C   UNL A   1      41.428  25.638  27.645  1.00  0.00     0.173 A 
ATOM     77  F   UNL A   1      43.127  28.802  27.108  1.00  0.00    -0.203 F 
ATOM     78  C   UNL A   1      43.082  26.854  25.782  1.00  0.00     0.198 A 
ATOM     79  C   UNL A   1      41.825  24.943  26.507  1.00  0.00     0.198 A 
ATOM     80  F   UNL A   1      40.621  25.027  28.526  1.00  0.00    -0.203 F 
ATOM     81  F   UNL A   1      43.856  27.455  24.869  1.00  0.00    -0.200 F 
ATOM     82  C   UNL A   1      42.648  25.552  25.573  1.00  0.00     0.200 A 
ATOM     83  F   UNL A   1      41.416  23.680  26.321  1.00  0.00    -0.200 F 
ATOM     84  F   UNL A   1      43.018  24.889  24.470  1.00  0.00    -0.200 F 
ENDBRANCH  50  74
BRANCH  62  85
ATOM     85  C   UNL A   1      44.436  27.357  34.347  1.00  0.00     0.064 A 
ATOM     86  C   UNL A   1      44.282  26.102  34.950  1.00  0.00     0.173 A 
ATOM     87  C   UNL A   1      45.711  27.943  34.362  1.00  0.00     0.173 A 
ATOM     88  F   UNL A   1      43.077  25.510  34.978  1.00  0.00    -0.203 F 
ATOM     89  C   UNL A   1      45.360  25.464  35.558  1.00  0.00     0.198 A 
ATOM     90  C   UNL A   1      46.793  27.291  34.946  1.00  0.00     0.198 A 
ATOM     91  F   UNL A   1      45.910  29.143  33.794  1.00  0.00    -0.203 F 
ATOM     92  F   UNL A   1      45.182  24.282  36.164  1.00  0.00    -0.200 F 
ATOM     93  C   UNL A   1      46.615  26.055  35.548  1.00  0.00     0.200 A 
ATOM     94  F   UNL A   1      48.006  27.859  34.926  1.00  0.00    -0.200 F 
ATOM     95  F   UNL A   1      47.653  25.436  36.127  1.00  0.00    -0.200 F 
ENDBRANCH  62  85
ENDBRANCH  36  37
ENDBRANCH  29  31
ENDBRANCH  28  29
ENDBRANCH  27  28
ENDBRANCH  26  27
ENDBRANCH  25  26
ENDBRANCH   1  25
TORSDOF 17
ENDMDL
