MODEL 1
REMARK VINA RESULT:     -12.7      0.000      0.000
REMARK SMILES O=C(OCCOCCOC(=O)[C@H]1CC=CC[C@H]1c1nc2cc(Br)ccc2o1)c1ccc(-c2c3nc(c(-c4c(F)c(F)c(F)c(F)c4F)c4ccc([nH]4)c(-c4c(F)c(F)c(F)c(F)c4F)c4nc(c(-c5c(F)c(F)c(F)c(F)c5F)c5ccc2[nH]5)C=C4)C=C3)cc1
REMARK SMILES IDX 5 1 4 2 3 3 2 4 1 5 28 6 29 7 90 8 30 9 89 10 31 11 32 12
REMARK SMILES IDX 33 13 83 14 34 15 88 16 82 17 84 18 35 19 87 20 81 21 80 22
REMARK SMILES IDX 36 24 68 25 48 26 67 27 49 28 52 29 66 30 85 31 50 32 51 33
REMARK SMILES IDX 65 35 86 36 53 37 37 38 38 39 46 40 39 41 40 42 44 43 47 44
REMARK SMILES IDX 41 45 42 46 45 47 43 48 69 49 70 50 78 51 71 52 72 53 76 54
REMARK SMILES IDX 79 55 73 56 74 57 77 58 75 59 54 60 55 61 63 62 56 63 57 64
REMARK SMILES IDX 61 65 64 66 58 67 59 68 62 69 60 70 6 71 7 72 8 73 9 74
REMARK SMILES IDX 10 75 11 76 12 77 13 78 17 79 14 80 16 81 15 82 18 83 19 84
REMARK SMILES IDX 27 85 20 86 26 87 21 88 25 89 22 90 24 91 23 92
REMARK H PARENT 84 23 52 34
REMARK Flexibility Score: inf
ROOT
ATOM      1  C   UNL A   1      39.642  21.073  26.126  1.00  0.00     0.202 C 
ENDROOT
BRANCH   1   2
ATOM      2  C   UNL A   1      40.605  21.857  27.027  1.00  0.00     0.261 C 
BRANCH   2   3
ATOM      3  O   UNL A   1      41.960  22.035  26.543  1.00  0.00    -0.460 OA
BRANCH   3   4
ATOM      4  C   UNL A   1      42.452  23.105  25.850  1.00  0.00     0.338 C 
ATOM      5  O   UNL A   1      43.055  22.949  24.795  1.00  0.00    -0.246 OA
BRANCH   4   6
ATOM      6  C   UNL A   1      42.306  24.463  26.439  1.00  0.00     0.060 A 
ATOM      7  C   UNL A   1      42.988  24.788  27.624  1.00  0.00     0.016 A 
ATOM      8  C   UNL A   1      41.322  25.310  25.962  1.00  0.00     0.016 A 
ATOM      9  C   UNL A   1      42.546  25.860  28.420  1.00  0.00     0.010 A 
ATOM     10  C   UNL A   1      40.770  26.226  26.840  1.00  0.00     0.010 A 
ATOM     11  C   UNL A   1      41.373  26.539  28.074  1.00  0.00    -0.014 A 
BRANCH  11  12
ATOM     12  C   UNL A   1      40.979  27.853  28.641  1.00  0.00     0.031 A 
ATOM     13  C   UNL A   1      41.949  28.858  28.130  1.00  0.00     0.074 A 
ATOM     14  C   UNL A   1      39.976  28.294  29.443  1.00  0.00     0.049 A 
ATOM     15  N   UNL A   1      43.014  29.200  28.779  1.00  0.00    -0.248 NA
ATOM     16  C   UNL A   1      41.940  29.285  26.722  1.00  0.00     0.031 C 
ATOM     17  C   UNL A   1      38.907  27.591  30.146  1.00  0.00     0.029 A 
ATOM     18  N   UNL A   1      39.704  29.606  29.776  1.00  0.00    -0.354 N 
ATOM     19  C   UNL A   1      43.730  29.998  27.911  1.00  0.00     0.074 A 
ATOM     20  C   UNL A   1      43.176  29.772  26.606  1.00  0.00     0.031 C 
ATOM     21  C   UNL A   1      38.006  28.478  30.654  1.00  0.00     0.029 A 
ATOM     22  C   UNL A   1      38.467  29.833  30.390  1.00  0.00     0.049 A 
ATOM     23  H   UNL A   1      40.340  30.336  29.593  1.00  0.00     0.167 HD
ATOM     24  C   UNL A   1      44.530  30.988  28.382  1.00  0.00     0.037 A 
ATOM     25  C   UNL A   1      37.972  30.987  30.928  1.00  0.00     0.037 A 
ATOM     26  C   UNL A   1      44.763  30.835  29.799  1.00  0.00     0.049 A 
ATOM     27  C   UNL A   1      39.176  31.751  31.337  1.00  0.00     0.074 A 
ATOM     28  C   UNL A   1      45.352  29.856  30.578  1.00  0.00     0.029 A 
ATOM     29  N   UNL A   1      43.970  31.563  30.655  1.00  0.00    -0.354 N 
ATOM     30  N   UNL A   1      39.938  31.388  32.331  1.00  0.00    -0.248 NA
ATOM     31  C   UNL A   1      39.786  32.639  30.361  1.00  0.00     0.031 C 
ATOM     32  C   UNL A   1      44.538  29.762  31.746  1.00  0.00     0.029 A 
ATOM     33  C   UNL A   1      43.539  30.729  31.656  1.00  0.00     0.049 A 
ATOM     34  H   UNL A   1      43.750  32.519  30.564  1.00  0.00     0.167 HD
ATOM     35  C   UNL A   1      41.225  31.618  31.874  1.00  0.00     0.074 A 
ATOM     36  C   UNL A   1      41.068  32.466  30.693  1.00  0.00     0.031 C 
ATOM     37  C   UNL A   1      42.270  30.871  32.332  1.00  0.00     0.037 A 
BRANCH  24  38
ATOM     38  C   UNL A   1      44.777  32.267  27.634  1.00  0.00     0.064 A 
ATOM     39  C   UNL A   1      45.981  32.420  26.927  1.00  0.00     0.173 A 
ATOM     40  C   UNL A   1      43.997  33.440  27.774  1.00  0.00     0.173 A 
ATOM     41  F   UNL A   1      46.815  31.382  26.768  1.00  0.00    -0.203 F 
ATOM     42  C   UNL A   1      46.392  33.663  26.441  1.00  0.00     0.198 A 
ATOM     43  C   UNL A   1      44.378  34.661  27.229  1.00  0.00     0.198 A 
ATOM     44  F   UNL A   1      42.901  33.493  28.539  1.00  0.00    -0.203 F 
ATOM     45  F   UNL A   1      47.600  33.787  25.877  1.00  0.00    -0.200 F 
ATOM     46  C   UNL A   1      45.589  34.780  26.587  1.00  0.00     0.200 A 
ATOM     47  F   UNL A   1      43.594  35.733  27.408  1.00  0.00    -0.200 F 
ATOM     48  F   UNL A   1      46.003  35.980  26.163  1.00  0.00    -0.200 F 
ENDBRANCH  24  38
BRANCH  25  49
ATOM     49  C   UNL A   1      36.669  31.706  30.692  1.00  0.00     0.064 A 
ATOM     50  C   UNL A   1      35.824  32.031  31.771  1.00  0.00     0.173 A 
ATOM     51  C   UNL A   1      36.326  32.333  29.482  1.00  0.00     0.173 A 
ATOM     52  F   UNL A   1      36.046  31.497  32.979  1.00  0.00    -0.203 F 
ATOM     53  C   UNL A   1      34.769  32.955  31.653  1.00  0.00     0.198 A 
ATOM     54  C   UNL A   1      35.288  33.264  29.358  1.00  0.00     0.198 A 
ATOM     55  F   UNL A   1      37.021  32.107  28.377  1.00  0.00    -0.203 F 
ATOM     56  F   UNL A   1      34.027  33.265  32.725  1.00  0.00    -0.200 F 
ATOM     57  C   UNL A   1      34.517  33.591  30.450  1.00  0.00     0.200 A 
ATOM     58  F   UNL A   1      35.080  33.876  28.182  1.00  0.00    -0.200 F 
ATOM     59  F   UNL A   1      33.559  34.522  30.349  1.00  0.00    -0.200 F 
ENDBRANCH  25  49
BRANCH  37  60
ATOM     60  C   UNL A   1      42.014  29.960  33.504  1.00  0.00     0.064 A 
ATOM     61  C   UNL A   1      41.638  28.611  33.382  1.00  0.00     0.173 A 
ATOM     62  C   UNL A   1      42.304  30.423  34.792  1.00  0.00     0.173 A 
ATOM     63  F   UNL A   1      41.430  28.066  32.182  1.00  0.00    -0.203 F 
ATOM     64  C   UNL A   1      41.532  27.775  34.492  1.00  0.00     0.198 A 
ATOM     65  C   UNL A   1      42.230  29.580  35.898  1.00  0.00     0.198 A 
ATOM     66  F   UNL A   1      42.712  31.689  34.970  1.00  0.00    -0.203 F 
ATOM     67  F   UNL A   1      41.170  26.491  34.339  1.00  0.00    -0.200 F 
ATOM     68  C   UNL A   1      41.838  28.258  35.751  1.00  0.00     0.200 A 
ATOM     69  F   UNL A   1      42.571  30.042  37.110  1.00  0.00    -0.200 F 
ATOM     70  F   UNL A   1      41.783  27.447  36.816  1.00  0.00    -0.200 F 
ENDBRANCH  37  60
ENDBRANCH  11  12
ENDBRANCH   4   6
ENDBRANCH   3   4
ENDBRANCH   2   3
ENDBRANCH   1   2
BRANCH   1  71
ATOM     71  O   UNL A   1      38.607  21.859  25.577  1.00  0.00    -0.374 OA
BRANCH  71  72
ATOM     72  C   UNL A   1      37.496  21.152  25.059  1.00  0.00     0.202 C 
BRANCH  72  73
ATOM     73  C   UNL A   1      36.432  22.011  24.370  1.00  0.00     0.261 C 
BRANCH  73  74
ATOM     74  O   UNL A   1      35.159  22.059  25.066  1.00  0.00    -0.463 OA
BRANCH  74  75
ATOM     75  C   UNL A   1      34.481  23.230  24.902  1.00  0.00     0.310 C 
ATOM     76  O   UNL A   1      34.985  24.221  24.429  1.00  0.00    -0.252 OA
BRANCH  75  77
ATOM     77  C   UNL A   1      33.039  23.190  25.398  1.00  0.00     0.115 C 
ATOM     78  C   UNL A   1      32.480  24.619  25.415  1.00  0.00     0.043 C 
ATOM     79  C   UNL A   1      32.110  22.365  24.484  1.00  0.00     0.094 C 
ATOM     80  C   UNL A   1      32.151  25.109  24.027  1.00  0.00    -0.030 C 
ATOM     81  C   UNL A   1      32.096  22.859  23.024  1.00  0.00     0.041 C 
ATOM     82  C   UNL A   1      31.988  24.341  22.946  1.00  0.00    -0.030 C 
BRANCH  79  83
ATOM     83  C   UNL A   1      32.386  20.917  24.564  1.00  0.00     0.199 A 
ATOM     84  N   UNL A   1      32.311  20.121  25.609  1.00  0.00    -0.213 NA
ATOM     85  O   UNL A   1      32.772  20.309  23.402  1.00  0.00    -0.440 OA
ATOM     86  C   UNL A   1      32.581  18.887  25.095  1.00  0.00     0.111 A 
ATOM     87  C   UNL A   1      32.902  19.000  23.754  1.00  0.00     0.154 A 
ATOM     88  C   UNL A   1      32.549  17.626  25.693  1.00  0.00     0.048 A 
ATOM     89  C   UNL A   1      33.265  17.938  22.941  1.00  0.00     0.050 A 
ATOM     90  C   UNL A   1      32.872  16.528  24.897  1.00  0.00     0.020 A 
ATOM     91  C   UNL A   1      33.243  16.678  23.556  1.00  0.00     0.019 A 
ATOM     92  Br  UNL A   1      32.784  14.799  25.661  1.00  0.00    -0.051 Br
ENDBRANCH  79  83
ENDBRANCH  75  77
ENDBRANCH  74  75
ENDBRANCH  73  74
ENDBRANCH  72  73
ENDBRANCH  71  72
ENDBRANCH   1  71
TORSDOF 15
ENDMDL
MODEL 2
REMARK VINA RESULT:     -12.6      4.763      8.058
REMARK SMILES O=C(OCCOCCOC(=O)[C@H]1CC=CC[C@H]1c1nc2cc(Br)ccc2o1)c1ccc(-c2c3nc(c(-c4c(F)c(F)c(F)c(F)c4F)c4ccc([nH]4)c(-c4c(F)c(F)c(F)c(F)c4F)c4nc(c(-c5c(F)c(F)c(F)c(F)c5F)c5ccc2[nH]5)C=C4)C=C3)cc1
REMARK SMILES IDX 5 1 4 2 3 3 2 4 1 5 28 6 29 7 90 8 30 9 89 10 31 11 32 12
REMARK SMILES IDX 33 13 83 14 34 15 88 16 82 17 84 18 35 19 87 20 81 21 80 22
REMARK SMILES IDX 36 24 68 25 48 26 67 27 49 28 52 29 66 30 85 31 50 32 51 33
REMARK SMILES IDX 65 35 86 36 53 37 37 38 38 39 46 40 39 41 40 42 44 43 47 44
REMARK SMILES IDX 41 45 42 46 45 47 43 48 69 49 70 50 78 51 71 52 72 53 76 54
REMARK SMILES IDX 79 55 73 56 74 57 77 58 75 59 54 60 55 61 63 62 56 63 57 64
REMARK SMILES IDX 61 65 64 66 58 67 59 68 62 69 60 70 6 71 7 72 8 73 9 74
REMARK SMILES IDX 10 75 11 76 12 77 13 78 17 79 14 80 16 81 15 82 18 83 19 84
REMARK SMILES IDX 27 85 20 86 26 87 21 88 25 89 22 90 24 91 23 92
REMARK H PARENT 84 23 52 34
REMARK Flexibility Score: inf
ROOT
ATOM      1  C   UNL A   1      43.887  19.989  25.458  1.00  0.00     0.202 C 
ENDROOT
BRANCH   1   2
ATOM      2  C   UNL A   1      42.514  20.308  26.066  1.00  0.00     0.261 C 
BRANCH   2   3
ATOM      3  O   UNL A   1      41.950  21.609  25.767  1.00  0.00    -0.460 OA
BRANCH   3   4
ATOM      4  C   UNL A   1      40.903  22.217  26.401  1.00  0.00     0.338 C 
ATOM      5  O   UNL A   1      39.824  21.648  26.525  1.00  0.00    -0.246 OA
BRANCH   4   6
ATOM      6  C   UNL A   1      41.074  23.616  26.877  1.00  0.00     0.060 A 
ATOM      7  C   UNL A   1      42.015  23.903  27.879  1.00  0.00     0.016 A 
ATOM      8  C   UNL A   1      40.148  24.577  26.512  1.00  0.00     0.016 A 
ATOM      9  C   UNL A   1      41.899  25.081  28.639  1.00  0.00     0.010 A 
ATOM     10  C   UNL A   1      39.919  25.625  27.387  1.00  0.00     0.010 A 
ATOM     11  C   UNL A   1      40.792  25.916  28.454  1.00  0.00    -0.014 A 
BRANCH  11  12
ATOM     12  C   UNL A   1      40.711  27.309  28.957  1.00  0.00     0.031 A 
ATOM     13  C   UNL A   1      41.837  28.062  28.342  1.00  0.00     0.074 A 
ATOM     14  C   UNL A   1      39.870  27.990  29.777  1.00  0.00     0.049 A 
ATOM     15  N   UNL A   1      42.985  28.205  28.919  1.00  0.00    -0.248 NA
ATOM     16  C   UNL A   1      41.834  28.412  26.913  1.00  0.00     0.031 C 
ATOM     17  C   UNL A   1      38.721  27.563  30.570  1.00  0.00     0.029 A 
ATOM     18  N   UNL A   1      39.895  29.345  30.042  1.00  0.00    -0.354 N 
ATOM     19  C   UNL A   1      43.799  28.791  27.971  1.00  0.00     0.074 A 
ATOM     20  C   UNL A   1      43.135  28.622  26.710  1.00  0.00     0.031 C 
ATOM     21  C   UNL A   1      38.054  28.643  31.064  1.00  0.00     0.029 A 
ATOM     22  C   UNL A   1      38.769  29.856  30.698  1.00  0.00     0.049 A 
ATOM     23  H   UNL A   1      40.655  29.915  29.786  1.00  0.00     0.167 HD
ATOM     24  C   UNL A   1      44.813  29.614  28.344  1.00  0.00     0.037 A 
ATOM     25  C   UNL A   1      38.555  31.114  31.187  1.00  0.00     0.037 A 
ATOM     26  C   UNL A   1      45.091  29.486  29.755  1.00  0.00     0.049 A 
ATOM     27  C   UNL A   1      39.913  31.628  31.493  1.00  0.00     0.074 A 
ATOM     28  C   UNL A   1      45.509  28.445  30.564  1.00  0.00     0.029 A 
ATOM     29  N   UNL A   1      44.517  30.406  30.601  1.00  0.00    -0.354 N 
ATOM     30  N   UNL A   1      40.639  31.163  32.470  1.00  0.00    -0.248 NA
ATOM     31  C   UNL A   1      40.635  32.319  30.437  1.00  0.00     0.031 C 
ATOM     32  C   UNL A   1      44.762  28.581  31.772  1.00  0.00     0.029 A 
ATOM     33  C   UNL A   1      43.981  29.731  31.671  1.00  0.00     0.049 A 
ATOM     34  H   UNL A   1      44.494  31.381  30.463  1.00  0.00     0.167 HD
ATOM     35  C   UNL A   1      41.917  31.095  31.942  1.00  0.00     0.074 A 
ATOM     36  C   UNL A   1      41.871  31.898  30.720  1.00  0.00     0.031 C 
ATOM     37  C   UNL A   1      42.811  30.169  32.394  1.00  0.00     0.037 A 
BRANCH  24  38
ATOM     38  C   UNL A   1      45.274  30.774  27.509  1.00  0.00     0.064 A 
ATOM     39  C   UNL A   1      46.644  30.910  27.232  1.00  0.00     0.173 A 
ATOM     40  C   UNL A   1      44.469  31.888  27.170  1.00  0.00     0.173 A 
ATOM     41  F   UNL A   1      47.504  29.930  27.548  1.00  0.00    -0.203 F 
ATOM     42  C   UNL A   1      47.171  32.089  26.701  1.00  0.00     0.198 A 
ATOM     43  C   UNL A   1      44.989  33.033  26.579  1.00  0.00     0.198 A 
ATOM     44  F   UNL A   1      43.176  31.973  27.501  1.00  0.00    -0.203 F 
ATOM     45  F   UNL A   1      48.497  32.219  26.563  1.00  0.00    -0.200 F 
ATOM     46  C   UNL A   1      46.343  33.147  26.370  1.00  0.00     0.200 A 
ATOM     47  F   UNL A   1      44.167  34.054  26.293  1.00  0.00    -0.200 F 
ATOM     48  F   UNL A   1      46.853  34.294  25.905  1.00  0.00    -0.200 F 
ENDBRANCH  24  38
BRANCH  25  49
ATOM     49  C   UNL A   1      37.417  32.078  30.969  1.00  0.00     0.064 A 
ATOM     50  C   UNL A   1      37.084  32.512  29.671  1.00  0.00     0.173 A 
ATOM     51  C   UNL A   1      36.459  32.394  31.947  1.00  0.00     0.173 A 
ATOM     52  F   UNL A   1      37.919  32.271  28.651  1.00  0.00    -0.203 F 
ATOM     53  C   UNL A   1      35.866  33.151  29.378  1.00  0.00     0.198 A 
ATOM     54  C   UNL A   1      35.237  33.017  31.661  1.00  0.00     0.198 A 
ATOM     55  F   UNL A   1      36.645  32.064  33.217  1.00  0.00    -0.203 F 
ATOM     56  F   UNL A   1      35.579  33.500  28.115  1.00  0.00    -0.200 F 
ATOM     57  C   UNL A   1      34.930  33.381  30.371  1.00  0.00     0.200 A 
ATOM     58  F   UNL A   1      34.344  33.210  32.644  1.00  0.00    -0.200 F 
ATOM     59  F   UNL A   1      33.740  33.926  30.085  1.00  0.00    -0.200 F 
ENDBRANCH  25  49
BRANCH  37  60
ATOM     60  C   UNL A   1      42.440  29.391  33.631  1.00  0.00     0.064 A 
ATOM     61  C   UNL A   1      41.820  28.130  33.607  1.00  0.00     0.173 A 
ATOM     62  C   UNL A   1      42.861  29.868  34.877  1.00  0.00     0.173 A 
ATOM     63  F   UNL A   1      41.469  27.563  32.451  1.00  0.00    -0.203 F 
ATOM     64  C   UNL A   1      41.608  27.394  34.772  1.00  0.00     0.198 A 
ATOM     65  C   UNL A   1      42.679  29.119  36.037  1.00  0.00     0.198 A 
ATOM     66  F   UNL A   1      43.499  31.046  34.960  1.00  0.00    -0.203 F 
ATOM     67  F   UNL A   1      41.013  26.192  34.713  1.00  0.00    -0.200 F 
ATOM     68  C   UNL A   1      42.047  27.886  35.988  1.00  0.00     0.200 A 
ATOM     69  F   UNL A   1      43.147  29.581  37.206  1.00  0.00    -0.200 F 
ATOM     70  F   UNL A   1      41.889  27.163  37.104  1.00  0.00    -0.200 F 
ENDBRANCH  37  60
ENDBRANCH  11  12
ENDBRANCH   4   6
ENDBRANCH   3   4
ENDBRANCH   2   3
ENDBRANCH   1   2
BRANCH   1  71
ATOM     71  O   UNL A   1      44.146  20.669  24.250  1.00  0.00    -0.374 OA
BRANCH  71  72
ATOM     72  C   UNL A   1      45.376  21.365  24.179  1.00  0.00     0.202 C 
BRANCH  72  73
ATOM     73  C   UNL A   1      45.270  22.862  23.877  1.00  0.00     0.261 C 
BRANCH  73  74
ATOM     74  O   UNL A   1      46.495  23.607  24.105  1.00  0.00    -0.463 OA
BRANCH  74  75
ATOM     75  C   UNL A   1      46.550  24.224  25.319  1.00  0.00     0.310 C 
ATOM     76  O   UNL A   1      47.045  23.711  26.295  1.00  0.00    -0.252 OA
BRANCH  75  77
ATOM     77  C   UNL A   1      45.905  25.606  25.347  1.00  0.00     0.115 C 
ATOM     78  C   UNL A   1      44.823  25.627  26.435  1.00  0.00     0.043 C 
ATOM     79  C   UNL A   1      46.902  26.730  25.696  1.00  0.00     0.094 C 
ATOM     80  C   UNL A   1      45.419  25.708  27.817  1.00  0.00    -0.030 C 
ATOM     81  C   UNL A   1      47.617  26.513  27.045  1.00  0.00     0.041 C 
ATOM     82  C   UNL A   1      46.667  26.089  28.109  1.00  0.00    -0.030 C 
BRANCH  79  83
ATOM     83  C   UNL A   1      47.866  26.983  24.606  1.00  0.00     0.199 A 
ATOM     84  N   UNL A   1      49.177  26.890  24.629  1.00  0.00    -0.213 NA
ATOM     85  O   UNL A   1      47.334  27.365  23.406  1.00  0.00    -0.440 OA
ATOM     86  C   UNL A   1      49.542  27.143  23.339  1.00  0.00     0.111 A 
ATOM     87  C   UNL A   1      48.423  27.473  22.595  1.00  0.00     0.154 A 
ATOM     88  C   UNL A   1      50.791  27.087  22.720  1.00  0.00     0.048 A 
ATOM     89  C   UNL A   1      48.447  27.824  21.255  1.00  0.00     0.050 A 
ATOM     90  C   UNL A   1      50.850  27.398  21.361  1.00  0.00     0.020 A 
ATOM     91  C   UNL A   1      49.709  27.779  20.646  1.00  0.00     0.019 A 
ATOM     92  Br  UNL A   1      52.519  27.278  20.477  1.00  0.00    -0.051 Br
ENDBRANCH  79  83
ENDBRANCH  75  77
ENDBRANCH  74  75
ENDBRANCH  73  74
ENDBRANCH  72  73
ENDBRANCH  71  72
ENDBRANCH   1  71
TORSDOF 15
ENDMDL
MODEL 3
REMARK VINA RESULT:     -12.6      2.378      3.691
REMARK SMILES O=C(OCCOCCOC(=O)[C@H]1CC=CC[C@H]1c1nc2cc(Br)ccc2o1)c1ccc(-c2c3nc(c(-c4c(F)c(F)c(F)c(F)c4F)c4ccc([nH]4)c(-c4c(F)c(F)c(F)c(F)c4F)c4nc(c(-c5c(F)c(F)c(F)c(F)c5F)c5ccc2[nH]5)C=C4)C=C3)cc1
REMARK SMILES IDX 5 1 4 2 3 3 2 4 1 5 28 6 29 7 90 8 30 9 89 10 31 11 32 12
REMARK SMILES IDX 33 13 83 14 34 15 88 16 82 17 84 18 35 19 87 20 81 21 80 22
REMARK SMILES IDX 36 24 68 25 48 26 67 27 49 28 52 29 66 30 85 31 50 32 51 33
REMARK SMILES IDX 65 35 86 36 53 37 37 38 38 39 46 40 39 41 40 42 44 43 47 44
REMARK SMILES IDX 41 45 42 46 45 47 43 48 69 49 70 50 78 51 71 52 72 53 76 54
REMARK SMILES IDX 79 55 73 56 74 57 77 58 75 59 54 60 55 61 63 62 56 63 57 64
REMARK SMILES IDX 61 65 64 66 58 67 59 68 62 69 60 70 6 71 7 72 8 73 9 74
REMARK SMILES IDX 10 75 11 76 12 77 13 78 17 79 14 80 16 81 15 82 18 83 19 84
REMARK SMILES IDX 27 85 20 86 26 87 21 88 25 89 22 90 24 91 23 92
REMARK H PARENT 84 23 52 34
REMARK Flexibility Score: inf
ROOT
ATOM      1  C   UNL A   1      39.010  22.092  26.223  1.00  0.00     0.202 C 
ENDROOT
BRANCH   1   2
ATOM      2  C   UNL A   1      40.307  21.273  26.174  1.00  0.00     0.261 C 
BRANCH   2   3
ATOM      3  O   UNL A   1      41.521  21.940  26.600  1.00  0.00    -0.460 OA
BRANCH   3   4
ATOM      4  C   UNL A   1      42.173  22.953  25.955  1.00  0.00     0.338 C 
ATOM      5  O   UNL A   1      42.885  22.727  24.983  1.00  0.00    -0.246 OA
BRANCH   4   6
ATOM      6  C   UNL A   1      42.061  24.332  26.500  1.00  0.00     0.060 A 
ATOM      7  C   UNL A   1      42.885  24.730  27.567  1.00  0.00     0.016 A 
ATOM      8  C   UNL A   1      40.994  25.128  26.126  1.00  0.00     0.016 A 
ATOM      9  C   UNL A   1      42.518  25.826  28.370  1.00  0.00     0.010 A 
ATOM     10  C   UNL A   1      40.534  26.069  27.031  1.00  0.00     0.010 A 
ATOM     11  C   UNL A   1      41.287  26.455  28.158  1.00  0.00    -0.014 A 
BRANCH  11  12
ATOM     12  C   UNL A   1      40.928  27.782  28.716  1.00  0.00     0.031 A 
ATOM     13  C   UNL A   1      41.915  28.761  28.188  1.00  0.00     0.074 A 
ATOM     14  C   UNL A   1      39.943  28.253  29.523  1.00  0.00     0.049 A 
ATOM     15  N   UNL A   1      42.993  29.084  28.824  1.00  0.00    -0.248 NA
ATOM     16  C   UNL A   1      41.902  29.176  26.777  1.00  0.00     0.031 C 
ATOM     17  C   UNL A   1      38.864  27.581  30.243  1.00  0.00     0.029 A 
ATOM     18  N   UNL A   1      39.704  29.573  29.847  1.00  0.00    -0.354 N 
ATOM     19  C   UNL A   1      43.720  29.858  27.942  1.00  0.00     0.074 A 
ATOM     20  C   UNL A   1      43.148  29.634  26.645  1.00  0.00     0.031 C 
ATOM     21  C   UNL A   1      37.988  28.492  30.751  1.00  0.00     0.029 A 
ATOM     22  C   UNL A   1      38.478  29.834  30.471  1.00  0.00     0.049 A 
ATOM     23  H   UNL A   1      40.353  30.287  29.652  1.00  0.00     0.167 HD
ATOM     24  C   UNL A   1      44.546  30.834  28.398  1.00  0.00     0.037 A 
ATOM     25  C   UNL A   1      38.014  31.004  31.004  1.00  0.00     0.037 A 
ATOM     26  C   UNL A   1      44.789  30.688  29.813  1.00  0.00     0.049 A 
ATOM     27  C   UNL A   1      39.238  31.743  31.395  1.00  0.00     0.074 A 
ATOM     28  C   UNL A   1      45.363  29.703  30.596  1.00  0.00     0.029 A 
ATOM     29  N   UNL A   1      44.021  31.441  30.670  1.00  0.00    -0.354 N 
ATOM     30  N   UNL A   1      40.001  31.372  32.385  1.00  0.00    -0.248 NA
ATOM     31  C   UNL A   1      39.859  32.609  30.405  1.00  0.00     0.031 C 
ATOM     32  C   UNL A   1      44.558  29.636  31.772  1.00  0.00     0.029 A 
ATOM     33  C   UNL A   1      43.580  30.626  31.683  1.00  0.00     0.049 A 
ATOM     34  H   UNL A   1      43.821  32.401  30.573  1.00  0.00     0.167 HD
ATOM     35  C   UNL A   1      41.288  31.568  31.914  1.00  0.00     0.074 A 
ATOM     36  C   UNL A   1      41.140  32.410  30.727  1.00  0.00     0.031 C 
ATOM     37  C   UNL A   1      42.321  30.802  32.369  1.00  0.00     0.037 A 
BRANCH  24  38
ATOM     38  C   UNL A   1      44.814  32.100  27.636  1.00  0.00     0.064 A 
ATOM     39  C   UNL A   1      46.042  32.246  26.969  1.00  0.00     0.173 A 
ATOM     40  C   UNL A   1      44.027  33.273  27.728  1.00  0.00     0.173 A 
ATOM     41  F   UNL A   1      46.884  31.209  26.857  1.00  0.00    -0.203 F 
ATOM     42  C   UNL A   1      46.466  33.482  26.475  1.00  0.00     0.198 A 
ATOM     43  C   UNL A   1      44.423  34.485  27.175  1.00  0.00     0.198 A 
ATOM     44  F   UNL A   1      42.904  33.335  28.453  1.00  0.00    -0.203 F 
ATOM     45  F   UNL A   1      47.692  33.600  25.952  1.00  0.00    -0.200 F 
ATOM     46  C   UNL A   1      45.654  34.598  26.574  1.00  0.00     0.200 A 
ATOM     47  F   UNL A   1      43.629  35.558  27.308  1.00  0.00    -0.200 F 
ATOM     48  F   UNL A   1      46.079  35.792  26.143  1.00  0.00    -0.200 F 
ENDBRANCH  24  38
BRANCH  25  49
ATOM     49  C   UNL A   1      36.725  31.750  30.773  1.00  0.00     0.064 A 
ATOM     50  C   UNL A   1      35.864  32.043  31.849  1.00  0.00     0.173 A 
ATOM     51  C   UNL A   1      36.414  32.430  29.584  1.00  0.00     0.173 A 
ATOM     52  F   UNL A   1      36.056  31.456  33.038  1.00  0.00    -0.203 F 
ATOM     53  C   UNL A   1      34.824  32.985  31.749  1.00  0.00     0.198 A 
ATOM     54  C   UNL A   1      35.390  33.381  29.479  1.00  0.00     0.198 A 
ATOM     55  F   UNL A   1      37.127  32.240  28.483  1.00  0.00    -0.203 F 
ATOM     56  F   UNL A   1      34.065  33.261  32.820  1.00  0.00    -0.200 F 
ATOM     57  C   UNL A   1      34.604  33.673  30.569  1.00  0.00     0.200 A 
ATOM     58  F   UNL A   1      35.213  34.043  28.326  1.00  0.00    -0.200 F 
ATOM     59  F   UNL A   1      33.660  34.621  30.489  1.00  0.00    -0.200 F 
ENDBRANCH  25  49
BRANCH  37  60
ATOM     60  C   UNL A   1      42.056  29.907  33.551  1.00  0.00     0.064 A 
ATOM     61  C   UNL A   1      41.669  28.560  33.444  1.00  0.00     0.173 A 
ATOM     62  C   UNL A   1      42.348  30.383  34.834  1.00  0.00     0.173 A 
ATOM     63  F   UNL A   1      41.458  28.003  32.250  1.00  0.00    -0.203 F 
ATOM     64  C   UNL A   1      41.553  27.738  34.564  1.00  0.00     0.198 A 
ATOM     65  C   UNL A   1      42.264  29.553  35.950  1.00  0.00     0.198 A 
ATOM     66  F   UNL A   1      42.766  31.648  34.998  1.00  0.00    -0.203 F 
ATOM     67  F   UNL A   1      41.181  26.456  34.425  1.00  0.00    -0.200 F 
ATOM     68  C   UNL A   1      41.861  28.234  35.818  1.00  0.00     0.200 A 
ATOM     69  F   UNL A   1      42.608  30.027  37.157  1.00  0.00    -0.200 F 
ATOM     70  F   UNL A   1      41.799  27.436  36.892  1.00  0.00    -0.200 F 
ENDBRANCH  37  60
ENDBRANCH  11  12
ENDBRANCH   4   6
ENDBRANCH   3   4
ENDBRANCH   2   3
ENDBRANCH   1   2
BRANCH   1  71
ATOM     71  O   UNL A   1      37.886  21.413  25.708  1.00  0.00    -0.374 OA
BRANCH  71  72
ATOM     72  C   UNL A   1      37.347  21.926  24.505  1.00  0.00     0.202 C 
BRANCH  72  73
ATOM     73  C   UNL A   1      35.856  22.273  24.547  1.00  0.00     0.261 C 
BRANCH  73  74
ATOM     74  O   UNL A   1      35.391  23.056  23.416  1.00  0.00    -0.463 OA
BRANCH  74  75
ATOM     75  C   UNL A   1      34.630  24.132  23.762  1.00  0.00     0.310 C 
ATOM     76  O   UNL A   1      34.836  24.792  24.753  1.00  0.00    -0.252 OA
BRANCH  75  77
ATOM     77  C   UNL A   1      33.473  24.411  22.807  1.00  0.00     0.115 C 
ATOM     78  C   UNL A   1      33.270  23.189  21.902  1.00  0.00     0.043 C 
ATOM     79  C   UNL A   1      32.134  24.648  23.536  1.00  0.00     0.094 C 
ATOM     80  C   UNL A   1      32.594  22.056  22.634  1.00  0.00    -0.030 C 
ATOM     81  C   UNL A   1      31.723  23.476  24.450  1.00  0.00     0.041 C 
ATOM     82  C   UNL A   1      31.910  22.162  23.777  1.00  0.00    -0.030 C 
BRANCH  79  83
ATOM     83  C   UNL A   1      32.109  25.935  24.259  1.00  0.00     0.199 A 
ATOM     84  N   UNL A   1      32.177  27.154  23.772  1.00  0.00    -0.213 NA
ATOM     85  O   UNL A   1      32.000  25.862  25.620  1.00  0.00    -0.440 OA
ATOM     86  C   UNL A   1      32.016  27.950  24.868  1.00  0.00     0.111 A 
ATOM     87  C   UNL A   1      31.947  27.167  26.006  1.00  0.00     0.154 A 
ATOM     88  C   UNL A   1      31.895  29.336  24.975  1.00  0.00     0.048 A 
ATOM     89  C   UNL A   1      31.823  27.663  27.294  1.00  0.00     0.050 A 
ATOM     90  C   UNL A   1      31.731  29.871  26.253  1.00  0.00     0.020 A 
ATOM     91  C   UNL A   1      31.716  29.058  27.392  1.00  0.00     0.019 A 
ATOM     92  Br  UNL A   1      31.506  31.741  26.429  1.00  0.00    -0.051 Br
ENDBRANCH  79  83
ENDBRANCH  75  77
ENDBRANCH  74  75
ENDBRANCH  73  74
ENDBRANCH  72  73
ENDBRANCH  71  72
ENDBRANCH   1  71
TORSDOF 15
ENDMDL
