MODEL 1
REMARK VINA RESULT:     -12.0      0.000      0.000
REMARK SMILES Cc1ccc(C(C)(C)C)c(OCC(=O)c2nc(C)c(C(=O)OCCOCCOC(=O)c3ccc(-c4c5nc(c(-c6c(F)c(F)c(F)c(F)c6F)c6ccc([nH]6)c(-c6c(F)c(F)c(F)c(F)c6F)c6nc(c(-c7c(F)c(F)c(F)c(F)c7F)c7ccc4[nH]7)C=C6)C=C5)cc3)s2)c1
REMARK SMILES IDX 23 1 22 2 20 3 21 4 19 5 15 6 16 7 94 8 17 9 18 10 13 11
REMARK SMILES IDX 14 12 12 13 11 14 10 15 1 16 2 17 3 18 95 19 4 20 5 21 6 22
REMARK SMILES IDX 7 23 8 24 9 25 24 26 25 27 26 28 27 29 28 30 29 31 30 32
REMARK SMILES IDX 31 33 32 34 93 35 33 36 92 37 34 38 35 39 36 40 86 41 37 42
REMARK SMILES IDX 91 43 85 44 87 45 38 46 90 47 84 48 83 49 39 51 71 52 51 53
REMARK SMILES IDX 70 54 52 55 55 56 69 57 88 58 53 59 54 60 68 62 89 63 56 64
REMARK SMILES IDX 40 65 41 66 49 67 42 68 43 69 47 70 50 71 44 72 45 73 48 74
REMARK SMILES IDX 46 75 72 76 73 77 81 78 74 79 75 80 79 81 82 82 76 83 77 84
REMARK SMILES IDX 80 85 78 86 57 87 58 88 66 89 59 90 60 91 64 92 67 93 61 94
REMARK SMILES IDX 62 95 65 96 63 97
REMARK H PARENT 87 50 55 61
REMARK Flexibility Score: inf
ROOT
ATOM      1  C   UNL A   1      41.287  20.498  27.199  1.00  0.00     0.261 C 
ENDROOT
BRANCH   1   2
ATOM      2  O   UNL A   1      39.983  21.075  27.109  1.00  0.00    -0.459 OA
BRANCH   2   3
ATOM      3  C   UNL A   1      39.843  22.231  26.391  1.00  0.00     0.350 C 
ATOM      4  O   UNL A   1      40.716  23.050  26.214  1.00  0.00    -0.245 OA
BRANCH   3   5
ATOM      5  C   UNL A   1      38.511  22.236  25.837  1.00  0.00     0.136 A 
ATOM      6  C   UNL A   1      36.451  23.017  24.858  1.00  0.00     0.164 A 
ATOM      7  N   UNL A   1      36.586  21.727  24.632  1.00  0.00    -0.237 NA
ATOM      8  S   UNL A   1      37.633  23.699  25.874  1.00  0.00    -0.103 S 
ATOM      9  C   UNL A   1      37.774  21.263  25.177  1.00  0.00     0.064 A 
ATOM     10  C   UNL A   1      38.092  19.825  24.937  1.00  0.00     0.068 C 
BRANCH   6  11
ATOM     11  C   UNL A   1      35.351  23.784  24.302  1.00  0.00     0.228 C 
ATOM     12  O   UNL A   1      35.063  23.774  23.099  1.00  0.00    -0.288 OA
BRANCH  11  13
ATOM     13  C   UNL A   1      34.612  24.766  25.233  1.00  0.00     0.313 C 
BRANCH  13  14
ATOM     14  O   UNL A   1      33.396  25.398  24.887  1.00  0.00    -0.485 OA
BRANCH  14  15
ATOM     15  C   UNL A   1      33.183  26.707  25.223  1.00  0.00     0.123 A 
ATOM     16  C   UNL A   1      34.844  29.482  27.253  1.00  0.00     0.044 C 
ATOM     17  C   UNL A   1      33.883  28.758  26.360  1.00  0.00    -0.047 A 
ATOM     18  C   UNL A   1      32.835  29.437  25.751  1.00  0.00     0.004 A 
ATOM     19  C   UNL A   1      34.012  27.387  26.133  1.00  0.00     0.050 A 
ATOM     20  C   UNL A   1      31.964  28.759  24.897  1.00  0.00     0.008 A 
ATOM     21  C   UNL A   1      32.122  27.387  24.581  1.00  0.00    -0.000 A 
BRANCH  21  22
ATOM     22  C   UNL A   1      31.111  26.763  23.581  1.00  0.00    -0.010 C 
ATOM     23  C   UNL A   1      30.080  25.935  24.383  1.00  0.00     0.016 C 
ATOM     24  C   UNL A   1      30.363  27.879  22.806  1.00  0.00     0.016 C 
ATOM     25  C   UNL A   1      31.685  25.823  22.496  1.00  0.00     0.016 C 
ENDBRANCH  21  22
ENDBRANCH  14  15
ENDBRANCH  13  14
ENDBRANCH  11  13
ENDBRANCH   6  11
ENDBRANCH   3   5
ENDBRANCH   2   3
ENDBRANCH   1   2
BRANCH   1  26
ATOM     26  C   UNL A   1      41.334  19.180  26.494  1.00  0.00     0.202 C 
BRANCH  26  27
ATOM     27  O   UNL A   1      42.214  19.379  25.398  1.00  0.00    -0.374 OA
BRANCH  27  28
ATOM     28  C   UNL A   1      43.477  18.747  25.512  1.00  0.00     0.202 C 
BRANCH  28  29
ATOM     29  C   UNL A   1      44.453  19.112  24.384  1.00  0.00     0.261 C 
BRANCH  29  30
ATOM     30  O   UNL A   1      44.392  20.534  24.141  1.00  0.00    -0.460 OA
BRANCH  30  31
ATOM     31  C   UNL A   1      45.164  21.322  24.940  1.00  0.00     0.338 C 
ATOM     32  O   UNL A   1      46.265  21.030  25.375  1.00  0.00    -0.246 OA
BRANCH  31  33
ATOM     33  C   UNL A   1      44.336  22.449  25.467  1.00  0.00     0.060 A 
ATOM     34  C   UNL A   1      44.010  23.536  24.629  1.00  0.00     0.016 A 
ATOM     35  C   UNL A   1      44.185  22.572  26.846  1.00  0.00     0.016 A 
ATOM     36  C   UNL A   1      43.676  24.784  25.182  1.00  0.00     0.010 A 
ATOM     37  C   UNL A   1      43.955  23.822  27.382  1.00  0.00     0.010 A 
ATOM     38  C   UNL A   1      43.727  24.947  26.565  1.00  0.00    -0.014 A 
BRANCH  38  39
ATOM     39  C   UNL A   1      43.704  26.226  27.291  1.00  0.00     0.031 A 
ATOM     40  C   UNL A   1      42.395  26.865  27.563  1.00  0.00     0.074 A 
ATOM     41  C   UNL A   1      44.794  26.671  27.964  1.00  0.00     0.049 A 
ATOM     42  N   UNL A   1      42.256  28.077  27.980  1.00  0.00    -0.248 NA
ATOM     43  C   UNL A   1      41.117  26.199  27.345  1.00  0.00     0.031 C 
ATOM     44  C   UNL A   1      44.816  27.505  29.168  1.00  0.00     0.029 A 
ATOM     45  N   UNL A   1      46.155  26.432  27.724  1.00  0.00    -0.354 N 
ATOM     46  C   UNL A   1      40.952  28.235  28.394  1.00  0.00     0.074 A 
ATOM     47  C   UNL A   1      40.265  27.075  27.883  1.00  0.00     0.031 C 
ATOM     48  C   UNL A   1      46.073  27.903  29.422  1.00  0.00     0.029 A 
ATOM     49  C   UNL A   1      46.901  27.466  28.312  1.00  0.00     0.049 A 
ATOM     50  H   UNL A   1      46.525  25.666  27.228  1.00  0.00     0.167 HD
ATOM     51  C   UNL A   1      40.654  29.264  29.241  1.00  0.00     0.037 A 
ATOM     52  C   UNL A   1      47.789  28.199  27.589  1.00  0.00     0.037 A 
ATOM     53  C   UNL A   1      41.864  30.049  29.538  1.00  0.00     0.049 A 
ATOM     54  C   UNL A   1      47.318  29.618  27.559  1.00  0.00     0.074 A 
ATOM     55  C   UNL A   1      42.713  30.068  30.634  1.00  0.00     0.029 A 
ATOM     56  N   UNL A   1      42.542  30.711  28.512  1.00  0.00    -0.354 N 
ATOM     57  N   UNL A   1      46.084  29.926  27.840  1.00  0.00    -0.248 NA
ATOM     58  C   UNL A   1      48.138  30.785  27.264  1.00  0.00     0.031 C 
ATOM     59  C   UNL A   1      43.923  30.702  30.243  1.00  0.00     0.029 A 
ATOM     60  C   UNL A   1      43.808  31.095  28.918  1.00  0.00     0.049 A 
ATOM     61  H   UNL A   1      42.167  30.881  27.617  1.00  0.00     0.167 HD
ATOM     62  C   UNL A   1      45.927  31.267  27.795  1.00  0.00     0.074 A 
ATOM     63  C   UNL A   1      47.234  31.772  27.410  1.00  0.00     0.031 C 
ATOM     64  C   UNL A   1      44.711  31.829  28.035  1.00  0.00     0.037 A 
BRANCH  51  65
ATOM     65  C   UNL A   1      39.355  29.412  30.027  1.00  0.00     0.064 A 
ATOM     66  C   UNL A   1      38.440  30.444  29.715  1.00  0.00     0.173 A 
ATOM     67  C   UNL A   1      38.949  28.602  31.110  1.00  0.00     0.173 A 
ATOM     68  F   UNL A   1      38.620  31.241  28.653  1.00  0.00    -0.203 F 
ATOM     69  C   UNL A   1      37.287  30.695  30.471  1.00  0.00     0.198 A 
ATOM     70  C   UNL A   1      37.824  28.881  31.895  1.00  0.00     0.198 A 
ATOM     71  F   UNL A   1      39.568  27.460  31.412  1.00  0.00    -0.203 F 
ATOM     72  F   UNL A   1      36.463  31.690  30.115  1.00  0.00    -0.200 F 
ATOM     73  C   UNL A   1      36.994  29.932  31.580  1.00  0.00     0.200 A 
ATOM     74  F   UNL A   1      37.545  28.103  32.952  1.00  0.00    -0.200 F 
ATOM     75  F   UNL A   1      35.903  30.180  32.315  1.00  0.00    -0.200 F 
ENDBRANCH  51  65
BRANCH  52  76
ATOM     76  C   UNL A   1      48.402  27.401  26.488  1.00  0.00     0.064 A 
ATOM     77  C   UNL A   1      47.844  27.567  25.202  1.00  0.00     0.173 A 
ATOM     78  C   UNL A   1      49.736  26.971  26.559  1.00  0.00     0.173 A 
ATOM     79  F   UNL A   1      46.582  28.009  25.073  1.00  0.00    -0.203 F 
ATOM     80  C   UNL A   1      48.624  27.461  24.051  1.00  0.00     0.198 A 
ATOM     81  C   UNL A   1      50.516  26.873  25.402  1.00  0.00     0.198 A 
ATOM     82  F   UNL A   1      50.328  26.802  27.749  1.00  0.00    -0.203 F 
ATOM     83  F   UNL A   1      48.110  27.805  22.861  1.00  0.00    -0.200 F 
ATOM     84  C   UNL A   1      49.971  27.157  24.157  1.00  0.00     0.200 A 
ATOM     85  F   UNL A   1      51.830  26.621  25.500  1.00  0.00    -0.200 F 
ATOM     86  F   UNL A   1      50.758  27.224  23.073  1.00  0.00    -0.200 F 
ENDBRANCH  52  76
BRANCH  64  87
ATOM     87  C   UNL A   1      44.346  33.172  27.500  1.00  0.00     0.064 A 
ATOM     88  C   UNL A   1      43.896  33.358  26.180  1.00  0.00     0.173 A 
ATOM     89  C   UNL A   1      44.276  34.293  28.348  1.00  0.00     0.173 A 
ATOM     90  F   UNL A   1      43.779  32.329  25.328  1.00  0.00    -0.203 F 
ATOM     91  C   UNL A   1      43.501  34.606  25.712  1.00  0.00     0.198 A 
ATOM     92  C   UNL A   1      43.817  35.524  27.893  1.00  0.00     0.198 A 
ATOM     93  F   UNL A   1      44.618  34.214  29.643  1.00  0.00    -0.203 F 
ATOM     94  F   UNL A   1      43.141  34.745  24.429  1.00  0.00    -0.200 F 
ATOM     95  C   UNL A   1      43.455  35.687  26.569  1.00  0.00     0.200 A 
ATOM     96  F   UNL A   1      43.706  36.549  28.750  1.00  0.00    -0.200 F 
ATOM     97  F   UNL A   1      43.039  36.880  26.125  1.00  0.00    -0.200 F 
ENDBRANCH  64  87
ENDBRANCH  38  39
ENDBRANCH  31  33
ENDBRANCH  30  31
ENDBRANCH  29  30
ENDBRANCH  28  29
ENDBRANCH  27  28
ENDBRANCH  26  27
ENDBRANCH   1  26
TORSDOF 19
ENDMDL
MODEL 2
REMARK VINA RESULT:     -11.9      3.416     10.811
REMARK SMILES Cc1ccc(C(C)(C)C)c(OCC(=O)c2nc(C)c(C(=O)OCCOCCOC(=O)c3ccc(-c4c5nc(c(-c6c(F)c(F)c(F)c(F)c6F)c6ccc([nH]6)c(-c6c(F)c(F)c(F)c(F)c6F)c6nc(c(-c7c(F)c(F)c(F)c(F)c7F)c7ccc4[nH]7)C=C6)C=C5)cc3)s2)c1
REMARK SMILES IDX 23 1 22 2 20 3 21 4 19 5 15 6 16 7 94 8 17 9 18 10 13 11
REMARK SMILES IDX 14 12 12 13 11 14 10 15 1 16 2 17 3 18 95 19 4 20 5 21 6 22
REMARK SMILES IDX 7 23 8 24 9 25 24 26 25 27 26 28 27 29 28 30 29 31 30 32
REMARK SMILES IDX 31 33 32 34 93 35 33 36 92 37 34 38 35 39 36 40 86 41 37 42
REMARK SMILES IDX 91 43 85 44 87 45 38 46 90 47 84 48 83 49 39 51 71 52 51 53
REMARK SMILES IDX 70 54 52 55 55 56 69 57 88 58 53 59 54 60 68 62 89 63 56 64
REMARK SMILES IDX 40 65 41 66 49 67 42 68 43 69 47 70 50 71 44 72 45 73 48 74
REMARK SMILES IDX 46 75 72 76 73 77 81 78 74 79 75 80 79 81 82 82 76 83 77 84
REMARK SMILES IDX 80 85 78 86 57 87 58 88 66 89 59 90 60 91 64 92 67 93 61 94
REMARK SMILES IDX 62 95 65 96 63 97
REMARK H PARENT 87 50 55 61
REMARK Flexibility Score: inf
ROOT
ATOM      1  C   UNL A   1      34.697  24.703  25.343  1.00  0.00     0.261 C 
ENDROOT
BRANCH   1   2
ATOM      2  O   UNL A   1      35.205  23.368  25.295  1.00  0.00    -0.459 OA
BRANCH   2   3
ATOM      3  C   UNL A   1      36.226  23.102  24.426  1.00  0.00     0.350 C 
ATOM      4  O   UNL A   1      36.216  23.355  23.242  1.00  0.00    -0.245 OA
BRANCH   3   5
ATOM      5  C   UNL A   1      37.316  22.553  25.196  1.00  0.00     0.136 A 
ATOM      6  C   UNL A   1      39.124  21.115  25.884  1.00  0.00     0.164 A 
ATOM      7  N   UNL A   1      39.242  22.287  26.474  1.00  0.00    -0.237 NA
ATOM      8  S   UNL A   1      37.701  20.904  24.976  1.00  0.00    -0.103 S 
ATOM      9  C   UNL A   1      38.216  23.132  26.078  1.00  0.00     0.064 A 
ATOM     10  C   UNL A   1      38.263  24.522  26.618  1.00  0.00     0.068 C 
BRANCH   6  11
ATOM     11  C   UNL A   1      40.127  20.075  26.032  1.00  0.00     0.228 C 
ATOM     12  O   UNL A   1      40.014  18.954  25.523  1.00  0.00    -0.288 OA
BRANCH  11  13
ATOM     13  C   UNL A   1      41.304  20.339  26.992  1.00  0.00     0.313 C 
BRANCH  13  14
ATOM     14  O   UNL A   1      42.657  20.314  26.585  1.00  0.00    -0.485 OA
BRANCH  14  15
ATOM     15  C   UNL A   1      43.156  21.313  25.796  1.00  0.00     0.123 A 
ATOM     16  C   UNL A   1      42.736  25.074  25.277  1.00  0.00     0.044 C 
ATOM     17  C   UNL A   1      43.243  23.670  25.139  1.00  0.00    -0.047 A 
ATOM     18  C   UNL A   1      44.316  23.385  24.306  1.00  0.00     0.004 A 
ATOM     19  C   UNL A   1      42.637  22.620  25.833  1.00  0.00     0.050 A 
ATOM     20  C   UNL A   1      44.799  22.078  24.209  1.00  0.00     0.008 A 
ATOM     21  C   UNL A   1      44.260  21.009  24.966  1.00  0.00    -0.000 A 
BRANCH  21  22
ATOM     22  C   UNL A   1      44.918  19.613  24.799  1.00  0.00    -0.010 C 
ATOM     23  C   UNL A   1      44.895  19.239  23.299  1.00  0.00     0.016 C 
ATOM     24  C   UNL A   1      46.391  19.652  25.282  1.00  0.00     0.016 C 
ATOM     25  C   UNL A   1      44.267  18.434  25.557  1.00  0.00     0.016 C 
ENDBRANCH  21  22
ENDBRANCH  14  15
ENDBRANCH  13  14
ENDBRANCH  11  13
ENDBRANCH   6  11
ENDBRANCH   3   5
ENDBRANCH   2   3
ENDBRANCH   1   2
BRANCH   1  26
ATOM     26  C   UNL A   1      33.304  24.723  25.886  1.00  0.00     0.202 C 
BRANCH  26  27
ATOM     27  O   UNL A   1      32.787  25.996  25.531  1.00  0.00    -0.374 OA
BRANCH  27  28
ATOM     28  C   UNL A   1      33.681  26.838  24.825  1.00  0.00     0.202 C 
BRANCH  28  29
ATOM     29  C   UNL A   1      33.404  28.336  25.025  1.00  0.00     0.261 C 
BRANCH  29  30
ATOM     30  O   UNL A   1      34.463  28.916  25.816  1.00  0.00    -0.460 OA
BRANCH  30  31
ATOM     31  C   UNL A   1      34.311  28.867  27.168  1.00  0.00     0.338 C 
ATOM     32  O   UNL A   1      33.281  28.585  27.757  1.00  0.00    -0.246 OA
BRANCH  31  33
ATOM     33  C   UNL A   1      35.487  29.518  27.820  1.00  0.00     0.060 A 
ATOM     34  C   UNL A   1      36.579  29.947  27.037  1.00  0.00     0.016 A 
ATOM     35  C   UNL A   1      35.635  29.392  29.199  1.00  0.00     0.016 A 
ATOM     36  C   UNL A   1      37.851  30.103  27.616  1.00  0.00     0.010 A 
ATOM     37  C   UNL A   1      36.902  29.450  29.742  1.00  0.00     0.010 A 
ATOM     38  C   UNL A   1      38.027  29.775  28.959  1.00  0.00    -0.014 A 
BRANCH  38  39
ATOM     39  C   UNL A   1      39.314  29.592  29.647  1.00  0.00     0.031 A 
ATOM     40  C   UNL A   1      40.163  28.436  29.272  1.00  0.00     0.074 A 
ATOM     41  C   UNL A   1      39.868  30.593  30.376  1.00  0.00     0.049 A 
ATOM     42  N   UNL A   1      41.188  28.044  29.948  1.00  0.00    -0.248 NA
ATOM     43  C   UNL A   1      39.900  27.590  28.115  1.00  0.00     0.031 C 
ATOM     44  C   UNL A   1      41.295  30.847  30.596  1.00  0.00     0.029 A 
ATOM     45  N   UNL A   1      39.253  31.646  31.066  1.00  0.00    -0.354 N 
ATOM     46  C   UNL A   1      41.890  27.149  29.171  1.00  0.00     0.074 A 
ATOM     47  C   UNL A   1      40.993  26.827  28.089  1.00  0.00     0.031 C 
ATOM     48  C   UNL A   1      41.447  31.800  31.531  1.00  0.00     0.029 A 
ATOM     49  C   UNL A   1      40.130  32.102  32.064  1.00  0.00     0.049 A 
ATOM     50  H   UNL A   1      38.355  32.007  30.882  1.00  0.00     0.167 HD
ATOM     51  C   UNL A   1      43.199  26.906  29.473  1.00  0.00     0.037 A 
ATOM     52  C   UNL A   1      39.749  32.170  33.366  1.00  0.00     0.037 A 
ATOM     53  C   UNL A   1      43.606  27.690  30.652  1.00  0.00     0.049 A 
ATOM     54  C   UNL A   1      40.594  31.222  34.158  1.00  0.00     0.074 A 
ATOM     55  C   UNL A   1      44.325  28.867  30.781  1.00  0.00     0.029 A 
ATOM     56  N   UNL A   1      42.985  27.477  31.884  1.00  0.00    -0.354 N 
ATOM     57  N   UNL A   1      41.254  30.261  33.578  1.00  0.00    -0.248 NA
ATOM     58  C   UNL A   1      40.810  31.268  35.597  1.00  0.00     0.031 C 
ATOM     59  C   UNL A   1      44.091  29.385  32.084  1.00  0.00     0.029 A 
ATOM     60  C   UNL A   1      43.252  28.514  32.762  1.00  0.00     0.049 A 
ATOM     61  H   UNL A   1      42.430  26.692  32.100  1.00  0.00     0.167 HD
ATOM     62  C   UNL A   1      41.978  29.585  34.496  1.00  0.00     0.074 A 
ATOM     63  C   UNL A   1      41.658  30.233  35.757  1.00  0.00     0.031 C 
ATOM     64  C   UNL A   1      42.737  28.518  34.130  1.00  0.00     0.037 A 
BRANCH  51  65
ATOM     65  C   UNL A   1      44.197  26.196  28.564  1.00  0.00     0.064 A 
ATOM     66  C   UNL A   1      44.356  24.792  28.631  1.00  0.00     0.173 A 
ATOM     67  C   UNL A   1      45.047  26.819  27.624  1.00  0.00     0.173 A 
ATOM     68  F   UNL A   1      43.560  24.033  29.395  1.00  0.00    -0.203 F 
ATOM     69  C   UNL A   1      45.332  24.100  27.901  1.00  0.00     0.198 A 
ATOM     70  C   UNL A   1      46.053  26.135  26.931  1.00  0.00     0.198 A 
ATOM     71  F   UNL A   1      44.895  28.095  27.268  1.00  0.00    -0.203 F 
ATOM     72  F   UNL A   1      45.423  22.767  28.011  1.00  0.00    -0.200 F 
ATOM     73  C   UNL A   1      46.200  24.775  27.072  1.00  0.00     0.200 A 
ATOM     74  F   UNL A   1      46.866  26.814  26.106  1.00  0.00    -0.200 F 
ATOM     75  F   UNL A   1      47.145  24.119  26.387  1.00  0.00    -0.200 F 
ENDBRANCH  51  65
BRANCH  52  76
ATOM     76  C   UNL A   1      38.290  32.449  33.505  1.00  0.00     0.064 A 
ATOM     77  C   UNL A   1      37.894  33.801  33.406  1.00  0.00     0.173 A 
ATOM     78  C   UNL A   1      37.332  31.474  33.192  1.00  0.00     0.173 A 
ATOM     79  F   UNL A   1      38.780  34.777  33.661  1.00  0.00    -0.203 F 
ATOM     80  C   UNL A   1      36.657  34.159  32.871  1.00  0.00     0.198 A 
ATOM     81  C   UNL A   1      36.095  31.839  32.649  1.00  0.00     0.198 A 
ATOM     82  F   UNL A   1      37.645  30.173  33.257  1.00  0.00    -0.203 F 
ATOM     83  F   UNL A   1      36.387  35.449  32.619  1.00  0.00    -0.200 F 
ATOM     84  C   UNL A   1      35.777  33.176  32.452  1.00  0.00     0.200 A 
ATOM     85  F   UNL A   1      35.255  30.893  32.202  1.00  0.00    -0.200 F 
ATOM     86  F   UNL A   1      34.666  33.516  31.782  1.00  0.00    -0.200 F 
ENDBRANCH  52  76
BRANCH  64  87
ATOM     87  C   UNL A   1      43.108  27.446  35.097  1.00  0.00     0.064 A 
ATOM     88  C   UNL A   1      42.257  26.362  35.381  1.00  0.00     0.173 A 
ATOM     89  C   UNL A   1      44.403  27.384  35.646  1.00  0.00     0.173 A 
ATOM     90  F   UNL A   1      41.057  26.242  34.794  1.00  0.00    -0.203 F 
ATOM     91  C   UNL A   1      42.639  25.338  36.238  1.00  0.00     0.198 A 
ATOM     92  C   UNL A   1      44.804  26.323  36.450  1.00  0.00     0.198 A 
ATOM     93  F   UNL A   1      45.318  28.331  35.390  1.00  0.00    -0.203 F 
ATOM     94  F   UNL A   1      41.770  24.360  36.527  1.00  0.00    -0.200 F 
ATOM     95  C   UNL A   1      43.914  25.314  36.768  1.00  0.00     0.200 A 
ATOM     96  F   UNL A   1      46.065  26.272  36.900  1.00  0.00    -0.200 F 
ATOM     97  F   UNL A   1      44.292  24.308  37.565  1.00  0.00    -0.200 F 
ENDBRANCH  64  87
ENDBRANCH  38  39
ENDBRANCH  31  33
ENDBRANCH  30  31
ENDBRANCH  29  30
ENDBRANCH  28  29
ENDBRANCH  27  28
ENDBRANCH  26  27
ENDBRANCH   1  26
TORSDOF 19
ENDMDL
MODEL 3
REMARK VINA RESULT:     -11.9      4.174     10.193
REMARK SMILES Cc1ccc(C(C)(C)C)c(OCC(=O)c2nc(C)c(C(=O)OCCOCCOC(=O)c3ccc(-c4c5nc(c(-c6c(F)c(F)c(F)c(F)c6F)c6ccc([nH]6)c(-c6c(F)c(F)c(F)c(F)c6F)c6nc(c(-c7c(F)c(F)c(F)c(F)c7F)c7ccc4[nH]7)C=C6)C=C5)cc3)s2)c1
REMARK SMILES IDX 23 1 22 2 20 3 21 4 19 5 15 6 16 7 94 8 17 9 18 10 13 11
REMARK SMILES IDX 14 12 12 13 11 14 10 15 1 16 2 17 3 18 95 19 4 20 5 21 6 22
REMARK SMILES IDX 7 23 8 24 9 25 24 26 25 27 26 28 27 29 28 30 29 31 30 32
REMARK SMILES IDX 31 33 32 34 93 35 33 36 92 37 34 38 35 39 36 40 86 41 37 42
REMARK SMILES IDX 91 43 85 44 87 45 38 46 90 47 84 48 83 49 39 51 71 52 51 53
REMARK SMILES IDX 70 54 52 55 55 56 69 57 88 58 53 59 54 60 68 62 89 63 56 64
REMARK SMILES IDX 40 65 41 66 49 67 42 68 43 69 47 70 50 71 44 72 45 73 48 74
REMARK SMILES IDX 46 75 72 76 73 77 81 78 74 79 75 80 79 81 82 82 76 83 77 84
REMARK SMILES IDX 80 85 78 86 57 87 58 88 66 89 59 90 60 91 64 92 67 93 61 94
REMARK SMILES IDX 62 95 65 96 63 97
REMARK H PARENT 87 50 55 61
REMARK Flexibility Score: inf
ROOT
ATOM      1  C   UNL A   1      31.132  29.237  24.934  1.00  0.00     0.261 C 
ENDROOT
BRANCH   1   2
ATOM      2  O   UNL A   1      31.503  29.281  23.555  1.00  0.00    -0.459 OA
BRANCH   2   3
ATOM      3  C   UNL A   1      30.952  28.356  22.713  1.00  0.00     0.350 C 
ATOM      4  O   UNL A   1      29.882  28.471  22.157  1.00  0.00    -0.245 OA
BRANCH   3   5
ATOM      5  C   UNL A   1      31.908  27.287  22.560  1.00  0.00     0.136 A 
ATOM      6  C   UNL A   1      32.845  25.113  22.107  1.00  0.00     0.164 A 
ATOM      7  N   UNL A   1      33.790  26.027  22.024  1.00  0.00    -0.237 NA
ATOM      8  S   UNL A   1      31.336  25.681  22.650  1.00  0.00    -0.103 S 
ATOM      9  C   UNL A   1      33.265  27.287  22.270  1.00  0.00     0.064 A 
ATOM     10  C   UNL A   1      34.213  28.431  22.142  1.00  0.00     0.068 C 
BRANCH   6  11
ATOM     11  C   UNL A   1      33.094  23.718  21.786  1.00  0.00     0.228 C 
ATOM     12  O   UNL A   1      33.519  23.346  20.686  1.00  0.00    -0.288 OA
BRANCH  11  13
ATOM     13  C   UNL A   1      32.665  22.653  22.815  1.00  0.00     0.313 C 
BRANCH  13  14
ATOM     14  O   UNL A   1      33.308  22.473  24.059  1.00  0.00    -0.485 OA
BRANCH  14  15
ATOM     15  C   UNL A   1      33.887  21.271  24.365  1.00  0.00     0.123 A 
ATOM     16  C   UNL A   1      33.014  17.553  24.359  1.00  0.00     0.044 C 
ATOM     17  C   UNL A   1      33.788  18.829  24.501  1.00  0.00    -0.047 A 
ATOM     18  C   UNL A   1      35.140  18.805  24.815  1.00  0.00     0.004 A 
ATOM     19  C   UNL A   1      33.162  20.067  24.334  1.00  0.00     0.050 A 
ATOM     20  C   UNL A   1      35.857  19.999  24.915  1.00  0.00     0.008 A 
ATOM     21  C   UNL A   1      35.269  21.263  24.667  1.00  0.00    -0.000 A 
BRANCH  21  22
ATOM     22  C   UNL A   1      36.188  22.511  24.766  1.00  0.00    -0.010 C 
ATOM     23  C   UNL A   1      36.300  23.147  23.361  1.00  0.00     0.016 C 
ATOM     24  C   UNL A   1      35.577  23.553  25.739  1.00  0.00     0.016 C 
ATOM     25  C   UNL A   1      37.633  22.282  25.263  1.00  0.00     0.016 C 
ENDBRANCH  21  22
ENDBRANCH  14  15
ENDBRANCH  13  14
ENDBRANCH  11  13
ENDBRANCH   6  11
ENDBRANCH   3   5
ENDBRANCH   2   3
ENDBRANCH   1   2
BRANCH   1  26
ATOM     26  C   UNL A   1      31.978  28.255  25.680  1.00  0.00     0.202 C 
BRANCH  26  27
ATOM     27  O   UNL A   1      33.104  28.998  26.122  1.00  0.00    -0.374 OA
BRANCH  27  28
ATOM     28  C   UNL A   1      32.911  29.739  27.314  1.00  0.00     0.202 C 
BRANCH  28  29
ATOM     29  C   UNL A   1      33.268  31.227  27.179  1.00  0.00     0.261 C 
BRANCH  29  30
ATOM     30  O   UNL A   1      34.685  31.400  27.397  1.00  0.00    -0.460 OA
BRANCH  30  31
ATOM     31  C   UNL A   1      35.120  31.303  28.684  1.00  0.00     0.338 C 
ATOM     32  O   UNL A   1      34.964  32.146  29.551  1.00  0.00    -0.246 OA
BRANCH  31  33
ATOM     33  C   UNL A   1      36.091  30.172  28.791  1.00  0.00     0.060 A 
ATOM     34  C   UNL A   1      36.364  29.595  30.049  1.00  0.00     0.016 A 
ATOM     35  C   UNL A   1      36.948  29.930  27.721  1.00  0.00     0.016 A 
ATOM     36  C   UNL A   1      37.568  28.903  30.267  1.00  0.00     0.010 A 
ATOM     37  C   UNL A   1      38.170  29.338  27.966  1.00  0.00     0.010 A 
ATOM     38  C   UNL A   1      38.510  28.845  29.240  1.00  0.00    -0.014 A 
BRANCH  38  39
ATOM     39  C   UNL A   1      39.915  28.434  29.374  1.00  0.00     0.031 A 
ATOM     40  C   UNL A   1      40.310  27.083  28.909  1.00  0.00     0.074 A 
ATOM     41  C   UNL A   1      40.891  29.343  29.625  1.00  0.00     0.049 A 
ATOM     42  N   UNL A   1      41.443  26.530  29.176  1.00  0.00    -0.248 NA
ATOM     43  C   UNL A   1      39.434  26.217  28.129  1.00  0.00     0.031 C 
ATOM     44  C   UNL A   1      42.293  29.280  29.204  1.00  0.00     0.029 A 
ATOM     45  N   UNL A   1      40.821  30.570  30.299  1.00  0.00    -0.354 N 
ATOM     46  C   UNL A   1      41.578  25.428  28.360  1.00  0.00     0.074 A 
ATOM     47  C   UNL A   1      40.263  25.222  27.807  1.00  0.00     0.031 C 
ATOM     48  C   UNL A   1      42.992  30.255  29.808  1.00  0.00     0.029 A 
ATOM     49  C   UNL A   1      42.106  30.902  30.759  1.00  0.00     0.049 A 
ATOM     50  H   UNL A   1      40.008  31.109  30.427  1.00  0.00     0.167 HD
ATOM     51  C   UNL A   1      42.827  24.919  28.150  1.00  0.00     0.037 A 
ATOM     52  C   UNL A   1      42.340  31.178  32.069  1.00  0.00     0.037 A 
ATOM     53  C   UNL A   1      43.829  25.693  28.902  1.00  0.00     0.049 A 
ATOM     54  C   UNL A   1      43.269  30.139  32.614  1.00  0.00     0.074 A 
ATOM     55  C   UNL A   1      44.723  26.680  28.515  1.00  0.00     0.029 A 
ATOM     56  N   UNL A   1      43.773  25.746  30.297  1.00  0.00    -0.354 N 
ATOM     57  N   UNL A   1      43.441  29.001  32.004  1.00  0.00    -0.248 NA
ATOM     58  C   UNL A   1      44.088  30.267  33.810  1.00  0.00     0.031 C 
ATOM     59  C   UNL A   1      45.164  27.357  29.684  1.00  0.00     0.029 A 
ATOM     60  C   UNL A   1      44.563  26.771  30.789  1.00  0.00     0.049 A 
ATOM     61  H   UNL A   1      43.241  25.135  30.856  1.00  0.00     0.167 HD
ATOM     62  C   UNL A   1      44.363  28.265  32.661  1.00  0.00     0.074 A 
ATOM     63  C   UNL A   1      44.732  29.085  33.803  1.00  0.00     0.031 C 
ATOM     64  C   UNL A   1      44.697  27.022  32.222  1.00  0.00     0.037 A 
BRANCH  51  65
ATOM     65  C   UNL A   1      43.200  23.915  27.063  1.00  0.00     0.064 A 
ATOM     66  C   UNL A   1      42.831  22.555  27.186  1.00  0.00     0.173 A 
ATOM     67  C   UNL A   1      43.933  24.201  25.892  1.00  0.00     0.173 A 
ATOM     68  F   UNL A   1      42.047  22.129  28.184  1.00  0.00    -0.203 F 
ATOM     69  C   UNL A   1      43.239  21.570  26.276  1.00  0.00     0.198 A 
ATOM     70  C   UNL A   1      44.381  23.212  25.008  1.00  0.00     0.198 A 
ATOM     71  F   UNL A   1      44.181  25.451  25.498  1.00  0.00    -0.203 F 
ATOM     72  F   UNL A   1      42.850  20.300  26.453  1.00  0.00    -0.200 F 
ATOM     73  C   UNL A   1      44.039  21.894  25.202  1.00  0.00     0.200 A 
ATOM     74  F   UNL A   1      45.134  23.559  23.953  1.00  0.00    -0.200 F 
ATOM     75  F   UNL A   1      44.446  20.952  24.341  1.00  0.00    -0.200 F 
ENDBRANCH  51  65
BRANCH  52  76
ATOM     76  C   UNL A   1      41.155  31.799  32.728  1.00  0.00     0.064 A 
ATOM     77  C   UNL A   1      40.896  33.151  32.416  1.00  0.00     0.173 A 
ATOM     78  C   UNL A   1      40.069  31.018  33.153  1.00  0.00     0.173 A 
ATOM     79  F   UNL A   1      41.890  33.937  31.972  1.00  0.00    -0.203 F 
ATOM     80  C   UNL A   1      39.595  33.653  32.381  1.00  0.00     0.198 A 
ATOM     81  C   UNL A   1      38.766  31.524  33.109  1.00  0.00     0.198 A 
ATOM     82  F   UNL A   1      40.245  29.724  33.455  1.00  0.00    -0.203 F 
ATOM     83  F   UNL A   1      39.368  34.886  31.904  1.00  0.00    -0.200 F 
ATOM     84  C   UNL A   1      38.528  32.825  32.685  1.00  0.00     0.200 A 
ATOM     85  F   UNL A   1      37.725  30.717  33.360  1.00  0.00    -0.200 F 
ATOM     86  F   UNL A   1      37.273  33.253  32.485  1.00  0.00    -0.200 F 
ENDBRANCH  52  76
BRANCH  64  87
ATOM     87  C   UNL A   1      45.260  25.988  33.137  1.00  0.00     0.064 A 
ATOM     88  C   UNL A   1      44.448  25.211  33.984  1.00  0.00     0.173 A 
ATOM     89  C   UNL A   1      46.619  25.628  33.072  1.00  0.00     0.173 A 
ATOM     90  F   UNL A   1      43.116  25.368  34.013  1.00  0.00    -0.203 F 
ATOM     91  C   UNL A   1      44.979  24.210  34.788  1.00  0.00     0.198 A 
ATOM     92  C   UNL A   1      47.134  24.581  33.829  1.00  0.00     0.198 A 
ATOM     93  F   UNL A   1      47.472  26.259  32.251  1.00  0.00    -0.203 F 
ATOM     94  F   UNL A   1      44.174  23.540  35.624  1.00  0.00    -0.200 F 
ATOM     95  C   UNL A   1      46.319  23.890  34.706  1.00  0.00     0.200 A 
ATOM     96  F   UNL A   1      48.420  24.231  33.689  1.00  0.00    -0.200 F 
ATOM     97  F   UNL A   1      46.822  22.901  35.455  1.00  0.00    -0.200 F 
ENDBRANCH  64  87
ENDBRANCH  38  39
ENDBRANCH  31  33
ENDBRANCH  30  31
ENDBRANCH  29  30
ENDBRANCH  28  29
ENDBRANCH  27  28
ENDBRANCH  26  27
ENDBRANCH   1  26
TORSDOF 19
ENDMDL
