MODEL 1
REMARK VINA RESULT:     -10.4      0.000      0.000
REMARK SMILES C[C@H](C[NH3+])S[C@H](C)c1ccc(C(=O)OCCOCCOC(=O)c2ccc(-c3c4nc(c(-c5c(F)c(F)c(F)c(F)c5F)c5ccc([nH]5)c(-c5c(F)c(F)c(F)c(F)c5F)c5nc(c(-c6c(F)c(F)c(F)c(F)c6F)c6ccc3[nH]6)C=C5)C=C4)cc2)o1
REMARK SMILES IDX 15 1 14 2 12 3 13 4 11 5 8 6 9 7 86 8 10 9 6 10 7 11 5 12
REMARK SMILES IDX 2 13 1 14 3 15 4 16 16 20 17 21 18 22 19 23 20 24 21 25
REMARK SMILES IDX 22 26 23 27 24 28 85 29 25 30 84 31 26 32 27 33 28 34 78 35
REMARK SMILES IDX 29 36 83 37 77 38 79 39 30 40 82 41 76 42 75 43 31 45 63 46
REMARK SMILES IDX 43 47 62 48 44 49 47 50 61 51 80 52 45 53 46 54 60 56 81 57
REMARK SMILES IDX 48 58 32 59 33 60 41 61 34 62 35 63 39 64 42 65 36 66 37 67
REMARK SMILES IDX 40 68 38 69 64 70 65 71 73 72 66 73 67 74 71 75 74 76 68 77
REMARK SMILES IDX 69 78 72 79 70 80 49 81 50 82 58 83 51 84 52 85 56 86 59 87
REMARK SMILES IDX 53 88 54 89 57 90 55 91
REMARK H PARENT 4 17 4 18 4 19 79 44 47 55
REMARK Flexibility Score: inf
ROOT
ATOM      1  C   UNL A   1      32.790  27.410  24.789  1.00  0.00     0.261 C 
ENDROOT
BRANCH   1   2
ATOM      2  O   UNL A   1      32.875  26.220  25.592  1.00  0.00    -0.457 OA
BRANCH   2   3
ATOM      3  C   UNL A   1      31.731  25.872  26.250  1.00  0.00     0.374 C 
ATOM      4  O   UNL A   1      31.024  26.651  26.877  1.00  0.00    -0.242 OA
BRANCH   3   5
ATOM      5  C   UNL A   1      31.412  24.492  25.968  1.00  0.00     0.211 A 
ATOM      6  C   UNL A   1      31.743  22.576  24.911  1.00  0.00     0.117 A 
ATOM      7  C   UNL A   1      30.802  22.330  25.892  1.00  0.00     0.048 A 
ATOM      8  O   UNL A   1      32.102  23.889  24.956  1.00  0.00    -0.453 OA
ATOM      9  C   UNL A   1      30.590  23.557  26.572  1.00  0.00     0.058 A 
BRANCH   6  10
ATOM     10  C   UNL A   1      32.428  21.695  23.904  1.00  0.00     0.110 C 
ATOM     11  C   UNL A   1      33.204  22.536  22.888  1.00  0.00     0.028 C 
BRANCH  10  12
ATOM     12  S   UNL A   1      33.629  20.520  24.647  1.00  0.00    -0.142 SA
BRANCH  12  13
ATOM     13  C   UNL A   1      35.052  21.625  25.069  1.00  0.00     0.099 C 
ATOM     14  C   UNL A   1      36.381  20.875  25.001  1.00  0.00     0.025 C 
BRANCH  13  15
ATOM     15  C   UNL A   1      34.885  22.361  26.415  1.00  0.00     0.273 C 
BRANCH  15  16
ATOM     16  N   UNL A   1      34.537  21.453  27.505  1.00  0.00    -0.357 N 
ATOM     17  H   UNL A   1      33.534  21.266  27.484  1.00  0.00     0.344 HD
ATOM     18  H   UNL A   1      34.785  21.881  28.397  1.00  0.00     0.344 HD
ATOM     19  H   UNL A   1      35.047  20.577  27.394  1.00  0.00     0.344 HD
ENDBRANCH  15  16
ENDBRANCH  13  15
ENDBRANCH  12  13
ENDBRANCH  10  12
ENDBRANCH   6  10
ENDBRANCH   3   5
ENDBRANCH   2   3
ENDBRANCH   1   2
BRANCH   1  20
ATOM     20  C   UNL A   1      33.478  28.578  25.502  1.00  0.00     0.202 C 
BRANCH  20  21
ATOM     21  O   UNL A   1      32.981  29.873  25.155  1.00  0.00    -0.374 OA
BRANCH  21  22
ATOM     22  C   UNL A   1      31.738  30.266  25.739  1.00  0.00     0.202 C 
BRANCH  22  23
ATOM     23  C   UNL A   1      31.759  31.596  26.499  1.00  0.00     0.261 C 
BRANCH  23  24
ATOM     24  O   UNL A   1      32.642  31.535  27.634  1.00  0.00    -0.460 OA
BRANCH  24  25
ATOM     25  C   UNL A   1      33.534  32.551  27.703  1.00  0.00     0.338 C 
ATOM     26  O   UNL A   1      33.296  33.747  27.668  1.00  0.00    -0.246 OA
BRANCH  25  27
ATOM     27  C   UNL A   1      34.885  32.030  27.992  1.00  0.00     0.060 A 
ATOM     28  C   UNL A   1      35.000  30.651  28.201  1.00  0.00     0.016 A 
ATOM     29  C   UNL A   1      35.994  32.866  28.146  1.00  0.00     0.016 A 
ATOM     30  C   UNL A   1      36.204  30.112  28.644  1.00  0.00     0.010 A 
ATOM     31  C   UNL A   1      37.205  32.322  28.594  1.00  0.00     0.010 A 
ATOM     32  C   UNL A   1      37.298  30.951  28.893  1.00  0.00    -0.014 A 
BRANCH  32  33
ATOM     33  C   UNL A   1      38.459  30.402  29.637  1.00  0.00     0.031 A 
ATOM     34  C   UNL A   1      38.662  30.810  31.071  1.00  0.00     0.074 A 
ATOM     35  C   UNL A   1      39.272  29.492  29.073  1.00  0.00     0.049 A 
ATOM     36  N   UNL A   1      39.558  30.404  31.934  1.00  0.00    -0.248 NA
ATOM     37  C   UNL A   1      37.724  31.811  31.607  1.00  0.00     0.031 C 
ATOM     38  C   UNL A   1      39.164  28.997  27.704  1.00  0.00     0.029 A 
ATOM     39  N   UNL A   1      40.347  28.816  29.595  1.00  0.00    -0.354 N 
ATOM     40  C   UNL A   1      39.292  31.093  33.110  1.00  0.00     0.074 A 
ATOM     41  C   UNL A   1      38.176  31.974  32.841  1.00  0.00     0.031 C 
ATOM     42  C   UNL A   1      40.134  28.089  27.492  1.00  0.00     0.029 A 
ATOM     43  C   UNL A   1      40.937  27.953  28.706  1.00  0.00     0.049 A 
ATOM     44  H   UNL A   1      40.665  28.939  30.518  1.00  0.00     0.167 HD
ATOM     45  C   UNL A   1      39.909  30.991  34.311  1.00  0.00     0.037 A 
ATOM     46  C   UNL A   1      42.005  27.146  28.858  1.00  0.00     0.037 A 
ATOM     47  C   UNL A   1      41.015  30.112  34.584  1.00  0.00     0.049 A 
ATOM     48  C   UNL A   1      42.700  27.080  30.193  1.00  0.00     0.074 A 
ATOM     49  C   UNL A   1      41.699  29.926  35.772  1.00  0.00     0.029 A 
ATOM     50  N   UNL A   1      41.602  29.271  33.648  1.00  0.00    -0.354 N 
ATOM     51  N   UNL A   1      42.418  27.710  31.308  1.00  0.00    -0.248 NA
ATOM     52  C   UNL A   1      43.856  26.177  30.292  1.00  0.00     0.031 C 
ATOM     53  C   UNL A   1      42.727  29.004  35.545  1.00  0.00     0.029 A 
ATOM     54  C   UNL A   1      42.653  28.579  34.229  1.00  0.00     0.049 A 
ATOM     55  H   UNL A   1      41.314  29.181  32.712  1.00  0.00     0.167 HD
ATOM     56  C   UNL A   1      43.338  27.259  32.245  1.00  0.00     0.074 A 
ATOM     57  C   UNL A   1      44.180  26.291  31.572  1.00  0.00     0.031 C 
ATOM     58  C   UNL A   1      43.475  27.612  33.548  1.00  0.00     0.037 A 
BRANCH  45  59
ATOM     59  C   UNL A   1      39.407  31.867  35.421  1.00  0.00     0.064 A 
ATOM     60  C   UNL A   1      39.825  33.200  35.554  1.00  0.00     0.173 A 
ATOM     61  C   UNL A   1      38.479  31.373  36.350  1.00  0.00     0.173 A 
ATOM     62  F   UNL A   1      40.723  33.713  34.700  1.00  0.00    -0.203 F 
ATOM     63  C   UNL A   1      39.349  34.000  36.589  1.00  0.00     0.198 A 
ATOM     64  C   UNL A   1      37.986  32.184  37.369  1.00  0.00     0.198 A 
ATOM     65  F   UNL A   1      38.048  30.105  36.268  1.00  0.00    -0.203 F 
ATOM     66  F   UNL A   1      39.796  35.255  36.723  1.00  0.00    -0.200 F 
ATOM     67  C   UNL A   1      38.426  33.492  37.492  1.00  0.00     0.200 A 
ATOM     68  F   UNL A   1      37.088  31.696  38.236  1.00  0.00    -0.200 F 
ATOM     69  F   UNL A   1      37.967  34.265  38.487  1.00  0.00    -0.200 F 
ENDBRANCH  45  59
BRANCH  46  70
ATOM     70  C   UNL A   1      42.478  26.321  27.717  1.00  0.00     0.064 A 
ATOM     71  C   UNL A   1      43.527  26.756  26.894  1.00  0.00     0.173 A 
ATOM     72  C   UNL A   1      41.878  25.091  27.414  1.00  0.00     0.173 A 
ATOM     73  F   UNL A   1      44.116  27.938  27.130  1.00  0.00    -0.203 F 
ATOM     74  C   UNL A   1      43.942  26.001  25.800  1.00  0.00     0.198 A 
ATOM     75  C   UNL A   1      42.312  24.323  26.335  1.00  0.00     0.198 A 
ATOM     76  F   UNL A   1      40.869  24.631  28.170  1.00  0.00    -0.203 F 
ATOM     77  F   UNL A   1      44.915  26.462  25.001  1.00  0.00    -0.200 F 
ATOM     78  C   UNL A   1      43.338  24.783  25.524  1.00  0.00     0.200 A 
ATOM     79  F   UNL A   1      41.731  23.143  26.078  1.00  0.00    -0.200 F 
ATOM     80  F   UNL A   1      43.738  24.057  24.472  1.00  0.00    -0.200 F 
ENDBRANCH  46  70
BRANCH  58  81
ATOM     81  C   UNL A   1      44.547  26.922  34.339  1.00  0.00     0.064 A 
ATOM     82  C   UNL A   1      44.317  25.695  34.979  1.00  0.00     0.173 A 
ATOM     83  C   UNL A   1      45.830  27.483  34.438  1.00  0.00     0.173 A 
ATOM     84  F   UNL A   1      43.105  25.123  34.925  1.00  0.00    -0.203 F 
ATOM     85  C   UNL A   1      45.321  25.072  35.714  1.00  0.00     0.198 A 
ATOM     86  C   UNL A   1      46.840  26.843  35.149  1.00  0.00     0.198 A 
ATOM     87  F   UNL A   1      46.105  28.652  33.838  1.00  0.00    -0.203 F 
ATOM     88  F   UNL A   1      45.064  23.926  36.362  1.00  0.00    -0.200 F 
ATOM     89  C   UNL A   1      46.583  25.643  35.795  1.00  0.00     0.200 A 
ATOM     90  F   UNL A   1      48.062  27.390  35.216  1.00  0.00    -0.200 F 
ATOM     91  F   UNL A   1      47.548  25.041  36.503  1.00  0.00    -0.200 F 
ENDBRANCH  58  81
ENDBRANCH  32  33
ENDBRANCH  25  27
ENDBRANCH  24  25
ENDBRANCH  23  24
ENDBRANCH  22  23
ENDBRANCH  21  22
ENDBRANCH  20  21
ENDBRANCH   1  20
TORSDOF 19
ENDMDL
MODEL 2
REMARK VINA RESULT:     -10.1      4.601     10.164
REMARK SMILES C[C@H](C[NH3+])S[C@H](C)c1ccc(C(=O)OCCOCCOC(=O)c2ccc(-c3c4nc(c(-c5c(F)c(F)c(F)c(F)c5F)c5ccc([nH]5)c(-c5c(F)c(F)c(F)c(F)c5F)c5nc(c(-c6c(F)c(F)c(F)c(F)c6F)c6ccc3[nH]6)C=C5)C=C4)cc2)o1
REMARK SMILES IDX 15 1 14 2 12 3 13 4 11 5 8 6 9 7 86 8 10 9 6 10 7 11 5 12
REMARK SMILES IDX 2 13 1 14 3 15 4 16 16 20 17 21 18 22 19 23 20 24 21 25
REMARK SMILES IDX 22 26 23 27 24 28 85 29 25 30 84 31 26 32 27 33 28 34 78 35
REMARK SMILES IDX 29 36 83 37 77 38 79 39 30 40 82 41 76 42 75 43 31 45 63 46
REMARK SMILES IDX 43 47 62 48 44 49 47 50 61 51 80 52 45 53 46 54 60 56 81 57
REMARK SMILES IDX 48 58 32 59 33 60 41 61 34 62 35 63 39 64 42 65 36 66 37 67
REMARK SMILES IDX 40 68 38 69 64 70 65 71 73 72 66 73 67 74 71 75 74 76 68 77
REMARK SMILES IDX 69 78 72 79 70 80 49 81 50 82 58 83 51 84 52 85 56 86 59 87
REMARK SMILES IDX 53 88 54 89 57 90 55 91
REMARK H PARENT 4 17 4 18 4 19 79 44 47 55
REMARK Flexibility Score: inf
ROOT
ATOM      1  C   UNL A   1      33.742  22.146  24.782  1.00  0.00     0.261 C 
ENDROOT
BRANCH   1   2
ATOM      2  O   UNL A   1      32.702  22.679  23.944  1.00  0.00    -0.457 OA
BRANCH   2   3
ATOM      3  C   UNL A   1      32.915  23.942  23.474  1.00  0.00     0.374 C 
ATOM      4  O   UNL A   1      33.633  24.219  22.521  1.00  0.00    -0.242 OA
BRANCH   3   5
ATOM      5  C   UNL A   1      32.056  24.869  24.172  1.00  0.00     0.211 A 
ATOM      6  C   UNL A   1      31.149  26.866  24.468  1.00  0.00     0.117 A 
ATOM      7  C   UNL A   1      30.504  26.006  25.336  1.00  0.00     0.048 A 
ATOM      8  O   UNL A   1      32.093  26.174  23.772  1.00  0.00    -0.453 OA
ATOM      9  C   UNL A   1      31.084  24.724  25.146  1.00  0.00     0.058 A 
BRANCH   6  10
ATOM     10  C   UNL A   1      30.966  28.323  24.146  1.00  0.00     0.110 C 
ATOM     11  C   UNL A   1      32.321  29.010  23.958  1.00  0.00     0.028 C 
BRANCH  10  12
ATOM     12  S   UNL A   1      30.002  28.624  22.610  1.00  0.00    -0.142 SA
BRANCH  12  13
ATOM     13  C   UNL A   1      28.582  29.635  23.228  1.00  0.00     0.099 C 
ATOM     14  C   UNL A   1      27.255  28.899  23.055  1.00  0.00     0.025 C 
BRANCH  13  15
ATOM     15  C   UNL A   1      28.525  31.054  22.625  1.00  0.00     0.273 C 
BRANCH  15  16
ATOM     16  N   UNL A   1      29.595  31.290  21.658  1.00  0.00    -0.357 N 
ATOM     17  H   UNL A   1      29.689  32.293  21.493  1.00  0.00     0.344 HD
ATOM     18  H   UNL A   1      29.371  30.820  20.782  1.00  0.00     0.344 HD
ATOM     19  H   UNL A   1      30.473  30.923  22.026  1.00  0.00     0.344 HD
ENDBRANCH  15  16
ENDBRANCH  13  15
ENDBRANCH  12  13
ENDBRANCH  10  12
ENDBRANCH   6  10
ENDBRANCH   3   5
ENDBRANCH   2   3
ENDBRANCH   1   2
BRANCH   1  20
ATOM     20  C   UNL A   1      33.807  20.622  24.640  1.00  0.00     0.202 C 
BRANCH  20  21
ATOM     21  O   UNL A   1      35.079  20.043  24.938  1.00  0.00    -0.374 OA
BRANCH  21  22
ATOM     22  C   UNL A   1      36.134  20.941  25.286  1.00  0.00     0.202 C 
BRANCH  22  23
ATOM     23  C   UNL A   1      37.552  20.428  25.019  1.00  0.00     0.261 C 
BRANCH  23  24
ATOM     24  O   UNL A   1      38.527  21.471  25.197  1.00  0.00    -0.460 OA
BRANCH  24  25
ATOM     25  C   UNL A   1      39.492  21.186  26.103  1.00  0.00     0.338 C 
ATOM     26  O   UNL A   1      40.081  20.127  26.246  1.00  0.00    -0.246 OA
BRANCH  25  27
ATOM     27  C   UNL A   1      39.880  22.403  26.842  1.00  0.00     0.060 A 
ATOM     28  C   UNL A   1      39.208  23.586  26.512  1.00  0.00     0.016 A 
ATOM     29  C   UNL A   1      40.931  22.419  27.764  1.00  0.00     0.016 A 
ATOM     30  C   UNL A   1      39.634  24.801  27.039  1.00  0.00     0.010 A 
ATOM     31  C   UNL A   1      41.360  23.643  28.294  1.00  0.00     0.010 A 
ATOM     32  C   UNL A   1      40.745  24.843  27.892  1.00  0.00    -0.014 A 
BRANCH  32  33
ATOM     33  C   UNL A   1      41.354  26.161  28.199  1.00  0.00     0.031 A 
ATOM     34  C   UNL A   1      42.742  26.455  27.697  1.00  0.00     0.074 A 
ATOM     35  C   UNL A   1      40.655  27.111  28.844  1.00  0.00     0.049 A 
ATOM     36  N   UNL A   1      43.442  27.558  27.781  1.00  0.00    -0.248 NA
ATOM     37  C   UNL A   1      43.434  25.357  27.002  1.00  0.00     0.031 C 
ATOM     38  C   UNL A   1      39.296  26.958  29.356  1.00  0.00     0.029 A 
ATOM     39  N   UNL A   1      40.995  28.401  29.168  1.00  0.00    -0.354 N 
ATOM     40  C   UNL A   1      44.649  27.289  27.150  1.00  0.00     0.074 A 
ATOM     41  C   UNL A   1      44.605  25.907  26.722  1.00  0.00     0.031 C 
ATOM     42  C   UNL A   1      38.914  28.114  29.928  1.00  0.00     0.029 A 
ATOM     43  C   UNL A   1      40.007  29.079  29.834  1.00  0.00     0.049 A 
ATOM     44  H   UNL A   1      41.866  28.801  28.943  1.00  0.00     0.167 HD
ATOM     45  C   UNL A   1      45.695  28.121  26.931  1.00  0.00     0.037 A 
ATOM     46  C   UNL A   1      39.989  30.339  30.313  1.00  0.00     0.037 A 
ATOM     47  C   UNL A   1      45.740  29.497  27.349  1.00  0.00     0.049 A 
ATOM     48  C   UNL A   1      41.181  31.233  30.092  1.00  0.00     0.074 A 
ATOM     49  C   UNL A   1      46.748  30.426  27.162  1.00  0.00     0.029 A 
ATOM     50  N   UNL A   1      44.727  30.141  28.047  1.00  0.00    -0.354 N 
ATOM     51  N   UNL A   1      42.304  30.979  29.463  1.00  0.00    -0.248 NA
ATOM     52  C   UNL A   1      41.096  32.595  30.637  1.00  0.00     0.031 C 
ATOM     53  C   UNL A   1      46.365  31.620  27.783  1.00  0.00     0.029 A 
ATOM     54  C   UNL A   1      45.097  31.450  28.314  1.00  0.00     0.049 A 
ATOM     55  H   UNL A   1      43.874  29.729  28.312  1.00  0.00     0.167 HD
ATOM     56  C   UNL A   1      43.043  32.154  29.510  1.00  0.00     0.074 A 
ATOM     57  C   UNL A   1      42.235  33.127  30.218  1.00  0.00     0.031 C 
ATOM     58  C   UNL A   1      44.278  32.408  29.012  1.00  0.00     0.037 A 
BRANCH  45  59
ATOM     59  C   UNL A   1      46.887  27.558  26.214  1.00  0.00     0.064 A 
ATOM     60  C   UNL A   1      47.010  27.633  24.818  1.00  0.00     0.173 A 
ATOM     61  C   UNL A   1      47.929  26.956  26.934  1.00  0.00     0.173 A 
ATOM     62  F   UNL A   1      46.033  28.185  24.083  1.00  0.00    -0.203 F 
ATOM     63  C   UNL A   1      48.123  27.106  24.168  1.00  0.00     0.198 A 
ATOM     64  C   UNL A   1      49.052  26.453  26.283  1.00  0.00     0.198 A 
ATOM     65  F   UNL A   1      47.859  26.859  28.271  1.00  0.00    -0.203 F 
ATOM     66  F   UNL A   1      48.198  27.148  22.831  1.00  0.00    -0.200 F 
ATOM     67  C   UNL A   1      49.145  26.522  24.902  1.00  0.00     0.200 A 
ATOM     68  F   UNL A   1      50.043  25.897  26.994  1.00  0.00    -0.200 F 
ATOM     69  F   UNL A   1      50.217  26.017  24.275  1.00  0.00    -0.200 F 
ENDBRANCH  45  59
BRANCH  46  70
ATOM     70  C   UNL A   1      38.795  30.838  31.041  1.00  0.00     0.064 A 
ATOM     71  C   UNL A   1      38.700  30.733  32.436  1.00  0.00     0.173 A 
ATOM     72  C   UNL A   1      37.714  31.409  30.354  1.00  0.00     0.173 A 
ATOM     73  F   UNL A   1      39.697  30.171  33.134  1.00  0.00    -0.203 F 
ATOM     74  C   UNL A   1      37.561  31.164  33.113  1.00  0.00     0.198 A 
ATOM     75  C   UNL A   1      36.587  31.864  31.035  1.00  0.00     0.198 A 
ATOM     76  F   UNL A   1      37.755  31.530  29.019  1.00  0.00    -0.203 F 
ATOM     77  F   UNL A   1      37.476  31.009  34.442  1.00  0.00    -0.200 F 
ATOM     78  C   UNL A   1      36.508  31.733  32.413  1.00  0.00     0.200 A 
ATOM     79  F   UNL A   1      35.576  32.422  30.356  1.00  0.00    -0.200 F 
ATOM     80  F   UNL A   1      35.413  32.148  33.065  1.00  0.00    -0.200 F 
ENDBRANCH  46  70
BRANCH  58  81
ATOM     81  C   UNL A   1      44.816  33.799  29.179  1.00  0.00     0.064 A 
ATOM     82  C   UNL A   1      45.625  34.150  30.270  1.00  0.00     0.173 A 
ATOM     83  C   UNL A   1      44.539  34.788  28.222  1.00  0.00     0.173 A 
ATOM     84  F   UNL A   1      45.909  33.246  31.219  1.00  0.00    -0.203 F 
ATOM     85  C   UNL A   1      46.110  35.448  30.412  1.00  0.00     0.198 A 
ATOM     86  C   UNL A   1      45.049  36.076  28.352  1.00  0.00     0.198 A 
ATOM     87  F   UNL A   1      43.776  34.501  27.156  1.00  0.00    -0.203 F 
ATOM     88  F   UNL A   1      46.837  35.775  31.490  1.00  0.00    -0.200 F 
ATOM     89  C   UNL A   1      45.826  36.407  29.452  1.00  0.00     0.200 A 
ATOM     90  F   UNL A   1      44.784  36.998  27.418  1.00  0.00    -0.200 F 
ATOM     91  F   UNL A   1      46.294  37.656  29.591  1.00  0.00    -0.200 F 
ENDBRANCH  58  81
ENDBRANCH  32  33
ENDBRANCH  25  27
ENDBRANCH  24  25
ENDBRANCH  23  24
ENDBRANCH  22  23
ENDBRANCH  21  22
ENDBRANCH  20  21
ENDBRANCH   1  20
TORSDOF 19
ENDMDL
MODEL 3
REMARK VINA RESULT:     -10.1      1.257      7.672
REMARK SMILES C[C@H](C[NH3+])S[C@H](C)c1ccc(C(=O)OCCOCCOC(=O)c2ccc(-c3c4nc(c(-c5c(F)c(F)c(F)c(F)c5F)c5ccc([nH]5)c(-c5c(F)c(F)c(F)c(F)c5F)c5nc(c(-c6c(F)c(F)c(F)c(F)c6F)c6ccc3[nH]6)C=C5)C=C4)cc2)o1
REMARK SMILES IDX 15 1 14 2 12 3 13 4 11 5 8 6 9 7 86 8 10 9 6 10 7 11 5 12
REMARK SMILES IDX 2 13 1 14 3 15 4 16 16 20 17 21 18 22 19 23 20 24 21 25
REMARK SMILES IDX 22 26 23 27 24 28 85 29 25 30 84 31 26 32 27 33 28 34 78 35
REMARK SMILES IDX 29 36 83 37 77 38 79 39 30 40 82 41 76 42 75 43 31 45 63 46
REMARK SMILES IDX 43 47 62 48 44 49 47 50 61 51 80 52 45 53 46 54 60 56 81 57
REMARK SMILES IDX 48 58 32 59 33 60 41 61 34 62 35 63 39 64 42 65 36 66 37 67
REMARK SMILES IDX 40 68 38 69 64 70 65 71 73 72 66 73 67 74 71 75 74 76 68 77
REMARK SMILES IDX 69 78 72 79 70 80 49 81 50 82 58 83 51 84 52 85 56 86 59 87
REMARK SMILES IDX 53 88 54 89 57 90 55 91
REMARK H PARENT 4 17 4 18 4 19 79 44 47 55
REMARK Flexibility Score: inf
ROOT
ATOM      1  C   UNL A   1      33.548  27.799  22.837  1.00  0.00     0.261 C 
ENDROOT
BRANCH   1   2
ATOM      2  O   UNL A   1      32.694  26.658  22.638  1.00  0.00    -0.457 OA
BRANCH   2   3
ATOM      3  C   UNL A   1      31.359  26.887  22.809  1.00  0.00     0.374 C 
ATOM      4  O   UNL A   1      30.653  27.508  22.025  1.00  0.00    -0.242 OA
BRANCH   3   5
ATOM      5  C   UNL A   1      30.889  26.163  23.967  1.00  0.00     0.211 A 
ATOM      6  C   UNL A   1      31.122  24.647  25.563  1.00  0.00     0.117 A 
ATOM      7  C   UNL A   1      29.973  25.357  25.854  1.00  0.00     0.048 A 
ATOM      8  O   UNL A   1      31.667  25.134  24.414  1.00  0.00    -0.453 OA
ATOM      9  C   UNL A   1      29.823  26.331  24.832  1.00  0.00     0.058 A 
BRANCH   6  10
ATOM     10  C   UNL A   1      31.849  23.539  26.271  1.00  0.00     0.110 C 
ATOM     11  C   UNL A   1      31.415  22.174  25.732  1.00  0.00     0.028 C 
BRANCH  10  12
ATOM     12  S   UNL A   1      33.676  23.623  26.091  1.00  0.00    -0.142 SA
BRANCH  12  13
ATOM     13  C   UNL A   1      34.010  22.300  24.842  1.00  0.00     0.099 C 
ATOM     14  C   UNL A   1      35.019  21.279  25.365  1.00  0.00     0.025 C 
BRANCH  13  15
ATOM     15  C   UNL A   1      34.423  22.846  23.459  1.00  0.00     0.273 C 
BRANCH  15  16
ATOM     16  N   UNL A   1      34.283  24.298  23.371  1.00  0.00    -0.357 N 
ATOM     17  H   UNL A   1      35.118  24.694  22.938  1.00  0.00     0.344 HD
ATOM     18  H   UNL A   1      34.169  24.686  24.308  1.00  0.00     0.344 HD
ATOM     19  H   UNL A   1      33.466  24.527  22.807  1.00  0.00     0.344 HD
ENDBRANCH  15  16
ENDBRANCH  13  15
ENDBRANCH  12  13
ENDBRANCH  10  12
ENDBRANCH   6  10
ENDBRANCH   3   5
ENDBRANCH   2   3
ENDBRANCH   1   2
BRANCH   1  20
ATOM     20  C   UNL A   1      33.438  28.294  24.283  1.00  0.00     0.202 C 
BRANCH  20  21
ATOM     21  O   UNL A   1      32.907  29.613  24.429  1.00  0.00    -0.374 OA
BRANCH  21  22
ATOM     22  C   UNL A   1      31.628  29.730  25.053  1.00  0.00     0.202 C 
BRANCH  22  23
ATOM     23  C   UNL A   1      31.505  30.838  26.102  1.00  0.00     0.261 C 
BRANCH  23  24
ATOM     24  O   UNL A   1      32.493  30.690  27.137  1.00  0.00    -0.460 OA
BRANCH  24  25
ATOM     25  C   UNL A   1      33.269  31.783  27.330  1.00  0.00     0.338 C 
ATOM     26  O   UNL A   1      32.925  32.952  27.274  1.00  0.00    -0.246 OA
BRANCH  25  27
ATOM     27  C   UNL A   1      34.616  31.384  27.784  1.00  0.00     0.060 A 
ATOM     28  C   UNL A   1      34.816  30.025  28.055  1.00  0.00     0.016 A 
ATOM     29  C   UNL A   1      35.632  32.313  28.028  1.00  0.00     0.016 A 
ATOM     30  C   UNL A   1      36.001  29.600  28.648  1.00  0.00     0.010 A 
ATOM     31  C   UNL A   1      36.824  31.883  28.626  1.00  0.00     0.010 A 
ATOM     32  C   UNL A   1      36.990  30.533  28.985  1.00  0.00    -0.014 A 
BRANCH  32  33
ATOM     33  C   UNL A   1      38.099  30.103  29.872  1.00  0.00     0.031 A 
ATOM     34  C   UNL A   1      39.128  29.144  29.336  1.00  0.00     0.074 A 
ATOM     35  C   UNL A   1      38.235  30.618  31.106  1.00  0.00     0.049 A 
ATOM     36  N   UNL A   1      40.217  28.689  29.902  1.00  0.00    -0.248 NA
ATOM     37  C   UNL A   1      38.899  28.630  27.976  1.00  0.00     0.031 C 
ATOM     38  C   UNL A   1      37.322  31.573  31.727  1.00  0.00     0.029 A 
ATOM     39  N   UNL A   1      39.208  30.413  32.053  1.00  0.00    -0.354 N 
ATOM     40  C   UNL A   1      40.803  27.843  28.970  1.00  0.00     0.074 A 
ATOM     41  C   UNL A   1      39.929  27.813  27.816  1.00  0.00     0.031 C 
ATOM     42  C   UNL A   1      37.780  31.877  32.955  1.00  0.00     0.029 A 
ATOM     43  C   UNL A   1      39.009  31.126  33.208  1.00  0.00     0.049 A 
ATOM     44  H   UNL A   1      39.975  29.812  31.916  1.00  0.00     0.167 HD
ATOM     45  C   UNL A   1      41.971  27.163  29.058  1.00  0.00     0.037 A 
ATOM     46  C   UNL A   1      39.737  31.166  34.340  1.00  0.00     0.037 A 
ATOM     47  C   UNL A   1      42.845  27.195  30.201  1.00  0.00     0.049 A 
ATOM     48  C   UNL A   1      41.013  30.369  34.430  1.00  0.00     0.074 A 
ATOM     49  C   UNL A   1      44.057  26.552  30.381  1.00  0.00     0.029 A 
ATOM     50  N   UNL A   1      42.594  27.909  31.364  1.00  0.00    -0.354 N 
ATOM     51  N   UNL A   1      41.575  29.599  33.529  1.00  0.00    -0.248 NA
ATOM     52  C   UNL A   1      41.761  30.459  35.691  1.00  0.00     0.031 C 
ATOM     53  C   UNL A   1      44.520  26.843  31.669  1.00  0.00     0.029 A 
ATOM     54  C   UNL A   1      43.620  27.707  32.273  1.00  0.00     0.049 A 
ATOM     55  H   UNL A   1      41.805  28.476  31.519  1.00  0.00     0.167 HD
ATOM     56  C   UNL A   1      42.754  29.139  34.101  1.00  0.00     0.074 A 
ATOM     57  C   UNL A   1      42.834  29.728  35.422  1.00  0.00     0.031 C 
ATOM     58  C   UNL A   1      43.690  28.306  33.581  1.00  0.00     0.037 A 
BRANCH  45  59
ATOM     59  C   UNL A   1      42.365  26.313  27.886  1.00  0.00     0.064 A 
ATOM     60  C   UNL A   1      41.857  25.017  27.712  1.00  0.00     0.173 A 
ATOM     61  C   UNL A   1      43.243  26.810  26.912  1.00  0.00     0.173 A 
ATOM     62  F   UNL A   1      41.026  24.491  28.624  1.00  0.00    -0.203 F 
ATOM     63  C   UNL A   1      42.231  24.241  26.618  1.00  0.00     0.198 A 
ATOM     64  C   UNL A   1      43.596  26.041  25.806  1.00  0.00     0.198 A 
ATOM     65  F   UNL A   1      43.758  28.044  27.031  1.00  0.00    -0.203 F 
ATOM     66  F   UNL A   1      41.770  22.990  26.498  1.00  0.00    -0.200 F 
ATOM     67  C   UNL A   1      43.096  24.757  25.664  1.00  0.00     0.200 A 
ATOM     68  F   UNL A   1      44.424  26.543  24.880  1.00  0.00    -0.200 F 
ATOM     69  F   UNL A   1      43.454  24.010  24.610  1.00  0.00    -0.200 F 
ENDBRANCH  45  59
BRANCH  46  70
ATOM     70  C   UNL A   1      39.287  32.002  35.482  1.00  0.00     0.064 A 
ATOM     71  C   UNL A   1      39.667  33.347  35.591  1.00  0.00     0.173 A 
ATOM     72  C   UNL A   1      38.485  31.466  36.500  1.00  0.00     0.173 A 
ATOM     73  F   UNL A   1      40.455  33.897  34.655  1.00  0.00    -0.203 F 
ATOM     74  C   UNL A   1      39.279  34.118  36.684  1.00  0.00     0.198 A 
ATOM     75  C   UNL A   1      38.074  32.245  37.580  1.00  0.00     0.198 A 
ATOM     76  F   UNL A   1      38.096  30.183  36.443  1.00  0.00    -0.203 F 
ATOM     77  F   UNL A   1      39.695  35.388  36.788  1.00  0.00    -0.200 F 
ATOM     78  C   UNL A   1      38.478  33.568  37.675  1.00  0.00     0.200 A 
ATOM     79  F   UNL A   1      37.293  31.712  38.529  1.00  0.00    -0.200 F 
ATOM     80  F   UNL A   1      38.104  34.310  38.726  1.00  0.00    -0.200 F 
ENDBRANCH  46  70
BRANCH  58  81
ATOM     81  C   UNL A   1      44.895  28.013  34.424  1.00  0.00     0.064 A 
ATOM     82  C   UNL A   1      46.038  28.826  34.385  1.00  0.00     0.173 A 
ATOM     83  C   UNL A   1      44.899  26.917  35.302  1.00  0.00     0.173 A 
ATOM     84  F   UNL A   1      46.090  29.878  33.554  1.00  0.00    -0.203 F 
ATOM     85  C   UNL A   1      47.150  28.534  35.170  1.00  0.00     0.198 A 
ATOM     86  C   UNL A   1      46.002  26.646  36.107  1.00  0.00     0.198 A 
ATOM     87  F   UNL A   1      43.828  26.113  35.382  1.00  0.00    -0.203 F 
ATOM     88  F   UNL A   1      48.251  29.294  35.078  1.00  0.00    -0.200 F 
ATOM     89  C   UNL A   1      47.130  27.449  36.033  1.00  0.00     0.200 A 
ATOM     90  F   UNL A   1      45.975  25.604  36.948  1.00  0.00    -0.200 F 
ATOM     91  F   UNL A   1      48.202  27.170  36.788  1.00  0.00    -0.200 F 
ENDBRANCH  58  81
ENDBRANCH  32  33
ENDBRANCH  25  27
ENDBRANCH  24  25
ENDBRANCH  23  24
ENDBRANCH  22  23
ENDBRANCH  21  22
ENDBRANCH  20  21
ENDBRANCH   1  20
TORSDOF 19
ENDMDL
