MODEL 1
REMARK VINA RESULT:     -12.5      0.000      0.000
REMARK SMILES O=C(OCCOCCOC(=O)c1ccc2nc(-c3c[nH]nc3-c3ccc(F)cc3F)[nH]c2c1)c1ccc(-c2c3nc(c(-c4c(F)c(F)c(F)c(F)c4F)c4ccc([nH]4)c(-c4c(F)c(F)c(F)c(F)c4F)c4nc(c(-c5c(F)c(F)c(F)c(F)c5F)c5ccc2[nH]5)C=C4)C=C3)cc1
REMARK SMILES IDX 6 1 5 2 4 3 3 4 2 5 1 6 34 7 35 8 96 9 36 10 95 11 37 12
REMARK SMILES IDX 38 13 39 14 89 15 40 16 94 17 88 18 90 19 41 20 93 21 87 22
REMARK SMILES IDX 86 23 42 25 74 26 54 27 73 28 55 29 58 30 72 31 91 32 56 33
REMARK SMILES IDX 57 34 71 36 92 37 59 38 43 39 44 40 52 41 45 42 46 43 50 44
REMARK SMILES IDX 53 45 47 46 48 47 51 48 49 49 75 50 76 51 84 52 77 53 78 54
REMARK SMILES IDX 82 55 85 56 79 57 80 58 83 59 81 60 60 61 61 62 69 63 62 64
REMARK SMILES IDX 63 65 67 66 70 67 64 68 65 69 68 70 66 71 7 72 8 73 9 74
REMARK SMILES IDX 10 75 11 76 12 77 13 78 33 79 14 80 32 81 15 82 31 83 16 84
REMARK SMILES IDX 17 85 18 87 19 88 22 89 20 90 21 91 23 93 24 94 29 95 25 96
REMARK SMILES IDX 28 97 30 98 26 99 27 100
REMARK H PARENT 90 24 58 35 31 86 20 92
REMARK Flexibility Score: inf
ROOT
ATOM      1  O   UNL A   1      34.002  34.389  29.132  1.00  0.00    -0.374 OA
ENDROOT
BRANCH   1   2
ATOM      2  C   UNL A   1      32.876  35.267  29.115  1.00  0.00     0.202 C 
BRANCH   2   3
ATOM      3  C   UNL A   1      33.088  36.571  29.887  1.00  0.00     0.261 C 
BRANCH   3   4
ATOM      4  O   UNL A   1      32.335  36.553  31.110  1.00  0.00    -0.460 OA
BRANCH   4   5
ATOM      5  C   UNL A   1      32.412  35.673  32.133  1.00  0.00     0.338 C 
ATOM      6  O   UNL A   1      31.400  35.447  32.794  1.00  0.00    -0.246 OA
BRANCH   5   7
ATOM      7  C   UNL A   1      33.660  34.942  32.507  1.00  0.00     0.060 A 
ATOM      8  C   UNL A   1      33.714  33.615  32.935  1.00  0.00     0.016 A 
ATOM      9  C   UNL A   1      34.877  35.619  32.313  1.00  0.00     0.016 A 
ATOM     10  C   UNL A   1      34.918  32.992  33.225  1.00  0.00     0.010 A 
ATOM     11  C   UNL A   1      36.101  34.985  32.556  1.00  0.00     0.010 A 
ATOM     12  C   UNL A   1      36.118  33.669  33.026  1.00  0.00    -0.014 A 
BRANCH  12  13
ATOM     13  C   UNL A   1      37.367  32.980  33.389  1.00  0.00     0.031 A 
ATOM     14  C   UNL A   1      37.949  33.222  34.745  1.00  0.00     0.074 A 
ATOM     15  C   UNL A   1      37.868  32.049  32.559  1.00  0.00     0.049 A 
ATOM     16  N   UNL A   1      39.035  32.731  35.277  1.00  0.00    -0.248 NA
ATOM     17  C   UNL A   1      37.196  34.126  35.631  1.00  0.00     0.031 C 
ATOM     18  C   UNL A   1      37.280  31.670  31.271  1.00  0.00     0.029 A 
ATOM     19  N   UNL A   1      38.956  31.226  32.683  1.00  0.00    -0.354 N 
ATOM     20  C   UNL A   1      39.107  33.278  36.549  1.00  0.00     0.074 A 
ATOM     21  C   UNL A   1      37.960  34.142  36.713  1.00  0.00     0.031 C 
ATOM     22  C   UNL A   1      37.994  30.664  30.743  1.00  0.00     0.029 A 
ATOM     23  C   UNL A   1      39.127  30.378  31.617  1.00  0.00     0.049 A 
ATOM     24  H   UNL A   1      39.557  31.242  33.462  1.00  0.00     0.167 HD
ATOM     25  C   UNL A   1      40.057  33.072  37.488  1.00  0.00     0.037 A 
ATOM     26  C   UNL A   1      40.108  29.491  31.371  1.00  0.00     0.037 A 
ATOM     27  C   UNL A   1      41.187  32.207  37.289  1.00  0.00     0.049 A 
ATOM     28  C   UNL A   1      41.208  29.357  32.390  1.00  0.00     0.074 A 
ATOM     29  C   UNL A   1      42.258  31.975  38.131  1.00  0.00     0.029 A 
ATOM     30  N   UNL A   1      41.384  31.427  36.157  1.00  0.00    -0.354 N 
ATOM     31  N   UNL A   1      41.318  29.937  33.562  1.00  0.00    -0.248 NA
ATOM     32  C   UNL A   1      42.326  28.468  32.051  1.00  0.00     0.031 C 
ATOM     33  C   UNL A   1      43.124  31.083  37.489  1.00  0.00     0.029 A 
ATOM     34  C   UNL A   1      42.569  30.723  36.269  1.00  0.00     0.049 A 
ATOM     35  H   UNL A   1      40.771  31.381  35.389  1.00  0.00     0.167 HD
ATOM     36  C   UNL A   1      42.511  29.483  34.105  1.00  0.00     0.074 A 
ATOM     37  C   UNL A   1      43.077  28.559  33.141  1.00  0.00     0.031 C 
ATOM     38  C   UNL A   1      43.093  29.806  35.286  1.00  0.00     0.037 A 
BRANCH  25  39
ATOM     39  C   UNL A   1      39.938  33.842  38.768  1.00  0.00     0.064 A 
ATOM     40  C   UNL A   1      40.590  35.076  38.912  1.00  0.00     0.173 A 
ATOM     41  C   UNL A   1      39.177  33.372  39.848  1.00  0.00     0.173 A 
ATOM     42  F   UNL A   1      41.323  35.574  37.905  1.00  0.00    -0.203 F 
ATOM     43  C   UNL A   1      40.487  35.809  40.091  1.00  0.00     0.198 A 
ATOM     44  C   UNL A   1      39.057  34.118  41.018  1.00  0.00     0.198 A 
ATOM     45  F   UNL A   1      38.510  32.211  39.750  1.00  0.00    -0.203 F 
ATOM     46  F   UNL A   1      41.126  36.981  40.208  1.00  0.00    -0.200 F 
ATOM     47  C   UNL A   1      39.716  35.334  41.141  1.00  0.00     0.200 A 
ATOM     48  F   UNL A   1      38.284  33.674  42.019  1.00  0.00    -0.200 F 
ATOM     49  F   UNL A   1      39.596  36.052  42.265  1.00  0.00    -0.200 F 
ENDBRANCH  25  39
BRANCH  26  50
ATOM     50  C   UNL A   1      40.108  28.708  30.107  1.00  0.00     0.064 A 
ATOM     51  C   UNL A   1      39.496  27.446  30.033  1.00  0.00     0.173 A 
ATOM     52  C   UNL A   1      40.737  29.189  28.951  1.00  0.00     0.173 A 
ATOM     53  F   UNL A   1      38.875  26.937  31.108  1.00  0.00    -0.203 F 
ATOM     54  C   UNL A   1      39.537  26.686  28.866  1.00  0.00     0.198 A 
ATOM     55  C   UNL A   1      40.753  28.441  27.772  1.00  0.00     0.198 A 
ATOM     56  F   UNL A   1      41.316  30.398  28.957  1.00  0.00    -0.203 F 
ATOM     57  F   UNL A   1      38.977  25.470  28.839  1.00  0.00    -0.200 F 
ATOM     58  C   UNL A   1      40.161  27.186  27.735  1.00  0.00     0.200 A 
ATOM     59  F   UNL A   1      41.332  28.940  26.673  1.00  0.00    -0.200 F 
ATOM     60  F   UNL A   1      40.188  26.464  26.606  1.00  0.00    -0.200 F 
ENDBRANCH  26  50
BRANCH  38  61
ATOM     61  C   UNL A   1      44.399  29.149  35.607  1.00  0.00     0.064 A 
ATOM     62  C   UNL A   1      44.430  27.958  36.346  1.00  0.00     0.173 A 
ATOM     63  C   UNL A   1      45.618  29.753  35.268  1.00  0.00     0.173 A 
ATOM     64  F   UNL A   1      43.286  27.352  36.699  1.00  0.00    -0.203 F 
ATOM     65  C   UNL A   1      45.638  27.403  36.753  1.00  0.00     0.198 A 
ATOM     66  C   UNL A   1      46.826  29.181  35.655  1.00  0.00     0.198 A 
ATOM     67  F   UNL A   1      45.635  30.887  34.551  1.00  0.00    -0.203 F 
ATOM     68  F   UNL A   1      45.645  26.286  37.493  1.00  0.00    -0.200 F 
ATOM     69  C   UNL A   1      46.834  28.014  36.407  1.00  0.00     0.200 A 
ATOM     70  F   UNL A   1      47.981  29.759  35.303  1.00  0.00    -0.200 F 
ATOM     71  F   UNL A   1      47.998  27.478  36.798  1.00  0.00    -0.200 F 
ENDBRANCH  38  61
ENDBRANCH  12  13
ENDBRANCH   5   7
ENDBRANCH   4   5
ENDBRANCH   3   4
ENDBRANCH   2   3
ENDBRANCH   1   2
BRANCH   1  72
ATOM     72  C   UNL A   1      34.774  34.347  27.924  1.00  0.00     0.202 C 
BRANCH  72  73
ATOM     73  C   UNL A   1      35.864  33.281  28.052  1.00  0.00     0.261 C 
BRANCH  73  74
ATOM     74  O   UNL A   1      35.246  32.049  28.458  1.00  0.00    -0.460 OA
BRANCH  74  75
ATOM     75  C   UNL A   1      35.652  30.956  27.764  1.00  0.00     0.338 C 
ATOM     76  O   UNL A   1      36.780  30.500  27.681  1.00  0.00    -0.246 OA
BRANCH  75  77
ATOM     77  C   UNL A   1      34.439  30.241  27.316  1.00  0.00     0.062 A 
ATOM     78  C   UNL A   1      33.181  30.854  27.376  1.00  0.00     0.018 A 
ATOM     79  C   UNL A   1      34.593  28.904  26.908  1.00  0.00     0.044 A 
ATOM     80  C   UNL A   1      32.035  30.152  26.992  1.00  0.00     0.031 A 
ATOM     81  C   UNL A   1      33.423  28.214  26.593  1.00  0.00     0.067 A 
ATOM     82  C   UNL A   1      32.171  28.819  26.581  1.00  0.00     0.089 A 
ATOM     83  N   UNL A   1      33.174  26.912  26.231  1.00  0.00    -0.338 N 
ATOM     84  N   UNL A   1      31.227  27.962  26.090  1.00  0.00    -0.228 NA
ATOM     85  C   UNL A   1      31.859  26.833  25.855  1.00  0.00     0.142 A 
ATOM     86  H   UNL A   1      33.823  26.171  26.242  1.00  0.00     0.168 HD
BRANCH  85  87
ATOM     87  C   UNL A   1      31.290  25.733  25.057  1.00  0.00     0.063 A 
ATOM     88  C   UNL A   1      31.556  24.392  25.165  1.00  0.00     0.117 A 
ATOM     89  C   UNL A   1      30.373  25.870  23.982  1.00  0.00     0.106 A 
ATOM     90  N   UNL A   1      30.735  23.798  24.250  1.00  0.00    -0.284 N 
ATOM     91  N   UNL A   1      30.065  24.667  23.472  1.00  0.00    -0.175 NA
ATOM     92  H   UNL A   1      30.642  22.821  24.166  1.00  0.00     0.189 HD
BRANCH  89  93
ATOM     93  C   UNL A   1      29.934  27.116  23.369  1.00  0.00     0.039 A 
ATOM     94  C   UNL A   1      30.872  27.918  22.693  1.00  0.00     0.016 A 
ATOM     95  C   UNL A   1      28.613  27.558  23.471  1.00  0.00     0.135 A 
ATOM     96  C   UNL A   1      30.489  29.141  22.144  1.00  0.00     0.040 A 
ATOM     97  C   UNL A   1      28.225  28.776  22.919  1.00  0.00     0.079 A 
ATOM     98  F   UNL A   1      27.694  26.832  24.125  1.00  0.00    -0.206 F 
ATOM     99  C   UNL A   1      29.168  29.558  22.264  1.00  0.00     0.126 A 
ATOM    100  F   UNL A   1      28.802  30.734  21.739  1.00  0.00    -0.207 F 
ENDBRANCH  89  93
ENDBRANCH  85  87
ENDBRANCH  75  77
ENDBRANCH  74  75
ENDBRANCH  73  74
ENDBRANCH  72  73
ENDBRANCH   1  72
TORSDOF 16
ENDMDL
MODEL 2
REMARK VINA RESULT:     -12.4      1.613      2.908
REMARK SMILES O=C(OCCOCCOC(=O)c1ccc2nc(-c3c[nH]nc3-c3ccc(F)cc3F)[nH]c2c1)c1ccc(-c2c3nc(c(-c4c(F)c(F)c(F)c(F)c4F)c4ccc([nH]4)c(-c4c(F)c(F)c(F)c(F)c4F)c4nc(c(-c5c(F)c(F)c(F)c(F)c5F)c5ccc2[nH]5)C=C4)C=C3)cc1
REMARK SMILES IDX 6 1 5 2 4 3 3 4 2 5 1 6 34 7 35 8 96 9 36 10 95 11 37 12
REMARK SMILES IDX 38 13 39 14 89 15 40 16 94 17 88 18 90 19 41 20 93 21 87 22
REMARK SMILES IDX 86 23 42 25 74 26 54 27 73 28 55 29 58 30 72 31 91 32 56 33
REMARK SMILES IDX 57 34 71 36 92 37 59 38 43 39 44 40 52 41 45 42 46 43 50 44
REMARK SMILES IDX 53 45 47 46 48 47 51 48 49 49 75 50 76 51 84 52 77 53 78 54
REMARK SMILES IDX 82 55 85 56 79 57 80 58 83 59 81 60 60 61 61 62 69 63 62 64
REMARK SMILES IDX 63 65 67 66 70 67 64 68 65 69 68 70 66 71 7 72 8 73 9 74
REMARK SMILES IDX 10 75 11 76 12 77 13 78 33 79 14 80 32 81 15 82 31 83 16 84
REMARK SMILES IDX 17 85 18 87 19 88 22 89 20 90 21 91 23 93 24 94 29 95 25 96
REMARK SMILES IDX 28 97 30 98 26 99 27 100
REMARK H PARENT 90 24 58 35 31 86 20 92
REMARK Flexibility Score: inf
ROOT
ATOM      1  O   UNL A   1      32.914  34.772  28.983  1.00  0.00    -0.374 OA
ENDROOT
BRANCH   1   2
ATOM      2  C   UNL A   1      32.635  36.171  28.923  1.00  0.00     0.202 C 
BRANCH   2   3
ATOM      3  C   UNL A   1      33.183  36.969  30.108  1.00  0.00     0.261 C 
BRANCH   3   4
ATOM      4  O   UNL A   1      32.418  36.691  31.292  1.00  0.00    -0.460 OA
BRANCH   4   5
ATOM      5  C   UNL A   1      32.536  35.648  32.144  1.00  0.00     0.338 C 
ATOM      6  O   UNL A   1      31.521  35.209  32.682  1.00  0.00    -0.246 OA
BRANCH   5   7
ATOM      7  C   UNL A   1      33.834  34.983  32.467  1.00  0.00     0.060 A 
ATOM      8  C   UNL A   1      35.085  35.599  32.413  1.00  0.00     0.016 A 
ATOM      9  C   UNL A   1      33.771  33.667  32.958  1.00  0.00     0.016 A 
ATOM     10  C   UNL A   1      36.244  34.926  32.768  1.00  0.00     0.010 A 
ATOM     11  C   UNL A   1      34.928  32.994  33.365  1.00  0.00     0.010 A 
ATOM     12  C   UNL A   1      36.170  33.624  33.257  1.00  0.00    -0.014 A 
BRANCH  12  13
ATOM     13  C   UNL A   1      37.432  32.937  33.579  1.00  0.00     0.031 A 
ATOM     14  C   UNL A   1      38.051  33.171  34.920  1.00  0.00     0.074 A 
ATOM     15  C   UNL A   1      37.915  32.016  32.727  1.00  0.00     0.049 A 
ATOM     16  N   UNL A   1      39.154  32.680  35.418  1.00  0.00    -0.248 NA
ATOM     17  C   UNL A   1      37.319  34.064  35.834  1.00  0.00     0.031 C 
ATOM     18  C   UNL A   1      37.293  31.645  31.453  1.00  0.00     0.029 A 
ATOM     19  N   UNL A   1      39.009  31.198  32.814  1.00  0.00    -0.354 N 
ATOM     20  C   UNL A   1      39.257  33.217  36.692  1.00  0.00     0.074 A 
ATOM     21  C   UNL A   1      38.112  34.074  36.895  1.00  0.00     0.031 C 
ATOM     22  C   UNL A   1      37.996  30.648  30.897  1.00  0.00     0.029 A 
ATOM     23  C   UNL A   1      39.154  30.359  31.737  1.00  0.00     0.049 A 
ATOM     24  H   UNL A   1      39.632  31.210  33.577  1.00  0.00     0.167 HD
ATOM     25  C   UNL A   1      40.234  33.008  37.603  1.00  0.00     0.037 A 
ATOM     26  C   UNL A   1      40.133  29.479  31.456  1.00  0.00     0.037 A 
ATOM     27  C   UNL A   1      41.362  32.150  37.365  1.00  0.00     0.049 A 
ATOM     28  C   UNL A   1      41.260  29.342  32.443  1.00  0.00     0.074 A 
ATOM     29  C   UNL A   1      42.457  31.916  38.175  1.00  0.00     0.029 A 
ATOM     30  N   UNL A   1      41.532  31.380  36.221  1.00  0.00    -0.354 N 
ATOM     31  N   UNL A   1      41.401  29.912  33.617  1.00  0.00    -0.248 NA
ATOM     32  C   UNL A   1      42.373  28.461  32.066  1.00  0.00     0.031 C 
ATOM     33  C   UNL A   1      43.309  31.033  37.501  1.00  0.00     0.029 A 
ATOM     34  C   UNL A   1      42.722  30.681  36.294  1.00  0.00     0.049 A 
ATOM     35  H   UNL A   1      40.898  31.338  35.470  1.00  0.00     0.167 HD
ATOM     36  C   UNL A   1      42.610  29.460  34.122  1.00  0.00     0.074 A 
ATOM     37  C   UNL A   1      43.154  28.546  33.135  1.00  0.00     0.031 C 
ATOM     38  C   UNL A   1      43.223  29.775  35.289  1.00  0.00     0.037 A 
BRANCH  25  39
ATOM     39  C   UNL A   1      40.148  33.766  38.892  1.00  0.00     0.064 A 
ATOM     40  C   UNL A   1      39.367  33.272  39.949  1.00  0.00     0.173 A 
ATOM     41  C   UNL A   1      40.838  34.970  39.093  1.00  0.00     0.173 A 
ATOM     42  F   UNL A   1      38.695  32.120  39.811  1.00  0.00    -0.203 F 
ATOM     43  C   UNL A   1      39.278  33.958  41.157  1.00  0.00     0.198 A 
ATOM     44  C   UNL A   1      40.766  35.642  40.311  1.00  0.00     0.198 A 
ATOM     45  F   UNL A   1      41.621  35.469  38.124  1.00  0.00    -0.203 F 
ATOM     46  F   UNL A   1      38.519  33.472  42.148  1.00  0.00    -0.200 F 
ATOM     47  C   UNL A   1      39.982  35.139  41.340  1.00  0.00     0.200 A 
ATOM     48  F   UNL A   1      41.473  36.766  40.498  1.00  0.00    -0.200 F 
ATOM     49  F   UNL A   1      39.916  35.785  42.512  1.00  0.00    -0.200 F 
ENDBRANCH  25  39
BRANCH  26  50
ATOM     50  C   UNL A   1      40.101  28.707  30.186  1.00  0.00     0.064 A 
ATOM     51  C   UNL A   1      39.489  27.444  30.117  1.00  0.00     0.173 A 
ATOM     52  C   UNL A   1      40.699  29.198  29.018  1.00  0.00     0.173 A 
ATOM     53  F   UNL A   1      38.896  26.925  31.203  1.00  0.00    -0.203 F 
ATOM     54  C   UNL A   1      39.501  26.695  28.943  1.00  0.00     0.198 A 
ATOM     55  C   UNL A   1      40.686  28.461  27.833  1.00  0.00     0.198 A 
ATOM     56  F   UNL A   1      41.277  30.409  29.020  1.00  0.00    -0.203 F 
ATOM     57  F   UNL A   1      38.942  25.478  28.920  1.00  0.00    -0.200 F 
ATOM     58  C   UNL A   1      40.095  27.206  27.800  1.00  0.00     0.200 A 
ATOM     59  F   UNL A   1      41.237  28.970  26.723  1.00  0.00    -0.200 F 
ATOM     60  F   UNL A   1      40.094  26.493  26.665  1.00  0.00    -0.200 F 
ENDBRANCH  26  50
BRANCH  38  61
ATOM     61  C   UNL A   1      44.540  29.122  35.569  1.00  0.00     0.064 A 
ATOM     62  C   UNL A   1      45.728  29.689  35.084  1.00  0.00     0.173 A 
ATOM     63  C   UNL A   1      44.615  27.887  36.228  1.00  0.00     0.173 A 
ATOM     64  F   UNL A   1      45.701  30.866  34.439  1.00  0.00    -0.203 F 
ATOM     65  C   UNL A   1      46.944  29.032  35.233  1.00  0.00     0.198 A 
ATOM     66  C   UNL A   1      45.837  27.245  36.398  1.00  0.00     0.198 A 
ATOM     67  F   UNL A   1      43.505  27.315  36.718  1.00  0.00    -0.203 F 
ATOM     68  F   UNL A   1      48.061  29.572  34.728  1.00  0.00    -0.200 F 
ATOM     69  C   UNL A   1      46.998  27.812  35.890  1.00  0.00     0.200 A 
ATOM     70  F   UNL A   1      45.892  26.077  37.050  1.00  0.00    -0.200 F 
ATOM     71  F   UNL A   1      48.170  27.179  36.034  1.00  0.00    -0.200 F 
ENDBRANCH  38  61
ENDBRANCH  12  13
ENDBRANCH   5   7
ENDBRANCH   4   5
ENDBRANCH   3   4
ENDBRANCH   2   3
ENDBRANCH   1   2
BRANCH   1  72
ATOM     72  C   UNL A   1      34.185  34.370  28.453  1.00  0.00     0.202 C 
BRANCH  72  73
ATOM     73  C   UNL A   1      34.808  33.312  29.367  1.00  0.00     0.261 C 
BRANCH  73  74
ATOM     74  O   UNL A   1      34.277  32.029  29.001  1.00  0.00    -0.460 OA
BRANCH  74  75
ATOM     75  C   UNL A   1      34.994  31.367  28.058  1.00  0.00     0.338 C 
ATOM     76  O   UNL A   1      36.203  31.217  28.006  1.00  0.00    -0.246 OA
BRANCH  75  77
ATOM     77  C   UNL A   1      34.034  30.626  27.213  1.00  0.00     0.062 A 
ATOM     78  C   UNL A   1      32.722  31.086  27.044  1.00  0.00     0.018 A 
ATOM     79  C   UNL A   1      34.470  29.408  26.660  1.00  0.00     0.044 A 
ATOM     80  C   UNL A   1      31.809  30.351  26.280  1.00  0.00     0.031 A 
ATOM     81  C   UNL A   1      33.517  28.671  25.957  1.00  0.00     0.067 A 
ATOM     82  C   UNL A   1      32.228  29.137  25.719  1.00  0.00     0.089 A 
ATOM     83  N   UNL A   1      33.549  27.439  25.351  1.00  0.00    -0.338 N 
ATOM     84  N   UNL A   1      31.558  28.292  24.881  1.00  0.00    -0.228 NA
ATOM     85  C   UNL A   1      32.383  27.295  24.645  1.00  0.00     0.142 A 
ATOM     86  H   UNL A   1      34.277  26.779  25.413  1.00  0.00     0.168 HD
BRANCH  85  87
ATOM     87  C   UNL A   1      32.179  26.307  23.572  1.00  0.00     0.063 A 
ATOM     88  C   UNL A   1      31.811  26.543  22.272  1.00  0.00     0.117 A 
ATOM     89  C   UNL A   1      32.289  24.898  23.704  1.00  0.00     0.106 A 
ATOM     90  N   UNL A   1      31.820  25.314  21.678  1.00  0.00    -0.284 N 
ATOM     91  N   UNL A   1      32.032  24.297  22.532  1.00  0.00    -0.175 NA
ATOM     92  H   UNL A   1      31.683  25.184  20.712  1.00  0.00     0.189 HD
BRANCH  89  93
ATOM     93  C   UNL A   1      32.479  24.154  24.941  1.00  0.00     0.039 A 
ATOM     94  C   UNL A   1      31.353  23.785  25.701  1.00  0.00     0.016 A 
ATOM     95  C   UNL A   1      33.753  23.833  25.416  1.00  0.00     0.135 A 
ATOM     96  C   UNL A   1      31.511  23.119  26.916  1.00  0.00     0.040 A 
ATOM     97  C   UNL A   1      33.913  23.163  26.626  1.00  0.00     0.079 A 
ATOM     98  F   UNL A   1      34.850  24.185  24.730  1.00  0.00    -0.206 F 
ATOM     99  C   UNL A   1      32.790  22.816  27.367  1.00  0.00     0.126 A 
ATOM    100  F   UNL A   1      32.940  22.179  28.535  1.00  0.00    -0.207 F 
ENDBRANCH  89  93
ENDBRANCH  85  87
ENDBRANCH  75  77
ENDBRANCH  74  75
ENDBRANCH  73  74
ENDBRANCH  72  73
ENDBRANCH   1  72
TORSDOF 16
ENDMDL
MODEL 3
REMARK VINA RESULT:     -12.4      6.920     12.183
REMARK SMILES O=C(OCCOCCOC(=O)c1ccc2nc(-c3c[nH]nc3-c3ccc(F)cc3F)[nH]c2c1)c1ccc(-c2c3nc(c(-c4c(F)c(F)c(F)c(F)c4F)c4ccc([nH]4)c(-c4c(F)c(F)c(F)c(F)c4F)c4nc(c(-c5c(F)c(F)c(F)c(F)c5F)c5ccc2[nH]5)C=C4)C=C3)cc1
REMARK SMILES IDX 6 1 5 2 4 3 3 4 2 5 1 6 34 7 35 8 96 9 36 10 95 11 37 12
REMARK SMILES IDX 38 13 39 14 89 15 40 16 94 17 88 18 90 19 41 20 93 21 87 22
REMARK SMILES IDX 86 23 42 25 74 26 54 27 73 28 55 29 58 30 72 31 91 32 56 33
REMARK SMILES IDX 57 34 71 36 92 37 59 38 43 39 44 40 52 41 45 42 46 43 50 44
REMARK SMILES IDX 53 45 47 46 48 47 51 48 49 49 75 50 76 51 84 52 77 53 78 54
REMARK SMILES IDX 82 55 85 56 79 57 80 58 83 59 81 60 60 61 61 62 69 63 62 64
REMARK SMILES IDX 63 65 67 66 70 67 64 68 65 69 68 70 66 71 7 72 8 73 9 74
REMARK SMILES IDX 10 75 11 76 12 77 13 78 33 79 14 80 32 81 15 82 31 83 16 84
REMARK SMILES IDX 17 85 18 87 19 88 22 89 20 90 21 91 23 93 24 94 29 95 25 96
REMARK SMILES IDX 28 97 30 98 26 99 27 100
REMARK H PARENT 90 24 58 35 31 86 20 92
REMARK Flexibility Score: inf
ROOT
ATOM      1  O   UNL A   1      41.306  20.016  27.517  1.00  0.00    -0.374 OA
ENDROOT
BRANCH   1   2
ATOM      2  C   UNL A   1      41.433  19.401  26.235  1.00  0.00     0.202 C 
BRANCH   2   3
ATOM      3  C   UNL A   1      42.730  18.610  26.047  1.00  0.00     0.261 C 
BRANCH   3   4
ATOM      4  O   UNL A   1      43.287  18.870  24.749  1.00  0.00    -0.460 OA
BRANCH   4   5
ATOM      5  C   UNL A   1      44.359  19.629  24.429  1.00  0.00     0.338 C 
ATOM      6  O   UNL A   1      45.239  19.140  23.723  1.00  0.00    -0.246 OA
BRANCH   5   7
ATOM      7  C   UNL A   1      44.537  21.044  24.877  1.00  0.00     0.060 A 
ATOM      8  C   UNL A   1      44.099  22.167  24.174  1.00  0.00     0.016 A 
ATOM      9  C   UNL A   1      45.099  21.243  26.150  1.00  0.00     0.016 A 
ATOM     10  C   UNL A   1      44.265  23.449  24.676  1.00  0.00     0.010 A 
ATOM     11  C   UNL A   1      45.228  22.529  26.687  1.00  0.00     0.010 A 
ATOM     12  C   UNL A   1      44.819  23.636  25.939  1.00  0.00    -0.014 A 
BRANCH  12  13
ATOM     13  C   UNL A   1      45.014  25.018  26.408  1.00  0.00     0.031 A 
ATOM     14  C   UNL A   1      46.346  25.663  26.200  1.00  0.00     0.074 A 
ATOM     15  C   UNL A   1      43.958  25.708  26.875  1.00  0.00     0.049 A 
ATOM     16  N   UNL A   1      46.746  26.861  26.532  1.00  0.00    -0.248 NA
ATOM     17  C   UNL A   1      47.365  24.857  25.506  1.00  0.00     0.031 C 
ATOM     18  C   UNL A   1      42.596  25.180  26.988  1.00  0.00     0.029 A 
ATOM     19  N   UNL A   1      43.850  27.004  27.302  1.00  0.00    -0.354 N 
ATOM     20  C   UNL A   1      48.062  26.946  26.106  1.00  0.00     0.074 A 
ATOM     21  C   UNL A   1      48.401  25.682  25.494  1.00  0.00     0.031 C 
ATOM     22  C   UNL A   1      41.783  26.156  27.421  1.00  0.00     0.029 A 
ATOM     23  C   UNL A   1      42.577  27.352  27.681  1.00  0.00     0.049 A 
ATOM     24  H   UNL A   1      44.612  27.627  27.334  1.00  0.00     0.167 HD
ATOM     25  C   UNL A   1      48.906  27.995  26.226  1.00  0.00     0.037 A 
ATOM     26  C   UNL A   1      42.119  28.503  28.206  1.00  0.00     0.037 A 
ATOM     27  C   UNL A   1      48.535  29.238  26.844  1.00  0.00     0.049 A 
ATOM     28  C   UNL A   1      43.105  29.620  28.421  1.00  0.00     0.074 A 
ATOM     29  C   UNL A   1      49.320  30.347  27.097  1.00  0.00     0.029 A 
ATOM     30  N   UNL A   1      47.258  29.531  27.306  1.00  0.00    -0.354 N 
ATOM     31  N   UNL A   1      44.374  29.673  28.091  1.00  0.00    -0.248 NA
ATOM     32  C   UNL A   1      42.609  30.826  29.097  1.00  0.00     0.031 C 
ATOM     33  C   UNL A   1      48.525  31.297  27.749  1.00  0.00     0.029 A 
ATOM     34  C   UNL A   1      47.235  30.799  27.858  1.00  0.00     0.049 A 
ATOM     35  H   UNL A   1      46.484  28.927  27.248  1.00  0.00     0.167 HD
ATOM     36  C   UNL A   1      44.830  30.912  28.511  1.00  0.00     0.074 A 
ATOM     37  C   UNL A   1      43.692  31.592  29.101  1.00  0.00     0.031 C 
ATOM     38  C   UNL A   1      46.075  31.440  28.429  1.00  0.00     0.037 A 
BRANCH  25  39
ATOM     39  C   UNL A   1      50.311  27.808  25.739  1.00  0.00     0.064 A 
ATOM     40  C   UNL A   1      51.342  27.533  26.650  1.00  0.00     0.173 A 
ATOM     41  C   UNL A   1      50.641  27.889  24.379  1.00  0.00     0.173 A 
ATOM     42  F   UNL A   1      51.077  27.436  27.961  1.00  0.00    -0.203 F 
ATOM     43  C   UNL A   1      52.652  27.350  26.217  1.00  0.00     0.198 A 
ATOM     44  C   UNL A   1      51.949  27.681  23.946  1.00  0.00     0.198 A 
ATOM     45  F   UNL A   1      49.686  28.119  23.465  1.00  0.00    -0.203 F 
ATOM     46  F   UNL A   1      53.622  27.097  27.107  1.00  0.00    -0.200 F 
ATOM     47  C   UNL A   1      52.954  27.418  24.865  1.00  0.00     0.200 A 
ATOM     48  F   UNL A   1      52.233  27.714  22.636  1.00  0.00    -0.200 F 
ATOM     49  F   UNL A   1      54.211  27.215  24.447  1.00  0.00    -0.200 F 
ENDBRANCH  25  39
BRANCH  26  50
ATOM     50  C   UNL A   1      40.688  28.633  28.590  1.00  0.00     0.064 A 
ATOM     51  C   UNL A   1      39.734  29.128  27.686  1.00  0.00     0.173 A 
ATOM     52  C   UNL A   1      40.243  28.288  29.873  1.00  0.00     0.173 A 
ATOM     53  F   UNL A   1      40.101  29.469  26.441  1.00  0.00    -0.203 F 
ATOM     54  C   UNL A   1      38.402  29.298  28.057  1.00  0.00     0.198 A 
ATOM     55  C   UNL A   1      38.903  28.431  30.237  1.00  0.00     0.198 A 
ATOM     56  F   UNL A   1      41.107  27.788  30.769  1.00  0.00    -0.203 F 
ATOM     57  F   UNL A   1      37.524  29.808  27.184  1.00  0.00    -0.200 F 
ATOM     58  C   UNL A   1      37.986  28.945  29.331  1.00  0.00     0.200 A 
ATOM     59  F   UNL A   1      38.500  28.062  31.460  1.00  0.00    -0.200 F 
ATOM     60  F   UNL A   1      36.702  29.094  29.685  1.00  0.00    -0.200 F 
ENDBRANCH  26  50
BRANCH  38  61
ATOM     61  C   UNL A   1      46.272  32.819  28.977  1.00  0.00     0.064 A 
ATOM     62  C   UNL A   1      46.632  33.003  30.320  1.00  0.00     0.173 A 
ATOM     63  C   UNL A   1      46.007  33.955  28.199  1.00  0.00     0.173 A 
ATOM     64  F   UNL A   1      46.885  31.943  31.102  1.00  0.00    -0.203 F 
ATOM     65  C   UNL A   1      46.700  34.277  30.871  1.00  0.00     0.198 A 
ATOM     66  C   UNL A   1      46.102  35.230  28.748  1.00  0.00     0.198 A 
ATOM     67  F   UNL A   1      45.671  33.826  26.906  1.00  0.00    -0.203 F 
ATOM     68  F   UNL A   1      47.006  34.429  32.166  1.00  0.00    -0.200 F 
ATOM     69  C   UNL A   1      46.436  35.389  30.086  1.00  0.00     0.200 A 
ATOM     70  F   UNL A   1      45.867  36.305  27.984  1.00  0.00    -0.200 F 
ATOM     71  F   UNL A   1      46.503  36.617  30.617  1.00  0.00    -0.200 F 
ENDBRANCH  38  61
ENDBRANCH  12  13
ENDBRANCH   5   7
ENDBRANCH   4   5
ENDBRANCH   3   4
ENDBRANCH   2   3
ENDBRANCH   1   2
BRANCH   1  72
ATOM     72  C   UNL A   1      40.710  21.321  27.522  1.00  0.00     0.202 C 
BRANCH  72  73
ATOM     73  C   UNL A   1      40.252  21.678  26.106  1.00  0.00     0.261 C 
BRANCH  73  74
ATOM     74  O   UNL A   1      38.842  21.948  26.142  1.00  0.00    -0.460 OA
BRANCH  74  75
ATOM     75  C   UNL A   1      38.094  21.172  25.317  1.00  0.00     0.338 C 
ATOM     76  O   UNL A   1      38.297  20.014  24.993  1.00  0.00    -0.246 OA
BRANCH  75  77
ATOM     77  C   UNL A   1      36.829  21.891  25.060  1.00  0.00     0.062 A 
ATOM     78  C   UNL A   1      36.599  22.525  23.833  1.00  0.00     0.018 A 
ATOM     79  C   UNL A   1      35.911  21.978  26.123  1.00  0.00     0.044 A 
ATOM     80  C   UNL A   1      35.417  23.241  23.619  1.00  0.00     0.031 A 
ATOM     81  C   UNL A   1      34.773  22.752  25.897  1.00  0.00     0.067 A 
ATOM     82  C   UNL A   1      34.491  23.335  24.667  1.00  0.00     0.089 A 
ATOM     83  N   UNL A   1      33.717  23.116  26.696  1.00  0.00    -0.338 N 
ATOM     84  N   UNL A   1      33.248  23.902  24.677  1.00  0.00    -0.228 NA
ATOM     85  C   UNL A   1      32.788  23.729  25.897  1.00  0.00     0.142 A 
ATOM     86  H   UNL A   1      33.642  22.965  27.666  1.00  0.00     0.168 HD
BRANCH  85  87
ATOM     87  C   UNL A   1      31.377  23.930  26.269  1.00  0.00     0.063 A 
ATOM     88  C   UNL A   1      30.434  22.971  26.537  1.00  0.00     0.117 A 
ATOM     89  C   UNL A   1      30.714  25.180  26.381  1.00  0.00     0.106 A 
ATOM     90  N   UNL A   1      29.314  23.670  26.888  1.00  0.00    -0.284 N 
ATOM     91  N   UNL A   1      29.431  25.001  26.732  1.00  0.00    -0.175 NA
ATOM     92  H   UNL A   1      28.495  23.238  27.223  1.00  0.00     0.189 HD
BRANCH  89  93
ATOM     93  C   UNL A   1      31.249  26.483  26.012  1.00  0.00     0.039 A 
ATOM     94  C   UNL A   1      32.012  27.204  26.950  1.00  0.00     0.016 A 
ATOM     95  C   UNL A   1      30.988  27.057  24.766  1.00  0.00     0.135 A 
ATOM     96  C   UNL A   1      32.490  28.477  26.640  1.00  0.00     0.040 A 
ATOM     97  C   UNL A   1      31.469  28.325  24.451  1.00  0.00     0.079 A 
ATOM     98  F   UNL A   1      30.249  26.410  23.853  1.00  0.00    -0.206 F 
ATOM     99  C   UNL A   1      32.212  29.025  25.394  1.00  0.00     0.126 A 
ATOM    100  F   UNL A   1      32.669  30.248  25.099  1.00  0.00    -0.207 F 
ENDBRANCH  89  93
ENDBRANCH  85  87
ENDBRANCH  75  77
ENDBRANCH  74  75
ENDBRANCH  73  74
ENDBRANCH  72  73
ENDBRANCH   1  72
TORSDOF 16
ENDMDL
