MODEL 1
REMARK VINA RESULT:     -11.5      0.000      0.000
REMARK SMILES O=C(Cc1ccc(S(=O)(=O)C[C@H]2CCCO2)cc1)OCCOCCOC(=O)c1ccc(-c2c3nc(c(-c4c(F)c(F)c(F)c(F)c4F)c4ccc([nH]4)c(-c4c(F)c(F)c(F)c(F)c4F)c4nc(c(-c5c(F)c(F)c(F)c(F)c5F)c5ccc2[nH]5)C=C4)C=C3)cc1
REMARK SMILES IDX 21 1 20 2 19 3 2 4 1 5 3 6 4 7 5 8 18 9 6 10 17 11 7 12 8 13
REMARK SMILES IDX 9 14 10 15 11 16 12 17 13 18 16 19 14 20 15 21 22 22 23 23
REMARK SMILES IDX 24 24 25 25 26 26 27 27 28 28 29 29 90 30 30 31 89 32 31 33
REMARK SMILES IDX 32 34 33 35 83 36 34 37 88 38 82 39 84 40 35 41 87 42 81 43
REMARK SMILES IDX 80 44 36 46 68 47 48 48 67 49 49 50 52 51 66 52 85 53 50 54
REMARK SMILES IDX 51 55 65 57 86 58 53 59 37 60 38 61 46 62 39 63 40 64 44 65
REMARK SMILES IDX 47 66 41 67 42 68 45 69 43 70 69 71 70 72 78 73 71 74 72 75
REMARK SMILES IDX 76 76 79 77 73 78 74 79 77 80 75 81 54 82 55 83 63 84 56 85
REMARK SMILES IDX 57 86 61 87 64 88 58 89 59 90 62 91 60 92
REMARK H PARENT 84 45 52 56
REMARK Flexibility Score: inf
ROOT
ATOM      1  C   UNL A   1      40.332  20.669  26.458  1.00  0.00     0.202 C 
ENDROOT
BRANCH   1   2
ATOM      2  C   UNL A   1      39.284  21.766  26.303  1.00  0.00     0.261 C 
BRANCH   2   3
ATOM      3  O   UNL A   1      38.345  21.513  25.250  1.00  0.00    -0.463 OA
BRANCH   3   4
ATOM      4  C   UNL A   1      37.082  21.997  25.181  1.00  0.00     0.310 C 
ATOM      5  O   UNL A   1      36.220  21.311  24.628  1.00  0.00    -0.252 OA
BRANCH   4   6
ATOM      6  C   UNL A   1      36.749  23.395  25.665  1.00  0.00     0.158 C 
BRANCH   6   7
ATOM      7  C   UNL A   1      35.295  23.778  25.652  1.00  0.00    -0.037 A 
ATOM      8  C   UNL A   1      34.421  23.243  26.605  1.00  0.00     0.005 A 
ATOM      9  C   UNL A   1      34.803  24.694  24.708  1.00  0.00     0.005 A 
ATOM     10  C   UNL A   1      33.112  23.713  26.697  1.00  0.00     0.020 A 
ATOM     11  C   UNL A   1      33.511  25.203  24.823  1.00  0.00     0.020 A 
ATOM     12  C   UNL A   1      32.687  24.740  25.850  1.00  0.00     0.067 A 
BRANCH  12  13
ATOM     13  S   UNL A   1      31.119  25.517  26.154  1.00  0.00     0.180 S 
ATOM     14  O   UNL A   1      30.236  24.449  26.593  1.00  0.00    -0.224 OA
ATOM     15  O   UNL A   1      31.347  26.664  27.012  1.00  0.00    -0.224 OA
BRANCH  13  16
ATOM     16  C   UNL A   1      30.496  26.107  24.605  1.00  0.00     0.174 C 
BRANCH  16  17
ATOM     17  C   UNL A   1      30.402  27.611  24.388  1.00  0.00     0.133 C 
ATOM     18  C   UNL A   1      31.709  28.388  24.374  1.00  0.00     0.035 C 
ATOM     19  O   UNL A   1      29.676  27.965  23.210  1.00  0.00    -0.377 OA
ATOM     20  C   UNL A   1      31.900  28.773  22.932  1.00  0.00     0.031 C 
ATOM     21  C   UNL A   1      30.491  28.813  22.386  1.00  0.00     0.160 C 
ENDBRANCH  16  17
ENDBRANCH  13  16
ENDBRANCH  12  13
ENDBRANCH   6   7
ENDBRANCH   4   6
ENDBRANCH   3   4
ENDBRANCH   2   3
ENDBRANCH   1   2
BRANCH   1  22
ATOM     22  O   UNL A   1      41.542  21.045  27.111  1.00  0.00    -0.374 OA
BRANCH  22  23
ATOM     23  C   UNL A   1      42.741  20.552  26.492  1.00  0.00     0.202 C 
BRANCH  23  24
ATOM     24  C   UNL A   1      43.249  21.398  25.321  1.00  0.00     0.261 C 
BRANCH  24  25
ATOM     25  O   UNL A   1      42.558  22.653  25.260  1.00  0.00    -0.460 OA
BRANCH  25  26
ATOM     26  C   UNL A   1      43.354  23.746  25.184  1.00  0.00     0.338 C 
ATOM     27  O   UNL A   1      44.280  23.944  24.416  1.00  0.00    -0.246 OA
BRANCH  26  28
ATOM     28  C   UNL A   1      42.776  24.791  26.052  1.00  0.00     0.060 A 
ATOM     29  C   UNL A   1      43.200  26.116  25.863  1.00  0.00     0.016 A 
ATOM     30  C   UNL A   1      41.801  24.484  27.004  1.00  0.00     0.016 A 
ATOM     31  C   UNL A   1      42.683  27.134  26.661  1.00  0.00     0.010 A 
ATOM     32  C   UNL A   1      41.290  25.499  27.804  1.00  0.00     0.010 A 
ATOM     33  C   UNL A   1      41.759  26.818  27.661  1.00  0.00    -0.014 A 
BRANCH  33  34
ATOM     34  C   UNL A   1      41.432  27.790  28.725  1.00  0.00     0.031 A 
ATOM     35  C   UNL A   1      42.222  27.711  29.998  1.00  0.00     0.074 A 
ATOM     36  C   UNL A   1      40.410  28.648  28.595  1.00  0.00     0.049 A 
ATOM     37  N   UNL A   1      42.003  28.279  31.153  1.00  0.00    -0.248 NA
ATOM     38  C   UNL A   1      43.410  26.842  29.964  1.00  0.00     0.031 C 
ATOM     39  C   UNL A   1      39.601  28.823  27.393  1.00  0.00     0.029 A 
ATOM     40  N   UNL A   1      39.854  29.504  29.512  1.00  0.00    -0.354 N 
ATOM     41  C   UNL A   1      43.003  27.808  31.993  1.00  0.00     0.074 A 
ATOM     42  C   UNL A   1      43.813  26.890  31.223  1.00  0.00     0.031 C 
ATOM     43  C   UNL A   1      38.619  29.702  27.657  1.00  0.00     0.029 A 
ATOM     44  C   UNL A   1      38.709  30.110  29.059  1.00  0.00     0.049 A 
ATOM     45  H   UNL A   1      40.237  29.666  30.404  1.00  0.00     0.167 HD
ATOM     46  C   UNL A   1      43.218  28.115  33.293  1.00  0.00     0.037 A 
ATOM     47  C   UNL A   1      37.814  30.867  29.721  1.00  0.00     0.037 A 
ATOM     48  C   UNL A   1      42.395  29.026  34.041  1.00  0.00     0.049 A 
ATOM     49  C   UNL A   1      38.041  31.163  31.181  1.00  0.00     0.074 A 
ATOM     50  C   UNL A   1      42.539  29.446  35.350  1.00  0.00     0.029 A 
ATOM     51  N   UNL A   1      41.258  29.647  33.541  1.00  0.00    -0.354 N 
ATOM     52  N   UNL A   1      39.003  30.747  31.970  1.00  0.00    -0.248 NA
ATOM     53  C   UNL A   1      37.062  32.036  31.842  1.00  0.00     0.031 C 
ATOM     54  C   UNL A   1      41.453  30.269  35.663  1.00  0.00     0.029 A 
ATOM     55  C   UNL A   1      40.671  30.423  34.526  1.00  0.00     0.049 A 
ATOM     56  H   UNL A   1      40.918  29.550  32.623  1.00  0.00     0.167 HD
ATOM     57  C   UNL A   1      38.766  31.330  33.209  1.00  0.00     0.074 A 
ATOM     58  C   UNL A   1      37.566  32.130  33.066  1.00  0.00     0.031 C 
ATOM     59  C   UNL A   1      39.481  31.220  34.357  1.00  0.00     0.037 A 
BRANCH  46  60
ATOM     60  C   UNL A   1      44.352  27.413  33.986  1.00  0.00     0.064 A 
ATOM     61  C   UNL A   1      44.175  26.196  34.662  1.00  0.00     0.173 A 
ATOM     62  C   UNL A   1      45.635  27.982  33.991  1.00  0.00     0.173 A 
ATOM     63  F   UNL A   1      42.966  25.615  34.704  1.00  0.00    -0.203 F 
ATOM     64  C   UNL A   1      45.224  25.603  35.360  1.00  0.00     0.198 A 
ATOM     65  C   UNL A   1      46.692  27.366  34.655  1.00  0.00     0.198 A 
ATOM     66  F   UNL A   1      45.863  29.143  33.359  1.00  0.00    -0.203 F 
ATOM     67  F   UNL A   1      45.011  24.483  36.064  1.00  0.00    -0.200 F 
ATOM     68  C   UNL A   1      46.483  26.186  35.352  1.00  0.00     0.200 A 
ATOM     69  F   UNL A   1      47.909  27.925  34.636  1.00  0.00    -0.200 F 
ATOM     70  F   UNL A   1      47.491  25.618  36.028  1.00  0.00    -0.200 F 
ENDBRANCH  46  60
BRANCH  47  71
ATOM     71  C   UNL A   1      36.618  31.376  29.002  1.00  0.00     0.064 A 
ATOM     72  C   UNL A   1      35.546  30.529  28.694  1.00  0.00     0.173 A 
ATOM     73  C   UNL A   1      36.504  32.729  28.650  1.00  0.00     0.173 A 
ATOM     74  F   UNL A   1      35.618  29.223  28.992  1.00  0.00    -0.203 F 
ATOM     75  C   UNL A   1      34.405  31.015  28.060  1.00  0.00     0.198 A 
ATOM     76  C   UNL A   1      35.350  33.220  28.040  1.00  0.00     0.198 A 
ATOM     77  F   UNL A   1      37.501  33.582  28.927  1.00  0.00    -0.203 F 
ATOM     78  F   UNL A   1      33.403  30.178  27.756  1.00  0.00    -0.200 F 
ATOM     79  C   UNL A   1      34.303  32.361  27.744  1.00  0.00     0.200 A 
ATOM     80  F   UNL A   1      35.250  34.525  27.754  1.00  0.00    -0.200 F 
ATOM     81  F   UNL A   1      33.195  32.832  27.155  1.00  0.00    -0.200 F 
ENDBRANCH  47  71
BRANCH  59  82
ATOM     82  C   UNL A   1      39.024  32.024  35.541  1.00  0.00     0.064 A 
ATOM     83  C   UNL A   1      38.296  31.452  36.593  1.00  0.00     0.173 A 
ATOM     84  C   UNL A   1      39.396  33.374  35.657  1.00  0.00     0.173 A 
ATOM     85  F   UNL A   1      37.905  30.170  36.524  1.00  0.00    -0.203 F 
ATOM     86  C   UNL A   1      37.943  32.203  37.710  1.00  0.00     0.198 A 
ATOM     87  C   UNL A   1      39.071  34.112  36.790  1.00  0.00     0.198 A 
ATOM     88  F   UNL A   1      40.101  33.967  34.682  1.00  0.00    -0.203 F 
ATOM     89  F   UNL A   1      37.216  31.646  38.688  1.00  0.00    -0.200 F 
ATOM     90  C   UNL A   1      38.341  33.530  37.813  1.00  0.00     0.200 A 
ATOM     91  F   UNL A   1      39.472  35.387  36.895  1.00  0.00    -0.200 F 
ATOM     92  F   UNL A   1      38.018  34.244  38.900  1.00  0.00    -0.200 F 
ENDBRANCH  59  82
ENDBRANCH  33  34
ENDBRANCH  26  28
ENDBRANCH  25  26
ENDBRANCH  24  25
ENDBRANCH  23  24
ENDBRANCH  22  23
ENDBRANCH   1  22
TORSDOF 18
ENDMDL
MODEL 2
REMARK VINA RESULT:     -11.1      5.229      7.727
REMARK SMILES O=C(Cc1ccc(S(=O)(=O)C[C@H]2CCCO2)cc1)OCCOCCOC(=O)c1ccc(-c2c3nc(c(-c4c(F)c(F)c(F)c(F)c4F)c4ccc([nH]4)c(-c4c(F)c(F)c(F)c(F)c4F)c4nc(c(-c5c(F)c(F)c(F)c(F)c5F)c5ccc2[nH]5)C=C4)C=C3)cc1
REMARK SMILES IDX 21 1 20 2 19 3 2 4 1 5 3 6 4 7 5 8 18 9 6 10 17 11 7 12 8 13
REMARK SMILES IDX 9 14 10 15 11 16 12 17 13 18 16 19 14 20 15 21 22 22 23 23
REMARK SMILES IDX 24 24 25 25 26 26 27 27 28 28 29 29 90 30 30 31 89 32 31 33
REMARK SMILES IDX 32 34 33 35 83 36 34 37 88 38 82 39 84 40 35 41 87 42 81 43
REMARK SMILES IDX 80 44 36 46 68 47 48 48 67 49 49 50 52 51 66 52 85 53 50 54
REMARK SMILES IDX 51 55 65 57 86 58 53 59 37 60 38 61 46 62 39 63 40 64 44 65
REMARK SMILES IDX 47 66 41 67 42 68 45 69 43 70 69 71 70 72 78 73 71 74 72 75
REMARK SMILES IDX 76 76 79 77 73 78 74 79 77 80 75 81 54 82 55 83 63 84 56 85
REMARK SMILES IDX 57 86 61 87 64 88 58 89 59 90 62 91 60 92
REMARK H PARENT 84 45 52 56
REMARK Flexibility Score: inf
ROOT
ATOM      1  C   UNL A   1      42.128  20.997  27.388  1.00  0.00     0.202 C 
ENDROOT
BRANCH   1   2
ATOM      2  C   UNL A   1      40.888  21.877  27.517  1.00  0.00     0.261 C 
BRANCH   2   3
ATOM      3  O   UNL A   1      39.716  21.302  26.925  1.00  0.00    -0.463 OA
BRANCH   3   4
ATOM      4  C   UNL A   1      38.873  21.926  26.070  1.00  0.00     0.310 C 
ATOM      5  O   UNL A   1      38.664  23.130  26.225  1.00  0.00    -0.252 OA
BRANCH   4   6
ATOM      6  C   UNL A   1      38.108  21.150  25.014  1.00  0.00     0.158 C 
BRANCH   6   7
ATOM      7  C   UNL A   1      36.758  21.693  24.633  1.00  0.00    -0.037 A 
ATOM      8  C   UNL A   1      36.644  22.614  23.586  1.00  0.00     0.005 A 
ATOM      9  C   UNL A   1      35.599  21.264  25.299  1.00  0.00     0.005 A 
ATOM     10  C   UNL A   1      35.385  22.998  23.126  1.00  0.00     0.020 A 
ATOM     11  C   UNL A   1      34.338  21.606  24.815  1.00  0.00     0.020 A 
ATOM     12  C   UNL A   1      34.240  22.437  23.699  1.00  0.00     0.067 A 
BRANCH  12  13
ATOM     13  S   UNL A   1      32.664  22.720  22.932  1.00  0.00     0.180 S 
ATOM     14  O   UNL A   1      32.884  23.792  21.976  1.00  0.00    -0.224 OA
ATOM     15  O   UNL A   1      32.153  21.441  22.477  1.00  0.00    -0.224 OA
BRANCH  13  16
ATOM     16  C   UNL A   1      31.562  23.341  24.170  1.00  0.00     0.174 C 
BRANCH  16  17
ATOM     17  C   UNL A   1      31.854  24.705  24.781  1.00  0.00     0.133 C 
ATOM     18  C   UNL A   1      32.604  24.721  26.103  1.00  0.00     0.035 C 
ATOM     19  O   UNL A   1      32.535  25.587  23.886  1.00  0.00    -0.377 OA
ATOM     20  C   UNL A   1      33.977  25.226  25.749  1.00  0.00     0.031 C 
ATOM     21  C   UNL A   1      33.739  26.060  24.511  1.00  0.00     0.160 C 
ENDBRANCH  16  17
ENDBRANCH  13  16
ENDBRANCH  12  13
ENDBRANCH   6   7
ENDBRANCH   4   6
ENDBRANCH   3   4
ENDBRANCH   2   3
ENDBRANCH   1   2
BRANCH   1  22
ATOM     22  O   UNL A   1      41.895  19.592  27.326  1.00  0.00    -0.374 OA
BRANCH  22  23
ATOM     23  C   UNL A   1      42.063  19.009  26.024  1.00  0.00     0.202 C 
BRANCH  23  24
ATOM     24  C   UNL A   1      43.463  18.452  25.749  1.00  0.00     0.261 C 
BRANCH  24  25
ATOM     25  O   UNL A   1      43.846  18.679  24.387  1.00  0.00    -0.460 OA
BRANCH  25  26
ATOM     26  C   UNL A   1      45.045  19.285  24.219  1.00  0.00     0.338 C 
ATOM     27  O   UNL A   1      46.028  18.849  23.643  1.00  0.00    -0.246 OA
BRANCH  26  28
ATOM     28  C   UNL A   1      44.912  20.689  24.658  1.00  0.00     0.060 A 
ATOM     29  C   UNL A   1      44.199  21.574  23.835  1.00  0.00     0.016 A 
ATOM     30  C   UNL A   1      45.441  21.118  25.877  1.00  0.00     0.016 A 
ATOM     31  C   UNL A   1      44.050  22.907  24.209  1.00  0.00     0.010 A 
ATOM     32  C   UNL A   1      45.298  22.451  26.247  1.00  0.00     0.010 A 
ATOM     33  C   UNL A   1      44.638  23.356  25.395  1.00  0.00    -0.014 A 
BRANCH  33  34
ATOM     34  C   UNL A   1      44.785  24.800  25.670  1.00  0.00     0.031 A 
ATOM     35  C   UNL A   1      46.154  25.394  25.526  1.00  0.00     0.074 A 
ATOM     36  C   UNL A   1      43.755  25.532  26.119  1.00  0.00     0.049 A 
ATOM     37  N   UNL A   1      46.605  26.557  25.910  1.00  0.00    -0.248 NA
ATOM     38  C   UNL A   1      47.163  24.536  24.882  1.00  0.00     0.031 C 
ATOM     39  C   UNL A   1      42.382  25.059  26.266  1.00  0.00     0.029 A 
ATOM     40  N   UNL A   1      43.724  26.825  26.576  1.00  0.00    -0.354 N 
ATOM     41  C   UNL A   1      47.956  26.557  25.589  1.00  0.00     0.074 A 
ATOM     42  C   UNL A   1      48.256  25.270  25.002  1.00  0.00     0.031 C 
ATOM     43  C   UNL A   1      41.646  26.037  26.822  1.00  0.00     0.029 A 
ATOM     44  C   UNL A   1      42.511  27.181  27.108  1.00  0.00     0.049 A 
ATOM     45  H   UNL A   1      44.495  27.436  26.528  1.00  0.00     0.167 HD
ATOM     46  C   UNL A   1      48.862  27.544  25.775  1.00  0.00     0.037 A 
ATOM     47  C   UNL A   1      42.159  28.286  27.792  1.00  0.00     0.037 A 
ATOM     48  C   UNL A   1      48.541  28.815  26.367  1.00  0.00     0.049 A 
ATOM     49  C   UNL A   1      43.190  29.359  28.032  1.00  0.00     0.074 A 
ATOM     50  C   UNL A   1      49.364  29.906  26.568  1.00  0.00     0.029 A 
ATOM     51  N   UNL A   1      47.291  29.154  26.869  1.00  0.00    -0.354 N 
ATOM     52  N   UNL A   1      44.459  29.377  27.700  1.00  0.00    -0.248 NA
ATOM     53  C   UNL A   1      42.740  30.567  28.737  1.00  0.00     0.031 C 
ATOM     54  C   UNL A   1      48.631  30.881  27.252  1.00  0.00     0.029 A 
ATOM     55  C   UNL A   1      47.329  30.427  27.410  1.00  0.00     0.049 A 
ATOM     56  H   UNL A   1      46.496  28.574  26.845  1.00  0.00     0.167 HD
ATOM     57  C   UNL A   1      44.952  30.604  28.125  1.00  0.00     0.074 A 
ATOM     58  C   UNL A   1      43.843  31.304  28.741  1.00  0.00     0.031 C 
ATOM     59  C   UNL A   1      46.207  31.109  28.009  1.00  0.00     0.037 A 
BRANCH  46  60
ATOM     60  C   UNL A   1      50.282  27.256  25.381  1.00  0.00     0.064 A 
ATOM     61  C   UNL A   1      50.739  27.419  24.063  1.00  0.00     0.173 A 
ATOM     62  C   UNL A   1      51.197  26.786  26.336  1.00  0.00     0.173 A 
ATOM     63  F   UNL A   1      49.904  27.850  23.106  1.00  0.00    -0.203 F 
ATOM     64  C   UNL A   1      52.041  27.074  23.707  1.00  0.00     0.198 A 
ATOM     65  C   UNL A   1      52.509  26.480  25.985  1.00  0.00     0.198 A 
ATOM     66  F   UNL A   1      50.817  26.613  27.610  1.00  0.00    -0.203 F 
ATOM     67  F   UNL A   1      52.430  27.163  22.428  1.00  0.00    -0.200 F 
ATOM     68  C   UNL A   1      52.926  26.609  24.669  1.00  0.00     0.200 A 
ATOM     69  F   UNL A   1      53.365  26.042  26.918  1.00  0.00    -0.200 F 
ATOM     70  F   UNL A   1      54.176  26.272  24.325  1.00  0.00    -0.200 F 
ENDBRANCH  46  60
BRANCH  47  71
ATOM     71  C   UNL A   1      40.772  28.413  28.306  1.00  0.00     0.064 A 
ATOM     72  C   UNL A   1      40.450  28.041  29.617  1.00  0.00     0.173 A 
ATOM     73  C   UNL A   1      39.749  28.953  27.510  1.00  0.00     0.173 A 
ATOM     74  F   UNL A   1      41.390  27.502  30.409  1.00  0.00    -0.203 F 
ATOM     75  C   UNL A   1      39.159  28.202  30.115  1.00  0.00     0.198 A 
ATOM     76  C   UNL A   1      38.464  29.139  28.018  1.00  0.00     0.198 A 
ATOM     77  F   UNL A   1      40.007  29.328  26.249  1.00  0.00    -0.203 F 
ATOM     78  F   UNL A   1      38.874  27.817  31.366  1.00  0.00    -0.200 F 
ATOM     79  C   UNL A   1      38.171  28.761  29.319  1.00  0.00     0.200 A 
ATOM     80  F   UNL A   1      37.518  29.696  27.251  1.00  0.00    -0.200 F 
ATOM     81  F   UNL A   1      36.935  28.937  29.807  1.00  0.00    -0.200 F 
ENDBRANCH  47  71
BRANCH  59  82
ATOM     82  C   UNL A   1      46.443  32.506  28.505  1.00  0.00     0.064 A 
ATOM     83  C   UNL A   1      46.894  32.768  29.807  1.00  0.00     0.173 A 
ATOM     84  C   UNL A   1      46.294  33.596  27.631  1.00  0.00     0.173 A 
ATOM     85  F   UNL A   1      47.041  31.763  30.684  1.00  0.00    -0.203 F 
ATOM     86  C   UNL A   1      47.170  34.068  30.220  1.00  0.00     0.198 A 
ATOM     87  C   UNL A   1      46.603  34.889  28.037  1.00  0.00     0.198 A 
ATOM     88  F   UNL A   1      45.874  33.399  26.372  1.00  0.00    -0.203 F 
ATOM     89  F   UNL A   1      47.565  34.299  31.480  1.00  0.00    -0.200 F 
ATOM     90  C   UNL A   1      47.035  35.126  29.332  1.00  0.00     0.200 A 
ATOM     91  F   UNL A   1      46.489  35.907  27.171  1.00  0.00    -0.200 F 
ATOM     92  F   UNL A   1      47.323  36.374  29.726  1.00  0.00    -0.200 F 
ENDBRANCH  59  82
ENDBRANCH  33  34
ENDBRANCH  26  28
ENDBRANCH  25  26
ENDBRANCH  24  25
ENDBRANCH  23  24
ENDBRANCH  22  23
ENDBRANCH   1  22
TORSDOF 18
ENDMDL
MODEL 3
REMARK VINA RESULT:     -11.0      1.107      2.166
REMARK SMILES O=C(Cc1ccc(S(=O)(=O)C[C@H]2CCCO2)cc1)OCCOCCOC(=O)c1ccc(-c2c3nc(c(-c4c(F)c(F)c(F)c(F)c4F)c4ccc([nH]4)c(-c4c(F)c(F)c(F)c(F)c4F)c4nc(c(-c5c(F)c(F)c(F)c(F)c5F)c5ccc2[nH]5)C=C4)C=C3)cc1
REMARK SMILES IDX 21 1 20 2 19 3 2 4 1 5 3 6 4 7 5 8 18 9 6 10 17 11 7 12 8 13
REMARK SMILES IDX 9 14 10 15 11 16 12 17 13 18 16 19 14 20 15 21 22 22 23 23
REMARK SMILES IDX 24 24 25 25 26 26 27 27 28 28 29 29 90 30 30 31 89 32 31 33
REMARK SMILES IDX 32 34 33 35 83 36 34 37 88 38 82 39 84 40 35 41 87 42 81 43
REMARK SMILES IDX 80 44 36 46 68 47 48 48 67 49 49 50 52 51 66 52 85 53 50 54
REMARK SMILES IDX 51 55 65 57 86 58 53 59 37 60 38 61 46 62 39 63 40 64 44 65
REMARK SMILES IDX 47 66 41 67 42 68 45 69 43 70 69 71 70 72 78 73 71 74 72 75
REMARK SMILES IDX 76 76 79 77 73 78 74 79 77 80 75 81 54 82 55 83 63 84 56 85
REMARK SMILES IDX 57 86 61 87 64 88 58 89 59 90 62 91 60 92
REMARK H PARENT 84 45 52 56
REMARK Flexibility Score: inf
ROOT
ATOM      1  C   UNL A   1      37.840  22.172  25.798  1.00  0.00     0.202 C 
ENDROOT
BRANCH   1   2
ATOM      2  C   UNL A   1      37.051  21.407  24.740  1.00  0.00     0.261 C 
BRANCH   2   3
ATOM      3  O   UNL A   1      35.975  20.630  25.282  1.00  0.00    -0.463 OA
BRANCH   3   4
ATOM      4  C   UNL A   1      34.672  20.994  25.309  1.00  0.00     0.310 C 
ATOM      5  O   UNL A   1      33.969  20.733  24.331  1.00  0.00    -0.252 OA
BRANCH   4   6
ATOM      6  C   UNL A   1      34.106  21.806  26.458  1.00  0.00     0.158 C 
BRANCH   6   7
ATOM      7  C   UNL A   1      33.734  23.230  26.151  1.00  0.00    -0.037 A 
ATOM      8  C   UNL A   1      32.490  23.731  26.551  1.00  0.00     0.005 A 
ATOM      9  C   UNL A   1      34.634  24.080  25.489  1.00  0.00     0.005 A 
ATOM     10  C   UNL A   1      32.204  25.088  26.411  1.00  0.00     0.020 A 
ATOM     11  C   UNL A   1      34.374  25.445  25.387  1.00  0.00     0.020 A 
ATOM     12  C   UNL A   1      33.175  25.949  25.893  1.00  0.00     0.067 A 
BRANCH  12  13
ATOM     13  S   UNL A   1      32.907  27.702  25.972  1.00  0.00     0.180 S 
ATOM     14  O   UNL A   1      32.914  28.033  27.387  1.00  0.00    -0.224 OA
ATOM     15  O   UNL A   1      33.853  28.340  25.077  1.00  0.00    -0.224 OA
BRANCH  13  16
ATOM     16  C   UNL A   1      31.275  28.029  25.367  1.00  0.00     0.174 C 
BRANCH  16  17
ATOM     17  C   UNL A   1      30.996  27.818  23.885  1.00  0.00     0.133 C 
ATOM     18  C   UNL A   1      29.585  27.406  23.501  1.00  0.00     0.035 C 
ATOM     19  O   UNL A   1      31.352  28.945  23.081  1.00  0.00    -0.377 OA
ATOM     20  C   UNL A   1      29.002  28.629  22.847  1.00  0.00     0.031 C 
ATOM     21  C   UNL A   1      30.214  29.353  22.307  1.00  0.00     0.160 C 
ENDBRANCH  16  17
ENDBRANCH  13  16
ENDBRANCH  12  13
ENDBRANCH   6   7
ENDBRANCH   4   6
ENDBRANCH   3   4
ENDBRANCH   2   3
ENDBRANCH   1   2
BRANCH   1  22
ATOM     22  O   UNL A   1      39.251  22.231  25.607  1.00  0.00    -0.374 OA
BRANCH  22  23
ATOM     23  C   UNL A   1      40.006  21.286  26.383  1.00  0.00     0.202 C 
BRANCH  23  24
ATOM     24  C   UNL A   1      41.516  21.311  26.125  1.00  0.00     0.261 C 
BRANCH  24  25
ATOM     25  O   UNL A   1      42.145  22.363  26.868  1.00  0.00    -0.460 OA
BRANCH  25  26
ATOM     26  C   UNL A   1      42.457  23.468  26.151  1.00  0.00     0.338 C 
ATOM     27  O   UNL A   1      42.846  23.524  24.997  1.00  0.00    -0.246 OA
BRANCH  26  28
ATOM     28  C   UNL A   1      42.031  24.650  26.927  1.00  0.00     0.060 A 
ATOM     29  C   UNL A   1      42.740  25.848  26.747  1.00  0.00     0.016 A 
ATOM     30  C   UNL A   1      40.929  24.595  27.783  1.00  0.00     0.016 A 
ATOM     31  C   UNL A   1      42.375  26.988  27.460  1.00  0.00     0.010 A 
ATOM     32  C   UNL A   1      40.569  25.732  28.499  1.00  0.00     0.010 A 
ATOM     33  C   UNL A   1      41.316  26.917  28.369  1.00  0.00    -0.014 A 
BRANCH  33  34
ATOM     34  C   UNL A   1      41.101  27.985  29.368  1.00  0.00     0.031 A 
ATOM     35  C   UNL A   1      41.921  27.931  30.622  1.00  0.00     0.074 A 
ATOM     36  C   UNL A   1      40.147  28.913  29.202  1.00  0.00     0.049 A 
ATOM     37  N   UNL A   1      41.784  28.595  31.738  1.00  0.00    -0.248 NA
ATOM     38  C   UNL A   1      43.034  26.968  30.622  1.00  0.00     0.031 C 
ATOM     39  C   UNL A   1      39.318  29.068  28.011  1.00  0.00     0.029 A 
ATOM     40  N   UNL A   1      39.690  29.873  30.068  1.00  0.00    -0.354 N 
ATOM     41  C   UNL A   1      42.769  28.104  32.585  1.00  0.00     0.074 A 
ATOM     42  C   UNL A   1      43.479  27.071  31.863  1.00  0.00     0.031 C 
ATOM     43  C   UNL A   1      38.418  30.041  28.236  1.00  0.00     0.029 A 
ATOM     44  C   UNL A   1      38.584  30.538  29.602  1.00  0.00     0.049 A 
ATOM     45  H   UNL A   1      40.112  30.066  30.936  1.00  0.00     0.167 HD
ATOM     46  C   UNL A   1      43.049  28.482  33.853  1.00  0.00     0.037 A 
ATOM     47  C   UNL A   1      37.773  31.410  30.230  1.00  0.00     0.037 A 
ATOM     48  C   UNL A   1      42.326  29.508  34.553  1.00  0.00     0.049 A 
ATOM     49  C   UNL A   1      38.069  31.789  31.658  1.00  0.00     0.074 A 
ATOM     50  C   UNL A   1      42.544  30.006  35.824  1.00  0.00     0.029 A 
ATOM     51  N   UNL A   1      41.227  30.184  34.039  1.00  0.00    -0.354 N 
ATOM     52  N   UNL A   1      39.019  31.352  32.450  1.00  0.00    -0.248 NA
ATOM     53  C   UNL A   1      37.184  32.784  32.279  1.00  0.00     0.031 C 
ATOM     54  C   UNL A   1      41.537  30.935  36.104  1.00  0.00     0.029 A 
ATOM     55  C   UNL A   1      40.735  31.073  34.980  1.00  0.00     0.049 A 
ATOM     56  H   UNL A   1      40.851  30.051  33.139  1.00  0.00     0.167 HD
ATOM     57  C   UNL A   1      38.868  32.038  33.649  1.00  0.00     0.074 A 
ATOM     58  C   UNL A   1      37.732  32.921  33.479  1.00  0.00     0.031 C 
ATOM     59  C   UNL A   1      39.608  31.951  34.783  1.00  0.00     0.037 A 
BRANCH  46  60
ATOM     60  C   UNL A   1      44.144  27.741  34.566  1.00  0.00     0.064 A 
ATOM     61  C   UNL A   1      45.473  28.195  34.570  1.00  0.00     0.173 A 
ATOM     62  C   UNL A   1      43.862  26.541  35.236  1.00  0.00     0.173 A 
ATOM     63  F   UNL A   1      45.803  29.327  33.931  1.00  0.00    -0.203 F 
ATOM     64  C   UNL A   1      46.484  27.451  35.174  1.00  0.00     0.198 A 
ATOM     65  C   UNL A   1      44.868  25.820  35.874  1.00  0.00     0.198 A 
ATOM     66  F   UNL A   1      42.610  26.060  35.267  1.00  0.00    -0.203 F 
ATOM     67  F   UNL A   1      47.756  27.864  35.097  1.00  0.00    -0.200 F 
ATOM     68  C   UNL A   1      46.180  26.267  35.829  1.00  0.00     0.200 A 
ATOM     69  F   UNL A   1      44.570  24.682  36.516  1.00  0.00    -0.200 F 
ATOM     70  F   UNL A   1      47.154  25.548  36.405  1.00  0.00    -0.200 F 
ENDBRANCH  46  60
BRANCH  47  71
ATOM     71  C   UNL A   1      36.600  31.964  29.506  1.00  0.00     0.064 A 
ATOM     72  C   UNL A   1      36.554  33.313  29.132  1.00  0.00     0.173 A 
ATOM     73  C   UNL A   1      35.524  31.144  29.132  1.00  0.00     0.173 A 
ATOM     74  F   UNL A   1      37.550  34.139  29.483  1.00  0.00    -0.203 F 
ATOM     75  C   UNL A   1      35.476  33.822  28.412  1.00  0.00     0.198 A 
ATOM     76  C   UNL A   1      34.459  31.650  28.389  1.00  0.00     0.198 A 
ATOM     77  F   UNL A   1      35.523  29.845  29.463  1.00  0.00    -0.203 F 
ATOM     78  F   UNL A   1      35.446  35.122  28.086  1.00  0.00    -0.200 F 
ATOM     79  C   UNL A   1      34.435  32.989  28.032  1.00  0.00     0.200 A 
ATOM     80  F   UNL A   1      33.465  30.836  28.009  1.00  0.00    -0.200 F 
ATOM     81  F   UNL A   1      33.409  33.476  27.320  1.00  0.00    -0.200 F 
ENDBRANCH  47  71
BRANCH  59  82
ATOM     82  C   UNL A   1      39.254  32.871  35.917  1.00  0.00     0.064 A 
ATOM     83  C   UNL A   1      38.398  32.478  36.955  1.00  0.00     0.173 A 
ATOM     84  C   UNL A   1      39.851  34.140  36.003  1.00  0.00     0.173 A 
ATOM     85  F   UNL A   1      37.792  31.282  36.913  1.00  0.00    -0.203 F 
ATOM     86  C   UNL A   1      38.140  33.326  38.029  1.00  0.00     0.198 A 
ATOM     87  C   UNL A   1      39.617  34.970  37.094  1.00  0.00     0.198 A 
ATOM     88  F   UNL A   1      40.685  34.560  35.040  1.00  0.00    -0.203 F 
ATOM     89  F   UNL A   1      37.290  32.944  38.992  1.00  0.00    -0.200 F 
ATOM     90  C   UNL A   1      38.758  34.566  38.103  1.00  0.00     0.200 A 
ATOM     91  F   UNL A   1      40.231  36.160  37.172  1.00  0.00    -0.200 F 
ATOM     92  F   UNL A   1      38.525  35.371  39.149  1.00  0.00    -0.200 F 
ENDBRANCH  59  82
ENDBRANCH  33  34
ENDBRANCH  26  28
ENDBRANCH  25  26
ENDBRANCH  24  25
ENDBRANCH  23  24
ENDBRANCH  22  23
ENDBRANCH   1  22
TORSDOF 18
ENDMDL
