MODEL 1
REMARK VINA RESULT:     -12.3      0.000      0.000
REMARK SMILES O=C(OCCOCCOC(=O)c1cc2ccccc2cc1NS(=O)(=O)c1ccccc1Br)c1ccc(-c2c3nc(c(-c4c(F)c(F)c(F)c(F)c4F)c4ccc([nH]4)c(-c4c(F)c(F)c(F)c(F)c4F)c4nc(c(-c5c(F)c(F)c(F)c(F)c5F)c5ccc2[nH]5)C=C4)C=C3)cc1
REMARK SMILES IDX 7 1 6 2 5 3 4 4 3 5 2 6 1 7 33 8 34 9 95 10 35 11 94 12
REMARK SMILES IDX 36 13 37 14 38 15 88 16 39 17 93 18 87 19 89 20 40 21 92 22
REMARK SMILES IDX 86 23 85 24 41 26 73 27 53 28 72 29 54 30 57 31 71 32 90 33
REMARK SMILES IDX 55 34 56 35 70 37 91 38 58 39 42 40 43 41 51 42 44 43 45 44
REMARK SMILES IDX 49 45 52 46 46 47 47 48 50 49 48 50 74 51 75 52 83 53 76 54
REMARK SMILES IDX 77 55 81 56 84 57 78 58 79 59 82 60 80 61 59 62 60 63 68 64
REMARK SMILES IDX 61 65 62 66 66 67 69 68 63 69 64 70 67 71 65 72 8 73 9 74
REMARK SMILES IDX 10 75 11 76 12 77 13 78 21 79 14 80 20 81 15 82 19 83 16 84
REMARK SMILES IDX 18 85 17 86 22 87 23 89 24 90 25 91 26 92 27 93 31 94 28 95
REMARK SMILES IDX 30 96 32 97 29 98
REMARK H PARENT 89 25 57 36 22 88
REMARK Flexibility Score: inf
ROOT
ATOM      1  C   UNL A   1      34.440  29.884  27.516  1.00  0.00     0.202 C 
ENDROOT
BRANCH   1   2
ATOM      2  O   UNL A   1      33.211  30.612  27.647  1.00  0.00    -0.374 OA
BRANCH   2   3
ATOM      3  C   UNL A   1      33.154  31.875  26.983  1.00  0.00     0.202 C 
BRANCH   3   4
ATOM      4  C   UNL A   1      32.012  32.782  27.441  1.00  0.00     0.261 C 
BRANCH   4   5
ATOM      5  O   UNL A   1      32.473  34.138  27.554  1.00  0.00    -0.460 OA
BRANCH   5   6
ATOM      6  C   UNL A   1      33.003  34.745  28.641  1.00  0.00     0.338 C 
ATOM      7  O   UNL A   1      32.531  35.814  29.018  1.00  0.00    -0.246 OA
BRANCH   6   8
ATOM      8  C   UNL A   1      34.161  34.187  29.399  1.00  0.00     0.060 A 
ATOM      9  C   UNL A   1      34.040  33.322  30.487  1.00  0.00     0.016 A 
ATOM     10  C   UNL A   1      35.447  34.456  28.907  1.00  0.00     0.016 A 
ATOM     11  C   UNL A   1      35.150  32.776  31.108  1.00  0.00     0.010 A 
ATOM     12  C   UNL A   1      36.573  33.866  29.493  1.00  0.00     0.010 A 
ATOM     13  C   UNL A   1      36.420  33.022  30.597  1.00  0.00    -0.014 A 
BRANCH  13  14
ATOM     14  C   UNL A   1      37.565  32.388  31.272  1.00  0.00     0.031 A 
ATOM     15  C   UNL A   1      38.339  31.338  30.544  1.00  0.00     0.074 A 
ATOM     16  C   UNL A   1      37.955  32.858  32.471  1.00  0.00     0.049 A 
ATOM     17  N   UNL A   1      39.344  30.618  30.959  1.00  0.00    -0.248 NA
ATOM     18  C   UNL A   1      37.937  31.075  29.151  1.00  0.00     0.031 C 
ATOM     19  C   UNL A   1      37.318  33.967  33.188  1.00  0.00     0.029 A 
ATOM     20  N   UNL A   1      38.993  32.491  33.283  1.00  0.00    -0.354 N 
ATOM     21  C   UNL A   1      39.674  29.792  29.895  1.00  0.00     0.074 A 
ATOM     22  C   UNL A   1      38.773  30.106  28.808  1.00  0.00     0.031 C 
ATOM     23  C   UNL A   1      37.994  34.203  34.323  1.00  0.00     0.029 A 
ATOM     24  C   UNL A   1      39.057  33.214  34.450  1.00  0.00     0.049 A 
ATOM     25  H   UNL A   1      39.632  31.778  33.055  1.00  0.00     0.167 HD
ATOM     26  C   UNL A   1      40.640  28.847  29.851  1.00  0.00     0.037 A 
ATOM     27  C   UNL A   1      39.861  33.055  35.518  1.00  0.00     0.037 A 
ATOM     28  C   UNL A   1      41.522  28.571  30.952  1.00  0.00     0.049 A 
ATOM     29  C   UNL A   1      40.870  31.938  35.469  1.00  0.00     0.074 A 
ATOM     30  C   UNL A   1      42.507  27.607  31.052  1.00  0.00     0.029 A 
ATOM     31  N   UNL A   1      41.520  29.272  32.151  1.00  0.00    -0.354 N 
ATOM     32  N   UNL A   1      41.142  31.112  34.485  1.00  0.00    -0.248 NA
ATOM     33  C   UNL A   1      41.665  31.710  36.681  1.00  0.00     0.031 C 
ATOM     34  C   UNL A   1      43.070  27.698  32.330  1.00  0.00     0.029 A 
ATOM     35  C   UNL A   1      42.470  28.749  33.008  1.00  0.00     0.049 A 
ATOM     36  H   UNL A   1      40.929  30.032  32.359  1.00  0.00     0.167 HD
ATOM     37  C   UNL A   1      42.142  30.275  34.954  1.00  0.00     0.074 A 
ATOM     38  C   UNL A   1      42.450  30.713  36.301  1.00  0.00     0.031 C 
ATOM     39  C   UNL A   1      42.746  29.228  34.339  1.00  0.00     0.037 A 
BRANCH  26  40
ATOM     40  C   UNL A   1      40.728  28.008  28.614  1.00  0.00     0.064 A 
ATOM     41  C   UNL A   1      40.043  26.792  28.486  1.00  0.00     0.173 A 
ATOM     42  C   UNL A   1      41.521  28.431  27.536  1.00  0.00     0.173 A 
ATOM     43  F   UNL A   1      39.295  26.329  29.499  1.00  0.00    -0.203 F 
ATOM     44  C   UNL A   1      40.162  26.022  27.331  1.00  0.00     0.198 A 
ATOM     45  C   UNL A   1      41.620  27.671  26.375  1.00  0.00     0.198 A 
ATOM     46  F   UNL A   1      42.206  29.583  27.614  1.00  0.00    -0.203 F 
ATOM     47  F   UNL A   1      39.534  24.841  27.247  1.00  0.00    -0.200 F 
ATOM     48  C   UNL A   1      40.946  26.465  26.275  1.00  0.00     0.200 A 
ATOM     49  F   UNL A   1      42.378  28.102  25.356  1.00  0.00    -0.200 F 
ATOM     50  F   UNL A   1      41.060  25.722  25.165  1.00  0.00    -0.200 F 
ENDBRANCH  26  40
BRANCH  27  51
ATOM     51  C   UNL A   1      39.699  33.904  36.729  1.00  0.00     0.064 A 
ATOM     52  C   UNL A   1      38.886  33.505  37.800  1.00  0.00     0.173 A 
ATOM     53  C   UNL A   1      40.323  35.159  36.825  1.00  0.00     0.173 A 
ATOM     54  F   UNL A   1      38.245  32.328  37.752  1.00  0.00    -0.203 F 
ATOM     55  C   UNL A   1      38.684  34.337  38.901  1.00  0.00     0.198 A 
ATOM     56  C   UNL A   1      40.148  35.973  37.942  1.00  0.00     0.198 A 
ATOM     57  F   UNL A   1      41.108  35.597  35.829  1.00  0.00    -0.203 F 
ATOM     58  F   UNL A   1      37.851  33.956  39.880  1.00  0.00    -0.200 F 
ATOM     59  C   UNL A   1      39.318  35.568  38.973  1.00  0.00     0.200 A 
ATOM     60  F   UNL A   1      40.776  37.156  38.011  1.00  0.00    -0.200 F 
ATOM     61  F   UNL A   1      39.118  36.368  40.029  1.00  0.00    -0.200 F 
ENDBRANCH  27  51
BRANCH  39  62
ATOM     62  C   UNL A   1      43.806  28.511  35.117  1.00  0.00     0.064 A 
ATOM     63  C   UNL A   1      45.148  28.915  35.064  1.00  0.00     0.173 A 
ATOM     64  C   UNL A   1      43.466  27.442  35.958  1.00  0.00     0.173 A 
ATOM     65  F   UNL A   1      45.520  29.921  34.258  1.00  0.00    -0.203 F 
ATOM     66  C   UNL A   1      46.117  28.256  35.813  1.00  0.00     0.198 A 
ATOM     67  C   UNL A   1      44.433  26.808  36.728  1.00  0.00     0.198 A 
ATOM     68  F   UNL A   1      42.193  27.028  36.045  1.00  0.00    -0.203 F 
ATOM     69  F   UNL A   1      47.402  28.627  35.716  1.00  0.00    -0.200 F 
ATOM     70  C   UNL A   1      45.758  27.210  36.651  1.00  0.00     0.200 A 
ATOM     71  F   UNL A   1      44.083  25.806  37.548  1.00  0.00    -0.200 F 
ATOM     72  F   UNL A   1      46.692  26.585  37.380  1.00  0.00    -0.200 F 
ENDBRANCH  39  62
ENDBRANCH  13  14
ENDBRANCH   6   8
ENDBRANCH   5   6
ENDBRANCH   4   5
ENDBRANCH   3   4
ENDBRANCH   2   3
ENDBRANCH   1   2
BRANCH   1  73
ATOM     73  C   UNL A   1      34.125  28.481  26.979  1.00  0.00     0.261 C 
BRANCH  73  74
ATOM     74  O   UNL A   1      32.897  28.547  26.234  1.00  0.00    -0.460 OA
BRANCH  74  75
ATOM     75  C   UNL A   1      33.040  28.449  24.882  1.00  0.00     0.340 C 
ATOM     76  O   UNL A   1      34.031  28.088  24.282  1.00  0.00    -0.246 OA
BRANCH  75  77
ATOM     77  C   UNL A   1      31.690  28.615  24.279  1.00  0.00     0.084 A 
ATOM     78  C   UNL A   1      31.081  29.871  24.447  1.00  0.00     0.026 A 
ATOM     79  C   UNL A   1      31.095  27.626  23.477  1.00  0.00     0.064 A 
ATOM     80  C   UNL A   1      29.870  30.173  23.811  1.00  0.00    -0.017 A 
ATOM     81  C   UNL A   1      29.926  27.968  22.792  1.00  0.00     0.036 A 
ATOM     82  C   UNL A   1      29.226  31.411  23.983  1.00  0.00     0.009 A 
ATOM     83  C   UNL A   1      29.285  29.205  22.974  1.00  0.00    -0.016 A 
ATOM     84  C   UNL A   1      27.998  31.666  23.367  1.00  0.00     0.001 A 
ATOM     85  C   UNL A   1      28.049  29.475  22.363  1.00  0.00     0.009 A 
ATOM     86  C   UNL A   1      27.404  30.694  22.568  1.00  0.00     0.001 A 
BRANCH  79  87
ATOM     87  N   UNL A   1      31.533  26.264  23.630  1.00  0.00    -0.279 N 
ATOM     88  H   UNL A   1      32.370  26.023  23.171  1.00  0.00     0.180 HD
BRANCH  87  89
ATOM     89  S   UNL A   1      30.791  25.045  24.494  1.00  0.00     0.263 S 
ATOM     90  O   UNL A   1      29.740  25.677  25.267  1.00  0.00    -0.201 OA
ATOM     91  O   UNL A   1      30.478  23.990  23.554  1.00  0.00    -0.201 OA
BRANCH  89  92
ATOM     92  C   UNL A   1      32.001  24.409  25.623  1.00  0.00     0.101 A 
ATOM     93  C   UNL A   1      33.327  24.829  25.399  1.00  0.00     0.023 A 
ATOM     94  C   UNL A   1      31.739  23.371  26.521  1.00  0.00     0.038 A 
ATOM     95  C   UNL A   1      34.390  24.155  25.994  1.00  0.00     0.001 A 
ATOM     96  C   UNL A   1      32.819  22.694  27.106  1.00  0.00     0.017 A 
ATOM     97  Br  UNL A   1      30.006  22.770  27.002  1.00  0.00    -0.049 Br
ATOM     98  C   UNL A   1      34.136  23.071  26.828  1.00  0.00     0.001 A 
ENDBRANCH  89  92
ENDBRANCH  87  89
ENDBRANCH  79  87
ENDBRANCH  75  77
ENDBRANCH  74  75
ENDBRANCH  73  74
ENDBRANCH   1  73
TORSDOF 17
ENDMDL
MODEL 2
REMARK VINA RESULT:     -12.0      0.707      2.062
REMARK SMILES O=C(OCCOCCOC(=O)c1cc2ccccc2cc1NS(=O)(=O)c1ccccc1Br)c1ccc(-c2c3nc(c(-c4c(F)c(F)c(F)c(F)c4F)c4ccc([nH]4)c(-c4c(F)c(F)c(F)c(F)c4F)c4nc(c(-c5c(F)c(F)c(F)c(F)c5F)c5ccc2[nH]5)C=C4)C=C3)cc1
REMARK SMILES IDX 7 1 6 2 5 3 4 4 3 5 2 6 1 7 33 8 34 9 95 10 35 11 94 12
REMARK SMILES IDX 36 13 37 14 38 15 88 16 39 17 93 18 87 19 89 20 40 21 92 22
REMARK SMILES IDX 86 23 85 24 41 26 73 27 53 28 72 29 54 30 57 31 71 32 90 33
REMARK SMILES IDX 55 34 56 35 70 37 91 38 58 39 42 40 43 41 51 42 44 43 45 44
REMARK SMILES IDX 49 45 52 46 46 47 47 48 50 49 48 50 74 51 75 52 83 53 76 54
REMARK SMILES IDX 77 55 81 56 84 57 78 58 79 59 82 60 80 61 59 62 60 63 68 64
REMARK SMILES IDX 61 65 62 66 66 67 69 68 63 69 64 70 67 71 65 72 8 73 9 74
REMARK SMILES IDX 10 75 11 76 12 77 13 78 21 79 14 80 20 81 15 82 19 83 16 84
REMARK SMILES IDX 18 85 17 86 22 87 23 89 24 90 25 91 26 92 27 93 31 94 28 95
REMARK SMILES IDX 30 96 32 97 29 98
REMARK H PARENT 89 25 57 36 22 88
REMARK Flexibility Score: inf
ROOT
ATOM      1  C   UNL A   1      34.594  30.130  27.350  1.00  0.00     0.202 C 
ENDROOT
BRANCH   1   2
ATOM      2  O   UNL A   1      33.274  30.628  27.612  1.00  0.00    -0.374 OA
BRANCH   2   3
ATOM      3  C   UNL A   1      32.792  31.632  26.720  1.00  0.00     0.202 C 
BRANCH   3   4
ATOM      4  C   UNL A   1      31.829  32.635  27.355  1.00  0.00     0.261 C 
BRANCH   4   5
ATOM      5  O   UNL A   1      32.421  33.944  27.373  1.00  0.00    -0.460 OA
BRANCH   5   6
ATOM      6  C   UNL A   1      32.970  34.591  28.427  1.00  0.00     0.338 C 
ATOM      7  O   UNL A   1      32.528  35.690  28.751  1.00  0.00    -0.246 OA
BRANCH   6   8
ATOM      8  C   UNL A   1      34.114  34.040  29.211  1.00  0.00     0.060 A 
ATOM      9  C   UNL A   1      33.983  33.093  30.227  1.00  0.00     0.016 A 
ATOM     10  C   UNL A   1      35.409  34.411  28.815  1.00  0.00     0.016 A 
ATOM     11  C   UNL A   1      35.086  32.562  30.873  1.00  0.00     0.010 A 
ATOM     12  C   UNL A   1      36.532  33.839  29.422  1.00  0.00     0.010 A 
ATOM     13  C   UNL A   1      36.367  32.910  30.455  1.00  0.00    -0.014 A 
BRANCH  13  14
ATOM     14  C   UNL A   1      37.507  32.289  31.149  1.00  0.00     0.031 A 
ATOM     15  C   UNL A   1      38.304  31.247  30.436  1.00  0.00     0.074 A 
ATOM     16  C   UNL A   1      37.873  32.765  32.354  1.00  0.00     0.049 A 
ATOM     17  N   UNL A   1      39.309  30.537  30.869  1.00  0.00    -0.248 NA
ATOM     18  C   UNL A   1      37.928  30.977  29.037  1.00  0.00     0.031 C 
ATOM     19  C   UNL A   1      37.213  33.868  33.058  1.00  0.00     0.029 A 
ATOM     20  N   UNL A   1      38.901  32.410  33.184  1.00  0.00    -0.354 N 
ATOM     21  C   UNL A   1      39.665  29.714  29.812  1.00  0.00     0.074 A 
ATOM     22  C   UNL A   1      38.779  30.016  28.709  1.00  0.00     0.031 C 
ATOM     23  C   UNL A   1      37.867  34.113  34.204  1.00  0.00     0.029 A 
ATOM     24  C   UNL A   1      38.938  33.136  34.351  1.00  0.00     0.049 A 
ATOM     25  H   UNL A   1      39.551  31.703  32.967  1.00  0.00     0.167 HD
ATOM     26  C   UNL A   1      40.642  28.779  29.784  1.00  0.00     0.037 A 
ATOM     27  C   UNL A   1      39.726  32.986  35.431  1.00  0.00     0.037 A 
ATOM     28  C   UNL A   1      41.509  28.513  30.901  1.00  0.00     0.049 A 
ATOM     29  C   UNL A   1      40.747  31.880  35.401  1.00  0.00     0.074 A 
ATOM     30  C   UNL A   1      42.502  27.560  31.018  1.00  0.00     0.029 A 
ATOM     31  N   UNL A   1      41.479  29.216  32.098  1.00  0.00    -0.354 N 
ATOM     32  N   UNL A   1      41.044  31.056  34.423  1.00  0.00    -0.248 NA
ATOM     33  C   UNL A   1      41.525  31.662  36.626  1.00  0.00     0.031 C 
ATOM     34  C   UNL A   1      43.043  27.658  32.305  1.00  0.00     0.029 A 
ATOM     35  C   UNL A   1      42.421  28.704  32.971  1.00  0.00     0.049 A 
ATOM     36  H   UNL A   1      40.877  29.970  32.296  1.00  0.00     0.167 HD
ATOM     37  C   UNL A   1      42.045  30.229  34.909  1.00  0.00     0.074 A 
ATOM     38  C   UNL A   1      42.326  30.673  36.261  1.00  0.00     0.031 C 
ATOM     39  C   UNL A   1      42.669  29.188  34.306  1.00  0.00     0.037 A 
BRANCH  26  40
ATOM     40  C   UNL A   1      40.759  27.939  28.551  1.00  0.00     0.064 A 
ATOM     41  C   UNL A   1      41.555  28.320  27.461  1.00  0.00     0.173 A 
ATOM     42  C   UNL A   1      40.055  26.729  28.458  1.00  0.00     0.173 A 
ATOM     43  F   UNL A   1      42.225  29.482  27.488  1.00  0.00    -0.203 F 
ATOM     44  C   UNL A   1      41.627  27.528  26.316  1.00  0.00     0.198 A 
ATOM     45  C   UNL A   1      40.147  25.928  27.323  1.00  0.00     0.198 A 
ATOM     46  F   UNL A   1      39.271  26.325  29.470  1.00  0.00    -0.203 F 
ATOM     47  F   UNL A   1      42.358  27.933  25.269  1.00  0.00    -0.200 F 
ATOM     48  C   UNL A   1      40.928  26.331  26.251  1.00  0.00     0.200 A 
ATOM     49  F   UNL A   1      39.471  24.772  27.264  1.00  0.00    -0.200 F 
ATOM     50  F   UNL A   1      40.997  25.571  25.149  1.00  0.00    -0.200 F 
ENDBRANCH  26  40
BRANCH  27  51
ATOM     51  C   UNL A   1      39.535  33.835  36.638  1.00  0.00     0.064 A 
ATOM     52  C   UNL A   1      40.180  35.073  36.773  1.00  0.00     0.173 A 
ATOM     53  C   UNL A   1      38.730  33.407  37.707  1.00  0.00     0.173 A 
ATOM     54  F   UNL A   1      40.980  35.521  35.794  1.00  0.00    -0.203 F 
ATOM     55  C   UNL A   1      40.050  35.832  37.936  1.00  0.00     0.198 A 
ATOM     56  C   UNL A   1      38.572  34.183  38.853  1.00  0.00     0.198 A 
ATOM     57  F   UNL A   1      38.092  32.229  37.638  1.00  0.00    -0.203 F 
ATOM     58  F   UNL A   1      40.729  36.981  38.062  1.00  0.00    -0.200 F 
ATOM     59  C   UNL A   1      39.243  35.389  38.973  1.00  0.00     0.200 A 
ATOM     60  F   UNL A   1      37.780  33.755  39.846  1.00  0.00    -0.200 F 
ATOM     61  F   UNL A   1      39.123  36.116  40.091  1.00  0.00    -0.200 F 
ENDBRANCH  27  51
BRANCH  39  62
ATOM     62  C   UNL A   1      43.724  28.483  35.103  1.00  0.00     0.064 A 
ATOM     63  C   UNL A   1      43.414  27.378  35.907  1.00  0.00     0.173 A 
ATOM     64  C   UNL A   1      45.063  28.891  35.021  1.00  0.00     0.173 A 
ATOM     65  F   UNL A   1      42.143  26.966  36.029  1.00  0.00    -0.203 F 
ATOM     66  C   UNL A   1      44.408  26.717  36.621  1.00  0.00     0.198 A 
ATOM     67  C   UNL A   1      46.058  28.208  35.711  1.00  0.00     0.198 A 
ATOM     68  F   UNL A   1      45.406  29.939  34.257  1.00  0.00    -0.203 F 
ATOM     69  F   UNL A   1      44.087  25.690  37.420  1.00  0.00    -0.200 F 
ATOM     70  C   UNL A   1      45.730  27.127  36.515  1.00  0.00     0.200 A 
ATOM     71  F   UNL A   1      47.336  28.596  35.597  1.00  0.00    -0.200 F 
ATOM     72  F   UNL A   1      46.687  26.482  37.194  1.00  0.00    -0.200 F 
ENDBRANCH  39  62
ENDBRANCH  13  14
ENDBRANCH   6   8
ENDBRANCH   5   6
ENDBRANCH   4   5
ENDBRANCH   3   4
ENDBRANCH   2   3
ENDBRANCH   1   2
BRANCH   1  73
ATOM     73  C   UNL A   1      34.489  28.656  26.935  1.00  0.00     0.261 C 
BRANCH  73  74
ATOM     74  O   UNL A   1      33.220  28.456  26.291  1.00  0.00    -0.460 OA
BRANCH  74  75
ATOM     75  C   UNL A   1      33.261  28.462  24.928  1.00  0.00     0.340 C 
ATOM     76  O   UNL A   1      34.245  28.327  24.232  1.00  0.00    -0.246 OA
BRANCH  75  77
ATOM     77  C   UNL A   1      31.856  28.403  24.440  1.00  0.00     0.084 A 
ATOM     78  C   UNL A   1      31.162  29.626  24.387  1.00  0.00     0.026 A 
ATOM     79  C   UNL A   1      31.280  27.224  23.940  1.00  0.00     0.064 A 
ATOM     80  C   UNL A   1      29.882  29.701  23.824  1.00  0.00    -0.017 A 
ATOM     81  C   UNL A   1      30.033  27.329  23.316  1.00  0.00     0.036 A 
ATOM     82  C   UNL A   1      29.155  30.903  23.782  1.00  0.00     0.009 A 
ATOM     83  C   UNL A   1      29.310  28.534  23.283  1.00  0.00    -0.016 A 
ATOM     84  C   UNL A   1      27.864  30.937  23.251  1.00  0.00     0.001 A 
ATOM     85  C   UNL A   1      28.011  28.583  22.754  1.00  0.00     0.009 A 
ATOM     86  C   UNL A   1      27.287  29.775  22.749  1.00  0.00     0.001 A 
BRANCH  79  87
ATOM     87  N   UNL A   1      31.838  25.962  24.345  1.00  0.00    -0.279 N 
ATOM     88  H   UNL A   1      32.821  25.894  24.320  1.00  0.00     0.180 HD
BRANCH  87  89
ATOM     89  S   UNL A   1      31.020  24.599  24.851  1.00  0.00     0.263 S 
ATOM     90  O   UNL A   1      30.156  25.025  25.934  1.00  0.00    -0.201 OA
ATOM     91  O   UNL A   1      30.463  23.976  23.670  1.00  0.00    -0.201 OA
BRANCH  89  92
ATOM     92  C   UNL A   1      32.234  23.491  25.515  1.00  0.00     0.101 A 
ATOM     93  C   UNL A   1      32.082  23.161  26.876  1.00  0.00     0.023 A 
ATOM     94  C   UNL A   1      33.409  23.150  24.841  1.00  0.00     0.038 A 
ATOM     95  C   UNL A   1      33.132  22.580  27.582  1.00  0.00     0.001 A 
ATOM     96  C   UNL A   1      34.463  22.576  25.565  1.00  0.00     0.017 A 
ATOM     97  Br  UNL A   1      33.715  23.435  22.990  1.00  0.00    -0.049 Br
ATOM     98  C   UNL A   1      34.332  22.312  26.932  1.00  0.00     0.001 A 
ENDBRANCH  89  92
ENDBRANCH  87  89
ENDBRANCH  79  87
ENDBRANCH  75  77
ENDBRANCH  74  75
ENDBRANCH  73  74
ENDBRANCH   1  73
TORSDOF 17
ENDMDL
MODEL 3
REMARK VINA RESULT:     -12.0      5.730     11.205
REMARK SMILES O=C(OCCOCCOC(=O)c1cc2ccccc2cc1NS(=O)(=O)c1ccccc1Br)c1ccc(-c2c3nc(c(-c4c(F)c(F)c(F)c(F)c4F)c4ccc([nH]4)c(-c4c(F)c(F)c(F)c(F)c4F)c4nc(c(-c5c(F)c(F)c(F)c(F)c5F)c5ccc2[nH]5)C=C4)C=C3)cc1
REMARK SMILES IDX 7 1 6 2 5 3 4 4 3 5 2 6 1 7 33 8 34 9 95 10 35 11 94 12
REMARK SMILES IDX 36 13 37 14 38 15 88 16 39 17 93 18 87 19 89 20 40 21 92 22
REMARK SMILES IDX 86 23 85 24 41 26 73 27 53 28 72 29 54 30 57 31 71 32 90 33
REMARK SMILES IDX 55 34 56 35 70 37 91 38 58 39 42 40 43 41 51 42 44 43 45 44
REMARK SMILES IDX 49 45 52 46 46 47 47 48 50 49 48 50 74 51 75 52 83 53 76 54
REMARK SMILES IDX 77 55 81 56 84 57 78 58 79 59 82 60 80 61 59 62 60 63 68 64
REMARK SMILES IDX 61 65 62 66 66 67 69 68 63 69 64 70 67 71 65 72 8 73 9 74
REMARK SMILES IDX 10 75 11 76 12 77 13 78 21 79 14 80 20 81 15 82 19 83 16 84
REMARK SMILES IDX 18 85 17 86 22 87 23 89 24 90 25 91 26 92 27 93 31 94 28 95
REMARK SMILES IDX 30 96 32 97 29 98
REMARK H PARENT 89 25 57 36 22 88
REMARK Flexibility Score: inf
ROOT
ATOM      1  C   UNL A   1      38.017  22.247  25.376  1.00  0.00     0.202 C 
ENDROOT
BRANCH   1   2
ATOM      2  O   UNL A   1      37.654  21.121  24.566  1.00  0.00    -0.374 OA
BRANCH   2   3
ATOM      3  C   UNL A   1      38.233  19.869  24.934  1.00  0.00     0.202 C 
BRANCH   3   4
ATOM      4  C   UNL A   1      39.318  19.963  26.007  1.00  0.00     0.261 C 
BRANCH   4   5
ATOM      5  O   UNL A   1      40.420  19.105  25.671  1.00  0.00    -0.460 OA
BRANCH   5   6
ATOM      6  C   UNL A   1      41.735  19.310  25.917  1.00  0.00     0.338 C 
ATOM      7  O   UNL A   1      42.500  18.349  25.919  1.00  0.00    -0.246 OA
BRANCH   6   8
ATOM      8  C   UNL A   1      42.305  20.657  26.210  1.00  0.00     0.060 A 
ATOM      9  C   UNL A   1      42.605  21.609  25.235  1.00  0.00     0.016 A 
ATOM     10  C   UNL A   1      42.433  21.027  27.558  1.00  0.00     0.016 A 
ATOM     11  C   UNL A   1      43.065  22.872  25.570  1.00  0.00     0.010 A 
ATOM     12  C   UNL A   1      42.843  22.318  27.908  1.00  0.00     0.010 A 
ATOM     13  C   UNL A   1      43.159  23.243  26.907  1.00  0.00    -0.014 A 
BRANCH  13  14
ATOM     14  C   UNL A   1      43.618  24.608  27.209  1.00  0.00     0.031 A 
ATOM     15  C   UNL A   1      42.648  25.580  27.796  1.00  0.00     0.074 A 
ATOM     16  C   UNL A   1      44.923  24.903  27.065  1.00  0.00     0.049 A 
ATOM     17  N   UNL A   1      42.819  26.839  28.092  1.00  0.00    -0.248 NA
ATOM     18  C   UNL A   1      41.305  25.061  28.108  1.00  0.00     0.031 C 
ATOM     19  C   UNL A   1      45.952  23.963  26.611  1.00  0.00     0.029 A 
ATOM     20  N   UNL A   1      45.614  26.058  27.311  1.00  0.00    -0.354 N 
ATOM     21  C   UNL A   1      41.600  27.273  28.592  1.00  0.00     0.074 A 
ATOM     22  C   UNL A   1      40.698  26.142  28.573  1.00  0.00     0.031 C 
ATOM     23  C   UNL A   1      47.147  24.574  26.634  1.00  0.00     0.029 A 
ATOM     24  C   UNL A   1      46.955  25.965  27.025  1.00  0.00     0.049 A 
ATOM     25  H   UNL A   1      45.192  26.876  27.660  1.00  0.00     0.167 HD
ATOM     26  C   UNL A   1      41.274  28.516  29.013  1.00  0.00     0.037 A 
ATOM     27  C   UNL A   1      47.905  26.919  27.036  1.00  0.00     0.037 A 
ATOM     28  C   UNL A   1      42.204  29.613  29.024  1.00  0.00     0.049 A 
ATOM     29  C   UNL A   1      47.489  28.311  27.428  1.00  0.00     0.074 A 
ATOM     30  C   UNL A   1      41.985  30.930  29.377  1.00  0.00     0.029 A 
ATOM     31  N   UNL A   1      43.541  29.508  28.661  1.00  0.00    -0.354 N 
ATOM     32  N   UNL A   1      46.318  28.738  27.843  1.00  0.00    -0.248 NA
ATOM     33  C   UNL A   1      48.511  29.360  27.333  1.00  0.00     0.031 C 
ATOM     34  C   UNL A   1      43.180  31.632  29.186  1.00  0.00     0.029 A 
ATOM     35  C   UNL A   1      44.156  30.742  28.760  1.00  0.00     0.049 A 
ATOM     36  H   UNL A   1      43.985  28.676  28.377  1.00  0.00     0.167 HD
ATOM     37  C   UNL A   1      46.463  30.099  28.064  1.00  0.00     0.074 A 
ATOM     38  C   UNL A   1      47.846  30.420  27.768  1.00  0.00     0.031 C 
ATOM     39  C   UNL A   1      45.540  31.009  28.462  1.00  0.00     0.037 A 
BRANCH  26  40
ATOM     40  C   UNL A   1      39.851  28.758  29.411  1.00  0.00     0.064 A 
ATOM     41  C   UNL A   1      39.401  28.571  30.725  1.00  0.00     0.173 A 
ATOM     42  C   UNL A   1      38.919  29.182  28.451  1.00  0.00     0.173 A 
ATOM     43  F   UNL A   1      40.247  28.139  31.674  1.00  0.00    -0.203 F 
ATOM     44  C   UNL A   1      38.065  28.784  31.061  1.00  0.00     0.198 A 
ATOM     45  C   UNL A   1      37.590  29.415  28.794  1.00  0.00     0.198 A 
ATOM     46  F   UNL A   1      39.298  29.364  27.177  1.00  0.00    -0.203 F 
ATOM     47  F   UNL A   1      37.647  28.557  32.314  1.00  0.00    -0.200 F 
ATOM     48  C   UNL A   1      37.164  29.211  30.097  1.00  0.00     0.200 A 
ATOM     49  F   UNL A   1      36.722  29.828  27.861  1.00  0.00    -0.200 F 
ATOM     50  F   UNL A   1      35.879  29.414  30.421  1.00  0.00    -0.200 F 
ENDBRANCH  26  40
BRANCH  27  51
ATOM     51  C   UNL A   1      49.294  26.616  26.598  1.00  0.00     0.064 A 
ATOM     52  C   UNL A   1      50.269  26.176  27.505  1.00  0.00     0.173 A 
ATOM     53  C   UNL A   1      49.691  26.800  25.263  1.00  0.00     0.173 A 
ATOM     54  F   UNL A   1      49.954  26.007  28.797  1.00  0.00    -0.203 F 
ATOM     55  C   UNL A   1      51.587  25.961  27.100  1.00  0.00     0.198 A 
ATOM     56  C   UNL A   1      50.999  26.550  24.853  1.00  0.00     0.198 A 
ATOM     57  F   UNL A   1      48.804  27.224  24.350  1.00  0.00    -0.203 F 
ATOM     58  F   UNL A   1      52.512  25.602  28.003  1.00  0.00    -0.200 F 
ATOM     59  C   UNL A   1      51.949  26.143  25.775  1.00  0.00     0.200 A 
ATOM     60  F   UNL A   1      51.339  26.715  23.567  1.00  0.00    -0.200 F 
ATOM     61  F   UNL A   1      53.216  25.941  25.389  1.00  0.00    -0.200 F 
ENDBRANCH  27  51
BRANCH  39  62
ATOM     62  C   UNL A   1      46.012  32.423  28.615  1.00  0.00     0.064 A 
ATOM     63  C   UNL A   1      46.571  32.879  29.817  1.00  0.00     0.173 A 
ATOM     64  C   UNL A   1      45.946  33.312  27.532  1.00  0.00     0.173 A 
ATOM     65  F   UNL A   1      46.637  32.067  30.883  1.00  0.00    -0.203 F 
ATOM     66  C   UNL A   1      47.029  34.186  29.935  1.00  0.00     0.198 A 
ATOM     67  C   UNL A   1      46.434  34.608  27.646  1.00  0.00     0.198 A 
ATOM     68  F   UNL A   1      45.425  32.915  26.362  1.00  0.00    -0.203 F 
ATOM     69  F   UNL A   1      47.521  34.618  31.105  1.00  0.00    -0.200 F 
ATOM     70  C   UNL A   1      46.969  35.047  28.848  1.00  0.00     0.200 A 
ATOM     71  F   UNL A   1      46.388  35.434  26.591  1.00  0.00    -0.200 F 
ATOM     72  F   UNL A   1      47.421  36.302  28.961  1.00  0.00    -0.200 F 
ENDBRANCH  39  62
ENDBRANCH  13  14
ENDBRANCH   6   8
ENDBRANCH   5   6
ENDBRANCH   4   5
ENDBRANCH   3   4
ENDBRANCH   2   3
ENDBRANCH   1   2
BRANCH   1  73
ATOM     73  C   UNL A   1      36.736  22.974  25.809  1.00  0.00     0.261 C 
BRANCH  73  74
ATOM     74  O   UNL A   1      35.936  22.060  26.579  1.00  0.00    -0.460 OA
BRANCH  74  75
ATOM     75  C   UNL A   1      34.598  22.320  26.568  1.00  0.00     0.340 C 
ATOM     76  O   UNL A   1      34.031  23.228  27.138  1.00  0.00    -0.246 OA
BRANCH  75  77
ATOM     77  C   UNL A   1      33.984  21.449  25.530  1.00  0.00     0.084 A 
ATOM     78  C   UNL A   1      34.588  20.194  25.330  1.00  0.00     0.026 A 
ATOM     79  C   UNL A   1      32.795  21.792  24.864  1.00  0.00     0.064 A 
ATOM     80  C   UNL A   1      34.013  19.249  24.470  1.00  0.00    -0.017 A 
ATOM     81  C   UNL A   1      32.197  20.812  24.067  1.00  0.00     0.036 A 
ATOM     82  C   UNL A   1      34.609  17.999  24.231  1.00  0.00     0.009 A 
ATOM     83  C   UNL A   1      32.801  19.566  23.828  1.00  0.00    -0.016 A 
ATOM     84  C   UNL A   1      34.033  17.094  23.336  1.00  0.00     0.001 A 
ATOM     85  C   UNL A   1      32.235  18.648  22.930  1.00  0.00     0.009 A 
ATOM     86  C   UNL A   1      32.853  17.424  22.676  1.00  0.00     0.001 A 
BRANCH  79  87
ATOM     87  N   UNL A   1      32.424  23.180  24.795  1.00  0.00    -0.279 N 
ATOM     88  H   UNL A   1      31.788  23.494  25.479  1.00  0.00     0.180 HD
BRANCH  87  89
ATOM     89  S   UNL A   1      32.942  24.321  23.694  1.00  0.00     0.263 S 
ATOM     90  O   UNL A   1      34.204  24.825  24.196  1.00  0.00    -0.201 OA
ATOM     91  O   UNL A   1      32.864  23.711  22.384  1.00  0.00    -0.201 OA
BRANCH  89  92
ATOM     92  C   UNL A   1      31.761  25.643  23.735  1.00  0.00     0.101 A 
ATOM     93  C   UNL A   1      30.531  25.346  24.353  1.00  0.00     0.023 A 
ATOM     94  C   UNL A   1      31.907  26.822  22.999  1.00  0.00     0.038 A 
ATOM     95  C   UNL A   1      29.428  26.172  24.160  1.00  0.00     0.001 A 
ATOM     96  C   UNL A   1      30.785  27.640  22.803  1.00  0.00     0.017 A 
ATOM     97  Br  UNL A   1      33.526  27.405  22.201  1.00  0.00    -0.049 Br
ATOM     98  C   UNL A   1      29.549  27.305  23.362  1.00  0.00     0.001 A 
ENDBRANCH  89  92
ENDBRANCH  87  89
ENDBRANCH  79  87
ENDBRANCH  75  77
ENDBRANCH  74  75
ENDBRANCH  73  74
ENDBRANCH   1  73
TORSDOF 17
ENDMDL
