MODEL 1
REMARK VINA RESULT:     -12.3      0.000      0.000
REMARK SMILES O=C(C[C@H](C(=O)Nc1ccc([N+](=O)[O-])cc1)[C@H]1CCCO1)OCCOCCOC(=O)c1ccc(-c2c3nc(c(-c4c(F)c(F)c(F)c(F)c4F)c4ccc([nH]4)c(-c4c(F)c(F)c(F)c(F)c4F)c4nc(c(-c5c(F)c(F)c(F)c(F)c5F)c5ccc2[nH]5)C=C4)C=C3)cc1
REMARK SMILES IDX 24 1 23 2 22 3 2 4 1 5 3 6 4 7 5 8 6 9 7 10 8 12 9 13 16 14
REMARK SMILES IDX 10 15 15 16 11 17 12 18 13 19 14 20 17 21 18 22 21 23 19 24
REMARK SMILES IDX 20 25 25 26 26 27 27 28 28 29 29 30 30 31 31 32 32 33 93 34
REMARK SMILES IDX 33 35 92 36 34 37 35 38 36 39 86 40 37 41 91 42 85 43 87 44
REMARK SMILES IDX 38 45 90 46 84 47 83 48 39 50 71 51 51 52 70 53 52 54 55 55
REMARK SMILES IDX 69 56 88 57 53 58 54 59 68 61 89 62 56 63 40 64 41 65 49 66
REMARK SMILES IDX 42 67 43 68 47 69 50 70 44 71 45 72 48 73 46 74 72 75 73 76
REMARK SMILES IDX 81 77 74 78 75 79 79 80 82 81 76 82 77 83 80 84 78 85 57 86
REMARK SMILES IDX 58 87 66 88 59 89 60 90 64 91 67 92 61 93 62 94 65 95 63 96
REMARK H PARENT 7 11 87 49 55 60
REMARK Flexibility Score: inf
ROOT
ATOM      1  C   UNL A   1      40.262  21.934  27.121  1.00  0.00     0.202 C 
ENDROOT
BRANCH   1   2
ATOM      2  C   UNL A   1      39.503  21.621  25.827  1.00  0.00     0.261 C 
BRANCH   2   3
ATOM      3  O   UNL A   1      38.076  21.724  25.914  1.00  0.00    -0.463 OA
BRANCH   3   4
ATOM      4  C   UNL A   1      37.219  21.460  24.900  1.00  0.00     0.306 C 
ATOM      5  O   UNL A   1      37.173  22.217  23.933  1.00  0.00    -0.252 OA
BRANCH   4   6
ATOM      6  C   UNL A   1      36.332  20.253  24.996  1.00  0.00     0.139 C 
BRANCH   6   7
ATOM      7  C   UNL A   1      34.826  20.501  25.155  1.00  0.00     0.119 C 
BRANCH   7   8
ATOM      8  C   UNL A   1      34.501  21.659  26.105  1.00  0.00     0.230 C 
ATOM      9  O   UNL A   1      34.601  21.443  27.324  1.00  0.00    -0.274 OA
ATOM     10  N   UNL A   1      34.167  22.931  25.777  1.00  0.00    -0.326 N 
ATOM     11  H   UNL A   1      34.321  23.559  26.520  1.00  0.00     0.169 HD
BRANCH  10  12
ATOM     12  C   UNL A   1      33.655  23.571  24.642  1.00  0.00     0.041 A 
ATOM     13  C   UNL A   1      34.140  24.851  24.350  1.00  0.00     0.033 A 
ATOM     14  C   UNL A   1      32.648  23.051  23.841  1.00  0.00     0.033 A 
ATOM     15  C   UNL A   1      33.716  25.534  23.202  1.00  0.00     0.088 A 
ATOM     16  C   UNL A   1      32.210  23.714  22.691  1.00  0.00     0.088 A 
ATOM     17  C   UNL A   1      32.770  24.944  22.357  1.00  0.00     0.269 A 
BRANCH  17  18
ATOM     18  N   UNL A   1      32.375  25.610  21.112  1.00  0.00     0.062 N 
ATOM     19  O   UNL A   1      31.408  26.382  21.156  1.00  0.00    -0.258 OA
ATOM     20  O   UNL A   1      33.034  25.364  20.091  1.00  0.00    -0.258 OA
ENDBRANCH  17  18
ENDBRANCH  10  12
ENDBRANCH   7   8
BRANCH   7  21
ATOM     21  C   UNL A   1      33.847  19.317  25.090  1.00  0.00     0.131 C 
ATOM     22  C   UNL A   1      32.507  19.654  24.421  1.00  0.00     0.035 C 
ATOM     23  O   UNL A   1      34.377  18.210  24.363  1.00  0.00    -0.377 OA
ATOM     24  C   UNL A   1      32.530  18.887  23.121  1.00  0.00     0.031 C 
ATOM     25  C   UNL A   1      33.384  17.699  23.473  1.00  0.00     0.160 C 
ENDBRANCH   7  21
ENDBRANCH   6   7
ENDBRANCH   4   6
ENDBRANCH   3   4
ENDBRANCH   2   3
ENDBRANCH   1   2
BRANCH   1  26
ATOM     26  O   UNL A   1      41.673  22.068  27.068  1.00  0.00    -0.374 OA
BRANCH  26  27
ATOM     27  C   UNL A   1      42.379  21.645  25.901  1.00  0.00     0.202 C 
BRANCH  27  28
ATOM     28  C   UNL A   1      43.515  22.508  25.342  1.00  0.00     0.261 C 
BRANCH  28  29
ATOM     29  O   UNL A   1      43.062  23.678  24.634  1.00  0.00    -0.460 OA
BRANCH  29  30
ATOM     30  C   UNL A   1      43.686  24.822  24.989  1.00  0.00     0.338 C 
ATOM     31  O   UNL A   1      44.853  25.123  24.781  1.00  0.00    -0.246 OA
BRANCH  30  32
ATOM     32  C   UNL A   1      42.752  25.788  25.588  1.00  0.00     0.060 A 
ATOM     33  C   UNL A   1      43.259  27.054  25.908  1.00  0.00     0.016 A 
ATOM     34  C   UNL A   1      41.497  25.383  26.046  1.00  0.00     0.016 A 
ATOM     35  C   UNL A   1      42.557  27.880  26.780  1.00  0.00     0.010 A 
ATOM     36  C   UNL A   1      40.797  26.210  26.932  1.00  0.00     0.010 A 
ATOM     37  C   UNL A   1      41.364  27.425  27.357  1.00  0.00    -0.014 A 
BRANCH  37  38
ATOM     38  C   UNL A   1      40.890  28.088  28.598  1.00  0.00     0.031 A 
ATOM     39  C   UNL A   1      41.683  27.879  29.862  1.00  0.00     0.074 A 
ATOM     40  C   UNL A   1      39.834  28.917  28.591  1.00  0.00     0.049 A 
ATOM     41  N   UNL A   1      41.511  28.400  31.051  1.00  0.00    -0.248 NA
ATOM     42  C   UNL A   1      42.830  26.960  29.773  1.00  0.00     0.031 C 
ATOM     43  C   UNL A   1      39.013  29.231  27.425  1.00  0.00     0.029 A 
ATOM     44  N   UNL A   1      39.281  29.655  29.606  1.00  0.00    -0.354 N 
ATOM     45  C   UNL A   1      42.523  27.873  31.844  1.00  0.00     0.074 A 
ATOM     46  C   UNL A   1      43.289  26.971  31.014  1.00  0.00     0.031 C 
ATOM     47  C   UNL A   1      38.057  30.103  27.791  1.00  0.00     0.029 A 
ATOM     48  C   UNL A   1      38.193  30.396  29.217  1.00  0.00     0.049 A 
ATOM     49  H   UNL A   1      39.631  29.654  30.526  1.00  0.00     0.167 HD
ATOM     50  C   UNL A   1      42.799  28.127  33.145  1.00  0.00     0.037 A 
ATOM     51  C   UNL A   1      37.402  31.215  29.937  1.00  0.00     0.037 A 
ATOM     52  C   UNL A   1      42.043  29.025  33.974  1.00  0.00     0.049 A 
ATOM     53  C   UNL A   1      37.703  31.445  31.396  1.00  0.00     0.074 A 
ATOM     54  C   UNL A   1      42.246  29.354  35.303  1.00  0.00     0.029 A 
ATOM     55  N   UNL A   1      40.933  29.736  33.548  1.00  0.00    -0.354 N 
ATOM     56  N   UNL A   1      38.681  30.969  32.128  1.00  0.00    -0.248 NA
ATOM     57  C   UNL A   1      36.792  32.339  32.126  1.00  0.00     0.031 C 
ATOM     58  C   UNL A   1      41.235  30.241  35.692  1.00  0.00     0.029 A 
ATOM     59  C   UNL A   1      40.429  30.494  34.593  1.00  0.00     0.049 A 
ATOM     60  H   UNL A   1      40.557  29.709  32.639  1.00  0.00     0.167 HD
ATOM     61  C   UNL A   1      38.526  31.532  33.388  1.00  0.00     0.074 A 
ATOM     62  C   UNL A   1      37.361  32.389  33.322  1.00  0.00     0.031 C 
ATOM     63  C   UNL A   1      39.283  31.359  34.500  1.00  0.00     0.037 A 
BRANCH  50  64
ATOM     64  C   UNL A   1      43.957  27.395  33.755  1.00  0.00     0.064 A 
ATOM     65  C   UNL A   1      43.790  26.159  34.397  1.00  0.00     0.173 A 
ATOM     66  C   UNL A   1      45.251  27.935  33.690  1.00  0.00     0.173 A 
ATOM     67  F   UNL A   1      42.570  25.612  34.501  1.00  0.00    -0.203 F 
ATOM     68  C   UNL A   1      44.874  25.500  34.971  1.00  0.00     0.198 A 
ATOM     69  C   UNL A   1      46.335  27.262  34.246  1.00  0.00     0.198 A 
ATOM     70  F   UNL A   1      45.461  29.114  33.088  1.00  0.00    -0.203 F 
ATOM     71  F   UNL A   1      44.686  24.341  35.618  1.00  0.00    -0.200 F 
ATOM     72  C   UNL A   1      46.145  26.050  34.891  1.00  0.00     0.200 A 
ATOM     73  F   UNL A   1      47.564  27.790  34.162  1.00  0.00    -0.200 F 
ATOM     74  F   UNL A   1      47.187  25.414  35.445  1.00  0.00    -0.200 F 
ENDBRANCH  50  64
BRANCH  51  75
ATOM     75  C   UNL A   1      36.256  31.899  29.287  1.00  0.00     0.064 A 
ATOM     76  C   UNL A   1      35.156  31.171  28.814  1.00  0.00     0.173 A 
ATOM     77  C   UNL A   1      36.248  33.289  29.108  1.00  0.00     0.173 A 
ATOM     78  F   UNL A   1      35.131  29.836  28.942  1.00  0.00    -0.203 F 
ATOM     79  C   UNL A   1      34.096  31.807  28.172  1.00  0.00     0.198 A 
ATOM     80  C   UNL A   1      35.177  33.927  28.486  1.00  0.00     0.198 A 
ATOM     81  F   UNL A   1      37.279  34.027  29.541  1.00  0.00    -0.203 F 
ATOM     82  F   UNL A   1      33.074  31.084  27.693  1.00  0.00    -0.200 F 
ATOM     83  C   UNL A   1      34.105  33.185  28.012  1.00  0.00     0.200 A 
ATOM     84  F   UNL A   1      35.185  35.259  28.341  1.00  0.00    -0.200 F 
ATOM     85  F   UNL A   1      33.084  33.796  27.396  1.00  0.00    -0.200 F 
ENDBRANCH  51  75
BRANCH  63  86
ATOM     86  C   UNL A   1      38.908  32.149  35.719  1.00  0.00     0.064 A 
ATOM     87  C   UNL A   1      38.155  31.589  36.759  1.00  0.00     0.173 A 
ATOM     88  C   UNL A   1      39.346  33.475  35.861  1.00  0.00     0.173 A 
ATOM     89  F   UNL A   1      37.703  30.329  36.662  1.00  0.00    -0.203 F 
ATOM     90  C   UNL A   1      37.832  32.335  37.889  1.00  0.00     0.198 A 
ATOM     91  C   UNL A   1      39.042  34.210  37.003  1.00  0.00     0.198 A 
ATOM     92  F   UNL A   1      40.076  34.053  34.896  1.00  0.00    -0.203 F 
ATOM     93  F   UNL A   1      37.074  31.794  38.853  1.00  0.00    -0.200 F 
ATOM     94  C   UNL A   1      38.280  33.642  38.013  1.00  0.00     0.200 A 
ATOM     95  F   UNL A   1      39.485  35.469  37.126  1.00  0.00    -0.200 F 
ATOM     96  F   UNL A   1      37.970  34.357  39.103  1.00  0.00    -0.200 F 
ENDBRANCH  63  86
ENDBRANCH  37  38
ENDBRANCH  30  32
ENDBRANCH  29  30
ENDBRANCH  28  29
ENDBRANCH  27  28
ENDBRANCH  26  27
ENDBRANCH   1  26
TORSDOF 19
ENDMDL
MODEL 2
REMARK VINA RESULT:     -12.1      1.420      3.692
REMARK SMILES O=C(C[C@H](C(=O)Nc1ccc([N+](=O)[O-])cc1)[C@H]1CCCO1)OCCOCCOC(=O)c1ccc(-c2c3nc(c(-c4c(F)c(F)c(F)c(F)c4F)c4ccc([nH]4)c(-c4c(F)c(F)c(F)c(F)c4F)c4nc(c(-c5c(F)c(F)c(F)c(F)c5F)c5ccc2[nH]5)C=C4)C=C3)cc1
REMARK SMILES IDX 24 1 23 2 22 3 2 4 1 5 3 6 4 7 5 8 6 9 7 10 8 12 9 13 16 14
REMARK SMILES IDX 10 15 15 16 11 17 12 18 13 19 14 20 17 21 18 22 21 23 19 24
REMARK SMILES IDX 20 25 25 26 26 27 27 28 28 29 29 30 30 31 31 32 32 33 93 34
REMARK SMILES IDX 33 35 92 36 34 37 35 38 36 39 86 40 37 41 91 42 85 43 87 44
REMARK SMILES IDX 38 45 90 46 84 47 83 48 39 50 71 51 51 52 70 53 52 54 55 55
REMARK SMILES IDX 69 56 88 57 53 58 54 59 68 61 89 62 56 63 40 64 41 65 49 66
REMARK SMILES IDX 42 67 43 68 47 69 50 70 44 71 45 72 48 73 46 74 72 75 73 76
REMARK SMILES IDX 81 77 74 78 75 79 79 80 82 81 76 82 77 83 80 84 78 85 57 86
REMARK SMILES IDX 58 87 66 88 59 89 60 90 64 91 67 92 61 93 62 94 65 95 63 96
REMARK H PARENT 7 11 87 49 55 60
REMARK Flexibility Score: inf
ROOT
ATOM      1  C   UNL A   1      40.401  21.338  27.165  1.00  0.00     0.202 C 
ENDROOT
BRANCH   1   2
ATOM      2  C   UNL A   1      39.762  21.610  25.798  1.00  0.00     0.261 C 
BRANCH   2   3
ATOM      3  O   UNL A   1      38.335  21.486  25.754  1.00  0.00    -0.463 OA
BRANCH   3   4
ATOM      4  C   UNL A   1      37.496  22.401  25.215  1.00  0.00     0.306 C 
ATOM      5  O   UNL A   1      37.682  23.596  25.433  1.00  0.00    -0.252 OA
BRANCH   4   6
ATOM      6  C   UNL A   1      36.346  21.925  24.376  1.00  0.00     0.139 C 
BRANCH   6   7
ATOM      7  C   UNL A   1      35.038  21.589  25.105  1.00  0.00     0.119 C 
BRANCH   7   8
ATOM      8  C   UNL A   1      33.845  21.417  24.158  1.00  0.00     0.230 C 
ATOM      9  O   UNL A   1      33.375  22.443  23.639  1.00  0.00    -0.274 OA
ATOM     10  N   UNL A   1      33.261  20.260  23.762  1.00  0.00    -0.326 N 
ATOM     11  H   UNL A   1      32.748  20.369  22.930  1.00  0.00     0.169 HD
BRANCH  10  12
ATOM     12  C   UNL A   1      33.207  18.949  24.249  1.00  0.00     0.041 A 
ATOM     13  C   UNL A   1      32.666  18.757  25.526  1.00  0.00     0.033 A 
ATOM     14  C   UNL A   1      33.725  17.847  23.583  1.00  0.00     0.033 A 
ATOM     15  C   UNL A   1      32.528  17.469  26.061  1.00  0.00     0.088 A 
ATOM     16  C   UNL A   1      33.598  16.553  24.096  1.00  0.00     0.088 A 
ATOM     17  C   UNL A   1      32.971  16.364  25.325  1.00  0.00     0.269 A 
BRANCH  17  18
ATOM     18  N   UNL A   1      32.762  15.006  25.834  1.00  0.00     0.062 N 
ATOM     19  O   UNL A   1      31.881  14.843  26.690  1.00  0.00    -0.258 OA
ATOM     20  O   UNL A   1      33.474  14.100  25.376  1.00  0.00    -0.258 OA
ENDBRANCH  17  18
ENDBRANCH  10  12
ENDBRANCH   7   8
BRANCH   7  21
ATOM     21  C   UNL A   1      34.777  22.165  26.506  1.00  0.00     0.131 C 
ATOM     22  C   UNL A   1      34.177  23.579  26.495  1.00  0.00     0.035 C 
ATOM     23  O   UNL A   1      33.873  21.365  27.265  1.00  0.00    -0.377 OA
ATOM     24  C   UNL A   1      32.766  23.394  27.000  1.00  0.00     0.031 C 
ATOM     25  C   UNL A   1      32.911  22.203  27.908  1.00  0.00     0.160 C 
ENDBRANCH   7  21
ENDBRANCH   6   7
ENDBRANCH   4   6
ENDBRANCH   3   4
ENDBRANCH   2   3
ENDBRANCH   1   2
BRANCH   1  26
ATOM     26  O   UNL A   1      41.812  21.409  27.283  1.00  0.00    -0.374 OA
BRANCH  26  27
ATOM     27  C   UNL A   1      42.626  21.268  26.118  1.00  0.00     0.202 C 
BRANCH  27  28
ATOM     28  C   UNL A   1      43.608  22.380  25.734  1.00  0.00     0.261 C 
BRANCH  28  29
ATOM     29  O   UNL A   1      43.028  23.407  24.906  1.00  0.00    -0.460 OA
BRANCH  29  30
ATOM     30  C   UNL A   1      43.618  24.616  25.022  1.00  0.00     0.338 C 
ATOM     31  O   UNL A   1      44.729  24.939  24.626  1.00  0.00    -0.246 OA
BRANCH  30  32
ATOM     32  C   UNL A   1      42.707  25.613  25.605  1.00  0.00     0.060 A 
ATOM     33  C   UNL A   1      43.242  26.871  25.907  1.00  0.00     0.016 A 
ATOM     34  C   UNL A   1      41.440  25.245  26.065  1.00  0.00     0.016 A 
ATOM     35  C   UNL A   1      42.558  27.726  26.765  1.00  0.00     0.010 A 
ATOM     36  C   UNL A   1      40.759  26.101  26.937  1.00  0.00     0.010 A 
ATOM     37  C   UNL A   1      41.353  27.309  27.345  1.00  0.00    -0.014 A 
BRANCH  37  38
ATOM     38  C   UNL A   1      40.892  28.001  28.575  1.00  0.00     0.031 A 
ATOM     39  C   UNL A   1      41.687  27.806  29.841  1.00  0.00     0.074 A 
ATOM     40  C   UNL A   1      39.846  28.843  28.556  1.00  0.00     0.049 A 
ATOM     41  N   UNL A   1      41.526  28.352  31.020  1.00  0.00    -0.248 NA
ATOM     42  C   UNL A   1      42.823  26.871  29.764  1.00  0.00     0.031 C 
ATOM     43  C   UNL A   1      39.025  29.144  27.387  1.00  0.00     0.029 A 
ATOM     44  N   UNL A   1      39.307  29.607  29.559  1.00  0.00    -0.354 N 
ATOM     45  C   UNL A   1      42.535  27.827  31.819  1.00  0.00     0.074 A 
ATOM     46  C   UNL A   1      43.286  26.900  31.004  1.00  0.00     0.031 C 
ATOM     47  C   UNL A   1      38.081  30.036  27.740  1.00  0.00     0.029 A 
ATOM     48  C   UNL A   1      38.227  30.353  29.160  1.00  0.00     0.049 A 
ATOM     49  H   UNL A   1      39.661  29.618  30.478  1.00  0.00     0.167 HD
ATOM     50  C   UNL A   1      42.819  28.102  33.114  1.00  0.00     0.037 A 
ATOM     51  C   UNL A   1      37.449  31.195  29.867  1.00  0.00     0.037 A 
ATOM     52  C   UNL A   1      42.078  29.025  33.928  1.00  0.00     0.049 A 
ATOM     53  C   UNL A   1      37.758  31.450  31.320  1.00  0.00     0.074 A 
ATOM     54  C   UNL A   1      42.290  29.377  35.250  1.00  0.00     0.029 A 
ATOM     55  N   UNL A   1      40.975  29.742  33.493  1.00  0.00    -0.354 N 
ATOM     56  N   UNL A   1      38.733  30.976  32.058  1.00  0.00    -0.248 NA
ATOM     57  C   UNL A   1      36.861  32.369  32.036  1.00  0.00     0.031 C 
ATOM     58  C   UNL A   1      41.291  30.283  35.625  1.00  0.00     0.029 A 
ATOM     59  C   UNL A   1      40.484  30.525  34.525  1.00  0.00     0.049 A 
ATOM     60  H   UNL A   1      40.595  29.702  32.585  1.00  0.00     0.167 HD
ATOM     61  C   UNL A   1      38.590  31.564  33.308  1.00  0.00     0.074 A 
ATOM     62  C   UNL A   1      37.435  32.434  33.229  1.00  0.00     0.031 C 
ATOM     63  C   UNL A   1      39.348  31.403  34.420  1.00  0.00     0.037 A 
BRANCH  50  64
ATOM     64  C   UNL A   1      43.970  27.368  33.734  1.00  0.00     0.064 A 
ATOM     65  C   UNL A   1      45.275  27.882  33.697  1.00  0.00     0.173 A 
ATOM     66  C   UNL A   1      43.764  26.140  34.380  1.00  0.00     0.173 A 
ATOM     67  F   UNL A   1      45.526  29.043  33.075  1.00  0.00    -0.203 F 
ATOM     68  C   UNL A   1      46.335  27.181  34.266  1.00  0.00     0.198 A 
ATOM     69  C   UNL A   1      44.823  25.453  34.967  1.00  0.00     0.198 A 
ATOM     70  F   UNL A   1      42.535  25.607  34.441  1.00  0.00    -0.203 F 
ATOM     71  F   UNL A   1      47.582  27.668  34.182  1.00  0.00    -0.200 F 
ATOM     72  C   UNL A   1      46.108  25.971  34.904  1.00  0.00     0.200 A 
ATOM     73  F   UNL A   1      44.600  24.287  35.589  1.00  0.00    -0.200 F 
ATOM     74  F   UNL A   1      47.130  25.297  35.450  1.00  0.00    -0.200 F 
ENDBRANCH  50  64
BRANCH  51  75
ATOM     75  C   UNL A   1      36.309  31.881  29.208  1.00  0.00     0.064 A 
ATOM     76  C   UNL A   1      36.309  33.272  29.031  1.00  0.00     0.173 A 
ATOM     77  C   UNL A   1      35.191  31.164  28.760  1.00  0.00     0.173 A 
ATOM     78  F   UNL A   1      37.346  34.002  29.467  1.00  0.00    -0.203 F 
ATOM     79  C   UNL A   1      35.224  33.921  28.445  1.00  0.00     0.198 A 
ATOM     80  C   UNL A   1      34.118  31.812  28.153  1.00  0.00     0.198 A 
ATOM     81  F   UNL A   1      35.145  29.833  28.909  1.00  0.00    -0.203 F 
ATOM     82  F   UNL A   1      35.231  35.256  28.324  1.00  0.00    -0.200 F 
ATOM     83  C   UNL A   1      34.132  33.191  28.002  1.00  0.00     0.200 A 
ATOM     84  F   UNL A   1      33.068  31.102  27.718  1.00  0.00    -0.200 F 
ATOM     85  F   UNL A   1      33.090  33.816  27.437  1.00  0.00    -0.200 F 
ENDBRANCH  51  75
BRANCH  63  86
ATOM     86  C   UNL A   1      38.988  32.221  35.624  1.00  0.00     0.064 A 
ATOM     87  C   UNL A   1      39.391  33.557  35.756  1.00  0.00     0.173 A 
ATOM     88  C   UNL A   1      38.194  31.668  36.640  1.00  0.00     0.173 A 
ATOM     89  F   UNL A   1      40.161  34.125  34.816  1.00  0.00    -0.203 F 
ATOM     90  C   UNL A   1      39.031  34.304  36.875  1.00  0.00     0.198 A 
ATOM     91  C   UNL A   1      37.816  32.425  37.745  1.00  0.00     0.198 A 
ATOM     92  F   UNL A   1      37.777  30.395  36.556  1.00  0.00    -0.203 F 
ATOM     93  F   UNL A   1      39.463  35.566  37.002  1.00  0.00    -0.200 F 
ATOM     94  C   UNL A   1      38.241  33.739  37.865  1.00  0.00     0.200 A 
ATOM     95  F   UNL A   1      37.044  31.882  38.696  1.00  0.00    -0.200 F 
ATOM     96  F   UNL A   1      37.894  34.461  38.940  1.00  0.00    -0.200 F 
ENDBRANCH  63  86
ENDBRANCH  37  38
ENDBRANCH  30  32
ENDBRANCH  29  30
ENDBRANCH  28  29
ENDBRANCH  27  28
ENDBRANCH  26  27
ENDBRANCH   1  26
TORSDOF 19
ENDMDL
MODEL 3
REMARK VINA RESULT:     -11.9      4.480      7.150
REMARK SMILES O=C(C[C@H](C(=O)Nc1ccc([N+](=O)[O-])cc1)[C@H]1CCCO1)OCCOCCOC(=O)c1ccc(-c2c3nc(c(-c4c(F)c(F)c(F)c(F)c4F)c4ccc([nH]4)c(-c4c(F)c(F)c(F)c(F)c4F)c4nc(c(-c5c(F)c(F)c(F)c(F)c5F)c5ccc2[nH]5)C=C4)C=C3)cc1
REMARK SMILES IDX 24 1 23 2 22 3 2 4 1 5 3 6 4 7 5 8 6 9 7 10 8 12 9 13 16 14
REMARK SMILES IDX 10 15 15 16 11 17 12 18 13 19 14 20 17 21 18 22 21 23 19 24
REMARK SMILES IDX 20 25 25 26 26 27 27 28 28 29 29 30 30 31 31 32 32 33 93 34
REMARK SMILES IDX 33 35 92 36 34 37 35 38 36 39 86 40 37 41 91 42 85 43 87 44
REMARK SMILES IDX 38 45 90 46 84 47 83 48 39 50 71 51 51 52 70 53 52 54 55 55
REMARK SMILES IDX 69 56 88 57 53 58 54 59 68 61 89 62 56 63 40 64 41 65 49 66
REMARK SMILES IDX 42 67 43 68 47 69 50 70 44 71 45 72 48 73 46 74 72 75 73 76
REMARK SMILES IDX 81 77 74 78 75 79 79 80 82 81 76 82 77 83 80 84 78 85 57 86
REMARK SMILES IDX 58 87 66 88 59 89 60 90 64 91 67 92 61 93 62 94 65 95 63 96
REMARK H PARENT 7 11 87 49 55 60
REMARK Flexibility Score: inf
ROOT
ATOM      1  C   UNL A   1      36.794  21.071  25.255  1.00  0.00     0.202 C 
ENDROOT
BRANCH   1   2
ATOM      2  C   UNL A   1      37.208  22.541  25.389  1.00  0.00     0.261 C 
BRANCH   2   3
ATOM      3  O   UNL A   1      36.401  23.473  24.657  1.00  0.00    -0.463 OA
BRANCH   3   4
ATOM      4  C   UNL A   1      35.821  23.219  23.460  1.00  0.00     0.306 C 
ATOM      5  O   UNL A   1      36.523  22.923  22.497  1.00  0.00    -0.252 OA
BRANCH   4   6
ATOM      6  C   UNL A   1      34.328  23.325  23.342  1.00  0.00     0.139 C 
BRANCH   6   7
ATOM      7  C   UNL A   1      33.490  22.307  24.128  1.00  0.00     0.119 C 
BRANCH   7   8
ATOM      8  C   UNL A   1      32.347  21.702  23.305  1.00  0.00     0.230 C 
ATOM      9  O   UNL A   1      31.526  22.487  22.802  1.00  0.00    -0.274 OA
ATOM     10  N   UNL A   1      32.145  20.396  23.002  1.00  0.00    -0.326 N 
ATOM     11  H   UNL A   1      31.559  20.282  22.219  1.00  0.00     0.169 HD
BRANCH  10  12
ATOM     12  C   UNL A   1      32.564  19.170  23.531  1.00  0.00     0.041 A 
ATOM     13  C   UNL A   1      32.491  19.008  24.920  1.00  0.00     0.033 A 
ATOM     14  C   UNL A   1      33.116  18.142  22.778  1.00  0.00     0.033 A 
ATOM     15  C   UNL A   1      32.841  17.791  25.520  1.00  0.00     0.088 A 
ATOM     16  C   UNL A   1      33.471  16.920  23.355  1.00  0.00     0.088 A 
ATOM     17  C   UNL A   1      33.304  16.737  24.725  1.00  0.00     0.269 A 
BRANCH  17  18
ATOM     18  N   UNL A   1      33.599  15.433  25.326  1.00  0.00     0.062 N 
ATOM     19  O   UNL A   1      32.661  14.821  25.856  1.00  0.00    -0.258 OA
ATOM     20  O   UNL A   1      34.765  15.018  25.264  1.00  0.00    -0.258 OA
ENDBRANCH  17  18
ENDBRANCH  10  12
ENDBRANCH   7   8
BRANCH   7  21
ATOM     21  C   UNL A   1      33.275  22.501  25.638  1.00  0.00     0.131 C 
ATOM     22  C   UNL A   1      33.438  23.953  26.108  1.00  0.00     0.035 C 
ATOM     23  O   UNL A   1      31.972  22.100  26.059  1.00  0.00    -0.377 OA
ATOM     24  C   UNL A   1      32.043  24.384  26.496  1.00  0.00     0.031 C 
ATOM     25  C   UNL A   1      31.426  23.084  26.938  1.00  0.00     0.160 C 
ENDBRANCH   7  21
ENDBRANCH   6   7
ENDBRANCH   4   6
ENDBRANCH   3   4
ENDBRANCH   2   3
ENDBRANCH   1   2
BRANCH   1  26
ATOM     26  O   UNL A   1      37.686  20.167  24.624  1.00  0.00    -0.374 OA
BRANCH  26  27
ATOM     27  C   UNL A   1      38.303  19.132  25.391  1.00  0.00     0.202 C 
BRANCH  27  28
ATOM     28  C   UNL A   1      39.778  19.251  25.786  1.00  0.00     0.261 C 
BRANCH  28  29
ATOM     29  O   UNL A   1      40.291  20.595  25.721  1.00  0.00    -0.460 OA
BRANCH  29  30
ATOM     30  C   UNL A   1      41.368  20.820  26.505  1.00  0.00     0.338 C 
ATOM     31  O   UNL A   1      42.402  20.168  26.547  1.00  0.00    -0.246 OA
BRANCH  30  32
ATOM     32  C   UNL A   1      41.230  22.066  27.275  1.00  0.00     0.060 A 
ATOM     33  C   UNL A   1      40.492  23.102  26.690  1.00  0.00     0.016 A 
ATOM     34  C   UNL A   1      42.003  22.293  28.416  1.00  0.00     0.016 A 
ATOM     35  C   UNL A   1      40.611  24.398  27.180  1.00  0.00     0.010 A 
ATOM     36  C   UNL A   1      42.131  23.600  28.901  1.00  0.00     0.010 A 
ATOM     37  C   UNL A   1      41.494  24.663  28.236  1.00  0.00    -0.014 A 
BRANCH  37  38
ATOM     38  C   UNL A   1      41.954  26.061  28.429  1.00  0.00     0.031 A 
ATOM     39  C   UNL A   1      43.282  26.460  27.838  1.00  0.00     0.074 A 
ATOM     40  C   UNL A   1      41.183  26.975  29.040  1.00  0.00     0.049 A 
ATOM     41  N   UNL A   1      43.867  27.631  27.815  1.00  0.00    -0.248 NA
ATOM     42  C   UNL A   1      44.054  25.392  27.179  1.00  0.00     0.031 C 
ATOM     43  C   UNL A   1      39.866  26.721  29.615  1.00  0.00     0.029 A 
ATOM     44  N   UNL A   1      41.403  28.310  29.265  1.00  0.00    -0.354 N 
ATOM     45  C   UNL A   1      45.069  27.439  27.143  1.00  0.00     0.074 A 
ATOM     46  C   UNL A   1      45.145  26.037  26.799  1.00  0.00     0.031 C 
ATOM     47  C   UNL A   1      39.390  27.870  30.129  1.00  0.00     0.029 A 
ATOM     48  C   UNL A   1      40.376  28.931  29.930  1.00  0.00     0.049 A 
ATOM     49  H   UNL A   1      42.221  28.778  28.978  1.00  0.00     0.167 HD
ATOM     50  C   UNL A   1      46.019  28.350  26.829  1.00  0.00     0.037 A 
ATOM     51  C   UNL A   1      40.253  30.212  30.328  1.00  0.00     0.037 A 
ATOM     52  C   UNL A   1      45.946  29.746  27.165  1.00  0.00     0.049 A 
ATOM     53  C   UNL A   1      41.346  31.199  30.006  1.00  0.00     0.074 A 
ATOM     54  C   UNL A   1      46.855  30.752  26.887  1.00  0.00     0.029 A 
ATOM     55  N   UNL A   1      44.900  30.330  27.861  1.00  0.00    -0.354 N 
ATOM     56  N   UNL A   1      42.462  31.016  29.342  1.00  0.00    -0.248 NA
ATOM     57  C   UNL A   1      41.155  32.576  30.483  1.00  0.00     0.031 C 
ATOM     58  C   UNL A   1      46.373  31.941  27.446  1.00  0.00     0.029 A 
ATOM     59  C   UNL A   1      45.146  31.682  28.036  1.00  0.00     0.049 A 
ATOM     60  H   UNL A   1      44.100  29.856  28.184  1.00  0.00     0.167 HD
ATOM     61  C   UNL A   1      43.084  32.256  29.288  1.00  0.00     0.074 A 
ATOM     62  C   UNL A   1      42.221  33.187  29.985  1.00  0.00     0.031 C 
ATOM     63  C   UNL A   1      44.263  32.596  28.710  1.00  0.00     0.037 A 
BRANCH  50  64
ATOM     64  C   UNL A   1      47.234  27.853  26.104  1.00  0.00     0.064 A 
ATOM     65  C   UNL A   1      48.385  27.446  26.793  1.00  0.00     0.173 A 
ATOM     66  C   UNL A   1      47.242  27.775  24.703  1.00  0.00     0.173 A 
ATOM     67  F   UNL A   1      48.432  27.519  28.131  1.00  0.00    -0.203 F 
ATOM     68  C   UNL A   1      49.510  27.000  26.104  1.00  0.00     0.198 A 
ATOM     69  C   UNL A   1      48.360  27.308  24.019  1.00  0.00     0.198 A 
ATOM     70  F   UNL A   1      46.164  28.153  23.999  1.00  0.00    -0.203 F 
ATOM     71  F   UNL A   1      50.617  26.657  26.779  1.00  0.00    -0.200 F 
ATOM     72  C   UNL A   1      49.495  26.927  24.719  1.00  0.00     0.200 A 
ATOM     73  F   UNL A   1      48.341  27.231  22.681  1.00  0.00    -0.200 F 
ATOM     74  F   UNL A   1      50.579  26.499  24.057  1.00  0.00    -0.200 F 
ENDBRANCH  50  64
BRANCH  51  75
ATOM     75  C   UNL A   1      39.037  30.647  31.060  1.00  0.00     0.064 A 
ATOM     76  C   UNL A   1      37.933  31.173  30.376  1.00  0.00     0.173 A 
ATOM     77  C   UNL A   1      38.963  30.563  32.457  1.00  0.00     0.173 A 
ATOM     78  F   UNL A   1      37.968  31.294  29.040  1.00  0.00    -0.203 F 
ATOM     79  C   UNL A   1      36.805  31.614  31.064  1.00  0.00     0.198 A 
ATOM     80  C   UNL A   1      37.825  30.984  33.143  1.00  0.00     0.198 A 
ATOM     81  F   UNL A   1      39.995  30.069  33.156  1.00  0.00    -0.203 F 
ATOM     82  F   UNL A   1      35.778  32.150  30.389  1.00  0.00    -0.200 F 
ATOM     83  C   UNL A   1      36.750  31.515  32.446  1.00  0.00     0.200 A 
ATOM     84  F   UNL A   1      37.771  30.879  34.477  1.00  0.00    -0.200 F 
ATOM     85  F   UNL A   1      35.664  31.939  33.107  1.00  0.00    -0.200 F 
ENDBRANCH  51  75
BRANCH  63  86
ATOM     86  C   UNL A   1      44.663  34.041  28.759  1.00  0.00     0.064 A 
ATOM     87  C   UNL A   1      45.477  34.547  29.782  1.00  0.00     0.173 A 
ATOM     88  C   UNL A   1      44.256  34.919  27.743  1.00  0.00     0.173 A 
ATOM     89  F   UNL A   1      45.880  33.748  30.781  1.00  0.00    -0.203 F 
ATOM     90  C   UNL A   1      45.851  35.888  29.799  1.00  0.00     0.198 A 
ATOM     91  C   UNL A   1      44.652  36.254  27.751  1.00  0.00     0.198 A 
ATOM     92  F   UNL A   1      43.483  34.481  26.739  1.00  0.00    -0.203 F 
ATOM     93  F   UNL A   1      46.593  36.362  30.809  1.00  0.00    -0.200 F 
ATOM     94  C   UNL A   1      45.443  36.739  28.781  1.00  0.00     0.200 A 
ATOM     95  F   UNL A   1      44.266  37.072  26.762  1.00  0.00    -0.200 F 
ATOM     96  F   UNL A   1      45.806  38.029  28.800  1.00  0.00    -0.200 F 
ENDBRANCH  63  86
ENDBRANCH  37  38
ENDBRANCH  30  32
ENDBRANCH  29  30
ENDBRANCH  28  29
ENDBRANCH  27  28
ENDBRANCH  26  27
ENDBRANCH   1  26
TORSDOF 19
ENDMDL
