MODEL 1
REMARK VINA RESULT:     -12.0      0.000      0.000
REMARK SMILES Cc1ccc(Nc2c(Cl)cc(Cl)cc2Cl)c(CC(=O)OCCOCCOC(=O)c2ccc(-c3c4nc(c(-c5c(F)c(F)c(F)c(F)c5F)c5ccc([nH]5)c(-c5c(F)c(F)c(F)c(F)c5F)c5nc(c(-c6c(F)c(F)c(F)c(F)c6F)c6ccc3[nH]6)C=C5)C=C4)cc2)c1
REMARK SMILES IDX 22 1 21 2 20 3 18 4 19 5 17 6 16 7 1 8 2 9 3 10 92 11 4 12
REMARK SMILES IDX 5 13 6 14 7 16 8 17 14 18 9 19 10 20 13 21 15 22 11 23 12 24
REMARK SMILES IDX 23 25 24 26 25 27 26 28 27 29 28 30 29 31 30 32 91 33 31 34
REMARK SMILES IDX 90 35 32 36 33 37 34 38 84 39 35 40 89 41 83 42 85 43 36 44
REMARK SMILES IDX 88 45 82 46 81 47 37 49 69 50 49 51 68 52 50 53 53 54 67 55
REMARK SMILES IDX 86 56 51 57 52 58 66 60 87 61 54 62 38 63 39 64 47 65 40 66
REMARK SMILES IDX 41 67 45 68 48 69 42 70 43 71 46 72 44 73 70 74 71 75 79 76
REMARK SMILES IDX 72 77 73 78 77 79 80 80 74 81 75 82 78 83 76 84 55 85 56 86
REMARK SMILES IDX 64 87 57 88 58 89 62 90 65 91 59 92 60 93 63 94 61 95
REMARK H PARENT 6 15 85 48 53 59
REMARK Flexibility Score: inf
ROOT
ATOM      1  C   UNL A   1      33.845  28.601  25.615  1.00  0.00     0.202 C 
ENDROOT
BRANCH   1   2
ATOM      2  C   UNL A   1      33.814  27.145  26.048  1.00  0.00     0.261 C 
BRANCH   2   3
ATOM      3  O   UNL A   1      33.602  26.261  24.960  1.00  0.00    -0.463 OA
BRANCH   3   4
ATOM      4  C   UNL A   1      34.276  25.070  24.923  1.00  0.00     0.310 C 
ATOM      5  O   UNL A   1      34.957  24.645  24.001  1.00  0.00    -0.252 OA
BRANCH   4   6
ATOM      6  C   UNL A   1      34.034  24.297  26.211  1.00  0.00     0.160 C 
BRANCH   6   7
ATOM      7  C   UNL A   1      34.572  22.883  26.071  1.00  0.00    -0.013 A 
ATOM      8  C   UNL A   1      38.146  21.711  25.372  1.00  0.00     0.044 C 
ATOM      9  C   UNL A   1      36.654  21.701  25.527  1.00  0.00    -0.051 A 
ATOM     10  C   UNL A   1      35.891  20.650  25.034  1.00  0.00     0.005 A 
ATOM     11  C   UNL A   1      35.990  22.777  26.111  1.00  0.00     0.009 A 
ATOM     12  C   UNL A   1      34.490  20.708  25.069  1.00  0.00     0.026 A 
ATOM     13  C   UNL A   1      33.789  21.828  25.559  1.00  0.00     0.042 A 
BRANCH  13  14
ATOM     14  N   UNL A   1      32.369  21.899  25.497  1.00  0.00    -0.353 N 
ATOM     15  H   UNL A   1      31.886  21.164  25.940  1.00  0.00     0.167 HD
BRANCH  14  16
ATOM     16  C   UNL A   1      31.550  22.889  24.881  1.00  0.00     0.076 A 
ATOM     17  C   UNL A   1      31.708  23.270  23.534  1.00  0.00     0.067 A 
ATOM     18  C   UNL A   1      30.651  23.661  25.649  1.00  0.00     0.067 A 
ATOM     19  Cl  UNL A   1      32.462  22.222  22.377  1.00  0.00    -0.082 Cl
ATOM     20  C   UNL A   1      31.181  24.470  23.051  1.00  0.00     0.043 A 
ATOM     21  C   UNL A   1      30.166  24.891  25.192  1.00  0.00     0.043 A 
ATOM     22  Cl  UNL A   1      30.022  23.080  27.152  1.00  0.00    -0.082 Cl
ATOM     23  C   UNL A   1      30.468  25.305  23.902  1.00  0.00     0.044 A 
ATOM     24  Cl  UNL A   1      29.905  26.825  23.333  1.00  0.00    -0.084 Cl
ENDBRANCH  14  16
ENDBRANCH  13  14
ENDBRANCH   6   7
ENDBRANCH   4   6
ENDBRANCH   3   4
ENDBRANCH   2   3
ENDBRANCH   1   2
BRANCH   1  25
ATOM     25  O   UNL A   1      32.564  29.164  25.811  1.00  0.00    -0.374 OA
BRANCH  25  26
ATOM     26  C   UNL A   1      32.378  29.786  27.071  1.00  0.00     0.202 C 
BRANCH  26  27
ATOM     27  C   UNL A   1      33.110  31.128  27.104  1.00  0.00     0.261 C 
BRANCH  27  28
ATOM     28  O   UNL A   1      33.879  31.263  28.320  1.00  0.00    -0.460 OA
BRANCH  28  29
ATOM     29  C   UNL A   1      35.198  31.530  28.117  1.00  0.00     0.338 C 
ATOM     30  O   UNL A   1      35.635  32.590  27.682  1.00  0.00    -0.246 OA
BRANCH  29  31
ATOM     31  C   UNL A   1      36.005  30.289  28.273  1.00  0.00     0.060 A 
ATOM     32  C   UNL A   1      36.146  29.735  29.558  1.00  0.00     0.016 A 
ATOM     33  C   UNL A   1      36.887  29.936  27.254  1.00  0.00     0.016 A 
ATOM     34  C   UNL A   1      37.288  28.994  29.873  1.00  0.00     0.010 A 
ATOM     35  C   UNL A   1      38.072  29.321  27.606  1.00  0.00     0.010 A 
ATOM     36  C   UNL A   1      38.300  28.885  28.923  1.00  0.00    -0.014 A 
BRANCH  36  37
ATOM     37  C   UNL A   1      39.675  28.463  29.195  1.00  0.00     0.031 A 
ATOM     38  C   UNL A   1      40.087  27.088  28.857  1.00  0.00     0.074 A 
ATOM     39  C   UNL A   1      40.630  29.371  29.501  1.00  0.00     0.049 A 
ATOM     40  N   UNL A   1      41.274  26.638  29.063  1.00  0.00    -0.248 NA
ATOM     41  C   UNL A   1      39.190  26.068  28.318  1.00  0.00     0.031 C 
ATOM     42  C   UNL A   1      42.069  29.307  29.217  1.00  0.00     0.029 A 
ATOM     43  N   UNL A   1      40.509  30.598  30.123  1.00  0.00    -0.354 N 
ATOM     44  C   UNL A   1      41.398  25.457  28.387  1.00  0.00     0.074 A 
ATOM     45  C   UNL A   1      40.048  25.074  28.061  1.00  0.00     0.031 C 
ATOM     46  C   UNL A   1      42.698  30.320  29.836  1.00  0.00     0.029 A 
ATOM     47  C   UNL A   1      41.725  30.977  30.687  1.00  0.00     0.049 A 
ATOM     48  H   UNL A   1      39.680  31.128  30.165  1.00  0.00     0.167 HD
ATOM     49  C   UNL A   1      42.656  25.025  28.103  1.00  0.00     0.037 A 
ATOM     50  C   UNL A   1      41.851  31.185  32.030  1.00  0.00     0.037 A 
ATOM     51  C   UNL A   1      43.656  25.797  28.862  1.00  0.00     0.049 A 
ATOM     52  C   UNL A   1      42.607  30.027  32.668  1.00  0.00     0.074 A 
ATOM     53  C   UNL A   1      44.629  26.734  28.565  1.00  0.00     0.029 A 
ATOM     54  N   UNL A   1      43.518  25.836  30.243  1.00  0.00    -0.354 N 
ATOM     55  N   UNL A   1      43.148  29.062  31.972  1.00  0.00    -0.248 NA
ATOM     56  C   UNL A   1      42.773  29.812  34.101  1.00  0.00     0.031 C 
ATOM     57  C   UNL A   1      45.017  27.371  29.795  1.00  0.00     0.029 A 
ATOM     58  C   UNL A   1      44.319  26.788  30.841  1.00  0.00     0.049 A 
ATOM     59  H   UNL A   1      42.910  25.247  30.745  1.00  0.00     0.167 HD
ATOM     60  C   UNL A   1      43.656  28.101  32.785  1.00  0.00     0.074 A 
ATOM     61  C   UNL A   1      43.382  28.610  34.122  1.00  0.00     0.031 C 
ATOM     62  C   UNL A   1      44.240  26.965  32.292  1.00  0.00     0.037 A 
BRANCH  49  63
ATOM     63  C   UNL A   1      43.000  23.971  27.080  1.00  0.00     0.064 A 
ATOM     64  C   UNL A   1      42.662  22.623  27.321  1.00  0.00     0.173 A 
ATOM     65  C   UNL A   1      43.741  24.191  25.895  1.00  0.00     0.173 A 
ATOM     66  F   UNL A   1      41.973  22.268  28.415  1.00  0.00    -0.203 F 
ATOM     67  C   UNL A   1      43.032  21.590  26.452  1.00  0.00     0.198 A 
ATOM     68  C   UNL A   1      44.061  23.165  25.001  1.00  0.00     0.198 A 
ATOM     69  F   UNL A   1      44.240  25.390  25.576  1.00  0.00    -0.203 F 
ATOM     70  F   UNL A   1      42.726  20.322  26.760  1.00  0.00    -0.200 F 
ATOM     71  C   UNL A   1      43.719  21.862  25.286  1.00  0.00     0.200 A 
ATOM     72  F   UNL A   1      44.730  23.451  23.875  1.00  0.00    -0.200 F 
ATOM     73  F   UNL A   1      44.067  20.874  24.451  1.00  0.00    -0.200 F 
ENDBRANCH  49  63
BRANCH  50  74
ATOM     74  C   UNL A   1      40.662  31.937  32.540  1.00  0.00     0.064 A 
ATOM     75  C   UNL A   1      40.551  33.268  32.068  1.00  0.00     0.173 A 
ATOM     76  C   UNL A   1      39.475  31.266  32.861  1.00  0.00     0.173 A 
ATOM     77  F   UNL A   1      41.657  33.953  31.735  1.00  0.00    -0.203 F 
ATOM     78  C   UNL A   1      39.316  33.801  31.703  1.00  0.00     0.198 A 
ATOM     79  C   UNL A   1      38.236  31.824  32.524  1.00  0.00     0.198 A 
ATOM     80  F   UNL A   1      39.513  29.997  33.291  1.00  0.00    -0.203 F 
ATOM     81  F   UNL A   1      39.264  34.954  31.020  1.00  0.00    -0.200 F 
ATOM     82  C   UNL A   1      38.165  33.059  31.891  1.00  0.00     0.200 A 
ATOM     83  F   UNL A   1      37.120  31.092  32.660  1.00  0.00    -0.200 F 
ATOM     84  F   UNL A   1      37.003  33.483  31.373  1.00  0.00    -0.200 F 
ENDBRANCH  50  74
BRANCH  62  85
ATOM     85  C   UNL A   1      44.762  25.894  33.203  1.00  0.00     0.064 A 
ATOM     86  C   UNL A   1      46.111  25.511  33.194  1.00  0.00     0.173 A 
ATOM     87  C   UNL A   1      43.921  25.181  34.083  1.00  0.00     0.173 A 
ATOM     88  F   UNL A   1      46.968  26.038  32.306  1.00  0.00    -0.203 F 
ATOM     89  C   UNL A   1      46.610  24.580  34.102  1.00  0.00     0.198 A 
ATOM     90  C   UNL A   1      44.408  24.194  34.932  1.00  0.00     0.198 A 
ATOM     91  F   UNL A   1      42.610  25.443  34.183  1.00  0.00    -0.203 F 
ATOM     92  F   UNL A   1      47.927  24.333  34.140  1.00  0.00    -0.200 F 
ATOM     93  C   UNL A   1      45.760  23.921  34.971  1.00  0.00     0.200 A 
ATOM     94  F   UNL A   1      43.561  23.532  35.734  1.00  0.00    -0.200 F 
ATOM     95  F   UNL A   1      46.241  23.032  35.848  1.00  0.00    -0.200 F 
ENDBRANCH  62  85
ENDBRANCH  36  37
ENDBRANCH  29  31
ENDBRANCH  28  29
ENDBRANCH  27  28
ENDBRANCH  26  27
ENDBRANCH  25  26
ENDBRANCH   1  25
TORSDOF 17
ENDMDL
MODEL 2
REMARK VINA RESULT:     -11.8      3.189      8.817
REMARK SMILES Cc1ccc(Nc2c(Cl)cc(Cl)cc2Cl)c(CC(=O)OCCOCCOC(=O)c2ccc(-c3c4nc(c(-c5c(F)c(F)c(F)c(F)c5F)c5ccc([nH]5)c(-c5c(F)c(F)c(F)c(F)c5F)c5nc(c(-c6c(F)c(F)c(F)c(F)c6F)c6ccc3[nH]6)C=C5)C=C4)cc2)c1
REMARK SMILES IDX 22 1 21 2 20 3 18 4 19 5 17 6 16 7 1 8 2 9 3 10 92 11 4 12
REMARK SMILES IDX 5 13 6 14 7 16 8 17 14 18 9 19 10 20 13 21 15 22 11 23 12 24
REMARK SMILES IDX 23 25 24 26 25 27 26 28 27 29 28 30 29 31 30 32 91 33 31 34
REMARK SMILES IDX 90 35 32 36 33 37 34 38 84 39 35 40 89 41 83 42 85 43 36 44
REMARK SMILES IDX 88 45 82 46 81 47 37 49 69 50 49 51 68 52 50 53 53 54 67 55
REMARK SMILES IDX 86 56 51 57 52 58 66 60 87 61 54 62 38 63 39 64 47 65 40 66
REMARK SMILES IDX 41 67 45 68 48 69 42 70 43 71 46 72 44 73 70 74 71 75 79 76
REMARK SMILES IDX 72 77 73 78 77 79 80 80 74 81 75 82 78 83 76 84 55 85 56 86
REMARK SMILES IDX 64 87 57 88 58 89 62 90 65 91 59 92 60 93 63 94 61 95
REMARK H PARENT 6 15 85 48 53 59
REMARK Flexibility Score: inf
ROOT
ATOM      1  C   UNL A   1      35.359  23.202  23.961  1.00  0.00     0.202 C 
ENDROOT
BRANCH   1   2
ATOM      2  C   UNL A   1      35.196  24.297  25.002  1.00  0.00     0.261 C 
BRANCH   2   3
ATOM      3  O   UNL A   1      33.841  24.503  25.364  1.00  0.00    -0.463 OA
BRANCH   3   4
ATOM      4  C   UNL A   1      33.254  23.667  26.273  1.00  0.00     0.310 C 
ATOM      5  O   UNL A   1      33.785  23.165  27.254  1.00  0.00    -0.252 OA
BRANCH   4   6
ATOM      6  C   UNL A   1      31.808  23.403  25.877  1.00  0.00     0.160 C 
BRANCH   6   7
ATOM      7  C   UNL A   1      31.754  22.297  24.836  1.00  0.00    -0.013 A 
ATOM      8  C   UNL A   1      33.624  18.961  24.749  1.00  0.00     0.044 C 
ATOM      9  C   UNL A   1      32.810  20.144  24.312  1.00  0.00    -0.051 A 
ATOM     10  C   UNL A   1      32.566  20.387  22.967  1.00  0.00     0.005 A 
ATOM     11  C   UNL A   1      32.335  21.064  25.243  1.00  0.00     0.009 A 
ATOM     12  C   UNL A   1      31.915  21.562  22.562  1.00  0.00     0.026 A 
ATOM     13  C   UNL A   1      31.515  22.561  23.472  1.00  0.00     0.042 A 
BRANCH  13  14
ATOM     14  N   UNL A   1      30.941  23.784  23.024  1.00  0.00    -0.353 N 
ATOM     15  H   UNL A   1      29.985  23.746  22.791  1.00  0.00     0.167 HD
BRANCH  14  16
ATOM     16  C   UNL A   1      31.562  25.057  22.869  1.00  0.00     0.076 A 
ATOM     17  C   UNL A   1      32.688  25.254  22.047  1.00  0.00     0.067 A 
ATOM     18  C   UNL A   1      31.175  26.151  23.675  1.00  0.00     0.067 A 
ATOM     19  Cl  UNL A   1      33.060  24.174  20.742  1.00  0.00    -0.082 Cl
ATOM     20  C   UNL A   1      33.503  26.381  22.186  1.00  0.00     0.043 A 
ATOM     21  C   UNL A   1      32.013  27.255  23.862  1.00  0.00     0.043 A 
ATOM     22  Cl  UNL A   1      29.603  26.229  24.392  1.00  0.00    -0.082 Cl
ATOM     23  C   UNL A   1      33.195  27.342  23.140  1.00  0.00     0.044 A 
ATOM     24  Cl  UNL A   1      34.252  28.676  23.379  1.00  0.00    -0.084 Cl
ENDBRANCH  14  16
ENDBRANCH  13  14
ENDBRANCH   6   7
ENDBRANCH   4   6
ENDBRANCH   3   4
ENDBRANCH   2   3
ENDBRANCH   1   2
BRANCH   1  25
ATOM     25  O   UNL A   1      35.886  22.050  24.587  1.00  0.00    -0.374 OA
BRANCH  25  26
ATOM     26  C   UNL A   1      37.282  21.874  24.422  1.00  0.00     0.202 C 
BRANCH  26  27
ATOM     27  C   UNL A   1      37.973  21.870  25.786  1.00  0.00     0.261 C 
BRANCH  27  28
ATOM     28  O   UNL A   1      39.380  22.169  25.650  1.00  0.00    -0.460 OA
BRANCH  28  29
ATOM     29  C   UNL A   1      39.947  22.700  26.767  1.00  0.00     0.338 C 
ATOM     30  O   UNL A   1      40.494  22.045  27.648  1.00  0.00    -0.246 OA
BRANCH  29  31
ATOM     31  C   UNL A   1      39.607  24.144  26.881  1.00  0.00     0.060 A 
ATOM     32  C   UNL A   1      40.354  25.073  26.135  1.00  0.00     0.016 A 
ATOM     33  C   UNL A   1      38.848  24.565  27.972  1.00  0.00     0.016 A 
ATOM     34  C   UNL A   1      40.506  26.380  26.606  1.00  0.00     0.010 A 
ATOM     35  C   UNL A   1      39.110  25.813  28.501  1.00  0.00     0.010 A 
ATOM     36  C   UNL A   1      39.972  26.712  27.847  1.00  0.00    -0.014 A 
BRANCH  36  37
ATOM     37  C   UNL A   1      40.328  27.893  28.634  1.00  0.00     0.031 A 
ATOM     38  C   UNL A   1      39.421  29.057  28.640  1.00  0.00     0.074 A 
ATOM     39  C   UNL A   1      41.323  27.842  29.549  1.00  0.00     0.049 A 
ATOM     40  N   UNL A   1      39.658  30.132  29.302  1.00  0.00    -0.248 NA
ATOM     41  C   UNL A   1      38.195  29.149  27.849  1.00  0.00     0.031 C 
ATOM     42  C   UNL A   1      41.450  28.603  30.797  1.00  0.00     0.029 A 
ATOM     43  N   UNL A   1      42.453  27.049  29.574  1.00  0.00    -0.354 N 
ATOM     44  C   UNL A   1      38.511  30.874  29.324  1.00  0.00     0.074 A 
ATOM     45  C   UNL A   1      37.680  30.299  28.298  1.00  0.00     0.031 C 
ATOM     46  C   UNL A   1      42.664  28.393  31.335  1.00  0.00     0.029 A 
ATOM     47  C   UNL A   1      43.435  27.630  30.373  1.00  0.00     0.049 A 
ATOM     48  H   UNL A   1      42.552  26.195  29.093  1.00  0.00     0.167 HD
ATOM     49  C   UNL A   1      38.390  31.814  30.300  1.00  0.00     0.037 A 
ATOM     50  C   UNL A   1      44.648  27.987  29.859  1.00  0.00     0.037 A 
ATOM     51  C   UNL A   1      39.682  32.040  30.970  1.00  0.00     0.049 A 
ATOM     52  C   UNL A   1      44.727  29.501  29.713  1.00  0.00     0.074 A 
ATOM     53  C   UNL A   1      40.220  31.778  32.217  1.00  0.00     0.029 A 
ATOM     54  N   UNL A   1      40.763  32.390  30.170  1.00  0.00    -0.354 N 
ATOM     55  N   UNL A   1      43.795  30.307  30.147  1.00  0.00    -0.248 NA
ATOM     56  C   UNL A   1      45.792  30.232  29.035  1.00  0.00     0.031 C 
ATOM     57  C   UNL A   1      41.648  31.919  32.120  1.00  0.00     0.029 A 
ATOM     58  C   UNL A   1      41.972  32.315  30.831  1.00  0.00     0.049 A 
ATOM     59  H   UNL A   1      40.675  32.662  29.229  1.00  0.00     0.167 HD
ATOM     60  C   UNL A   1      44.052  31.590  29.788  1.00  0.00     0.074 A 
ATOM     61  C   UNL A   1      45.317  31.492  29.071  1.00  0.00     0.031 C 
ATOM     62  C   UNL A   1      43.199  32.616  30.092  1.00  0.00     0.037 A 
BRANCH  49  63
ATOM     63  C   UNL A   1      37.095  32.468  30.716  1.00  0.00     0.064 A 
ATOM     64  C   UNL A   1      36.457  33.375  29.846  1.00  0.00     0.173 A 
ATOM     65  C   UNL A   1      36.479  32.331  31.982  1.00  0.00     0.173 A 
ATOM     66  F   UNL A   1      36.942  33.614  28.618  1.00  0.00    -0.203 F 
ATOM     67  C   UNL A   1      35.303  34.079  30.209  1.00  0.00     0.198 A 
ATOM     68  C   UNL A   1      35.296  32.993  32.322  1.00  0.00     0.198 A 
ATOM     69  F   UNL A   1      37.018  31.601  32.964  1.00  0.00    -0.203 F 
ATOM     70  F   UNL A   1      34.770  34.967  29.358  1.00  0.00    -0.200 F 
ATOM     71  C   UNL A   1      34.715  33.879  31.442  1.00  0.00     0.200 A 
ATOM     72  F   UNL A   1      34.742  32.784  33.526  1.00  0.00    -0.200 F 
ATOM     73  F   UNL A   1      33.606  34.547  31.788  1.00  0.00    -0.200 F 
ENDBRANCH  49  63
BRANCH  50  74
ATOM     74  C   UNL A   1      45.143  26.919  28.936  1.00  0.00     0.064 A 
ATOM     75  C   UNL A   1      45.003  27.212  27.557  1.00  0.00     0.173 A 
ATOM     76  C   UNL A   1      46.201  26.081  29.313  1.00  0.00     0.173 A 
ATOM     77  F   UNL A   1      44.013  28.018  27.143  1.00  0.00    -0.203 F 
ATOM     78  C   UNL A   1      46.009  26.888  26.647  1.00  0.00     0.198 A 
ATOM     79  C   UNL A   1      47.189  25.731  28.385  1.00  0.00     0.198 A 
ATOM     80  F   UNL A   1      46.400  25.786  30.605  1.00  0.00    -0.203 F 
ATOM     81  F   UNL A   1      45.975  27.401  25.408  1.00  0.00    -0.200 F 
ATOM     82  C   UNL A   1      47.122  26.187  27.074  1.00  0.00     0.200 A 
ATOM     83  F   UNL A   1      48.292  25.092  28.800  1.00  0.00    -0.200 F 
ATOM     84  F   UNL A   1      48.173  26.038  26.255  1.00  0.00    -0.200 F 
ENDBRANCH  50  74
BRANCH  62  85
ATOM     85  C   UNL A   1      43.479  34.023  29.654  1.00  0.00     0.064 A 
ATOM     86  C   UNL A   1      43.615  35.070  30.576  1.00  0.00     0.173 A 
ATOM     87  C   UNL A   1      43.573  34.381  28.292  1.00  0.00     0.173 A 
ATOM     88  F   UNL A   1      43.416  34.859  31.887  1.00  0.00    -0.203 F 
ATOM     89  C   UNL A   1      43.961  36.357  30.173  1.00  0.00     0.198 A 
ATOM     90  C   UNL A   1      43.841  35.685  27.888  1.00  0.00     0.198 A 
ATOM     91  F   UNL A   1      43.454  33.478  27.309  1.00  0.00    -0.203 F 
ATOM     92  F   UNL A   1      44.200  37.299  31.096  1.00  0.00    -0.200 F 
ATOM     93  C   UNL A   1      44.075  36.665  28.830  1.00  0.00     0.200 A 
ATOM     94  F   UNL A   1      43.899  35.974  26.580  1.00  0.00    -0.200 F 
ATOM     95  F   UNL A   1      44.416  37.900  28.443  1.00  0.00    -0.200 F 
ENDBRANCH  62  85
ENDBRANCH  36  37
ENDBRANCH  29  31
ENDBRANCH  28  29
ENDBRANCH  27  28
ENDBRANCH  26  27
ENDBRANCH  25  26
ENDBRANCH   1  25
TORSDOF 17
ENDMDL
MODEL 3
REMARK VINA RESULT:     -11.7      1.761      3.301
REMARK SMILES Cc1ccc(Nc2c(Cl)cc(Cl)cc2Cl)c(CC(=O)OCCOCCOC(=O)c2ccc(-c3c4nc(c(-c5c(F)c(F)c(F)c(F)c5F)c5ccc([nH]5)c(-c5c(F)c(F)c(F)c(F)c5F)c5nc(c(-c6c(F)c(F)c(F)c(F)c6F)c6ccc3[nH]6)C=C5)C=C4)cc2)c1
REMARK SMILES IDX 22 1 21 2 20 3 18 4 19 5 17 6 16 7 1 8 2 9 3 10 92 11 4 12
REMARK SMILES IDX 5 13 6 14 7 16 8 17 14 18 9 19 10 20 13 21 15 22 11 23 12 24
REMARK SMILES IDX 23 25 24 26 25 27 26 28 27 29 28 30 29 31 30 32 91 33 31 34
REMARK SMILES IDX 90 35 32 36 33 37 34 38 84 39 35 40 89 41 83 42 85 43 36 44
REMARK SMILES IDX 88 45 82 46 81 47 37 49 69 50 49 51 68 52 50 53 53 54 67 55
REMARK SMILES IDX 86 56 51 57 52 58 66 60 87 61 54 62 38 63 39 64 47 65 40 66
REMARK SMILES IDX 41 67 45 68 48 69 42 70 43 71 46 72 44 73 70 74 71 75 79 76
REMARK SMILES IDX 72 77 73 78 77 79 80 80 74 81 75 82 78 83 76 84 55 85 56 86
REMARK SMILES IDX 64 87 57 88 58 89 62 90 65 91 59 92 60 93 63 94 61 95
REMARK H PARENT 6 15 85 48 53 59
REMARK Flexibility Score: inf
ROOT
ATOM      1  C   UNL A   1      32.050  32.051  27.240  1.00  0.00     0.202 C 
ENDROOT
BRANCH   1   2
ATOM      2  C   UNL A   1      31.778  30.697  26.607  1.00  0.00     0.261 C 
BRANCH   2   3
ATOM      3  O   UNL A   1      32.515  29.654  27.221  1.00  0.00    -0.463 OA
BRANCH   3   4
ATOM      4  C   UNL A   1      32.073  28.364  27.109  1.00  0.00     0.310 C 
ATOM      5  O   UNL A   1      31.197  27.831  27.775  1.00  0.00    -0.252 OA
BRANCH   4   6
ATOM      6  C   UNL A   1      32.862  27.637  26.030  1.00  0.00     0.160 C 
BRANCH   6   7
ATOM      7  C   UNL A   1      31.915  27.128  24.956  1.00  0.00    -0.013 A 
ATOM      8  C   UNL A   1      29.110  28.977  23.126  1.00  0.00     0.044 C 
ATOM      9  C   UNL A   1      29.976  27.866  23.644  1.00  0.00    -0.051 A 
ATOM     10  C   UNL A   1      29.560  26.543  23.572  1.00  0.00     0.005 A 
ATOM     11  C   UNL A   1      31.189  28.141  24.269  1.00  0.00     0.009 A 
ATOM     12  C   UNL A   1      30.315  25.525  24.172  1.00  0.00     0.026 A 
ATOM     13  C   UNL A   1      31.494  25.783  24.902  1.00  0.00     0.042 A 
BRANCH  13  14
ATOM     14  N   UNL A   1      32.189  24.742  25.579  1.00  0.00    -0.353 N 
ATOM     15  H   UNL A   1      32.460  24.943  26.504  1.00  0.00     0.167 HD
BRANCH  14  16
ATOM     16  C   UNL A   1      32.546  23.449  25.100  1.00  0.00     0.076 A 
ATOM     17  C   UNL A   1      31.884  22.279  25.518  1.00  0.00     0.067 A 
ATOM     18  C   UNL A   1      33.703  23.266  24.311  1.00  0.00     0.067 A 
ATOM     19  Cl  UNL A   1      30.272  22.325  26.154  1.00  0.00    -0.082 Cl
ATOM     20  C   UNL A   1      32.461  21.017  25.351  1.00  0.00     0.043 A 
ATOM     21  C   UNL A   1      34.316  22.015  24.188  1.00  0.00     0.043 A 
ATOM     22  Cl  UNL A   1      34.366  24.560  23.373  1.00  0.00    -0.082 Cl
ATOM     23  C   UNL A   1      33.705  20.900  24.745  1.00  0.00     0.044 A 
ATOM     24  Cl  UNL A   1      34.457  19.360  24.629  1.00  0.00    -0.084 Cl
ENDBRANCH  14  16
ENDBRANCH  13  14
ENDBRANCH   6   7
ENDBRANCH   4   6
ENDBRANCH   3   4
ENDBRANCH   2   3
ENDBRANCH   1   2
BRANCH   1  25
ATOM     25  O   UNL A   1      33.432  32.157  27.517  1.00  0.00    -0.374 OA
BRANCH  25  26
ATOM     26  C   UNL A   1      33.759  33.050  28.566  1.00  0.00     0.202 C 
BRANCH  26  27
ATOM     27  C   UNL A   1      34.625  32.340  29.607  1.00  0.00     0.261 C 
BRANCH  27  28
ATOM     28  O   UNL A   1      35.242  31.161  29.043  1.00  0.00    -0.460 OA
BRANCH  28  29
ATOM     29  C   UNL A   1      36.544  31.332  28.685  1.00  0.00     0.338 C 
ATOM     30  O   UNL A   1      37.007  32.366  28.218  1.00  0.00    -0.246 OA
BRANCH  29  31
ATOM     31  C   UNL A   1      37.263  30.029  28.720  1.00  0.00     0.060 A 
ATOM     32  C   UNL A   1      37.333  29.332  29.940  1.00  0.00     0.016 A 
ATOM     33  C   UNL A   1      38.145  29.728  27.685  1.00  0.00     0.016 A 
ATOM     34  C   UNL A   1      38.416  28.485  30.193  1.00  0.00     0.010 A 
ATOM     35  C   UNL A   1      39.277  28.999  27.990  1.00  0.00     0.010 A 
ATOM     36  C   UNL A   1      39.442  28.410  29.256  1.00  0.00    -0.014 A 
BRANCH  36  37
ATOM     37  C   UNL A   1      40.779  27.868  29.505  1.00  0.00     0.031 A 
ATOM     38  C   UNL A   1      41.124  26.531  28.986  1.00  0.00     0.074 A 
ATOM     39  C   UNL A   1      41.772  28.661  29.967  1.00  0.00     0.049 A 
ATOM     40  N   UNL A   1      42.273  25.983  29.160  1.00  0.00    -0.248 NA
ATOM     41  C   UNL A   1      40.190  25.656  28.279  1.00  0.00     0.031 C 
ATOM     42  C   UNL A   1      43.215  28.548  29.720  1.00  0.00     0.029 A 
ATOM     43  N   UNL A   1      41.699  29.792  30.756  1.00  0.00    -0.354 N 
ATOM     44  C   UNL A   1      42.354  24.904  28.325  1.00  0.00     0.074 A 
ATOM     45  C   UNL A   1      40.998  24.657  27.907  1.00  0.00     0.031 C 
ATOM     46  C   UNL A   1      43.877  29.421  30.497  1.00  0.00     0.029 A 
ATOM     47  C   UNL A   1      42.912  30.011  31.404  1.00  0.00     0.049 A 
ATOM     48  H   UNL A   1      40.901  30.363  30.848  1.00  0.00     0.167 HD
ATOM     49  C   UNL A   1      43.596  24.439  28.021  1.00  0.00     0.037 A 
ATOM     50  C   UNL A   1      42.997  30.018  32.766  1.00  0.00     0.037 A 
ATOM     51  C   UNL A   1      44.608  25.031  28.912  1.00  0.00     0.049 A 
ATOM     52  C   UNL A   1      43.659  28.736  33.254  1.00  0.00     0.074 A 
ATOM     53  C   UNL A   1      45.645  25.937  28.782  1.00  0.00     0.029 A 
ATOM     54  N   UNL A   1      44.419  24.882  30.280  1.00  0.00    -0.354 N 
ATOM     55  N   UNL A   1      44.170  27.847  32.443  1.00  0.00    -0.248 NA
ATOM     56  C   UNL A   1      43.757  28.310  34.645  1.00  0.00     0.031 C 
ATOM     57  C   UNL A   1      46.022  26.368  30.102  1.00  0.00     0.029 A 
ATOM     58  C   UNL A   1      45.251  25.687  31.032  1.00  0.00     0.049 A 
ATOM     59  H   UNL A   1      43.759  24.267  30.673  1.00  0.00     0.167 HD
ATOM     60  C   UNL A   1      44.590  26.751  33.124  1.00  0.00     0.074 A 
ATOM     61  C   UNL A   1      44.294  27.081  34.512  1.00  0.00     0.031 C 
ATOM     62  C   UNL A   1      45.126  25.662  32.490  1.00  0.00     0.037 A 
BRANCH  49  63
ATOM     63  C   UNL A   1      43.918  23.521  26.867  1.00  0.00     0.064 A 
ATOM     64  C   UNL A   1      43.432  22.197  26.868  1.00  0.00     0.173 A 
ATOM     65  C   UNL A   1      44.770  23.836  25.783  1.00  0.00     0.173 A 
ATOM     66  F   UNL A   1      42.625  21.757  27.845  1.00  0.00    -0.203 F 
ATOM     67  C   UNL A   1      43.769  21.274  25.872  1.00  0.00     0.198 A 
ATOM     68  C   UNL A   1      45.060  22.929  24.760  1.00  0.00     0.198 A 
ATOM     69  F   UNL A   1      45.407  25.009  25.692  1.00  0.00    -0.203 F 
ATOM     70  F   UNL A   1      43.318  20.014  25.954  1.00  0.00    -0.200 F 
ATOM     71  C   UNL A   1      44.571  21.642  24.811  1.00  0.00     0.200 A 
ATOM     72  F   UNL A   1      45.843  23.308  23.739  1.00  0.00    -0.200 F 
ATOM     73  F   UNL A   1      44.888  20.761  23.853  1.00  0.00    -0.200 F 
ENDBRANCH  49  63
BRANCH  50  74
ATOM     74  C   UNL A   1      41.835  30.763  33.344  1.00  0.00     0.064 A 
ATOM     75  C   UNL A   1      41.857  32.163  33.125  1.00  0.00     0.173 A 
ATOM     76  C   UNL A   1      40.582  30.150  33.468  1.00  0.00     0.173 A 
ATOM     77  F   UNL A   1      43.031  32.799  32.988  1.00  0.00    -0.203 F 
ATOM     78  C   UNL A   1      40.693  32.858  32.801  1.00  0.00     0.198 A 
ATOM     79  C   UNL A   1      39.414  30.864  33.175  1.00  0.00     0.198 A 
ATOM     80  F   UNL A   1      40.495  28.825  33.652  1.00  0.00    -0.203 F 
ATOM     81  F   UNL A   1      40.775  34.117  32.345  1.00  0.00    -0.200 F 
ATOM     82  C   UNL A   1      39.479  32.195  32.783  1.00  0.00     0.200 A 
ATOM     83  F   UNL A   1      38.240  30.219  33.110  1.00  0.00    -0.200 F 
ATOM     84  F   UNL A   1      38.391  32.806  32.291  1.00  0.00    -0.200 F 
ENDBRANCH  50  74
BRANCH  62  85
ATOM     85  C   UNL A   1      45.549  24.442  33.253  1.00  0.00     0.064 A 
ATOM     86  C   UNL A   1      46.877  24.251  33.662  1.00  0.00     0.173 A 
ATOM     87  C   UNL A   1      44.651  23.398  33.561  1.00  0.00     0.173 A 
ATOM     88  F   UNL A   1      47.835  25.122  33.309  1.00  0.00    -0.203 F 
ATOM     89  C   UNL A   1      47.250  23.162  34.445  1.00  0.00     0.198 A 
ATOM     90  C   UNL A   1      45.043  22.272  34.275  1.00  0.00     0.198 A 
ATOM     91  F   UNL A   1      43.355  23.452  33.220  1.00  0.00    -0.203 F 
ATOM     92  F   UNL A   1      48.502  23.081  34.915  1.00  0.00    -0.200 F 
ATOM     93  C   UNL A   1      46.333  22.172  34.752  1.00  0.00     0.200 A 
ATOM     94  F   UNL A   1      44.153  21.300  34.521  1.00  0.00    -0.200 F 
ATOM     95  F   UNL A   1      46.690  21.129  35.512  1.00  0.00    -0.200 F 
ENDBRANCH  62  85
ENDBRANCH  36  37
ENDBRANCH  29  31
ENDBRANCH  28  29
ENDBRANCH  27  28
ENDBRANCH  26  27
ENDBRANCH  25  26
ENDBRANCH   1  25
TORSDOF 17
ENDMDL
