MODEL 1
REMARK VINA RESULT:     -11.7      0.000      0.000
REMARK SMILES O=C(OCCOCCOC(=O)c1cccnc1-c1ccccn1)c1ccc(-c2c3nc(c(-c4c(F)c(F)c(F)c(F)c4F)c4ccc([nH]4)c(-c4c(F)c(F)c(F)c(F)c4F)c4nc(c(-c5c(F)c(F)c(F)c(F)c5F)c5ccc2[nH]5)C=C4)C=C3)cc1
REMARK SMILES IDX 5 1 4 2 3 3 2 4 1 5 24 6 25 7 86 8 26 9 85 10 27 11 28 12
REMARK SMILES IDX 29 13 79 14 30 15 84 16 78 17 80 18 31 19 83 20 77 21 76 22
REMARK SMILES IDX 32 24 64 25 44 26 63 27 45 28 48 29 62 30 81 31 46 32 47 33
REMARK SMILES IDX 61 35 82 36 49 37 33 38 34 39 42 40 35 41 36 42 40 43 43 44
REMARK SMILES IDX 37 45 38 46 41 47 39 48 65 49 66 50 74 51 67 52 68 53 72 54
REMARK SMILES IDX 75 55 69 56 70 57 73 58 71 59 50 60 51 61 59 62 52 63 53 64
REMARK SMILES IDX 57 65 60 66 54 67 55 68 58 69 56 70 6 71 7 72 8 73 9 74
REMARK SMILES IDX 10 75 11 76 12 77 13 78 17 79 14 80 16 81 15 82 18 83 19 84
REMARK SMILES IDX 23 85 20 86 22 87 21 88
REMARK H PARENT 80 23 48 34
REMARK Flexibility Score: inf
ROOT
ATOM      1  C   UNL A   1      31.730  32.148  26.837  1.00  0.00     0.202 C 
ENDROOT
BRANCH   1   2
ATOM      2  C   UNL A   1      32.839  32.921  27.549  1.00  0.00     0.261 C 
BRANCH   2   3
ATOM      3  O   UNL A   1      32.385  34.203  28.016  1.00  0.00    -0.460 OA
BRANCH   3   4
ATOM      4  C   UNL A   1      32.997  34.928  28.988  1.00  0.00     0.338 C 
ATOM      5  O   UNL A   1      32.522  35.994  29.363  1.00  0.00    -0.246 OA
BRANCH   4   6
ATOM      6  C   UNL A   1      34.255  34.442  29.618  1.00  0.00     0.060 A 
ATOM      7  C   UNL A   1      34.248  33.627  30.744  1.00  0.00     0.016 A 
ATOM      8  C   UNL A   1      35.484  34.725  29.021  1.00  0.00     0.016 A 
ATOM      9  C   UNL A   1      35.398  33.201  31.364  1.00  0.00     0.010 A 
ATOM     10  C   UNL A   1      36.658  34.184  29.559  1.00  0.00     0.010 A 
ATOM     11  C   UNL A   1      36.608  33.414  30.733  1.00  0.00    -0.014 A 
BRANCH  11  12
ATOM     12  C   UNL A   1      37.804  32.821  31.346  1.00  0.00     0.031 A 
ATOM     13  C   UNL A   1      38.500  31.731  30.611  1.00  0.00     0.074 A 
ATOM     14  C   UNL A   1      38.277  33.324  32.501  1.00  0.00     0.049 A 
ATOM     15  N   UNL A   1      39.413  30.904  31.033  1.00  0.00    -0.248 NA
ATOM     16  C   UNL A   1      38.104  31.541  29.207  1.00  0.00     0.031 C 
ATOM     17  C   UNL A   1      37.740  34.496  33.203  1.00  0.00     0.029 A 
ATOM     18  N   UNL A   1      39.326  32.926  33.285  1.00  0.00    -0.354 N 
ATOM     19  C   UNL A   1      39.646  30.043  29.972  1.00  0.00     0.074 A 
ATOM     20  C   UNL A   1      38.793  30.460  28.881  1.00  0.00     0.031 C 
ATOM     21  C   UNL A   1      38.473  34.731  34.301  1.00  0.00     0.029 A 
ATOM     22  C   UNL A   1      39.449  33.662  34.439  1.00  0.00     0.049 A 
ATOM     23  H   UNL A   1      39.930  32.186  33.046  1.00  0.00     0.167 HD
ATOM     24  C   UNL A   1      40.488  28.986  29.946  1.00  0.00     0.037 A 
ATOM     25  C   UNL A   1      40.222  33.441  35.518  1.00  0.00     0.037 A 
ATOM     26  C   UNL A   1      41.322  28.634  31.063  1.00  0.00     0.049 A 
ATOM     27  C   UNL A   1      41.091  32.215  35.499  1.00  0.00     0.074 A 
ATOM     28  C   UNL A   1      42.176  27.560  31.208  1.00  0.00     0.029 A 
ATOM     29  N   UNL A   1      41.400  29.375  32.240  1.00  0.00    -0.354 N 
ATOM     30  N   UNL A   1      41.239  31.323  34.546  1.00  0.00    -0.248 NA
ATOM     31  C   UNL A   1      41.879  31.945  36.706  1.00  0.00     0.031 C 
ATOM     32  C   UNL A   1      42.737  27.628  32.489  1.00  0.00     0.029 A 
ATOM     33  C   UNL A   1      42.281  28.777  33.121  1.00  0.00     0.049 A 
ATOM     34  H   UNL A   1      40.900  30.205  32.418  1.00  0.00     0.167 HD
ATOM     35  C   UNL A   1      42.153  30.398  35.023  1.00  0.00     0.074 A 
ATOM     36  C   UNL A   1      42.531  30.846  36.352  1.00  0.00     0.031 C 
ATOM     37  C   UNL A   1      42.636  29.281  34.427  1.00  0.00     0.037 A 
BRANCH  24  38
ATOM     38  C   UNL A   1      40.444  28.117  28.726  1.00  0.00     0.064 A 
ATOM     39  C   UNL A   1      39.713  26.919  28.682  1.00  0.00     0.173 A 
ATOM     40  C   UNL A   1      41.221  28.448  27.605  1.00  0.00     0.173 A 
ATOM     41  F   UNL A   1      38.981  26.537  29.740  1.00  0.00    -0.203 F 
ATOM     42  C   UNL A   1      39.802  26.064  27.586  1.00  0.00     0.198 A 
ATOM     43  C   UNL A   1      41.282  27.606  26.497  1.00  0.00     0.198 A 
ATOM     44  F   UNL A   1      41.949  29.574  27.595  1.00  0.00    -0.203 F 
ATOM     45  F   UNL A   1      39.166  24.885  27.606  1.00  0.00    -0.200 F 
ATOM     46  C   UNL A   1      40.584  26.409  26.495  1.00  0.00     0.200 A 
ATOM     47  F   UNL A   1      42.037  27.943  25.443  1.00  0.00    -0.200 F 
ATOM     48  F   UNL A   1      40.685  25.575  25.450  1.00  0.00    -0.200 F 
ENDBRANCH  24  38
BRANCH  25  49
ATOM     49  C   UNL A   1      40.146  34.346  36.696  1.00  0.00     0.064 A 
ATOM     50  C   UNL A   1      40.972  35.474  36.795  1.00  0.00     0.173 A 
ATOM     51  C   UNL A   1      39.235  34.117  37.740  1.00  0.00     0.173 A 
ATOM     52  F   UNL A   1      41.872  35.730  35.835  1.00  0.00    -0.203 F 
ATOM     53  C   UNL A   1      40.898  36.328  37.895  1.00  0.00     0.198 A 
ATOM     54  C   UNL A   1      39.140  34.989  38.823  1.00  0.00     0.198 A 
ATOM     55  F   UNL A   1      38.418  33.054  37.699  1.00  0.00    -0.203 F 
ATOM     56  F   UNL A   1      41.728  37.376  37.982  1.00  0.00    -0.200 F 
ATOM     57  C   UNL A   1      39.977  36.089  38.904  1.00  0.00     0.200 A 
ATOM     58  F   UNL A   1      38.236  34.762  39.786  1.00  0.00    -0.200 F 
ATOM     59  F   UNL A   1      39.901  36.916  39.956  1.00  0.00    -0.200 F 
ENDBRANCH  25  49
BRANCH  37  60
ATOM     60  C   UNL A   1      43.671  28.508  35.185  1.00  0.00     0.064 A 
ATOM     61  C   UNL A   1      45.040  28.748  35.018  1.00  0.00     0.173 A 
ATOM     62  C   UNL A   1      43.272  27.564  36.143  1.00  0.00     0.173 A 
ATOM     63  F   UNL A   1      45.466  29.629  34.100  1.00  0.00    -0.203 F 
ATOM     64  C   UNL A   1      45.980  28.057  35.777  1.00  0.00     0.198 A 
ATOM     65  C   UNL A   1      44.212  26.899  36.922  1.00  0.00     0.198 A 
ATOM     66  F   UNL A   1      41.969  27.308  36.339  1.00  0.00    -0.203 F 
ATOM     67  F   UNL A   1      47.287  28.270  35.577  1.00  0.00    -0.200 F 
ATOM     68  C   UNL A   1      45.564  27.142  36.735  1.00  0.00     0.200 A 
ATOM     69  F   UNL A   1      43.807  26.030  37.858  1.00  0.00    -0.200 F 
ATOM     70  F   UNL A   1      46.469  26.493  37.479  1.00  0.00    -0.200 F 
ENDBRANCH  37  60
ENDBRANCH  11  12
ENDBRANCH   4   6
ENDBRANCH   3   4
ENDBRANCH   2   3
ENDBRANCH   1   2
BRANCH   1  71
ATOM     71  O   UNL A   1      31.850  30.734  26.867  1.00  0.00    -0.374 OA
BRANCH  71  72
ATOM     72  C   UNL A   1      33.154  30.207  26.687  1.00  0.00     0.202 C 
BRANCH  72  73
ATOM     73  C   UNL A   1      33.156  29.371  25.413  1.00  0.00     0.261 C 
BRANCH  73  74
ATOM     74  O   UNL A   1      31.939  29.627  24.686  1.00  0.00    -0.460 OA
BRANCH  74  75
ATOM     75  C   UNL A   1      31.763  28.965  23.504  1.00  0.00     0.340 C 
ATOM     76  O   UNL A   1      32.481  29.020  22.525  1.00  0.00    -0.246 OA
BRANCH  75  77
ATOM     77  C   UNL A   1      30.536  28.151  23.662  1.00  0.00     0.088 A 
ATOM     78  C   UNL A   1      30.714  26.812  24.058  1.00  0.00     0.019 A 
ATOM     79  C   UNL A   1      29.244  28.583  23.339  1.00  0.00     0.103 A 
ATOM     80  C   UNL A   1      29.630  25.948  24.125  1.00  0.00     0.021 A 
ATOM     81  N   UNL A   1      28.179  27.721  23.403  1.00  0.00    -0.254 NA
ATOM     82  C   UNL A   1      28.389  26.450  23.800  1.00  0.00     0.112 A 
BRANCH  79  83
ATOM     83  C   UNL A   1      28.863  29.890  22.766  1.00  0.00     0.089 A 
ATOM     84  C   UNL A   1      28.811  31.029  23.585  1.00  0.00     0.031 A 
ATOM     85  N   UNL A   1      28.624  29.967  21.436  1.00  0.00    -0.255 NA
ATOM     86  C   UNL A   1      28.465  32.263  23.036  1.00  0.00     0.004 A 
ATOM     87  C   UNL A   1      28.316  31.184  20.923  1.00  0.00     0.112 A 
ATOM     88  C   UNL A   1      28.215  32.344  21.676  1.00  0.00     0.020 A 
ENDBRANCH  79  83
ENDBRANCH  75  77
ENDBRANCH  74  75
ENDBRANCH  73  74
ENDBRANCH  72  73
ENDBRANCH  71  72
ENDBRANCH   1  71
TORSDOF 15
ENDMDL
MODEL 2
REMARK VINA RESULT:     -11.5      2.950      4.697
REMARK SMILES O=C(OCCOCCOC(=O)c1cccnc1-c1ccccn1)c1ccc(-c2c3nc(c(-c4c(F)c(F)c(F)c(F)c4F)c4ccc([nH]4)c(-c4c(F)c(F)c(F)c(F)c4F)c4nc(c(-c5c(F)c(F)c(F)c(F)c5F)c5ccc2[nH]5)C=C4)C=C3)cc1
REMARK SMILES IDX 5 1 4 2 3 3 2 4 1 5 24 6 25 7 86 8 26 9 85 10 27 11 28 12
REMARK SMILES IDX 29 13 79 14 30 15 84 16 78 17 80 18 31 19 83 20 77 21 76 22
REMARK SMILES IDX 32 24 64 25 44 26 63 27 45 28 48 29 62 30 81 31 46 32 47 33
REMARK SMILES IDX 61 35 82 36 49 37 33 38 34 39 42 40 35 41 36 42 40 43 43 44
REMARK SMILES IDX 37 45 38 46 41 47 39 48 65 49 66 50 74 51 67 52 68 53 72 54
REMARK SMILES IDX 75 55 69 56 70 57 73 58 71 59 50 60 51 61 59 62 52 63 53 64
REMARK SMILES IDX 57 65 60 66 54 67 55 68 58 69 56 70 6 71 7 72 8 73 9 74
REMARK SMILES IDX 10 75 11 76 12 77 13 78 17 79 14 80 16 81 15 82 18 83 19 84
REMARK SMILES IDX 23 85 20 86 22 87 21 88
REMARK H PARENT 80 23 48 34
REMARK Flexibility Score: inf
ROOT
ATOM      1  C   UNL A   1      31.759  28.200  26.167  1.00  0.00     0.202 C 
ENDROOT
BRANCH   1   2
ATOM      2  C   UNL A   1      31.964  29.480  25.357  1.00  0.00     0.261 C 
BRANCH   2   3
ATOM      3  O   UNL A   1      33.188  30.147  25.709  1.00  0.00    -0.460 OA
BRANCH   3   4
ATOM      4  C   UNL A   1      33.359  30.899  26.828  1.00  0.00     0.338 C 
ATOM      5  O   UNL A   1      32.513  31.723  27.160  1.00  0.00    -0.246 OA
BRANCH   4   6
ATOM      6  C   UNL A   1      34.573  30.736  27.673  1.00  0.00     0.060 A 
ATOM      7  C   UNL A   1      34.934  29.507  28.213  1.00  0.00     0.016 A 
ATOM      8  C   UNL A   1      35.436  31.816  27.863  1.00  0.00     0.016 A 
ATOM      9  C   UNL A   1      36.029  29.344  29.028  1.00  0.00     0.010 A 
ATOM     10  C   UNL A   1      36.627  31.635  28.575  1.00  0.00     0.010 A 
ATOM     11  C   UNL A   1      36.923  30.389  29.154  1.00  0.00    -0.014 A 
BRANCH  11  12
ATOM     12  C   UNL A   1      38.155  30.137  29.912  1.00  0.00     0.031 A 
ATOM     13  C   UNL A   1      39.202  29.286  29.286  1.00  0.00     0.074 A 
ATOM     14  C   UNL A   1      38.337  30.738  31.103  1.00  0.00     0.049 A 
ATOM     15  N   UNL A   1      40.250  28.734  29.827  1.00  0.00    -0.248 NA
ATOM     16  C   UNL A   1      39.038  29.010  27.850  1.00  0.00     0.031 C 
ATOM     17  C   UNL A   1      37.424  31.712  31.714  1.00  0.00     0.029 A 
ATOM     18  N   UNL A   1      39.355  30.632  32.010  1.00  0.00    -0.354 N 
ATOM     19  C   UNL A   1      40.829  27.981  28.819  1.00  0.00     0.074 A 
ATOM     20  C   UNL A   1      40.028  28.161  27.628  1.00  0.00     0.031 C 
ATOM     21  C   UNL A   1      37.933  32.126  32.882  1.00  0.00     0.029 A 
ATOM     22  C   UNL A   1      39.140  31.362  33.155  1.00  0.00     0.049 A 
ATOM     23  H   UNL A   1      40.161  30.088  31.858  1.00  0.00     0.167 HD
ATOM     24  C   UNL A   1      41.923  27.193  28.913  1.00  0.00     0.037 A 
ATOM     25  C   UNL A   1      39.812  31.348  34.319  1.00  0.00     0.037 A 
ATOM     26  C   UNL A   1      42.686  27.069  30.125  1.00  0.00     0.049 A 
ATOM     27  C   UNL A   1      40.978  30.405  34.427  1.00  0.00     0.074 A 
ATOM     28  C   UNL A   1      43.777  26.267  30.391  1.00  0.00     0.029 A 
ATOM     29  N   UNL A   1      42.423  27.792  31.287  1.00  0.00    -0.354 N 
ATOM     30  N   UNL A   1      41.472  29.598  33.516  1.00  0.00    -0.248 NA
ATOM     31  C   UNL A   1      41.664  30.348  35.721  1.00  0.00     0.031 C 
ATOM     32  C   UNL A   1      44.146  26.472  31.725  1.00  0.00     0.029 A 
ATOM     33  C   UNL A   1      43.325  27.446  32.276  1.00  0.00     0.049 A 
ATOM     34  H   UNL A   1      41.699  28.452  31.389  1.00  0.00     0.167 HD
ATOM     35  C   UNL A   1      42.541  28.952  34.115  1.00  0.00     0.074 A 
ATOM     36  C   UNL A   1      42.627  29.471  35.468  1.00  0.00     0.031 C 
ATOM     37  C   UNL A   1      43.376  28.014  33.603  1.00  0.00     0.037 A 
BRANCH  24  38
ATOM     38  C   UNL A   1      42.260  26.358  27.714  1.00  0.00     0.064 A 
ATOM     39  C   UNL A   1      41.663  25.110  27.477  1.00  0.00     0.173 A 
ATOM     40  C   UNL A   1      43.266  26.778  26.830  1.00  0.00     0.173 A 
ATOM     41  F   UNL A   1      40.720  24.643  28.311  1.00  0.00    -0.203 F 
ATOM     42  C   UNL A   1      42.094  24.294  26.432  1.00  0.00     0.198 A 
ATOM     43  C   UNL A   1      43.672  25.975  25.767  1.00  0.00     0.198 A 
ATOM     44  F   UNL A   1      43.880  27.956  27.015  1.00  0.00    -0.203 F 
ATOM     45  F   UNL A   1      41.570  23.070  26.281  1.00  0.00    -0.200 F 
ATOM     46  C   UNL A   1      43.096  24.728  25.578  1.00  0.00     0.200 A 
ATOM     47  F   UNL A   1      44.639  26.398  24.942  1.00  0.00    -0.200 F 
ATOM     48  F   UNL A   1      43.524  23.934  24.587  1.00  0.00    -0.200 F 
ENDBRANCH  24  38
BRANCH  25  49
ATOM     49  C   UNL A   1      39.358  32.187  35.461  1.00  0.00     0.064 A 
ATOM     50  C   UNL A   1      38.468  31.683  36.419  1.00  0.00     0.173 A 
ATOM     51  C   UNL A   1      39.815  33.504  35.632  1.00  0.00     0.173 A 
ATOM     52  F   UNL A   1      37.986  30.438  36.295  1.00  0.00    -0.203 F 
ATOM     53  C   UNL A   1      38.046  32.465  37.494  1.00  0.00     0.198 A 
ATOM     54  C   UNL A   1      39.418  34.273  36.724  1.00  0.00     0.198 A 
ATOM     55  F   UNL A   1      40.670  34.039  34.747  1.00  0.00    -0.203 F 
ATOM     56  F   UNL A   1      37.164  31.970  38.373  1.00  0.00    -0.200 F 
ATOM     57  C   UNL A   1      38.527  33.755  37.650  1.00  0.00     0.200 A 
ATOM     58  F   UNL A   1      39.900  35.514  36.879  1.00  0.00    -0.200 F 
ATOM     59  F   UNL A   1      38.128  34.503  38.688  1.00  0.00    -0.200 F 
ENDBRANCH  25  49
BRANCH  37  60
ATOM     60  C   UNL A   1      44.486  27.545  34.491  1.00  0.00     0.064 A 
ATOM     61  C   UNL A   1      44.351  26.413  35.305  1.00  0.00     0.173 A 
ATOM     62  C   UNL A   1      45.724  28.204  34.467  1.00  0.00     0.173 A 
ATOM     63  F   UNL A   1      43.179  25.763  35.371  1.00  0.00    -0.203 F 
ATOM     64  C   UNL A   1      45.417  25.964  36.078  1.00  0.00     0.198 A 
ATOM     65  C   UNL A   1      46.796  27.733  35.215  1.00  0.00     0.198 A 
ATOM     66  F   UNL A   1      45.898  29.289  33.697  1.00  0.00    -0.203 F 
ATOM     67  F   UNL A   1      45.260  24.902  36.880  1.00  0.00    -0.200 F 
ATOM     68  C   UNL A   1      46.641  26.617  36.023  1.00  0.00     0.200 A 
ATOM     69  F   UNL A   1      47.981  28.355  35.147  1.00  0.00    -0.200 F 
ATOM     70  F   UNL A   1      47.672  26.171  36.753  1.00  0.00    -0.200 F 
ENDBRANCH  37  60
ENDBRANCH  11  12
ENDBRANCH   4   6
ENDBRANCH   3   4
ENDBRANCH   2   3
ENDBRANCH   1   2
BRANCH   1  71
ATOM     71  O   UNL A   1      32.058  26.990  25.488  1.00  0.00    -0.374 OA
BRANCH  71  72
ATOM     72  C   UNL A   1      33.336  26.906  24.879  1.00  0.00     0.202 C 
BRANCH  72  73
ATOM     73  C   UNL A   1      33.206  26.057  23.621  1.00  0.00     0.261 C 
BRANCH  73  74
ATOM     74  O   UNL A   1      34.406  25.276  23.461  1.00  0.00    -0.460 OA
BRANCH  74  75
ATOM     75  C   UNL A   1      34.268  24.003  22.986  1.00  0.00     0.340 C 
ATOM     76  O   UNL A   1      33.654  23.657  21.996  1.00  0.00    -0.246 OA
BRANCH  75  77
ATOM     77  C   UNL A   1      35.036  23.131  23.905  1.00  0.00     0.088 A 
ATOM     78  C   UNL A   1      36.335  22.773  23.498  1.00  0.00     0.019 A 
ATOM     79  C   UNL A   1      34.524  22.557  25.074  1.00  0.00     0.103 A 
ATOM     80  C   UNL A   1      37.083  21.874  24.244  1.00  0.00     0.021 A 
ATOM     81  N   UNL A   1      35.268  21.664  25.803  1.00  0.00    -0.254 NA
ATOM     82  C   UNL A   1      36.513  21.358  25.388  1.00  0.00     0.112 A 
BRANCH  79  83
ATOM     83  C   UNL A   1      33.146  22.680  25.593  1.00  0.00     0.089 A 
ATOM     84  C   UNL A   1      32.819  23.714  26.485  1.00  0.00     0.031 A 
ATOM     85  N   UNL A   1      32.208  21.813  25.146  1.00  0.00    -0.255 NA
ATOM     86  C   UNL A   1      31.514  23.835  26.961  1.00  0.00     0.004 A 
ATOM     87  C   UNL A   1      30.941  21.968  25.604  1.00  0.00     0.112 A 
ATOM     88  C   UNL A   1      30.552  22.945  26.508  1.00  0.00     0.020 A 
ENDBRANCH  79  83
ENDBRANCH  75  77
ENDBRANCH  74  75
ENDBRANCH  73  74
ENDBRANCH  72  73
ENDBRANCH  71  72
ENDBRANCH   1  71
TORSDOF 15
ENDMDL
MODEL 3
REMARK VINA RESULT:     -11.4      2.800      4.823
REMARK SMILES O=C(OCCOCCOC(=O)c1cccnc1-c1ccccn1)c1ccc(-c2c3nc(c(-c4c(F)c(F)c(F)c(F)c4F)c4ccc([nH]4)c(-c4c(F)c(F)c(F)c(F)c4F)c4nc(c(-c5c(F)c(F)c(F)c(F)c5F)c5ccc2[nH]5)C=C4)C=C3)cc1
REMARK SMILES IDX 5 1 4 2 3 3 2 4 1 5 24 6 25 7 86 8 26 9 85 10 27 11 28 12
REMARK SMILES IDX 29 13 79 14 30 15 84 16 78 17 80 18 31 19 83 20 77 21 76 22
REMARK SMILES IDX 32 24 64 25 44 26 63 27 45 28 48 29 62 30 81 31 46 32 47 33
REMARK SMILES IDX 61 35 82 36 49 37 33 38 34 39 42 40 35 41 36 42 40 43 43 44
REMARK SMILES IDX 37 45 38 46 41 47 39 48 65 49 66 50 74 51 67 52 68 53 72 54
REMARK SMILES IDX 75 55 69 56 70 57 73 58 71 59 50 60 51 61 59 62 52 63 53 64
REMARK SMILES IDX 57 65 60 66 54 67 55 68 58 69 56 70 6 71 7 72 8 73 9 74
REMARK SMILES IDX 10 75 11 76 12 77 13 78 17 79 14 80 16 81 15 82 18 83 19 84
REMARK SMILES IDX 23 85 20 86 22 87 21 88
REMARK H PARENT 80 23 48 34
REMARK Flexibility Score: inf
ROOT
ATOM      1  C   UNL A   1      31.394  28.975  24.455  1.00  0.00     0.202 C 
ENDROOT
BRANCH   1   2
ATOM      2  C   UNL A   1      31.815  29.443  25.849  1.00  0.00     0.261 C 
BRANCH   2   3
ATOM      3  O   UNL A   1      32.841  30.448  25.790  1.00  0.00    -0.460 OA
BRANCH   3   4
ATOM      4  C   UNL A   1      33.253  31.189  26.851  1.00  0.00     0.338 C 
ATOM      5  O   UNL A   1      32.578  32.132  27.252  1.00  0.00    -0.246 OA
BRANCH   4   6
ATOM      6  C   UNL A   1      34.529  30.872  27.549  1.00  0.00     0.060 A 
ATOM      7  C   UNL A   1      35.409  31.866  27.961  1.00  0.00     0.016 A 
ATOM      8  C   UNL A   1      34.822  29.551  27.892  1.00  0.00     0.016 A 
ATOM      9  C   UNL A   1      36.609  31.593  28.571  1.00  0.00     0.010 A 
ATOM     10  C   UNL A   1      35.974  29.268  28.636  1.00  0.00     0.010 A 
ATOM     11  C   UNL A   1      36.865  30.298  28.978  1.00  0.00    -0.014 A 
BRANCH  11  12
ATOM     12  C   UNL A   1      38.090  30.064  29.756  1.00  0.00     0.031 A 
ATOM     13  C   UNL A   1      39.174  29.261  29.130  1.00  0.00     0.074 A 
ATOM     14  C   UNL A   1      38.230  30.639  30.965  1.00  0.00     0.049 A 
ATOM     15  N   UNL A   1      40.227  28.726  29.678  1.00  0.00    -0.248 NA
ATOM     16  C   UNL A   1      39.047  29.017  27.684  1.00  0.00     0.031 C 
ATOM     17  C   UNL A   1      37.275  31.569  31.581  1.00  0.00     0.029 A 
ATOM     18  N   UNL A   1      39.233  30.540  31.889  1.00  0.00    -0.354 N 
ATOM     19  C   UNL A   1      40.849  28.017  28.663  1.00  0.00     0.074 A 
ATOM     20  C   UNL A   1      40.067  28.204  27.462  1.00  0.00     0.031 C 
ATOM     21  C   UNL A   1      37.748  31.967  32.770  1.00  0.00     0.029 A 
ATOM     22  C   UNL A   1      38.972  31.233  33.048  1.00  0.00     0.049 A 
ATOM     23  H   UNL A   1      40.058  30.024  31.740  1.00  0.00     0.167 HD
ATOM     24  C   UNL A   1      41.965  27.261  28.760  1.00  0.00     0.037 A 
ATOM     25  C   UNL A   1      39.622  31.210  34.225  1.00  0.00     0.037 A 
ATOM     26  C   UNL A   1      42.707  27.128  29.984  1.00  0.00     0.049 A 
ATOM     27  C   UNL A   1      40.814  30.300  34.333  1.00  0.00     0.074 A 
ATOM     28  C   UNL A   1      43.816  26.353  30.252  1.00  0.00     0.029 A 
ATOM     29  N   UNL A   1      42.399  27.813  31.158  1.00  0.00    -0.354 N 
ATOM     30  N   UNL A   1      41.350  29.531  33.412  1.00  0.00    -0.248 NA
ATOM     31  C   UNL A   1      41.475  30.229  35.639  1.00  0.00     0.031 C 
ATOM     32  C   UNL A   1      44.153  26.534  31.598  1.00  0.00     0.029 A 
ATOM     33  C   UNL A   1      43.291  27.469  32.156  1.00  0.00     0.049 A 
ATOM     34  H   UNL A   1      41.654  28.448  31.262  1.00  0.00     0.167 HD
ATOM     35  C   UNL A   1      42.426  28.902  34.017  1.00  0.00     0.074 A 
ATOM     36  C   UNL A   1      42.469  29.389  35.384  1.00  0.00     0.031 C 
ATOM     37  C   UNL A   1      43.299  28.004  33.498  1.00  0.00     0.037 A 
BRANCH  24  38
ATOM     38  C   UNL A   1      42.350  26.467  27.548  1.00  0.00     0.064 A 
ATOM     39  C   UNL A   1      41.797  25.208  27.268  1.00  0.00     0.173 A 
ATOM     40  C   UNL A   1      43.360  26.940  26.695  1.00  0.00     0.173 A 
ATOM     41  F   UNL A   1      40.854  24.691  28.070  1.00  0.00    -0.203 F 
ATOM     42  C   UNL A   1      42.273  24.433  26.212  1.00  0.00     0.198 A 
ATOM     43  C   UNL A   1      43.811  26.178  25.620  1.00  0.00     0.198 A 
ATOM     44  F   UNL A   1      43.933  28.131  26.921  1.00  0.00    -0.203 F 
ATOM     45  F   UNL A   1      41.791  23.198  26.019  1.00  0.00    -0.200 F 
ATOM     46  C   UNL A   1      43.278  24.919  25.389  1.00  0.00     0.200 A 
ATOM     47  F   UNL A   1      44.780  26.651  24.826  1.00  0.00    -0.200 F 
ATOM     48  F   UNL A   1      43.750  24.164  24.387  1.00  0.00    -0.200 F 
ENDBRANCH  24  38
BRANCH  25  49
ATOM     49  C   UNL A   1      39.119  32.004  35.378  1.00  0.00     0.064 A 
ATOM     50  C   UNL A   1      38.315  31.419  36.364  1.00  0.00     0.173 A 
ATOM     51  C   UNL A   1      39.446  33.362  35.531  1.00  0.00     0.173 A 
ATOM     52  F   UNL A   1      37.958  30.131  36.258  1.00  0.00    -0.203 F 
ATOM     53  C   UNL A   1      37.848  32.160  37.449  1.00  0.00     0.198 A 
ATOM     54  C   UNL A   1      39.006  34.093  36.633  1.00  0.00     0.198 A 
ATOM     55  F   UNL A   1      40.215  33.976  34.619  1.00  0.00    -0.203 F 
ATOM     56  F   UNL A   1      37.048  31.583  38.356  1.00  0.00    -0.200 F 
ATOM     57  C   UNL A   1      38.201  33.494  37.587  1.00  0.00     0.200 A 
ATOM     58  F   UNL A   1      39.365  35.377  36.769  1.00  0.00    -0.200 F 
ATOM     59  F   UNL A   1      37.759  34.203  38.635  1.00  0.00    -0.200 F 
ENDBRANCH  25  49
BRANCH  37  60
ATOM     60  C   UNL A   1      44.405  27.545  34.397  1.00  0.00     0.064 A 
ATOM     61  C   UNL A   1      44.289  26.389  35.179  1.00  0.00     0.173 A 
ATOM     62  C   UNL A   1      45.623  28.241  34.414  1.00  0.00     0.173 A 
ATOM     63  F   UNL A   1      43.136  25.704  35.205  1.00  0.00    -0.203 F 
ATOM     64  C   UNL A   1      45.352  25.952  35.962  1.00  0.00     0.198 A 
ATOM     65  C   UNL A   1      46.693  27.784  35.172  1.00  0.00     0.198 A 
ATOM     66  F   UNL A   1      45.778  29.350  33.675  1.00  0.00    -0.203 F 
ATOM     67  F   UNL A   1      45.212  24.867  36.734  1.00  0.00    -0.200 F 
ATOM     68  C   UNL A   1      46.557  26.643  35.949  1.00  0.00     0.200 A 
ATOM     69  F   UNL A   1      47.860  28.442  35.144  1.00  0.00    -0.200 F 
ATOM     70  F   UNL A   1      47.586  26.209  36.688  1.00  0.00    -0.200 F 
ENDBRANCH  37  60
ENDBRANCH  11  12
ENDBRANCH   4   6
ENDBRANCH   3   4
ENDBRANCH   2   3
ENDBRANCH   1   2
BRANCH   1  71
ATOM     71  O   UNL A   1      32.126  27.879  23.930  1.00  0.00    -0.374 OA
BRANCH  71  72
ATOM     72  C   UNL A   1      32.882  28.127  22.757  1.00  0.00     0.202 C 
BRANCH  72  73
ATOM     73  C   UNL A   1      33.571  26.830  22.353  1.00  0.00     0.261 C 
BRANCH  73  74
ATOM     74  O   UNL A   1      33.646  25.965  23.502  1.00  0.00    -0.460 OA
BRANCH  74  75
ATOM     75  C   UNL A   1      33.531  24.621  23.285  1.00  0.00     0.340 C 
ATOM     76  O   UNL A   1      33.858  24.015  22.283  1.00  0.00    -0.246 OA
BRANCH  75  77
ATOM     77  C   UNL A   1      32.952  24.047  24.521  1.00  0.00     0.088 A 
ATOM     78  C   UNL A   1      31.621  24.399  24.817  1.00  0.00     0.019 A 
ATOM     79  C   UNL A   1      33.662  23.286  25.457  1.00  0.00     0.103 A 
ATOM     80  C   UNL A   1      31.036  23.996  26.008  1.00  0.00     0.021 A 
ATOM     81  N   UNL A   1      33.077  22.896  26.634  1.00  0.00    -0.254 NA
ATOM     82  C   UNL A   1      31.796  23.241  26.875  1.00  0.00     0.112 A 
BRANCH  79  83
ATOM     83  C   UNL A   1      35.097  22.938  25.411  1.00  0.00     0.089 A 
ATOM     84  C   UNL A   1      36.064  23.889  25.771  1.00  0.00     0.031 A 
ATOM     85  N   UNL A   1      35.444  21.674  25.072  1.00  0.00    -0.255 NA
ATOM     86  C   UNL A   1      37.416  23.552  25.740  1.00  0.00     0.004 A 
ATOM     87  C   UNL A   1      36.765  21.364  25.076  1.00  0.00     0.112 A 
ATOM     88  C   UNL A   1      37.776  22.260  25.388  1.00  0.00     0.020 A 
ENDBRANCH  79  83
ENDBRANCH  75  77
ENDBRANCH  74  75
ENDBRANCH  73  74
ENDBRANCH  72  73
ENDBRANCH  71  72
ENDBRANCH   1  71
TORSDOF 15
ENDMDL
