MODEL 1
REMARK VINA RESULT:     -11.6      0.000      0.000
REMARK SMILES Cc1nc(C)c(C(=O)N[C@@H](Cc2ccccc2)C(=O)OCCOCCOC(=O)c2ccc(-c3c4nc(c(-c5c(F)c(F)c(F)c(F)c5F)c5ccc([nH]5)c(-c5c(F)c(F)c(F)c(F)c5F)c5nc(c(-c6c(F)c(F)c(F)c(F)c6F)c6ccc3[nH]6)C=C5)C=C4)cc2)s1
REMARK SMILES IDX 23 1 22 2 21 3 20 4 18 5 19 6 10 7 9 8 7 9 8 10 6 12 1 13
REMARK SMILES IDX 2 14 3 15 92 16 4 17 5 18 11 19 12 20 13 21 17 22 14 23
REMARK SMILES IDX 16 24 15 25 24 26 25 27 26 28 27 29 28 30 29 31 30 32 91 33
REMARK SMILES IDX 31 34 90 35 32 36 33 37 34 38 84 39 35 40 89 41 83 42 85 43
REMARK SMILES IDX 36 44 88 45 82 46 81 47 37 49 69 50 49 51 68 52 50 53 53 54
REMARK SMILES IDX 67 55 86 56 51 57 52 58 66 60 87 61 54 62 38 63 39 64 47 65
REMARK SMILES IDX 40 66 41 67 45 68 48 69 42 70 43 71 46 72 44 73 70 74 71 75
REMARK SMILES IDX 79 76 72 77 73 78 77 79 80 80 74 81 75 82 78 83 76 84 55 85
REMARK SMILES IDX 56 86 64 87 57 88 58 89 62 90 65 91 59 92 60 93 63 94 61 95
REMARK H PARENT 9 11 85 48 53 59
REMARK Flexibility Score: inf
ROOT
ATOM      1  O   UNL A   1      32.339  30.604  26.366  1.00  0.00    -0.374 OA
ENDROOT
BRANCH   1   2
ATOM      2  C   UNL A   1      32.171  29.458  27.199  1.00  0.00     0.202 C 
BRANCH   2   3
ATOM      3  C   UNL A   1      33.122  28.287  26.938  1.00  0.00     0.261 C 
BRANCH   3   4
ATOM      4  O   UNL A   1      32.653  27.451  25.870  1.00  0.00    -0.462 OA
BRANCH   4   5
ATOM      5  C   UNL A   1      32.059  26.282  26.244  1.00  0.00     0.329 C 
ATOM      6  O   UNL A   1      31.100  26.199  27.002  1.00  0.00    -0.250 OA
BRANCH   5   7
ATOM      7  C   UNL A   1      32.804  25.050  25.701  1.00  0.00     0.197 C 
BRANCH   7   8
ATOM      8  N   UNL A   1      31.964  24.171  24.870  1.00  0.00    -0.338 N 
ATOM      9  C   UNL A   1      31.077  24.386  23.841  1.00  0.00     0.263 C 
ATOM     10  O   UNL A   1      30.562  23.359  23.389  1.00  0.00    -0.268 OA
ATOM     11  H   UNL A   1      32.058  23.219  25.101  1.00  0.00     0.164 HD
BRANCH   9  12
ATOM     12  C   UNL A   1      30.739  25.702  23.316  1.00  0.00     0.115 A 
ATOM     13  C   UNL A   1      28.938  29.090  22.636  1.00  0.00     0.079 C 
ATOM     14  C   UNL A   1      29.806  27.889  22.773  1.00  0.00     0.091 A 
ATOM     15  N   UNL A   1      30.892  27.687  22.068  1.00  0.00    -0.246 NA
ATOM     16  S   UNL A   1      29.454  26.671  23.917  1.00  0.00    -0.113 S 
ATOM     17  C   UNL A   1      31.463  26.463  22.398  1.00  0.00     0.061 A 
ATOM     18  C   UNL A   1      32.751  26.140  21.723  1.00  0.00     0.068 C 
ENDBRANCH   9  12
ENDBRANCH   7   8
BRANCH   7  19
ATOM     19  C   UNL A   1      34.068  25.515  24.955  1.00  0.00     0.072 C 
BRANCH  19  20
ATOM     20  C   UNL A   1      35.098  24.433  24.723  1.00  0.00    -0.045 A 
ATOM     21  C   UNL A   1      35.180  23.787  23.482  1.00  0.00     0.004 A 
ATOM     22  C   UNL A   1      35.996  24.074  25.739  1.00  0.00     0.004 A 
ATOM     23  C   UNL A   1      36.147  22.805  23.263  1.00  0.00     0.000 A 
ATOM     24  C   UNL A   1      36.965  23.096  25.514  1.00  0.00     0.000 A 
ATOM     25  C   UNL A   1      37.041  22.462  24.276  1.00  0.00     0.000 A 
ENDBRANCH  19  20
ENDBRANCH   7  19
ENDBRANCH   5   7
ENDBRANCH   4   5
ENDBRANCH   3   4
ENDBRANCH   2   3
ENDBRANCH   1   2
BRANCH   1  26
ATOM     26  C   UNL A   1      31.386  31.660  26.499  1.00  0.00     0.202 C 
BRANCH  26  27
ATOM     27  C   UNL A   1      31.937  33.053  26.829  1.00  0.00     0.261 C 
BRANCH  27  28
ATOM     28  O   UNL A   1      32.729  33.073  28.033  1.00  0.00    -0.460 OA
BRANCH  28  29
ATOM     29  C   UNL A   1      33.841  33.841  27.963  1.00  0.00     0.338 C 
ATOM     30  O   UNL A   1      33.901  35.052  27.798  1.00  0.00    -0.246 OA
BRANCH  29  31
ATOM     31  C   UNL A   1      35.045  33.050  28.271  1.00  0.00     0.060 A 
ATOM     32  C   UNL A   1      34.858  31.738  28.725  1.00  0.00     0.016 A 
ATOM     33  C   UNL A   1      36.319  33.621  28.253  1.00  0.00     0.016 A 
ATOM     34  C   UNL A   1      35.940  31.008  29.215  1.00  0.00     0.010 A 
ATOM     35  C   UNL A   1      37.404  32.889  28.755  1.00  0.00     0.010 A 
ATOM     36  C   UNL A   1      37.212  31.594  29.271  1.00  0.00    -0.014 A 
BRANCH  36  37
ATOM     37  C   UNL A   1      38.302  30.899  30.001  1.00  0.00     0.031 A 
ATOM     38  C   UNL A   1      38.535  31.216  31.452  1.00  0.00     0.074 A 
ATOM     39  C   UNL A   1      39.049  29.964  29.387  1.00  0.00     0.049 A 
ATOM     40  N   UNL A   1      39.433  30.734  32.275  1.00  0.00    -0.248 NA
ATOM     41  C   UNL A   1      37.633  32.207  32.059  1.00  0.00     0.031 C 
ATOM     42  C   UNL A   1      38.895  29.538  27.999  1.00  0.00     0.029 A 
ATOM     43  N   UNL A   1      40.091  29.206  29.862  1.00  0.00    -0.354 N 
ATOM     44  C   UNL A   1      39.205  31.362  33.493  1.00  0.00     0.074 A 
ATOM     45  C   UNL A   1      38.102  32.279  33.297  1.00  0.00     0.031 C 
ATOM     46  C   UNL A   1      39.816  28.597  27.729  1.00  0.00     0.029 A 
ATOM     47  C   UNL A   1      40.640  28.376  28.916  1.00  0.00     0.049 A 
ATOM     48  H   UNL A   1      40.414  29.252  30.790  1.00  0.00     0.167 HD
ATOM     49  C   UNL A   1      39.850  31.182  34.671  1.00  0.00     0.037 A 
ATOM     50  C   UNL A   1      41.699  27.546  28.998  1.00  0.00     0.037 A 
ATOM     51  C   UNL A   1      40.945  30.271  34.869  1.00  0.00     0.049 A 
ATOM     52  C   UNL A   1      42.445  27.419  30.300  1.00  0.00     0.074 A 
ATOM     53  C   UNL A   1      41.652  30.008  36.031  1.00  0.00     0.029 A 
ATOM     54  N   UNL A   1      41.499  29.477  33.877  1.00  0.00    -0.354 N 
ATOM     55  N   UNL A   1      42.206  27.997  31.452  1.00  0.00    -0.248 NA
ATOM     56  C   UNL A   1      43.608  26.520  30.313  1.00  0.00     0.031 C 
ATOM     57  C   UNL A   1      42.661  29.087  35.731  1.00  0.00     0.029 A 
ATOM     58  C   UNL A   1      42.555  28.742  34.394  1.00  0.00     0.049 A 
ATOM     59  H   UNL A   1      41.189  29.440  32.944  1.00  0.00     0.167 HD
ATOM     60  C   UNL A   1      43.171  27.517  32.329  1.00  0.00     0.074 A 
ATOM     61  C   UNL A   1      43.991  26.588  31.581  1.00  0.00     0.031 C 
ATOM     62  C   UNL A   1      43.359  27.818  33.637  1.00  0.00     0.037 A 
BRANCH  49  63
ATOM     63  C   UNL A   1      39.398  32.006  35.840  1.00  0.00     0.064 A 
ATOM     64  C   UNL A   1      38.415  31.543  36.728  1.00  0.00     0.173 A 
ATOM     65  C   UNL A   1      39.984  33.253  36.099  1.00  0.00     0.173 A 
ATOM     66  F   UNL A   1      37.817  30.362  36.516  1.00  0.00    -0.203 F 
ATOM     67  C   UNL A   1      38.023  32.309  37.822  1.00  0.00     0.198 A 
ATOM     68  C   UNL A   1      39.607  34.006  37.208  1.00  0.00     0.198 A 
ATOM     69  F   UNL A   1      40.931  33.738  35.282  1.00  0.00    -0.203 F 
ATOM     70  F   UNL A   1      37.058  31.864  38.639  1.00  0.00    -0.200 F 
ATOM     71  C   UNL A   1      38.623  33.536  38.065  1.00  0.00     0.200 A 
ATOM     72  F   UNL A   1      40.194  35.186  37.447  1.00  0.00    -0.200 F 
ATOM     73  F   UNL A   1      38.249  34.269  39.124  1.00  0.00    -0.200 F 
ENDBRANCH  49  63
BRANCH  50  74
ATOM     74  C   UNL A   1      42.130  26.777  27.803  1.00  0.00     0.064 A 
ATOM     75  C   UNL A   1      41.615  25.501  27.539  1.00  0.00     0.173 A 
ATOM     76  C   UNL A   1      43.085  27.293  26.914  1.00  0.00     0.173 A 
ATOM     77  F   UNL A   1      40.720  24.954  28.374  1.00  0.00    -0.203 F 
ATOM     78  C   UNL A   1      42.050  24.763  26.439  1.00  0.00     0.198 A 
ATOM     79  C   UNL A   1      43.500  26.566  25.802  1.00  0.00     0.198 A 
ATOM     80  F   UNL A   1      43.611  28.508  27.125  1.00  0.00    -0.203 F 
ATOM     81  F   UNL A   1      41.574  23.528  26.233  1.00  0.00    -0.200 F 
ATOM     82  C   UNL A   1      42.988  25.298  25.568  1.00  0.00     0.200 A 
ATOM     83  F   UNL A   1      44.399  27.090  24.958  1.00  0.00    -0.200 F 
ATOM     84  F   UNL A   1      43.404  24.589  24.511  1.00  0.00    -0.200 F 
ENDBRANCH  50  74
BRANCH  62  85
ATOM     85  C   UNL A   1      44.478  27.118  34.352  1.00  0.00     0.064 A 
ATOM     86  C   UNL A   1      44.313  25.837  34.897  1.00  0.00     0.173 A 
ATOM     87  C   UNL A   1      45.741  27.721  34.456  1.00  0.00     0.173 A 
ATOM     88  F   UNL A   1      43.120  25.226  34.837  1.00  0.00    -0.203 F 
ATOM     89  C   UNL A   1      45.367  25.192  35.539  1.00  0.00     0.198 A 
ATOM     90  C   UNL A   1      46.800  27.062  35.075  1.00  0.00     0.198 A 
ATOM     91  F   UNL A   1      45.952  28.943  33.945  1.00  0.00    -0.203 F 
ATOM     92  F   UNL A   1      45.176  23.985  36.090  1.00  0.00    -0.200 F 
ATOM     93  C   UNL A   1      46.611  25.802  35.622  1.00  0.00     0.200 A 
ATOM     94  F   UNL A   1      48.003  27.647  35.145  1.00  0.00    -0.200 F 
ATOM     95  F   UNL A   1      47.625  25.177  36.235  1.00  0.00    -0.200 F 
ENDBRANCH  62  85
ENDBRANCH  36  37
ENDBRANCH  29  31
ENDBRANCH  28  29
ENDBRANCH  27  28
ENDBRANCH  26  27
ENDBRANCH   1  26
TORSDOF 18
ENDMDL
MODEL 2
REMARK VINA RESULT:     -11.5      4.698     10.069
REMARK SMILES Cc1nc(C)c(C(=O)N[C@@H](Cc2ccccc2)C(=O)OCCOCCOC(=O)c2ccc(-c3c4nc(c(-c5c(F)c(F)c(F)c(F)c5F)c5ccc([nH]5)c(-c5c(F)c(F)c(F)c(F)c5F)c5nc(c(-c6c(F)c(F)c(F)c(F)c6F)c6ccc3[nH]6)C=C5)C=C4)cc2)s1
REMARK SMILES IDX 23 1 22 2 21 3 20 4 18 5 19 6 10 7 9 8 7 9 8 10 6 12 1 13
REMARK SMILES IDX 2 14 3 15 92 16 4 17 5 18 11 19 12 20 13 21 17 22 14 23
REMARK SMILES IDX 16 24 15 25 24 26 25 27 26 28 27 29 28 30 29 31 30 32 91 33
REMARK SMILES IDX 31 34 90 35 32 36 33 37 34 38 84 39 35 40 89 41 83 42 85 43
REMARK SMILES IDX 36 44 88 45 82 46 81 47 37 49 69 50 49 51 68 52 50 53 53 54
REMARK SMILES IDX 67 55 86 56 51 57 52 58 66 60 87 61 54 62 38 63 39 64 47 65
REMARK SMILES IDX 40 66 41 67 45 68 48 69 42 70 43 71 46 72 44 73 70 74 71 75
REMARK SMILES IDX 79 76 72 77 73 78 77 79 80 80 74 81 75 82 78 83 76 84 55 85
REMARK SMILES IDX 56 86 64 87 57 88 58 89 62 90 65 91 59 92 60 93 63 94 61 95
REMARK H PARENT 9 11 85 48 53 59
REMARK Flexibility Score: inf
ROOT
ATOM      1  O   UNL A   1      37.746  21.177  24.796  1.00  0.00    -0.374 OA
ENDROOT
BRANCH   1   2
ATOM      2  C   UNL A   1      36.903  21.809  25.758  1.00  0.00     0.202 C 
BRANCH   2   3
ATOM      3  C   UNL A   1      36.463  23.240  25.436  1.00  0.00     0.261 C 
BRANCH   3   4
ATOM      4  O   UNL A   1      35.040  23.392  25.545  1.00  0.00    -0.462 OA
BRANCH   4   5
ATOM      5  C   UNL A   1      34.293  22.671  24.661  1.00  0.00     0.329 C 
ATOM      6  O   UNL A   1      34.363  22.774  23.442  1.00  0.00    -0.250 OA
BRANCH   5   7
ATOM      7  C   UNL A   1      33.251  21.785  25.365  1.00  0.00     0.197 C 
BRANCH   7   8
ATOM      8  N   UNL A   1      32.363  22.527  26.277  1.00  0.00    -0.338 N 
ATOM      9  C   UNL A   1      31.725  23.743  26.213  1.00  0.00     0.263 C 
ATOM     10  O   UNL A   1      31.048  24.016  27.208  1.00  0.00    -0.268 OA
ATOM     11  H   UNL A   1      32.187  22.046  27.117  1.00  0.00     0.164 HD
BRANCH   9  12
ATOM     12  C   UNL A   1      31.832  24.663  25.089  1.00  0.00     0.115 A 
ATOM     13  C   UNL A   1      31.444  26.322  21.584  1.00  0.00     0.079 C 
ATOM     14  C   UNL A   1      31.687  25.896  22.989  1.00  0.00     0.091 A 
ATOM     15  N   UNL A   1      32.446  26.552  23.832  1.00  0.00    -0.246 NA
ATOM     16  S   UNL A   1      30.942  24.498  23.628  1.00  0.00    -0.113 S 
ATOM     17  C   UNL A   1      32.504  25.886  25.050  1.00  0.00     0.061 A 
ATOM     18  C   UNL A   1      33.275  26.564  26.130  1.00  0.00     0.068 C 
ENDBRANCH   9  12
ENDBRANCH   7   8
BRANCH   7  19
ATOM     19  C   UNL A   1      32.461  20.998  24.303  1.00  0.00     0.072 C 
BRANCH  19  20
ATOM     20  C   UNL A   1      33.000  19.617  24.009  1.00  0.00    -0.045 A 
ATOM     21  C   UNL A   1      32.367  18.794  23.068  1.00  0.00     0.004 A 
ATOM     22  C   UNL A   1      34.151  19.148  24.660  1.00  0.00     0.004 A 
ATOM     23  C   UNL A   1      32.880  17.529  22.781  1.00  0.00     0.000 A 
ATOM     24  C   UNL A   1      34.664  17.884  24.366  1.00  0.00     0.000 A 
ATOM     25  C   UNL A   1      34.029  17.075  23.427  1.00  0.00     0.000 A 
ENDBRANCH  19  20
ENDBRANCH   7  19
ENDBRANCH   5   7
ENDBRANCH   4   5
ENDBRANCH   3   4
ENDBRANCH   2   3
ENDBRANCH   1   2
BRANCH   1  26
ATOM     26  C   UNL A   1      37.987  19.778  24.950  1.00  0.00     0.202 C 
BRANCH  26  27
ATOM     27  C   UNL A   1      39.331  19.370  25.567  1.00  0.00     0.261 C 
BRANCH  27  28
ATOM     28  O   UNL A   1      40.201  20.493  25.812  1.00  0.00    -0.460 OA
BRANCH  28  29
ATOM     29  C   UNL A   1      40.774  20.506  27.037  1.00  0.00     0.338 C 
ATOM     30  O   UNL A   1      41.217  19.552  27.663  1.00  0.00    -0.246 OA
BRANCH  29  31
ATOM     31  C   UNL A   1      40.958  21.887  27.516  1.00  0.00     0.060 A 
ATOM     32  C   UNL A   1      40.278  22.904  26.833  1.00  0.00     0.016 A 
ATOM     33  C   UNL A   1      41.882  22.197  28.515  1.00  0.00     0.016 A 
ATOM     34  C   UNL A   1      40.559  24.241  27.110  1.00  0.00     0.010 A 
ATOM     35  C   UNL A   1      42.171  23.542  28.786  1.00  0.00     0.010 A 
ATOM     36  C   UNL A   1      41.538  24.568  28.060  1.00  0.00    -0.014 A 
BRANCH  36  37
ATOM     37  C   UNL A   1      41.991  25.975  28.182  1.00  0.00     0.031 A 
ATOM     38  C   UNL A   1      43.315  26.376  27.591  1.00  0.00     0.074 A 
ATOM     39  C   UNL A   1      41.213  26.897  28.777  1.00  0.00     0.049 A 
ATOM     40  N   UNL A   1      43.906  27.546  27.590  1.00  0.00    -0.248 NA
ATOM     41  C   UNL A   1      44.074  25.318  26.907  1.00  0.00     0.031 C 
ATOM     42  C   UNL A   1      39.894  26.643  29.352  1.00  0.00     0.029 A 
ATOM     43  N   UNL A   1      41.428  28.235  28.996  1.00  0.00    -0.354 N 
ATOM     44  C   UNL A   1      45.102  27.364  26.907  1.00  0.00     0.074 A 
ATOM     45  C   UNL A   1      45.167  25.968  26.532  1.00  0.00     0.031 C 
ATOM     46  C   UNL A   1      39.417  27.790  29.865  1.00  0.00     0.029 A 
ATOM     47  C   UNL A   1      40.408  28.849  29.681  1.00  0.00     0.049 A 
ATOM     48  H   UNL A   1      42.234  28.710  28.691  1.00  0.00     0.167 HD
ATOM     49  C   UNL A   1      46.054  28.281  26.612  1.00  0.00     0.037 A 
ATOM     50  C   UNL A   1      40.299  30.118  30.122  1.00  0.00     0.037 A 
ATOM     51  C   UNL A   1      45.992  29.670  26.983  1.00  0.00     0.049 A 
ATOM     52  C   UNL A   1      41.406  31.100  29.844  1.00  0.00     0.074 A 
ATOM     53  C   UNL A   1      46.902  30.678  26.714  1.00  0.00     0.029 A 
ATOM     54  N   UNL A   1      44.962  30.244  27.712  1.00  0.00    -0.354 N 
ATOM     55  N   UNL A   1      42.521  30.925  29.177  1.00  0.00    -0.248 NA
ATOM     56  C   UNL A   1      41.237  32.459  30.379  1.00  0.00     0.031 C 
ATOM     57  C   UNL A   1      46.442  31.854  27.317  1.00  0.00     0.029 A 
ATOM     58  C   UNL A   1      45.226  31.589  27.923  1.00  0.00     0.049 A 
ATOM     59  H   UNL A   1      44.162  29.769  28.031  1.00  0.00     0.167 HD
ATOM     60  C   UNL A   1      43.172  32.152  29.192  1.00  0.00     0.074 A 
ATOM     61  C   UNL A   1      42.323  33.068  29.923  1.00  0.00     0.031 C 
ATOM     62  C   UNL A   1      44.367  32.489  28.648  1.00  0.00     0.037 A 
BRANCH  49  63
ATOM     63  C   UNL A   1      47.264  27.805  25.862  1.00  0.00     0.064 A 
ATOM     64  C   UNL A   1      47.277  27.734  24.462  1.00  0.00     0.173 A 
ATOM     65  C   UNL A   1      48.435  27.458  26.551  1.00  0.00     0.173 A 
ATOM     66  F   UNL A   1      46.177  28.045  23.759  1.00  0.00    -0.203 F 
ATOM     67  C   UNL A   1      48.415  27.314  23.778  1.00  0.00     0.198 A 
ATOM     68  C   UNL A   1      49.579  27.061  25.863  1.00  0.00     0.198 A 
ATOM     69  F   UNL A   1      48.474  27.514  27.890  1.00  0.00    -0.203 F 
ATOM     70  F   UNL A   1      48.396  27.219  22.441  1.00  0.00    -0.200 F 
ATOM     71  C   UNL A   1      49.566  26.984  24.478  1.00  0.00     0.200 A 
ATOM     72  F   UNL A   1      50.693  26.753  26.540  1.00  0.00    -0.200 F 
ATOM     73  F   UNL A   1      50.664  26.586  23.818  1.00  0.00    -0.200 F 
ENDBRANCH  49  63
BRANCH  50  74
ATOM     74  C   UNL A   1      39.097  30.532  30.891  1.00  0.00     0.064 A 
ATOM     75  C   UNL A   1      38.003  31.133  30.255  1.00  0.00     0.173 A 
ATOM     76  C   UNL A   1      39.030  30.357  32.281  1.00  0.00     0.173 A 
ATOM     77  F   UNL A   1      38.032  31.347  28.931  1.00  0.00    -0.203 F 
ATOM     78  C   UNL A   1      36.893  31.559  30.982  1.00  0.00     0.198 A 
ATOM     79  C   UNL A   1      37.910  30.759  33.004  1.00  0.00     0.198 A 
ATOM     80  F   UNL A   1      40.053  29.790  32.937  1.00  0.00    -0.203 F 
ATOM     81  F   UNL A   1      35.879  32.171  30.357  1.00  0.00    -0.200 F 
ATOM     82  C   UNL A   1      36.845  31.366  32.355  1.00  0.00     0.200 A 
ATOM     83  F   UNL A   1      37.863  30.563  34.328  1.00  0.00    -0.200 F 
ATOM     84  F   UNL A   1      35.777  31.774  33.054  1.00  0.00    -0.200 F 
ENDBRANCH  50  74
BRANCH  62  85
ATOM     85  C   UNL A   1      44.817  33.913  28.799  1.00  0.00     0.064 A 
ATOM     86  C   UNL A   1      44.453  34.900  27.872  1.00  0.00     0.173 A 
ATOM     87  C   UNL A   1      45.586  34.302  29.907  1.00  0.00     0.173 A 
ATOM     88  F   UNL A   1      43.732  34.574  26.788  1.00  0.00    -0.203 F 
ATOM     89  C   UNL A   1      44.861  36.221  28.037  1.00  0.00     0.198 A 
ATOM     90  C   UNL A   1      45.969  35.629  30.082  1.00  0.00     0.198 A 
ATOM     91  F   UNL A   1      45.955  33.397  30.826  1.00  0.00    -0.203 F 
ATOM     92  F   UNL A   1      44.537  37.140  27.116  1.00  0.00    -0.200 F 
ATOM     93  C   UNL A   1      45.612  36.586  29.144  1.00  0.00     0.200 A 
ATOM     94  F   UNL A   1      46.686  35.981  31.158  1.00  0.00    -0.200 F 
ATOM     95  F   UNL A   1      45.998  37.859  29.304  1.00  0.00    -0.200 F 
ENDBRANCH  62  85
ENDBRANCH  36  37
ENDBRANCH  29  31
ENDBRANCH  28  29
ENDBRANCH  27  28
ENDBRANCH  26  27
ENDBRANCH   1  26
TORSDOF 18
ENDMDL
MODEL 3
REMARK VINA RESULT:     -11.5      1.002      3.106
REMARK SMILES Cc1nc(C)c(C(=O)N[C@@H](Cc2ccccc2)C(=O)OCCOCCOC(=O)c2ccc(-c3c4nc(c(-c5c(F)c(F)c(F)c(F)c5F)c5ccc([nH]5)c(-c5c(F)c(F)c(F)c(F)c5F)c5nc(c(-c6c(F)c(F)c(F)c(F)c6F)c6ccc3[nH]6)C=C5)C=C4)cc2)s1
REMARK SMILES IDX 23 1 22 2 21 3 20 4 18 5 19 6 10 7 9 8 7 9 8 10 6 12 1 13
REMARK SMILES IDX 2 14 3 15 92 16 4 17 5 18 11 19 12 20 13 21 17 22 14 23
REMARK SMILES IDX 16 24 15 25 24 26 25 27 26 28 27 29 28 30 29 31 30 32 91 33
REMARK SMILES IDX 31 34 90 35 32 36 33 37 34 38 84 39 35 40 89 41 83 42 85 43
REMARK SMILES IDX 36 44 88 45 82 46 81 47 37 49 69 50 49 51 68 52 50 53 53 54
REMARK SMILES IDX 67 55 86 56 51 57 52 58 66 60 87 61 54 62 38 63 39 64 47 65
REMARK SMILES IDX 40 66 41 67 45 68 48 69 42 70 43 71 46 72 44 73 70 74 71 75
REMARK SMILES IDX 79 76 72 77 73 78 77 79 80 80 74 81 75 82 78 83 76 84 55 85
REMARK SMILES IDX 56 86 64 87 57 88 58 89 62 90 65 91 59 92 60 93 63 94 61 95
REMARK H PARENT 9 11 85 48 53 59
REMARK Flexibility Score: inf
ROOT
ATOM      1  O   UNL A   1      32.396  30.399  26.822  1.00  0.00    -0.374 OA
ENDROOT
BRANCH   1   2
ATOM      2  C   UNL A   1      31.821  29.097  26.918  1.00  0.00     0.202 C 
BRANCH   2   3
ATOM      3  C   UNL A   1      32.607  27.961  26.259  1.00  0.00     0.261 C 
BRANCH   3   4
ATOM      4  O   UNL A   1      32.028  27.576  25.003  1.00  0.00    -0.462 OA
BRANCH   4   5
ATOM      5  C   UNL A   1      32.703  27.974  23.887  1.00  0.00     0.329 C 
ATOM      6  O   UNL A   1      33.763  28.591  23.896  1.00  0.00    -0.250 OA
BRANCH   5   7
ATOM      7  C   UNL A   1      31.926  27.670  22.595  1.00  0.00     0.197 C 
BRANCH   7   8
ATOM      8  N   UNL A   1      32.509  26.579  21.797  1.00  0.00    -0.338 N 
ATOM      9  C   UNL A   1      32.740  25.242  22.026  1.00  0.00     0.263 C 
ATOM     10  O   UNL A   1      33.261  24.646  21.078  1.00  0.00    -0.268 OA
ATOM     11  H   UNL A   1      32.799  26.869  20.902  1.00  0.00     0.164 HD
BRANCH   9  12
ATOM     12  C   UNL A   1      32.425  24.561  23.274  1.00  0.00     0.115 A 
ATOM     13  C   UNL A   1      30.571  22.578  26.069  1.00  0.00     0.079 C 
ATOM     14  C   UNL A   1      31.473  23.302  25.134  1.00  0.00     0.091 A 
ATOM     15  N   UNL A   1      32.689  23.687  25.439  1.00  0.00    -0.246 NA
ATOM     16  S   UNL A   1      30.984  23.663  23.538  1.00  0.00    -0.113 S 
ATOM     17  C   UNL A   1      33.263  24.368  24.373  1.00  0.00     0.061 A 
ATOM     18  C   UNL A   1      34.678  24.796  24.557  1.00  0.00     0.068 C 
ENDBRANCH   9  12
ENDBRANCH   7   8
BRANCH   7  19
ATOM     19  C   UNL A   1      30.451  27.402  22.948  1.00  0.00     0.072 C 
BRANCH  19  20
ATOM     20  C   UNL A   1      29.525  28.578  22.729  1.00  0.00    -0.045 A 
ATOM     21  C   UNL A   1      29.990  29.738  22.095  1.00  0.00     0.004 A 
ATOM     22  C   UNL A   1      28.186  28.517  23.142  1.00  0.00     0.004 A 
ATOM     23  C   UNL A   1      29.128  30.812  21.874  1.00  0.00     0.000 A 
ATOM     24  C   UNL A   1      27.326  29.591  22.914  1.00  0.00     0.000 A 
ATOM     25  C   UNL A   1      27.797  30.738  22.280  1.00  0.00     0.000 A 
ENDBRANCH  19  20
ENDBRANCH   7  19
ENDBRANCH   5   7
ENDBRANCH   4   5
ENDBRANCH   3   4
ENDBRANCH   2   3
ENDBRANCH   1   2
BRANCH   1  26
ATOM     26  C   UNL A   1      31.527  31.478  26.469  1.00  0.00     0.202 C 
BRANCH  26  27
ATOM     27  C   UNL A   1      31.962  32.886  26.896  1.00  0.00     0.261 C 
BRANCH  27  28
ATOM     28  O   UNL A   1      32.863  32.878  28.021  1.00  0.00    -0.460 OA
BRANCH  28  29
ATOM     29  C   UNL A   1      33.957  33.661  27.873  1.00  0.00     0.338 C 
ATOM     30  O   UNL A   1      33.988  34.859  27.628  1.00  0.00    -0.246 OA
BRANCH  29  31
ATOM     31  C   UNL A   1      35.184  32.913  28.198  1.00  0.00     0.060 A 
ATOM     32  C   UNL A   1      35.047  31.563  28.544  1.00  0.00     0.016 A 
ATOM     33  C   UNL A   1      36.422  33.551  28.301  1.00  0.00     0.016 A 
ATOM     34  C   UNL A   1      36.138  30.857  29.047  1.00  0.00     0.010 A 
ATOM     35  C   UNL A   1      37.516  32.842  28.816  1.00  0.00     0.010 A 
ATOM     36  C   UNL A   1      37.369  31.503  29.225  1.00  0.00    -0.014 A 
BRANCH  36  37
ATOM     37  C   UNL A   1      38.452  30.814  29.970  1.00  0.00     0.031 A 
ATOM     38  C   UNL A   1      38.669  31.140  31.422  1.00  0.00     0.074 A 
ATOM     39  C   UNL A   1      39.208  29.878  29.370  1.00  0.00     0.049 A 
ATOM     40  N   UNL A   1      39.559  30.664  32.257  1.00  0.00    -0.248 NA
ATOM     41  C   UNL A   1      37.759  32.133  32.014  1.00  0.00     0.031 C 
ATOM     42  C   UNL A   1      39.069  29.444  27.982  1.00  0.00     0.029 A 
ATOM     43  N   UNL A   1      40.246  29.124  29.859  1.00  0.00    -0.354 N 
ATOM     44  C   UNL A   1      39.317  31.298  33.469  1.00  0.00     0.074 A 
ATOM     45  C   UNL A   1      38.215  32.211  33.256  1.00  0.00     0.031 C 
ATOM     46  C   UNL A   1      39.994  28.503  27.726  1.00  0.00     0.029 A 
ATOM     47  C   UNL A   1      40.806  28.289  28.924  1.00  0.00     0.049 A 
ATOM     48  H   UNL A   1      40.558  29.176  30.791  1.00  0.00     0.167 HD
ATOM     49  C   UNL A   1      39.950  31.125  34.654  1.00  0.00     0.037 A 
ATOM     50  C   UNL A   1      41.866  27.462  29.021  1.00  0.00     0.037 A 
ATOM     51  C   UNL A   1      41.045  30.217  34.870  1.00  0.00     0.049 A 
ATOM     52  C   UNL A   1      42.598  27.344  30.332  1.00  0.00     0.074 A 
ATOM     53  C   UNL A   1      41.740  29.962  36.040  1.00  0.00     0.029 A 
ATOM     54  N   UNL A   1      41.610  29.419  33.887  1.00  0.00    -0.354 N 
ATOM     55  N   UNL A   1      42.346  27.927  31.478  1.00  0.00    -0.248 NA
ATOM     56  C   UNL A   1      43.763  26.447  30.362  1.00  0.00     0.031 C 
ATOM     57  C   UNL A   1      42.753  29.041  35.755  1.00  0.00     0.029 A 
ATOM     58  C   UNL A   1      42.662  28.689  34.419  1.00  0.00     0.049 A 
ATOM     59  H   UNL A   1      41.310  29.377  32.951  1.00  0.00     0.167 HD
ATOM     60  C   UNL A   1      43.302  27.454  32.368  1.00  0.00     0.074 A 
ATOM     61  C   UNL A   1      44.132  26.523  31.633  1.00  0.00     0.031 C 
ATOM     62  C   UNL A   1      43.475  27.762  33.676  1.00  0.00     0.037 A 
BRANCH  49  63
ATOM     63  C   UNL A   1      39.484  31.955  35.814  1.00  0.00     0.064 A 
ATOM     64  C   UNL A   1      38.461  31.515  36.667  1.00  0.00     0.173 A 
ATOM     65  C   UNL A   1      40.096  33.183  36.100  1.00  0.00     0.173 A 
ATOM     66  F   UNL A   1      37.836  30.352  36.428  1.00  0.00    -0.203 F 
ATOM     67  C   UNL A   1      38.055  32.285  37.754  1.00  0.00     0.198 A 
ATOM     68  C   UNL A   1      39.706  33.940  37.202  1.00  0.00     0.198 A 
ATOM     69  F   UNL A   1      41.083  33.645  35.318  1.00  0.00    -0.203 F 
ATOM     70  F   UNL A   1      37.052  31.863  38.536  1.00  0.00    -0.200 F 
ATOM     71  C   UNL A   1      38.682  33.492  38.025  1.00  0.00     0.200 A 
ATOM     72  F   UNL A   1      40.318  35.101  37.468  1.00  0.00    -0.200 F 
ATOM     73  F   UNL A   1      38.295  34.230  39.076  1.00  0.00    -0.200 F 
ENDBRANCH  49  63
BRANCH  50  74
ATOM     74  C   UNL A   1      42.311  26.687  27.835  1.00  0.00     0.064 A 
ATOM     75  C   UNL A   1      41.839  25.389  27.600  1.00  0.00     0.173 A 
ATOM     76  C   UNL A   1      43.235  27.221  26.926  1.00  0.00     0.173 A 
ATOM     77  F   UNL A   1      40.975  24.825  28.457  1.00  0.00    -0.203 F 
ATOM     78  C   UNL A   1      42.288  24.647  26.508  1.00  0.00     0.198 A 
ATOM     79  C   UNL A   1      43.664  26.490  25.821  1.00  0.00     0.198 A 
ATOM     80  F   UNL A   1      43.719  28.459  27.108  1.00  0.00    -0.203 F 
ATOM     81  F   UNL A   1      41.856  23.392  26.331  1.00  0.00    -0.200 F 
ATOM     82  C   UNL A   1      43.196  25.200  25.617  1.00  0.00     0.200 A 
ATOM     83  F   UNL A   1      44.533  27.031  24.957  1.00  0.00    -0.200 F 
ATOM     84  F   UNL A   1      43.626  24.487  24.567  1.00  0.00    -0.200 F 
ENDBRANCH  50  74
BRANCH  62  85
ATOM     85  C   UNL A   1      44.588  27.068  34.407  1.00  0.00     0.064 A 
ATOM     86  C   UNL A   1      44.395  25.827  35.029  1.00  0.00     0.173 A 
ATOM     87  C   UNL A   1      45.872  27.633  34.447  1.00  0.00     0.173 A 
ATOM     88  F   UNL A   1      43.182  25.254  35.031  1.00  0.00    -0.203 F 
ATOM     89  C   UNL A   1      45.443  25.186  35.686  1.00  0.00     0.198 A 
ATOM     90  C   UNL A   1      46.923  26.977  35.082  1.00  0.00     0.198 A 
ATOM     91  F   UNL A   1      46.110  28.816  33.862  1.00  0.00    -0.203 F 
ATOM     92  F   UNL A   1      45.226  24.019  36.310  1.00  0.00    -0.200 F 
ATOM     93  C   UNL A   1      46.707  25.757  35.706  1.00  0.00     0.200 A 
ATOM     94  F   UNL A   1      48.146  27.525  35.091  1.00  0.00    -0.200 F 
ATOM     95  F   UNL A   1      47.715  25.136  36.332  1.00  0.00    -0.200 F 
ENDBRANCH  62  85
ENDBRANCH  36  37
ENDBRANCH  29  31
ENDBRANCH  28  29
ENDBRANCH  27  28
ENDBRANCH  26  27
ENDBRANCH   1  26
TORSDOF 18
ENDMDL
