MODEL 1
REMARK VINA RESULT:     -11.1      0.000      0.000
REMARK SMILES O=C(Cc1cccn1-c1ccccc1F)OCCOCCOC(=O)c1ccc(-c2c3nc(c(-c4c(F)c(F)c(F)c(F)c4F)c4ccc([nH]4)c(-c4c(F)c(F)c(F)c(F)c4F)c4nc(c(-c5c(F)c(F)c(F)c(F)c5F)c5ccc2[nH]5)C=C4)C=C3)cc1
REMARK SMILES IDX 19 1 18 2 17 3 16 4 2 5 1 6 3 7 4 8 5 9 8 10 6 11 7 12 9 13
REMARK SMILES IDX 10 14 14 15 11 16 13 17 15 18 12 19 20 20 21 21 22 22 23 23
REMARK SMILES IDX 24 24 25 25 26 26 87 27 27 28 86 29 28 30 29 31 30 32 80 33
REMARK SMILES IDX 31 34 85 35 79 36 81 37 32 38 84 39 78 40 77 41 33 43 65 44
REMARK SMILES IDX 45 45 64 46 46 47 49 48 63 49 82 50 47 51 48 52 62 54 83 55
REMARK SMILES IDX 50 56 34 57 35 58 43 59 36 60 37 61 41 62 44 63 38 64 39 65
REMARK SMILES IDX 42 66 40 67 66 68 67 69 75 70 68 71 69 72 73 73 76 74 70 75
REMARK SMILES IDX 71 76 74 77 72 78 51 79 52 80 60 81 53 82 54 83 58 84 61 85
REMARK SMILES IDX 55 86 56 87 59 88 57 89
REMARK H PARENT 81 42 49 53
REMARK Flexibility Score: inf
ROOT
ATOM      1  O   UNL A   1      37.572  20.998  25.236  1.00  0.00    -0.374 OA
ENDROOT
BRANCH   1   2
ATOM      2  C   UNL A   1      38.056  22.313  25.516  1.00  0.00     0.202 C 
BRANCH   2   3
ATOM      3  C   UNL A   1      37.010  23.397  25.300  1.00  0.00     0.261 C 
BRANCH   3   4
ATOM      4  O   UNL A   1      35.806  22.871  24.707  1.00  0.00    -0.463 OA
BRANCH   4   5
ATOM      5  C   UNL A   1      35.443  23.048  23.415  1.00  0.00     0.311 C 
ATOM      6  O   UNL A   1      36.315  23.126  22.550  1.00  0.00    -0.252 OA
BRANCH   5   7
ATOM      7  C   UNL A   1      33.988  23.271  23.072  1.00  0.00     0.177 C 
BRANCH   7   8
ATOM      8  C   UNL A   1      33.013  22.406  23.810  1.00  0.00     0.034 A 
ATOM      9  C   UNL A   1      32.878  21.026  23.796  1.00  0.00     0.024 A 
ATOM     10  N   UNL A   1      32.162  22.907  24.796  1.00  0.00    -0.318 N 
ATOM     11  C   UNL A   1      32.104  20.664  24.914  1.00  0.00     0.020 A 
ATOM     12  C   UNL A   1      31.722  21.827  25.540  1.00  0.00     0.091 A 
BRANCH  10  13
ATOM     13  C   UNL A   1      31.827  24.265  25.065  1.00  0.00     0.081 A 
ATOM     14  C   UNL A   1      30.724  24.857  24.432  1.00  0.00     0.030 A 
ATOM     15  C   UNL A   1      32.611  25.046  25.918  1.00  0.00     0.147 A 
ATOM     16  C   UNL A   1      30.394  26.192  24.698  1.00  0.00     0.002 A 
ATOM     17  C   UNL A   1      32.282  26.374  26.186  1.00  0.00     0.041 A 
ATOM     18  F   UNL A   1      33.760  24.585  26.431  1.00  0.00    -0.205 F 
ATOM     19  C   UNL A   1      31.167  26.947  25.581  1.00  0.00     0.003 A 
ENDBRANCH  10  13
ENDBRANCH   7   8
ENDBRANCH   5   7
ENDBRANCH   4   5
ENDBRANCH   3   4
ENDBRANCH   2   3
ENDBRANCH   1   2
BRANCH   1  20
ATOM     20  C   UNL A   1      38.551  19.958  25.220  1.00  0.00     0.202 C 
BRANCH  20  21
ATOM     21  C   UNL A   1      39.897  20.340  25.818  1.00  0.00     0.261 C 
BRANCH  21  22
ATOM     22  O   UNL A   1      40.525  19.231  26.443  1.00  0.00    -0.460 OA
BRANCH  22  23
ATOM     23  C   UNL A   1      41.830  19.088  26.151  1.00  0.00     0.338 C 
ATOM     24  O   UNL A   1      42.404  18.074  25.735  1.00  0.00    -0.246 OA
BRANCH  23  25
ATOM     25  C   UNL A   1      42.541  20.320  26.469  1.00  0.00     0.060 A 
ATOM     26  C   UNL A   1      42.391  20.845  27.752  1.00  0.00     0.016 A 
ATOM     27  C   UNL A   1      43.153  21.036  25.437  1.00  0.00     0.016 A 
ATOM     28  C   UNL A   1      42.757  22.154  27.984  1.00  0.00     0.010 A 
ATOM     29  C   UNL A   1      43.491  22.354  25.650  1.00  0.00     0.010 A 
ATOM     30  C   UNL A   1      43.250  22.912  26.914  1.00  0.00    -0.014 A 
BRANCH  30  31
ATOM     31  C   UNL A   1      43.525  24.335  27.124  1.00  0.00     0.031 A 
ATOM     32  C   UNL A   1      42.264  25.170  27.201  1.00  0.00     0.074 A 
ATOM     33  C   UNL A   1      44.846  24.658  27.229  1.00  0.00     0.049 A 
ATOM     34  N   UNL A   1      42.117  26.452  27.083  1.00  0.00    -0.248 NA
ATOM     35  C   UNL A   1      40.961  24.478  27.398  1.00  0.00     0.031 C 
ATOM     36  C   UNL A   1      45.937  23.671  27.120  1.00  0.00     0.029 A 
ATOM     37  N   UNL A   1      45.543  25.828  27.438  1.00  0.00    -0.354 N 
ATOM     38  C   UNL A   1      40.780  26.732  27.396  1.00  0.00     0.074 A 
ATOM     39  C   UNL A   1      40.088  25.482  27.460  1.00  0.00     0.031 C 
ATOM     40  C   UNL A   1      47.135  24.278  27.187  1.00  0.00     0.029 A 
ATOM     41  C   UNL A   1      46.954  25.701  27.387  1.00  0.00     0.049 A 
ATOM     42  H   UNL A   1      45.095  26.688  27.609  1.00  0.00     0.167 HD
ATOM     43  C   UNL A   1      40.343  27.973  27.742  1.00  0.00     0.037 A 
ATOM     44  C   UNL A   1      47.913  26.673  27.470  1.00  0.00     0.037 A 
ATOM     45  C   UNL A   1      41.376  28.944  27.605  1.00  0.00     0.049 A 
ATOM     46  C   UNL A   1      47.195  27.919  27.809  1.00  0.00     0.074 A 
ATOM     47  C   UNL A   1      41.974  29.522  26.516  1.00  0.00     0.029 A 
ATOM     48  N   UNL A   1      42.144  29.203  28.712  1.00  0.00    -0.354 N 
ATOM     49  N   UNL A   1      46.666  28.179  28.970  1.00  0.00    -0.248 NA
ATOM     50  C   UNL A   1      46.956  28.911  26.756  1.00  0.00     0.031 C 
ATOM     51  C   UNL A   1      43.289  29.822  26.940  1.00  0.00     0.029 A 
ATOM     52  C   UNL A   1      43.425  29.472  28.286  1.00  0.00     0.049 A 
ATOM     53  H   UNL A   1      41.833  29.199  29.646  1.00  0.00     0.167 HD
ATOM     54  C   UNL A   1      45.777  29.190  28.680  1.00  0.00     0.074 A 
ATOM     55  C   UNL A   1      46.206  29.775  27.433  1.00  0.00     0.031 C 
ATOM     56  C   UNL A   1      44.515  29.144  29.179  1.00  0.00     0.037 A 
BRANCH  43  57
ATOM     57  C   UNL A   1      39.073  28.361  28.428  1.00  0.00     0.064 A 
ATOM     58  C   UNL A   1      38.793  28.033  29.764  1.00  0.00     0.173 A 
ATOM     59  C   UNL A   1      38.261  29.353  27.838  1.00  0.00     0.173 A 
ATOM     60  F   UNL A   1      39.547  27.152  30.436  1.00  0.00    -0.203 F 
ATOM     61  C   UNL A   1      37.788  28.687  30.478  1.00  0.00     0.198 A 
ATOM     62  C   UNL A   1      37.290  30.035  28.568  1.00  0.00     0.198 A 
ATOM     63  F   UNL A   1      38.450  29.720  26.562  1.00  0.00    -0.203 F 
ATOM     64  F   UNL A   1      37.576  28.371  31.763  1.00  0.00    -0.200 F 
ATOM     65  C   UNL A   1      37.062  29.709  29.891  1.00  0.00     0.200 A 
ATOM     66  F   UNL A   1      36.621  31.049  28.002  1.00  0.00    -0.200 F 
ATOM     67  F   UNL A   1      36.171  30.402  30.612  1.00  0.00    -0.200 F 
ENDBRANCH  43  57
BRANCH  44  68
ATOM     68  C   UNL A   1      49.409  26.758  27.230  1.00  0.00     0.064 A 
ATOM     69  C   UNL A   1      49.931  26.577  25.918  1.00  0.00     0.173 A 
ATOM     70  C   UNL A   1      50.399  26.938  28.207  1.00  0.00     0.173 A 
ATOM     71  F   UNL A   1      49.133  26.531  24.844  1.00  0.00    -0.203 F 
ATOM     72  C   UNL A   1      51.294  26.430  25.642  1.00  0.00     0.198 A 
ATOM     73  C   UNL A   1      51.771  26.814  27.928  1.00  0.00     0.198 A 
ATOM     74  F   UNL A   1      50.095  27.273  29.462  1.00  0.00    -0.203 F 
ATOM     75  F   UNL A   1      51.692  26.178  24.387  1.00  0.00    -0.200 F 
ATOM     76  C   UNL A   1      52.216  26.527  26.654  1.00  0.00     0.200 A 
ATOM     77  F   UNL A   1      52.664  26.967  28.917  1.00  0.00    -0.200 F 
ATOM     78  F   UNL A   1      53.521  26.363  26.401  1.00  0.00    -0.200 F 
ENDBRANCH  44  68
BRANCH  56  79
ATOM     79  C   UNL A   1      44.401  28.325  30.444  1.00  0.00     0.064 A 
ATOM     80  C   UNL A   1      44.139  26.946  30.443  1.00  0.00     0.173 A 
ATOM     81  C   UNL A   1      44.681  28.907  31.688  1.00  0.00     0.173 A 
ATOM     82  F   UNL A   1      43.863  26.313  29.305  1.00  0.00    -0.203 F 
ATOM     83  C   UNL A   1      44.153  26.183  31.610  1.00  0.00     0.198 A 
ATOM     84  C   UNL A   1      44.704  28.145  32.859  1.00  0.00     0.198 A 
ATOM     85  F   UNL A   1      44.933  30.222  31.770  1.00  0.00    -0.203 F 
ATOM     86  F   UNL A   1      43.882  24.870  31.555  1.00  0.00    -0.200 F 
ATOM     87  C   UNL A   1      44.441  26.783  32.819  1.00  0.00     0.200 A 
ATOM     88  F   UNL A   1      44.975  28.732  34.032  1.00  0.00    -0.200 F 
ATOM     89  F   UNL A   1      44.455  26.055  33.945  1.00  0.00    -0.200 F 
ENDBRANCH  56  79
ENDBRANCH  30  31
ENDBRANCH  23  25
ENDBRANCH  22  23
ENDBRANCH  21  22
ENDBRANCH  20  21
ENDBRANCH   1  20
TORSDOF 16
ENDMDL
MODEL 2
REMARK VINA RESULT:     -11.1      1.899      2.733
REMARK SMILES O=C(Cc1cccn1-c1ccccc1F)OCCOCCOC(=O)c1ccc(-c2c3nc(c(-c4c(F)c(F)c(F)c(F)c4F)c4ccc([nH]4)c(-c4c(F)c(F)c(F)c(F)c4F)c4nc(c(-c5c(F)c(F)c(F)c(F)c5F)c5ccc2[nH]5)C=C4)C=C3)cc1
REMARK SMILES IDX 19 1 18 2 17 3 16 4 2 5 1 6 3 7 4 8 5 9 8 10 6 11 7 12 9 13
REMARK SMILES IDX 10 14 14 15 11 16 13 17 15 18 12 19 20 20 21 21 22 22 23 23
REMARK SMILES IDX 24 24 25 25 26 26 87 27 27 28 86 29 28 30 29 31 30 32 80 33
REMARK SMILES IDX 31 34 85 35 79 36 81 37 32 38 84 39 78 40 77 41 33 43 65 44
REMARK SMILES IDX 45 45 64 46 46 47 49 48 63 49 82 50 47 51 48 52 62 54 83 55
REMARK SMILES IDX 50 56 34 57 35 58 43 59 36 60 37 61 41 62 44 63 38 64 39 65
REMARK SMILES IDX 42 66 40 67 66 68 67 69 75 70 68 71 69 72 73 73 76 74 70 75
REMARK SMILES IDX 71 76 74 77 72 78 51 79 52 80 60 81 53 82 54 83 58 84 61 85
REMARK SMILES IDX 55 86 56 87 59 88 57 89
REMARK H PARENT 81 42 49 53
REMARK Flexibility Score: inf
ROOT
ATOM      1  O   UNL A   1      42.050  21.104  26.729  1.00  0.00    -0.374 OA
ENDROOT
BRANCH   1   2
ATOM      2  C   UNL A   1      40.853  21.416  26.011  1.00  0.00     0.202 C 
BRANCH   2   3
ATOM      3  C   UNL A   1      39.851  22.214  26.832  1.00  0.00     0.261 C 
BRANCH   3   4
ATOM      4  O   UNL A   1      38.621  22.432  26.114  1.00  0.00    -0.463 OA
BRANCH   4   5
ATOM      5  C   UNL A   1      37.966  23.615  26.048  1.00  0.00     0.311 C 
ATOM      6  O   UNL A   1      38.298  24.529  26.803  1.00  0.00    -0.252 OA
BRANCH   5   7
ATOM      7  C   UNL A   1      36.765  23.754  25.142  1.00  0.00     0.177 C 
BRANCH   7   8
ATOM      8  C   UNL A   1      35.460  23.315  25.732  1.00  0.00     0.034 A 
ATOM      9  C   UNL A   1      35.197  22.261  26.593  1.00  0.00     0.024 A 
ATOM     10  N   UNL A   1      34.289  24.063  25.602  1.00  0.00    -0.318 N 
ATOM     11  C   UNL A   1      33.927  22.482  27.158  1.00  0.00     0.020 A 
ATOM     12  C   UNL A   1      33.414  23.618  26.576  1.00  0.00     0.091 A 
BRANCH  10  13
ATOM     13  C   UNL A   1      34.019  25.130  24.699  1.00  0.00     0.081 A 
ATOM     14  C   UNL A   1      33.943  26.449  25.170  1.00  0.00     0.030 A 
ATOM     15  C   UNL A   1      33.777  24.885  23.344  1.00  0.00     0.147 A 
ATOM     16  C   UNL A   1      33.679  27.498  24.281  1.00  0.00     0.002 A 
ATOM     17  C   UNL A   1      33.517  25.929  22.459  1.00  0.00     0.041 A 
ATOM     18  F   UNL A   1      33.685  23.638  22.864  1.00  0.00    -0.205 F 
ATOM     19  C   UNL A   1      33.475  27.240  22.925  1.00  0.00     0.003 A 
ENDBRANCH  10  13
ENDBRANCH   7   8
ENDBRANCH   5   7
ENDBRANCH   4   5
ENDBRANCH   3   4
ENDBRANCH   2   3
ENDBRANCH   1   2
BRANCH   1  20
ATOM     20  C   UNL A   1      42.348  19.716  26.879  1.00  0.00     0.202 C 
BRANCH  20  21
ATOM     21  C   UNL A   1      42.837  19.028  25.613  1.00  0.00     0.261 C 
BRANCH  21  22
ATOM     22  O   UNL A   1      44.233  19.202  25.428  1.00  0.00    -0.460 OA
BRANCH  22  23
ATOM     23  C   UNL A   1      44.571  19.876  24.315  1.00  0.00     0.338 C 
ATOM     24  O   UNL A   1      44.563  19.461  23.149  1.00  0.00    -0.246 OA
BRANCH  23  25
ATOM     25  C   UNL A   1      45.044  21.206  24.673  1.00  0.00     0.060 A 
ATOM     26  C   UNL A   1      45.498  21.407  25.976  1.00  0.00     0.016 A 
ATOM     27  C   UNL A   1      44.825  22.266  23.788  1.00  0.00     0.016 A 
ATOM     28  C   UNL A   1      45.628  22.697  26.446  1.00  0.00     0.010 A 
ATOM     29  C   UNL A   1      44.919  23.557  24.259  1.00  0.00     0.010 A 
ATOM     30  C   UNL A   1      45.280  23.758  25.599  1.00  0.00    -0.014 A 
BRANCH  30  31
ATOM     31  C   UNL A   1      45.300  25.121  26.131  1.00  0.00     0.031 A 
ATOM     32  C   UNL A   1      43.912  25.704  26.299  1.00  0.00     0.074 A 
ATOM     33  C   UNL A   1      46.541  25.621  26.394  1.00  0.00     0.049 A 
ATOM     34  N   UNL A   1      43.549  26.939  26.451  1.00  0.00    -0.248 NA
ATOM     35  C   UNL A   1      42.742  24.785  26.251  1.00  0.00     0.031 C 
ATOM     36  C   UNL A   1      47.789  24.874  26.150  1.00  0.00     0.029 A 
ATOM     37  N   UNL A   1      47.019  26.811  26.899  1.00  0.00    -0.354 N 
ATOM     38  C   UNL A   1      42.175  26.922  26.724  1.00  0.00     0.074 A 
ATOM     39  C   UNL A   1      41.707  25.594  26.468  1.00  0.00     0.031 C 
ATOM     40  C   UNL A   1      48.861  25.635  26.429  1.00  0.00     0.029 A 
ATOM     41  C   UNL A   1      48.431  26.928  26.920  1.00  0.00     0.049 A 
ATOM     42  H   UNL A   1      46.424  27.527  27.220  1.00  0.00     0.167 HD
ATOM     43  C   UNL A   1      41.519  27.966  27.299  1.00  0.00     0.037 A 
ATOM     44  C   UNL A   1      49.206  27.998  27.277  1.00  0.00     0.037 A 
ATOM     45  C   UNL A   1      42.374  29.096  27.447  1.00  0.00     0.049 A 
ATOM     46  C   UNL A   1      48.273  29.003  27.827  1.00  0.00     0.074 A 
ATOM     47  C   UNL A   1      42.897  29.993  26.553  1.00  0.00     0.029 A 
ATOM     48  N   UNL A   1      43.050  29.220  28.635  1.00  0.00    -0.354 N 
ATOM     49  N   UNL A   1      47.671  28.906  28.977  1.00  0.00    -0.248 NA
ATOM     50  C   UNL A   1      47.899  30.155  26.999  1.00  0.00     0.031 C 
ATOM     51  C   UNL A   1      44.127  30.397  27.123  1.00  0.00     0.029 A 
ATOM     52  C   UNL A   1      44.279  29.781  28.367  1.00  0.00     0.049 A 
ATOM     53  H   UNL A   1      42.715  28.956  29.522  1.00  0.00     0.167 HD
ATOM     54  C   UNL A   1      46.629  29.800  28.852  1.00  0.00     0.074 A 
ATOM     55  C   UNL A   1      46.991  30.712  27.795  1.00  0.00     0.031 C 
ATOM     56  C   UNL A   1      45.380  29.441  29.241  1.00  0.00     0.037 A 
BRANCH  43  57
ATOM     57  C   UNL A   1      40.181  27.980  27.964  1.00  0.00     0.064 A 
ATOM     58  C   UNL A   1      39.925  27.336  29.185  1.00  0.00     0.173 A 
ATOM     59  C   UNL A   1      39.221  28.921  27.533  1.00  0.00     0.173 A 
ATOM     60  F   UNL A   1      40.804  26.474  29.714  1.00  0.00    -0.203 F 
ATOM     61  C   UNL A   1      38.798  27.645  29.948  1.00  0.00     0.198 A 
ATOM     62  C   UNL A   1      38.123  29.259  28.320  1.00  0.00     0.198 A 
ATOM     63  F   UNL A   1      39.379  29.575  26.373  1.00  0.00    -0.203 F 
ATOM     64  F   UNL A   1      38.608  27.035  31.126  1.00  0.00    -0.200 F 
ATOM     65  C   UNL A   1      37.917  28.629  29.532  1.00  0.00     0.200 A 
ATOM     66  F   UNL A   1      37.299  30.241  27.927  1.00  0.00    -0.200 F 
ATOM     67  F   UNL A   1      36.895  28.993  30.317  1.00  0.00    -0.200 F 
ENDBRANCH  43  57
BRANCH  44  68
ATOM     68  C   UNL A   1      50.671  28.374  27.164  1.00  0.00     0.064 A 
ATOM     69  C   UNL A   1      51.461  28.520  28.339  1.00  0.00     0.173 A 
ATOM     70  C   UNL A   1      51.363  28.678  25.982  1.00  0.00     0.173 A 
ATOM     71  F   UNL A   1      51.010  28.140  29.541  1.00  0.00    -0.203 F 
ATOM     72  C   UNL A   1      52.749  29.063  28.342  1.00  0.00     0.198 A 
ATOM     73  C   UNL A   1      52.667  29.202  25.981  1.00  0.00     0.198 A 
ATOM     74  F   UNL A   1      50.833  28.451  24.779  1.00  0.00    -0.203 F 
ATOM     75  F   UNL A   1      53.389  29.243  29.507  1.00  0.00    -0.200 F 
ATOM     76  C   UNL A   1      53.346  29.427  27.161  1.00  0.00     0.200 A 
ATOM     77  F   UNL A   1      53.260  29.500  24.815  1.00  0.00    -0.200 F 
ATOM     78  F   UNL A   1      54.570  29.971  27.159  1.00  0.00    -0.200 F 
ENDBRANCH  44  68
BRANCH  56  79
ATOM     79  C   UNL A   1      45.369  28.350  30.288  1.00  0.00     0.064 A 
ATOM     80  C   UNL A   1      45.121  27.002  29.987  1.00  0.00     0.173 A 
ATOM     81  C   UNL A   1      45.735  28.638  31.609  1.00  0.00     0.173 A 
ATOM     82  F   UNL A   1      44.767  26.639  28.756  1.00  0.00    -0.203 F 
ATOM     83  C   UNL A   1      45.230  25.992  30.942  1.00  0.00     0.198 A 
ATOM     84  C   UNL A   1      45.853  27.629  32.568  1.00  0.00     0.198 A 
ATOM     85  F   UNL A   1      45.980  29.906  31.975  1.00  0.00    -0.203 F 
ATOM     86  F   UNL A   1      44.969  24.720  30.606  1.00  0.00    -0.200 F 
ATOM     87  C   UNL A   1      45.602  26.306  32.234  1.00  0.00     0.200 A 
ATOM     88  F   UNL A   1      46.206  27.939  33.823  1.00  0.00    -0.200 F 
ATOM     89  F   UNL A   1      45.707  25.340  33.158  1.00  0.00    -0.200 F 
ENDBRANCH  56  79
ENDBRANCH  30  31
ENDBRANCH  23  25
ENDBRANCH  22  23
ENDBRANCH  21  22
ENDBRANCH  20  21
ENDBRANCH   1  20
TORSDOF 16
ENDMDL
MODEL 3
REMARK VINA RESULT:     -11.1      1.659      3.053
REMARK SMILES O=C(Cc1cccn1-c1ccccc1F)OCCOCCOC(=O)c1ccc(-c2c3nc(c(-c4c(F)c(F)c(F)c(F)c4F)c4ccc([nH]4)c(-c4c(F)c(F)c(F)c(F)c4F)c4nc(c(-c5c(F)c(F)c(F)c(F)c5F)c5ccc2[nH]5)C=C4)C=C3)cc1
REMARK SMILES IDX 19 1 18 2 17 3 16 4 2 5 1 6 3 7 4 8 5 9 8 10 6 11 7 12 9 13
REMARK SMILES IDX 10 14 14 15 11 16 13 17 15 18 12 19 20 20 21 21 22 22 23 23
REMARK SMILES IDX 24 24 25 25 26 26 87 27 27 28 86 29 28 30 29 31 30 32 80 33
REMARK SMILES IDX 31 34 85 35 79 36 81 37 32 38 84 39 78 40 77 41 33 43 65 44
REMARK SMILES IDX 45 45 64 46 46 47 49 48 63 49 82 50 47 51 48 52 62 54 83 55
REMARK SMILES IDX 50 56 34 57 35 58 43 59 36 60 37 61 41 62 44 63 38 64 39 65
REMARK SMILES IDX 42 66 40 67 66 68 67 69 75 70 68 71 69 72 73 73 76 74 70 75
REMARK SMILES IDX 71 76 74 77 72 78 51 79 52 80 60 81 53 82 54 83 58 84 61 85
REMARK SMILES IDX 55 86 56 87 59 88 57 89
REMARK H PARENT 81 42 49 53
REMARK Flexibility Score: inf
ROOT
ATOM      1  O   UNL A   1      37.148  21.337  25.410  1.00  0.00    -0.374 OA
ENDROOT
BRANCH   1   2
ATOM      2  C   UNL A   1      36.477  22.528  24.992  1.00  0.00     0.202 C 
BRANCH   2   3
ATOM      3  C   UNL A   1      35.883  23.320  26.146  1.00  0.00     0.261 C 
BRANCH   3   4
ATOM      4  O   UNL A   1      34.453  23.160  26.229  1.00  0.00    -0.463 OA
BRANCH   4   5
ATOM      5  C   UNL A   1      33.827  22.121  26.828  1.00  0.00     0.311 C 
ATOM      6  O   UNL A   1      33.358  22.271  27.956  1.00  0.00    -0.252 OA
BRANCH   5   7
ATOM      7  C   UNL A   1      33.825  20.765  26.161  1.00  0.00     0.177 C 
BRANCH   7   8
ATOM      8  C   UNL A   1      32.996  20.662  24.917  1.00  0.00     0.034 A 
ATOM      9  C   UNL A   1      32.359  21.663  24.202  1.00  0.00     0.024 A 
ATOM     10  N   UNL A   1      32.885  19.478  24.186  1.00  0.00    -0.318 N 
ATOM     11  C   UNL A   1      32.042  21.143  22.932  1.00  0.00     0.020 A 
ATOM     12  C   UNL A   1      32.422  19.821  22.929  1.00  0.00     0.091 A 
BRANCH  10  13
ATOM     13  C   UNL A   1      33.229  18.157  24.589  1.00  0.00     0.081 A 
ATOM     14  C   UNL A   1      32.243  17.293  25.088  1.00  0.00     0.030 A 
ATOM     15  C   UNL A   1      34.554  17.711  24.544  1.00  0.00     0.147 A 
ATOM     16  C   UNL A   1      32.582  15.993  25.482  1.00  0.00     0.002 A 
ATOM     17  C   UNL A   1      34.891  16.416  24.934  1.00  0.00     0.041 A 
ATOM     18  F   UNL A   1      35.559  18.535  24.224  1.00  0.00    -0.205 F 
ATOM     19  C   UNL A   1      33.903  15.551  25.398  1.00  0.00     0.003 A 
ENDBRANCH  10  13
ENDBRANCH   7   8
ENDBRANCH   5   7
ENDBRANCH   4   5
ENDBRANCH   3   4
ENDBRANCH   2   3
ENDBRANCH   1   2
BRANCH   1  20
ATOM     20  C   UNL A   1      38.536  21.472  25.715  1.00  0.00     0.202 C 
BRANCH  20  21
ATOM     21  C   UNL A   1      39.383  20.250  25.391  1.00  0.00     0.261 C 
BRANCH  21  22
ATOM     22  O   UNL A   1      40.208  19.879  26.485  1.00  0.00    -0.460 OA
BRANCH  22  23
ATOM     23  C   UNL A   1      41.483  19.605  26.158  1.00  0.00     0.338 C 
ATOM     24  O   UNL A   1      41.938  18.543  25.716  1.00  0.00    -0.246 OA
BRANCH  23  25
ATOM     25  C   UNL A   1      42.325  20.752  26.471  1.00  0.00     0.060 A 
ATOM     26  C   UNL A   1      42.320  21.224  27.782  1.00  0.00     0.016 A 
ATOM     27  C   UNL A   1      42.923  21.461  25.425  1.00  0.00     0.016 A 
ATOM     28  C   UNL A   1      42.822  22.483  28.041  1.00  0.00     0.010 A 
ATOM     29  C   UNL A   1      43.395  22.732  25.667  1.00  0.00     0.010 A 
ATOM     30  C   UNL A   1      43.301  23.246  26.968  1.00  0.00    -0.014 A 
BRANCH  30  31
ATOM     31  C   UNL A   1      43.721  24.627  27.217  1.00  0.00     0.031 A 
ATOM     32  C   UNL A   1      42.553  25.587  27.305  1.00  0.00     0.074 A 
ATOM     33  C   UNL A   1      45.067  24.807  27.340  1.00  0.00     0.049 A 
ATOM     34  N   UNL A   1      42.542  26.880  27.217  1.00  0.00    -0.248 NA
ATOM     35  C   UNL A   1      41.183  25.031  27.474  1.00  0.00     0.031 C 
ATOM     36  C   UNL A   1      46.051  23.715  27.215  1.00  0.00     0.029 A 
ATOM     37  N   UNL A   1      45.880  25.893  27.584  1.00  0.00    -0.354 N 
ATOM     38  C   UNL A   1      41.238  27.291  27.527  1.00  0.00     0.074 A 
ATOM     39  C   UNL A   1      40.418  26.118  27.554  1.00  0.00     0.031 C 
ATOM     40  C   UNL A   1      47.304  24.192  27.306  1.00  0.00     0.029 A 
ATOM     41  C   UNL A   1      47.270  25.621  27.541  1.00  0.00     0.049 A 
ATOM     42  H   UNL A   1      45.523  26.791  27.773  1.00  0.00     0.167 HD
ATOM     43  C   UNL A   1      40.929  28.561  27.901  1.00  0.00     0.037 A 
ATOM     44  C   UNL A   1      48.325  26.485  27.655  1.00  0.00     0.037 A 
ATOM     45  C   UNL A   1      42.059  29.422  27.796  1.00  0.00     0.049 A 
ATOM     46  C   UNL A   1      47.737  27.790  28.021  1.00  0.00     0.074 A 
ATOM     47  C   UNL A   1      42.725  29.961  26.727  1.00  0.00     0.029 A 
ATOM     48  N   UNL A   1      42.838  29.573  28.916  1.00  0.00    -0.354 N 
ATOM     49  N   UNL A   1      47.226  28.076  29.184  1.00  0.00    -0.248 NA
ATOM     50  C   UNL A   1      47.613  28.828  26.990  1.00  0.00     0.031 C 
ATOM     51  C   UNL A   1      44.060  30.111  27.169  1.00  0.00     0.029 A 
ATOM     52  C   UNL A   1      44.145  29.717  28.507  1.00  0.00     0.049 A 
ATOM     53  H   UNL A   1      42.518  29.578  29.847  1.00  0.00     0.167 HD
ATOM     54  C   UNL A   1      46.450  29.182  28.912  1.00  0.00     0.074 A 
ATOM     55  C   UNL A   1      46.951  29.749  27.684  1.00  0.00     0.031 C 
ATOM     56  C   UNL A   1      45.185  29.256  29.400  1.00  0.00     0.037 A 
BRANCH  43  57
ATOM     57  C   UNL A   1      39.700  29.063  28.587  1.00  0.00     0.064 A 
ATOM     58  C   UNL A   1      38.580  29.551  27.895  1.00  0.00     0.173 A 
ATOM     59  C   UNL A   1      39.513  28.753  29.951  1.00  0.00     0.173 A 
ATOM     60  F   UNL A   1      38.635  29.813  26.582  1.00  0.00    -0.203 F 
ATOM     61  C   UNL A   1      37.339  29.681  28.520  1.00  0.00     0.198 A 
ATOM     62  C   UNL A   1      38.262  28.841  30.558  1.00  0.00     0.198 A 
ATOM     63  F   UNL A   1      40.531  28.292  30.693  1.00  0.00    -0.203 F 
ATOM     64  F   UNL A   1      36.285  30.116  27.815  1.00  0.00    -0.200 F 
ATOM     65  C   UNL A   1      37.173  29.295  29.839  1.00  0.00     0.200 A 
ATOM     66  F   UNL A   1      38.104  28.426  31.823  1.00  0.00    -0.200 F 
ATOM     67  F   UNL A   1      35.958  29.325  30.401  1.00  0.00    -0.200 F 
ENDBRANCH  43  57
BRANCH  44  68
ATOM     68  C   UNL A   1      49.824  26.419  27.429  1.00  0.00     0.064 A 
ATOM     69  C   UNL A   1      50.336  26.119  26.136  1.00  0.00     0.173 A 
ATOM     70  C   UNL A   1      50.819  26.561  28.408  1.00  0.00     0.173 A 
ATOM     71  F   UNL A   1      49.546  26.088  25.056  1.00  0.00    -0.203 F 
ATOM     72  C   UNL A   1      51.681  25.833  25.885  1.00  0.00     0.198 A 
ATOM     73  C   UNL A   1      52.176  26.297  28.153  1.00  0.00     0.198 A 
ATOM     74  F   UNL A   1      50.539  26.991  29.639  1.00  0.00    -0.203 F 
ATOM     75  F   UNL A   1      52.063  25.476  24.650  1.00  0.00    -0.200 F 
ATOM     76  C   UNL A   1      52.602  25.900  26.901  1.00  0.00     0.200 A 
ATOM     77  F   UNL A   1      53.072  26.421  29.142  1.00  0.00    -0.200 F 
ATOM     78  F   UNL A   1      53.888  25.604  26.673  1.00  0.00    -0.200 F 
ENDBRANCH  44  68
BRANCH  56  79
ATOM     79  C   UNL A   1      44.973  28.422  30.643  1.00  0.00     0.064 A 
ATOM     80  C   UNL A   1      44.445  27.122  30.613  1.00  0.00     0.173 A 
ATOM     81  C   UNL A   1      45.421  28.886  31.887  1.00  0.00     0.173 A 
ATOM     82  F   UNL A   1      43.996  26.602  29.473  1.00  0.00    -0.203 F 
ATOM     83  C   UNL A   1      44.365  26.323  31.752  1.00  0.00     0.198 A 
ATOM     84  C   UNL A   1      45.350  28.086  33.030  1.00  0.00     0.198 A 
ATOM     85  F   UNL A   1      45.931  30.122  31.996  1.00  0.00    -0.203 F 
ATOM     86  F   UNL A   1      43.839  25.091  31.672  1.00  0.00    -0.200 F 
ATOM     87  C   UNL A   1      44.824  26.804  32.962  1.00  0.00     0.200 A 
ATOM     88  F   UNL A   1      45.787  28.560  34.205  1.00  0.00    -0.200 F 
ATOM     89  F   UNL A   1      44.748  26.042  34.062  1.00  0.00    -0.200 F 
ENDBRANCH  56  79
ENDBRANCH  30  31
ENDBRANCH  23  25
ENDBRANCH  22  23
ENDBRANCH  21  22
ENDBRANCH  20  21
ENDBRANCH   1  20
TORSDOF 16
ENDMDL
