MODEL 1
REMARK VINA RESULT:     -12.4      0.000      0.000
REMARK SMILES O=C(OCCOCCOC(=O)c1cc(NC(=O)c2ccccc2Cl)ccc1N1CCC[C@H](C[NH+]2CCCC2)C1)c1ccc(-c2c3nc(c(-c4c(F)c(F)c(F)c(F)c4F)c4ccc([nH]4)c(-c4c(F)c(F)c(F)c(F)c4F)c4nc(c(-c5c(F)c(F)c(F)c(F)c5F)c5ccc2[nH]5)C=C4)C=C3)cc1
REMARK SMILES IDX 7 1 6 2 5 3 4 4 3 5 2 6 1 7 40 8 41 9 102 10 42 11 101 12
REMARK SMILES IDX 43 13 44 14 45 15 95 16 46 17 100 18 94 19 96 20 47 21 99 22
REMARK SMILES IDX 93 23 92 24 48 26 80 27 60 28 79 29 61 30 64 31 78 32 97 33
REMARK SMILES IDX 62 34 63 35 77 37 98 38 65 39 49 40 50 41 58 42 51 43 52 44
REMARK SMILES IDX 56 45 59 46 53 47 54 48 57 49 55 50 81 51 82 52 90 53 83 54
REMARK SMILES IDX 84 55 88 56 91 57 85 58 86 59 89 60 87 61 66 62 67 63 75 64
REMARK SMILES IDX 68 65 69 66 73 67 76 68 70 69 71 70 74 71 72 72 8 73 9 74
REMARK SMILES IDX 10 75 11 76 12 77 13 78 27 79 14 80 26 81 25 82 28 83 29 84
REMARK SMILES IDX 39 85 30 86 32 87 31 88 33 89 34 90 35 91 38 92 36 94 37 95
REMARK SMILES IDX 15 96 16 97 17 99 18 100 19 101 23 102 20 103 22 104 24 105
REMARK SMILES IDX 21 106
REMARK H PARENT 96 25 64 36 34 93 15 98
REMARK Flexibility Score: inf
ROOT
ATOM      1  C   UNL A   1      37.539  23.311  25.657  1.00  0.00     0.202 C 
ENDROOT
BRANCH   1   2
ATOM      2  O   UNL A   1      37.711  21.898  25.550  1.00  0.00    -0.374 OA
BRANCH   2   3
ATOM      3  C   UNL A   1      38.978  21.386  25.947  1.00  0.00     0.202 C 
BRANCH   3   4
ATOM      4  C   UNL A   1      39.236  20.026  25.301  1.00  0.00     0.261 C 
BRANCH   4   5
ATOM      5  O   UNL A   1      40.286  19.336  25.996  1.00  0.00    -0.460 OA
BRANCH   5   6
ATOM      6  C   UNL A   1      41.618  19.556  25.921  1.00  0.00     0.338 C 
ATOM      7  O   UNL A   1      42.337  18.639  25.521  1.00  0.00    -0.246 OA
BRANCH   6   8
ATOM      8  C   UNL A   1      42.300  20.831  26.316  1.00  0.00     0.060 A 
ATOM      9  C   UNL A   1      42.787  21.797  25.433  1.00  0.00     0.016 A 
ATOM     10  C   UNL A   1      42.314  21.144  27.685  1.00  0.00     0.016 A 
ATOM     11  C   UNL A   1      43.149  23.061  25.848  1.00  0.00     0.010 A 
ATOM     12  C   UNL A   1      42.723  22.405  28.129  1.00  0.00     0.010 A 
ATOM     13  C   UNL A   1      43.097  23.375  27.196  1.00  0.00    -0.014 A 
BRANCH  13  14
ATOM     14  C   UNL A   1      43.577  24.707  27.565  1.00  0.00     0.031 A 
ATOM     15  C   UNL A   1      42.563  25.701  28.012  1.00  0.00     0.074 A 
ATOM     16  C   UNL A   1      44.901  24.923  27.665  1.00  0.00     0.049 A 
ATOM     17  N   UNL A   1      42.717  26.959  28.310  1.00  0.00    -0.248 NA
ATOM     18  C   UNL A   1      41.183  25.205  28.165  1.00  0.00     0.031 C 
ATOM     19  C   UNL A   1      45.940  23.915  27.432  1.00  0.00     0.029 A 
ATOM     20  N   UNL A   1      45.598  26.043  28.020  1.00  0.00    -0.354 N 
ATOM     21  C   UNL A   1      41.450  27.417  28.637  1.00  0.00     0.074 A 
ATOM     22  C   UNL A   1      40.539  26.302  28.528  1.00  0.00     0.031 C 
ATOM     23  C   UNL A   1      47.145  24.468  27.648  1.00  0.00     0.029 A 
ATOM     24  C   UNL A   1      46.961  25.882  27.949  1.00  0.00     0.049 A 
ATOM     25  H   UNL A   1      45.166  26.883  28.300  1.00  0.00     0.167 HD
ATOM     26  C   UNL A   1      41.099  28.676  28.971  1.00  0.00     0.037 A 
ATOM     27  C   UNL A   1      47.932  26.806  28.056  1.00  0.00     0.037 A 
ATOM     28  C   UNL A   1      42.054  29.745  29.071  1.00  0.00     0.049 A 
ATOM     29  C   UNL A   1      47.496  28.228  28.310  1.00  0.00     0.074 A 
ATOM     30  C   UNL A   1      41.836  31.082  29.333  1.00  0.00     0.029 A 
ATOM     31  N   UNL A   1      43.426  29.580  28.907  1.00  0.00    -0.354 N 
ATOM     32  N   UNL A   1      46.289  28.696  28.528  1.00  0.00    -0.248 NA
ATOM     33  C   UNL A   1      48.546  29.252  28.308  1.00  0.00     0.031 C 
ATOM     34  C   UNL A   1      43.071  31.736  29.271  1.00  0.00     0.029 A 
ATOM     35  C   UNL A   1      44.066  30.797  29.036  1.00  0.00     0.049 A 
ATOM     36  H   UNL A   1      43.874  28.723  28.725  1.00  0.00     0.167 HD
ATOM     37  C   UNL A   1      46.434  30.062  28.711  1.00  0.00     0.074 A 
ATOM     38  C   UNL A   1      47.853  30.342  28.604  1.00  0.00     0.031 C 
ATOM     39  C   UNL A   1      45.489  31.009  28.937  1.00  0.00     0.037 A 
BRANCH  26  40
ATOM     40  C   UNL A   1      39.640  28.963  29.138  1.00  0.00     0.064 A 
ATOM     41  C   UNL A   1      38.989  28.855  30.375  1.00  0.00     0.173 A 
ATOM     42  C   UNL A   1      38.874  29.328  28.020  1.00  0.00     0.173 A 
ATOM     43  F   UNL A   1      39.668  28.467  31.464  1.00  0.00    -0.203 F 
ATOM     44  C   UNL A   1      37.619  29.088  30.483  1.00  0.00     0.198 A 
ATOM     45  C   UNL A   1      37.511  29.586  28.137  1.00  0.00     0.198 A 
ATOM     46  F   UNL A   1      39.446  29.423  26.810  1.00  0.00    -0.203 F 
ATOM     47  F   UNL A   1      37.005  28.926  31.663  1.00  0.00    -0.200 F 
ATOM     48  C   UNL A   1      36.884  29.462  29.367  1.00  0.00     0.200 A 
ATOM     49  F   UNL A   1      36.804  29.944  27.057  1.00  0.00    -0.200 F 
ATOM     50  F   UNL A   1      35.567  29.685  29.473  1.00  0.00    -0.200 F 
ENDBRANCH  26  40
BRANCH  27  51
ATOM     51  C   UNL A   1      49.361  26.457  27.827  1.00  0.00     0.064 A 
ATOM     52  C   UNL A   1      50.250  26.274  28.897  1.00  0.00     0.173 A 
ATOM     53  C   UNL A   1      49.890  26.364  26.530  1.00  0.00     0.173 A 
ATOM     54  F   UNL A   1      49.806  26.369  30.159  1.00  0.00    -0.203 F 
ATOM     55  C   UNL A   1      51.611  26.054  28.679  1.00  0.00     0.198 A 
ATOM     56  C   UNL A   1      51.243  26.106  26.311  1.00  0.00     0.198 A 
ATOM     57  F   UNL A   1      49.095  26.533  25.462  1.00  0.00    -0.203 F 
ATOM     58  F   UNL A   1      52.446  25.959  29.722  1.00  0.00    -0.200 F 
ATOM     59  C   UNL A   1      52.105  25.969  27.387  1.00  0.00     0.200 A 
ATOM     60  F   UNL A   1      51.712  26.010  25.060  1.00  0.00    -0.200 F 
ATOM     61  F   UNL A   1      53.415  25.773  27.178  1.00  0.00    -0.200 F 
ENDBRANCH  27  51
BRANCH  39  62
ATOM     62  C   UNL A   1      45.976  32.413  29.125  1.00  0.00     0.064 A 
ATOM     63  C   UNL A   1      46.073  33.308  28.051  1.00  0.00     0.173 A 
ATOM     64  C   UNL A   1      46.292  32.880  30.410  1.00  0.00     0.173 A 
ATOM     65  F   UNL A   1      45.796  32.900  26.804  1.00  0.00    -0.203 F 
ATOM     66  C   UNL A   1      46.494  34.617  28.255  1.00  0.00     0.198 A 
ATOM     67  C   UNL A   1      46.675  34.199  30.613  1.00  0.00     0.198 A 
ATOM     68  F   UNL A   1      46.204  32.059  31.468  1.00  0.00    -0.203 F 
ATOM     69  F   UNL A   1      46.630  35.444  27.209  1.00  0.00    -0.200 F 
ATOM     70  C   UNL A   1      46.784  35.065  29.535  1.00  0.00     0.200 A 
ATOM     71  F   UNL A   1      46.934  34.634  31.854  1.00  0.00    -0.200 F 
ATOM     72  F   UNL A   1      47.173  36.331  29.731  1.00  0.00    -0.200 F 
ENDBRANCH  39  62
ENDBRANCH  13  14
ENDBRANCH   6   8
ENDBRANCH   5   6
ENDBRANCH   4   5
ENDBRANCH   3   4
ENDBRANCH   2   3
ENDBRANCH   1   2
BRANCH   1  73
ATOM     73  C   UNL A   1      36.048  23.524  25.727  1.00  0.00     0.261 C 
BRANCH  73  74
ATOM     74  O   UNL A   1      35.556  22.755  24.627  1.00  0.00    -0.460 OA
BRANCH  74  75
ATOM     75  C   UNL A   1      34.557  23.238  23.860  1.00  0.00     0.340 C 
ATOM     76  O   UNL A   1      34.625  23.616  22.714  1.00  0.00    -0.246 OA
BRANCH  75  77
ATOM     77  C   UNL A   1      33.307  23.101  24.658  1.00  0.00     0.085 A 
ATOM     78  C   UNL A   1      32.949  24.268  25.373  1.00  0.00     0.044 A 
ATOM     79  C   UNL A   1      32.487  21.946  24.662  1.00  0.00     0.051 A 
ATOM     80  C   UNL A   1      31.777  24.316  26.117  1.00  0.00     0.042 A 
ATOM     81  C   UNL A   1      31.325  22.023  25.453  1.00  0.00     0.029 A 
ATOM     82  C   UNL A   1      30.984  23.172  26.178  1.00  0.00     0.028 A 
BRANCH  79  83
ATOM     83  N   UNL A   1      32.736  20.740  24.006  1.00  0.00    -0.370 N 
ATOM     84  C   UNL A   1      32.246  20.580  22.631  1.00  0.00     0.116 C 
ATOM     85  C   UNL A   1      33.903  19.918  24.327  1.00  0.00     0.126 C 
ATOM     86  C   UNL A   1      31.943  19.104  22.364  1.00  0.00     0.022 C 
ATOM     87  C   UNL A   1      33.582  18.444  24.216  1.00  0.00     0.064 C 
ATOM     88  C   UNL A   1      33.091  18.182  22.782  1.00  0.00     0.013 C 
BRANCH  87  89
ATOM     89  C   UNL A   1      32.659  18.073  25.390  1.00  0.00     0.267 C 
BRANCH  89  90
ATOM     90  N   UNL A   1      33.016  16.909  26.198  1.00  0.00    -0.335 N 
ATOM     91  C   UNL A   1      34.319  16.323  25.882  1.00  0.00     0.262 C 
ATOM     92  C   UNL A   1      32.029  15.837  26.186  1.00  0.00     0.262 C 
ATOM     93  H   UNL A   1      33.051  17.317  27.132  1.00  0.00     0.348 HD
ATOM     94  C   UNL A   1      34.034  15.115  25.011  1.00  0.00     0.067 C 
ATOM     95  C   UNL A   1      32.639  14.672  25.418  1.00  0.00     0.067 C 
ENDBRANCH  89  90
ENDBRANCH  87  89
ENDBRANCH  79  83
BRANCH  80  96
ATOM     96  N   UNL A   1      31.368  25.423  26.877  1.00  0.00    -0.322 N 
ATOM     97  C   UNL A   1      31.276  26.760  26.573  1.00  0.00     0.257 C 
ATOM     98  H   UNL A   1      31.099  25.201  27.798  1.00  0.00     0.170 HD
ATOM     99  O   UNL A   1      31.161  27.597  27.467  1.00  0.00    -0.269 OA
BRANCH  97 100
ATOM    100  C   UNL A   1      31.187  27.228  25.181  1.00  0.00     0.058 A 
ATOM    101  C   UNL A   1      30.004  26.972  24.473  1.00  0.00     0.015 A 
ATOM    102  C   UNL A   1      32.289  27.787  24.526  1.00  0.00     0.053 A 
ATOM    103  C   UNL A   1      29.907  27.330  23.127  1.00  0.00     0.001 A 
ATOM    104  C   UNL A   1      32.195  28.108  23.168  1.00  0.00     0.021 A 
ATOM    105  Cl  UNL A   1      33.792  28.097  25.316  1.00  0.00    -0.083 Cl
ATOM    106  C   UNL A   1      31.001  27.896  22.474  1.00  0.00     0.002 A 
ENDBRANCH  97 100
ENDBRANCH  80  96
ENDBRANCH  75  77
ENDBRANCH  74  75
ENDBRANCH  73  74
ENDBRANCH   1  73
TORSDOF 19
ENDMDL
MODEL 2
REMARK VINA RESULT:     -12.0      0.937      7.033
REMARK SMILES O=C(OCCOCCOC(=O)c1cc(NC(=O)c2ccccc2Cl)ccc1N1CCC[C@H](C[NH+]2CCCC2)C1)c1ccc(-c2c3nc(c(-c4c(F)c(F)c(F)c(F)c4F)c4ccc([nH]4)c(-c4c(F)c(F)c(F)c(F)c4F)c4nc(c(-c5c(F)c(F)c(F)c(F)c5F)c5ccc2[nH]5)C=C4)C=C3)cc1
REMARK SMILES IDX 7 1 6 2 5 3 4 4 3 5 2 6 1 7 40 8 41 9 102 10 42 11 101 12
REMARK SMILES IDX 43 13 44 14 45 15 95 16 46 17 100 18 94 19 96 20 47 21 99 22
REMARK SMILES IDX 93 23 92 24 48 26 80 27 60 28 79 29 61 30 64 31 78 32 97 33
REMARK SMILES IDX 62 34 63 35 77 37 98 38 65 39 49 40 50 41 58 42 51 43 52 44
REMARK SMILES IDX 56 45 59 46 53 47 54 48 57 49 55 50 81 51 82 52 90 53 83 54
REMARK SMILES IDX 84 55 88 56 91 57 85 58 86 59 89 60 87 61 66 62 67 63 75 64
REMARK SMILES IDX 68 65 69 66 73 67 76 68 70 69 71 70 74 71 72 72 8 73 9 74
REMARK SMILES IDX 10 75 11 76 12 77 13 78 27 79 14 80 26 81 25 82 28 83 29 84
REMARK SMILES IDX 39 85 30 86 32 87 31 88 33 89 34 90 35 91 38 92 36 94 37 95
REMARK SMILES IDX 15 96 16 97 17 99 18 100 19 101 23 102 20 103 22 104 24 105
REMARK SMILES IDX 21 106
REMARK H PARENT 96 25 64 36 34 93 15 98
REMARK Flexibility Score: inf
ROOT
ATOM      1  C   UNL A   1      37.502  23.384  25.743  1.00  0.00     0.202 C 
ENDROOT
BRANCH   1   2
ATOM      2  O   UNL A   1      37.612  21.966  25.616  1.00  0.00    -0.374 OA
BRANCH   2   3
ATOM      3  C   UNL A   1      38.872  21.400  25.957  1.00  0.00     0.202 C 
BRANCH   3   4
ATOM      4  C   UNL A   1      39.052  20.041  25.283  1.00  0.00     0.261 C 
BRANCH   4   5
ATOM      5  O   UNL A   1      40.094  19.297  25.933  1.00  0.00    -0.460 OA
BRANCH   5   6
ATOM      6  C   UNL A   1      41.415  19.578  25.976  1.00  0.00     0.338 C 
ATOM      7  O   UNL A   1      42.211  18.671  25.727  1.00  0.00    -0.246 OA
BRANCH   6   8
ATOM      8  C   UNL A   1      41.996  20.913  26.332  1.00  0.00     0.060 A 
ATOM      9  C   UNL A   1      42.310  21.928  25.427  1.00  0.00     0.016 A 
ATOM     10  C   UNL A   1      42.092  21.217  27.700  1.00  0.00     0.016 A 
ATOM     11  C   UNL A   1      42.576  23.219  25.830  1.00  0.00     0.010 A 
ATOM     12  C   UNL A   1      42.409  22.509  28.128  1.00  0.00     0.010 A 
ATOM     13  C   UNL A   1      42.605  23.518  27.182  1.00  0.00    -0.014 A 
BRANCH  13  14
ATOM     14  C   UNL A   1      42.978  24.889  27.530  1.00  0.00     0.031 A 
ATOM     15  C   UNL A   1      44.352  25.338  27.175  1.00  0.00     0.074 A 
ATOM     16  C   UNL A   1      42.029  25.733  27.976  1.00  0.00     0.049 A 
ATOM     17  N   UNL A   1      44.947  26.464  27.445  1.00  0.00    -0.248 NA
ATOM     18  C   UNL A   1      45.165  24.394  26.386  1.00  0.00     0.031 C 
ATOM     19  C   UNL A   1      40.613  25.395  28.150  1.00  0.00     0.029 A 
ATOM     20  N   UNL A   1      42.102  27.051  28.330  1.00  0.00    -0.354 N 
ATOM     21  C   UNL A   1      46.218  26.345  26.906  1.00  0.00     0.074 A 
ATOM     22  C   UNL A   1      46.307  25.053  26.268  1.00  0.00     0.031 C 
ATOM     23  C   UNL A   1      39.952  26.481  28.583  1.00  0.00     0.029 A 
ATOM     24  C   UNL A   1      40.912  27.556  28.794  1.00  0.00     0.049 A 
ATOM     25  H   UNL A   1      42.926  27.585  28.259  1.00  0.00     0.167 HD
ATOM     26  C   UNL A   1      47.220  27.247  26.973  1.00  0.00     0.037 A 
ATOM     27  C   UNL A   1      40.664  28.741  29.382  1.00  0.00     0.037 A 
ATOM     28  C   UNL A   1      47.071  28.523  27.616  1.00  0.00     0.049 A 
ATOM     29  C   UNL A   1      41.834  29.677  29.552  1.00  0.00     0.074 A 
ATOM     30  C   UNL A   1      48.016  29.507  27.821  1.00  0.00     0.029 A 
ATOM     31  N   UNL A   1      45.877  28.984  28.162  1.00  0.00    -0.354 N 
ATOM     32  N   UNL A   1      43.071  29.540  29.129  1.00  0.00    -0.248 NA
ATOM     33  C   UNL A   1      41.588  30.916  30.297  1.00  0.00     0.031 C 
ATOM     34  C   UNL A   1      47.407  30.540  28.542  1.00  0.00     0.029 A 
ATOM     35  C   UNL A   1      46.067  30.228  28.728  1.00  0.00     0.049 A 
ATOM     36  H   UNL A   1      45.023  28.494  28.147  1.00  0.00     0.167 HD
ATOM     37  C   UNL A   1      43.744  30.681  29.536  1.00  0.00     0.074 A 
ATOM     38  C   UNL A   1      42.769  31.511  30.218  1.00  0.00     0.031 C 
ATOM     39  C   UNL A   1      45.049  31.017  29.378  1.00  0.00     0.037 A 
BRANCH  26  40
ATOM     40  C   UNL A   1      48.557  26.833  26.442  1.00  0.00     0.064 A 
ATOM     41  C   UNL A   1      48.938  27.055  25.111  1.00  0.00     0.173 A 
ATOM     42  C   UNL A   1      49.463  26.171  27.284  1.00  0.00     0.173 A 
ATOM     43  F   UNL A   1      48.091  27.645  24.255  1.00  0.00    -0.203 F 
ATOM     44  C   UNL A   1      50.175  26.617  24.640  1.00  0.00     0.198 A 
ATOM     45  C   UNL A   1      50.707  25.758  26.817  1.00  0.00     0.198 A 
ATOM     46  F   UNL A   1      49.135  25.913  28.559  1.00  0.00    -0.203 F 
ATOM     47  F   UNL A   1      50.498  26.791  23.351  1.00  0.00    -0.200 F 
ATOM     48  C   UNL A   1      51.060  25.977  25.495  1.00  0.00     0.200 A 
ATOM     49  F   UNL A   1      51.558  25.137  27.645  1.00  0.00    -0.200 F 
ATOM     50  F   UNL A   1      52.247  25.555  25.040  1.00  0.00    -0.200 F 
ENDBRANCH  26  40
BRANCH  27  51
ATOM     51  C   UNL A   1      39.319  29.065  29.934  1.00  0.00     0.064 A 
ATOM     52  C   UNL A   1      38.363  29.754  29.173  1.00  0.00     0.173 A 
ATOM     53  C   UNL A   1      38.981  28.752  31.260  1.00  0.00     0.173 A 
ATOM     54  F   UNL A   1      38.637  30.096  27.906  1.00  0.00    -0.203 F 
ATOM     55  C   UNL A   1      37.146  30.151  29.728  1.00  0.00     0.198 A 
ATOM     56  C   UNL A   1      37.750  29.115  31.803  1.00  0.00     0.198 A 
ATOM     57  F   UNL A   1      39.852  28.097  32.043  1.00  0.00    -0.203 F 
ATOM     58  F   UNL A   1      36.285  30.874  28.999  1.00  0.00    -0.200 F 
ATOM     59  C   UNL A   1      36.840  29.830  31.041  1.00  0.00     0.200 A 
ATOM     60  F   UNL A   1      37.453  28.788  33.069  1.00  0.00    -0.200 F 
ATOM     61  F   UNL A   1      35.676  30.225  31.578  1.00  0.00    -0.200 F 
ENDBRANCH  27  51
BRANCH  39  62
ATOM     62  C   UNL A   1      45.468  32.352  29.912  1.00  0.00     0.064 A 
ATOM     63  C   UNL A   1      45.996  32.496  31.201  1.00  0.00     0.173 A 
ATOM     64  C   UNL A   1      45.393  33.490  29.094  1.00  0.00     0.173 A 
ATOM     65  F   UNL A   1      46.072  31.438  32.023  1.00  0.00    -0.203 F 
ATOM     66  C   UNL A   1      46.411  33.740  31.664  1.00  0.00     0.198 A 
ATOM     67  C   UNL A   1      45.845  34.723  29.546  1.00  0.00     0.198 A 
ATOM     68  F   UNL A   1      44.902  33.396  27.848  1.00  0.00    -0.203 F 
ATOM     69  F   UNL A   1      46.866  33.867  32.918  1.00  0.00    -0.200 F 
ATOM     70  C   UNL A   1      46.347  34.849  30.833  1.00  0.00     0.200 A 
ATOM     71  F   UNL A   1      45.801  35.788  28.735  1.00  0.00    -0.200 F 
ATOM     72  F   UNL A   1      46.763  36.042  31.275  1.00  0.00    -0.200 F 
ENDBRANCH  39  62
ENDBRANCH  13  14
ENDBRANCH   6   8
ENDBRANCH   5   6
ENDBRANCH   4   5
ENDBRANCH   3   4
ENDBRANCH   2   3
ENDBRANCH   1   2
BRANCH   1  73
ATOM     73  C   UNL A   1      36.022  23.663  25.795  1.00  0.00     0.261 C 
BRANCH  73  74
ATOM     74  O   UNL A   1      35.523  23.004  24.629  1.00  0.00    -0.460 OA
BRANCH  74  75
ATOM     75  C   UNL A   1      34.516  23.554  23.921  1.00  0.00     0.340 C 
ATOM     76  O   UNL A   1      34.562  24.001  22.798  1.00  0.00    -0.246 OA
BRANCH  75  77
ATOM     77  C   UNL A   1      33.285  23.395  24.743  1.00  0.00     0.085 A 
ATOM     78  C   UNL A   1      32.906  24.562  25.445  1.00  0.00     0.044 A 
ATOM     79  C   UNL A   1      32.498  22.217  24.780  1.00  0.00     0.051 A 
ATOM     80  C   UNL A   1      31.746  24.589  26.209  1.00  0.00     0.042 A 
ATOM     81  C   UNL A   1      31.349  22.274  25.591  1.00  0.00     0.029 A 
ATOM     82  C   UNL A   1      30.987  23.425  26.303  1.00  0.00     0.028 A 
BRANCH  79  83
ATOM     83  N   UNL A   1      32.771  21.008  24.139  1.00  0.00    -0.370 N 
ATOM     84  C   UNL A   1      32.245  20.804  22.783  1.00  0.00     0.116 C 
ATOM     85  C   UNL A   1      33.976  20.235  24.439  1.00  0.00     0.126 C 
ATOM     86  C   UNL A   1      31.987  19.312  22.554  1.00  0.00     0.022 C 
ATOM     87  C   UNL A   1      33.706  18.748  24.365  1.00  0.00     0.064 C 
ATOM     88  C   UNL A   1      33.180  18.440  22.952  1.00  0.00     0.013 C 
BRANCH  87  89
ATOM     89  C   UNL A   1      32.833  18.368  25.574  1.00  0.00     0.267 C 
BRANCH  89  90
ATOM     90  N   UNL A   1      33.103  17.094  26.237  1.00  0.00    -0.335 N 
ATOM     91  C   UNL A   1      34.388  16.486  25.890  1.00  0.00     0.262 C 
ATOM     92  C   UNL A   1      32.067  16.086  26.059  1.00  0.00     0.262 C 
ATOM     93  H   UNL A   1      33.123  17.379  27.216  1.00  0.00     0.348 HD
ATOM     94  C   UNL A   1      34.078  15.414  24.864  1.00  0.00     0.067 C 
ATOM     95  C   UNL A   1      32.649  14.996  25.167  1.00  0.00     0.067 C 
ENDBRANCH  89  90
ENDBRANCH  87  89
ENDBRANCH  79  83
BRANCH  80  96
ATOM     96  N   UNL A   1      31.319  25.696  26.959  1.00  0.00    -0.322 N 
ATOM     97  C   UNL A   1      31.356  27.047  26.703  1.00  0.00     0.257 C 
ATOM     98  H   UNL A   1      30.920  25.464  27.828  1.00  0.00     0.170 HD
ATOM     99  O   UNL A   1      31.185  27.859  27.610  1.00  0.00    -0.269 OA
BRANCH  97 100
ATOM    100  C   UNL A   1      31.478  27.567  25.332  1.00  0.00     0.058 A 
ATOM    101  C   UNL A   1      30.439  27.299  24.430  1.00  0.00     0.015 A 
ATOM    102  C   UNL A   1      32.649  28.188  24.887  1.00  0.00     0.053 A 
ATOM    103  C   UNL A   1      30.548  27.707  23.100  1.00  0.00     0.001 A 
ATOM    104  C   UNL A   1      32.766  28.559  23.544  1.00  0.00     0.021 A 
ATOM    105  Cl  UNL A   1      33.990  28.516  25.925  1.00  0.00    -0.083 Cl
ATOM    106  C   UNL A   1      31.712  28.335  22.656  1.00  0.00     0.002 A 
ENDBRANCH  97 100
ENDBRANCH  80  96
ENDBRANCH  75  77
ENDBRANCH  74  75
ENDBRANCH  73  74
ENDBRANCH   1  73
TORSDOF 19
ENDMDL
MODEL 3
REMARK VINA RESULT:     -11.8      1.476      2.497
REMARK SMILES O=C(OCCOCCOC(=O)c1cc(NC(=O)c2ccccc2Cl)ccc1N1CCC[C@H](C[NH+]2CCCC2)C1)c1ccc(-c2c3nc(c(-c4c(F)c(F)c(F)c(F)c4F)c4ccc([nH]4)c(-c4c(F)c(F)c(F)c(F)c4F)c4nc(c(-c5c(F)c(F)c(F)c(F)c5F)c5ccc2[nH]5)C=C4)C=C3)cc1
REMARK SMILES IDX 7 1 6 2 5 3 4 4 3 5 2 6 1 7 40 8 41 9 102 10 42 11 101 12
REMARK SMILES IDX 43 13 44 14 45 15 95 16 46 17 100 18 94 19 96 20 47 21 99 22
REMARK SMILES IDX 93 23 92 24 48 26 80 27 60 28 79 29 61 30 64 31 78 32 97 33
REMARK SMILES IDX 62 34 63 35 77 37 98 38 65 39 49 40 50 41 58 42 51 43 52 44
REMARK SMILES IDX 56 45 59 46 53 47 54 48 57 49 55 50 81 51 82 52 90 53 83 54
REMARK SMILES IDX 84 55 88 56 91 57 85 58 86 59 89 60 87 61 66 62 67 63 75 64
REMARK SMILES IDX 68 65 69 66 73 67 76 68 70 69 71 70 74 71 72 72 8 73 9 74
REMARK SMILES IDX 10 75 11 76 12 77 13 78 27 79 14 80 26 81 25 82 28 83 29 84
REMARK SMILES IDX 39 85 30 86 32 87 31 88 33 89 34 90 35 91 38 92 36 94 37 95
REMARK SMILES IDX 15 96 16 97 17 99 18 100 19 101 23 102 20 103 22 104 24 105
REMARK SMILES IDX 21 106
REMARK H PARENT 96 25 64 36 34 93 15 98
REMARK Flexibility Score: inf
ROOT
ATOM      1  C   UNL A   1      37.051  23.191  25.408  1.00  0.00     0.202 C 
ENDROOT
BRANCH   1   2
ATOM      2  O   UNL A   1      37.345  21.806  25.583  1.00  0.00    -0.374 OA
BRANCH   2   3
ATOM      3  C   UNL A   1      38.711  21.474  25.801  1.00  0.00     0.202 C 
BRANCH   3   4
ATOM      4  C   UNL A   1      38.990  20.034  25.376  1.00  0.00     0.261 C 
BRANCH   4   5
ATOM      5  O   UNL A   1      40.038  19.472  26.181  1.00  0.00    -0.460 OA
BRANCH   5   6
ATOM      6  C   UNL A   1      41.371  19.668  26.068  1.00  0.00     0.338 C 
ATOM      7  O   UNL A   1      42.075  18.708  25.751  1.00  0.00    -0.246 OA
BRANCH   6   8
ATOM      8  C   UNL A   1      42.071  20.968  26.326  1.00  0.00     0.060 A 
ATOM      9  C   UNL A   1      42.354  21.941  25.367  1.00  0.00     0.016 A 
ATOM     10  C   UNL A   1      42.327  21.293  27.668  1.00  0.00     0.016 A 
ATOM     11  C   UNL A   1      42.743  23.220  25.704  1.00  0.00     0.010 A 
ATOM     12  C   UNL A   1      42.769  22.570  28.026  1.00  0.00     0.010 A 
ATOM     13  C   UNL A   1      42.931  23.543  27.037  1.00  0.00    -0.014 A 
BRANCH  13  14
ATOM     14  C   UNL A   1      43.426  24.894  27.308  1.00  0.00     0.031 A 
ATOM     15  C   UNL A   1      42.489  25.849  27.961  1.00  0.00     0.074 A 
ATOM     16  C   UNL A   1      44.733  25.161  27.134  1.00  0.00     0.049 A 
ATOM     17  N   UNL A   1      42.654  27.113  28.229  1.00  0.00    -0.248 NA
ATOM     18  C   UNL A   1      41.191  25.300  28.393  1.00  0.00     0.031 C 
ATOM     19  C   UNL A   1      45.739  24.193  26.685  1.00  0.00     0.029 A 
ATOM     20  N   UNL A   1      45.445  26.307  27.345  1.00  0.00    -0.354 N 
ATOM     21  C   UNL A   1      41.465  27.521  28.813  1.00  0.00     0.074 A 
ATOM     22  C   UNL A   1      40.594  26.373  28.888  1.00  0.00     0.031 C 
ATOM     23  C   UNL A   1      46.941  24.793  26.651  1.00  0.00     0.029 A 
ATOM     24  C   UNL A   1      46.769  26.198  26.993  1.00  0.00     0.049 A 
ATOM     25  H   UNL A   1      45.050  27.130  27.713  1.00  0.00     0.167 HD
ATOM     26  C   UNL A   1      41.144  28.767  29.221  1.00  0.00     0.037 A 
ATOM     27  C   UNL A   1      47.706  27.160  26.903  1.00  0.00     0.037 A 
ATOM     28  C   UNL A   1      42.057  29.872  29.128  1.00  0.00     0.049 A 
ATOM     29  C   UNL A   1      47.279  28.564  27.250  1.00  0.00     0.074 A 
ATOM     30  C   UNL A   1      41.847  31.200  29.438  1.00  0.00     0.029 A 
ATOM     31  N   UNL A   1      43.371  29.760  28.683  1.00  0.00    -0.354 N 
ATOM     32  N   UNL A   1      46.125  28.986  27.716  1.00  0.00    -0.248 NA
ATOM     33  C   UNL A   1      48.266  29.627  27.039  1.00  0.00     0.031 C 
ATOM     34  C   UNL A   1      43.017  31.901  29.126  1.00  0.00     0.029 A 
ATOM     35  C   UNL A   1      43.977  31.000  28.685  1.00  0.00     0.049 A 
ATOM     36  H   UNL A   1      43.804  28.920  28.408  1.00  0.00     0.167 HD
ATOM     37  C   UNL A   1      46.253  30.356  27.874  1.00  0.00     0.074 A 
ATOM     38  C   UNL A   1      47.608  30.690  27.478  1.00  0.00     0.031 C 
ATOM     39  C   UNL A   1      45.340  31.267  28.296  1.00  0.00     0.037 A 
BRANCH  26  40
ATOM     40  C   UNL A   1      39.740  28.998  29.687  1.00  0.00     0.064 A 
ATOM     41  C   UNL A   1      38.723  29.427  28.822  1.00  0.00     0.173 A 
ATOM     42  C   UNL A   1      39.419  28.812  31.039  1.00  0.00     0.173 A 
ATOM     43  F   UNL A   1      38.988  29.661  27.529  1.00  0.00    -0.203 F 
ATOM     44  C   UNL A   1      37.436  29.673  29.301  1.00  0.00     0.198 A 
ATOM     45  C   UNL A   1      38.128  29.033  31.509  1.00  0.00     0.198 A 
ATOM     46  F   UNL A   1      40.364  28.425  31.911  1.00  0.00    -0.203 F 
ATOM     47  F   UNL A   1      36.492  30.134  28.469  1.00  0.00    -0.200 F 
ATOM     48  C   UNL A   1      37.140  29.468  30.640  1.00  0.00     0.200 A 
ATOM     49  F   UNL A   1      37.845  28.837  32.803  1.00  0.00    -0.200 F 
ATOM     50  F   UNL A   1      35.903  29.706  31.098  1.00  0.00    -0.200 F 
ENDBRANCH  26  40
BRANCH  27  51
ATOM     51  C   UNL A   1      49.070  26.865  26.382  1.00  0.00     0.064 A 
ATOM     52  C   UNL A   1      49.378  27.006  25.021  1.00  0.00     0.173 A 
ATOM     53  C   UNL A   1      50.081  26.372  27.223  1.00  0.00     0.173 A 
ATOM     54  F   UNL A   1      48.447  27.455  24.167  1.00  0.00    -0.203 F 
ATOM     55  C   UNL A   1      50.624  26.626  24.518  1.00  0.00     0.198 A 
ATOM     56  C   UNL A   1      51.337  26.029  26.727  1.00  0.00     0.198 A 
ATOM     57  F   UNL A   1      49.849  26.211  28.534  1.00  0.00    -0.203 F 
ATOM     58  F   UNL A   1      50.862  26.701  23.201  1.00  0.00    -0.200 F 
ATOM     59  C   UNL A   1      51.602  26.140  25.371  1.00  0.00     0.200 A 
ATOM     60  F   UNL A   1      52.284  25.574  27.559  1.00  0.00    -0.200 F 
ATOM     61  F   UNL A   1      52.793  25.762  24.886  1.00  0.00    -0.200 F 
ENDBRANCH  27  51
BRANCH  39  62
ATOM     62  C   UNL A   1      45.802  32.689  28.388  1.00  0.00     0.064 A 
ATOM     63  C   UNL A   1      45.641  33.585  27.324  1.00  0.00     0.173 A 
ATOM     64  C   UNL A   1      46.359  33.169  29.583  1.00  0.00     0.173 A 
ATOM     65  F   UNL A   1      45.128  33.164  26.157  1.00  0.00    -0.203 F 
ATOM     66  C   UNL A   1      46.045  34.910  27.444  1.00  0.00     0.198 A 
ATOM     67  C   UNL A   1      46.725  34.503  29.712  1.00  0.00     0.198 A 
ATOM     68  F   UNL A   1      46.522  32.347  30.632  1.00  0.00    -0.203 F 
ATOM     69  F   UNL A   1      45.930  35.740  26.398  1.00  0.00    -0.200 F 
ATOM     70  C   UNL A   1      46.576  35.370  28.640  1.00  0.00     0.200 A 
ATOM     71  F   UNL A   1      47.218  34.950  30.875  1.00  0.00    -0.200 F 
ATOM     72  F   UNL A   1      46.949  36.651  28.759  1.00  0.00    -0.200 F 
ENDBRANCH  39  62
ENDBRANCH  13  14
ENDBRANCH   6   8
ENDBRANCH   5   6
ENDBRANCH   4   5
ENDBRANCH   3   4
ENDBRANCH   2   3
ENDBRANCH   1   2
BRANCH   1  73
ATOM     73  C   UNL A   1      36.628  23.328  23.967  1.00  0.00     0.261 C 
BRANCH  73  74
ATOM     74  O   UNL A   1      35.275  23.778  24.065  1.00  0.00    -0.460 OA
BRANCH  74  75
ATOM     75  C   UNL A   1      34.419  23.569  23.043  1.00  0.00     0.340 C 
ATOM     76  O   UNL A   1      34.620  22.938  22.032  1.00  0.00    -0.246 OA
BRANCH  75  77
ATOM     77  C   UNL A   1      33.118  24.165  23.453  1.00  0.00     0.085 A 
ATOM     78  C   UNL A   1      32.730  25.286  22.683  1.00  0.00     0.044 A 
ATOM     79  C   UNL A   1      32.283  23.635  24.467  1.00  0.00     0.051 A 
ATOM     80  C   UNL A   1      31.511  25.916  22.905  1.00  0.00     0.042 A 
ATOM     81  C   UNL A   1      31.072  24.320  24.683  1.00  0.00     0.029 A 
ATOM     82  C   UNL A   1      30.700  25.444  23.934  1.00  0.00     0.028 A 
BRANCH  79  83
ATOM     83  N   UNL A   1      32.558  22.544  25.293  1.00  0.00    -0.370 N 
ATOM     84  C   UNL A   1      33.182  22.800  26.599  1.00  0.00     0.116 C 
ATOM     85  C   UNL A   1      31.763  21.317  25.237  1.00  0.00     0.126 C 
ATOM     86  C   UNL A   1      34.038  21.596  27.001  1.00  0.00     0.022 C 
ATOM     87  C   UNL A   1      32.622  20.097  25.484  1.00  0.00     0.064 C 
ATOM     88  C   UNL A   1      33.291  20.268  26.859  1.00  0.00     0.013 C 
BRANCH  87  89
ATOM     89  C   UNL A   1      33.519  19.895  24.250  1.00  0.00     0.267 C 
BRANCH  89  90
ATOM     90  N   UNL A   1      33.653  18.542  23.716  1.00  0.00    -0.335 N 
ATOM     91  C   UNL A   1      32.453  17.713  23.845  1.00  0.00     0.262 C 
ATOM     92  C   UNL A   1      34.777  17.786  24.252  1.00  0.00     0.262 C 
ATOM     93  H   UNL A   1      33.821  18.731  22.728  1.00  0.00     0.348 HD
ATOM     94  C   UNL A   1      32.691  16.820  25.047  1.00  0.00     0.067 C 
ATOM     95  C   UNL A   1      34.201  16.681  25.126  1.00  0.00     0.067 C 
ENDBRANCH  89  90
ENDBRANCH  87  89
ENDBRANCH  79  83
BRANCH  80  96
ATOM     96  N   UNL A   1      31.069  27.050  22.207  1.00  0.00    -0.322 N 
ATOM     97  C   UNL A   1      30.917  28.361  22.591  1.00  0.00     0.257 C 
ATOM     98  H   UNL A   1      30.820  26.875  21.271  1.00  0.00     0.170 HD
ATOM     99  O   UNL A   1      30.252  29.139  21.907  1.00  0.00    -0.269 OA
BRANCH  97 100
ATOM    100  C   UNL A   1      31.635  28.911  23.751  1.00  0.00     0.058 A 
ATOM    101  C   UNL A   1      30.877  29.415  24.818  1.00  0.00     0.015 A 
ATOM    102  C   UNL A   1      33.025  29.063  23.747  1.00  0.00     0.053 A 
ATOM    103  C   UNL A   1      31.515  30.016  25.904  1.00  0.00     0.001 A 
ATOM    104  C   UNL A   1      33.653  29.701  24.821  1.00  0.00     0.021 A 
ATOM    105  Cl  UNL A   1      34.025  28.507  22.454  1.00  0.00    -0.083 Cl
ATOM    106  C   UNL A   1      32.902  30.160  25.906  1.00  0.00     0.002 A 
ENDBRANCH  97 100
ENDBRANCH  80  96
ENDBRANCH  75  77
ENDBRANCH  74  75
ENDBRANCH  73  74
ENDBRANCH   1  73
TORSDOF 19
ENDMDL
