MODEL 1
REMARK VINA RESULT:     -10.9      0.000      0.000
REMARK SMILES C[C@H](Cc1cccs1)N(C)C(=O)N1CCC[C@]1(C)C(=O)OCCOCCOC(=O)c1ccc(-c2c3nc(c(-c4c(F)c(F)c(F)c(F)c4F)c4ccc([nH]4)c(-c4c(F)c(F)c(F)c(F)c4F)c4nc(c(-c5c(F)c(F)c(F)c(F)c5F)c5ccc2[nH]5)C=C4)C=C3)cc1
REMARK SMILES IDX 22 1 21 2 19 3 20 4 17 5 13 6 14 7 15 8 16 9 18 10 11 11
REMARK SMILES IDX 12 12 9 13 10 14 2 15 1 16 3 17 4 18 5 19 8 20 6 21 7 22
REMARK SMILES IDX 23 23 24 24 25 25 26 26 27 27 28 28 29 29 30 30 31 31 92 32
REMARK SMILES IDX 32 33 91 34 33 35 34 36 35 37 85 38 36 39 90 40 84 41 86 42
REMARK SMILES IDX 37 43 89 44 83 45 82 46 38 48 70 49 50 50 69 51 51 52 54 53
REMARK SMILES IDX 68 54 87 55 52 56 53 57 67 59 88 60 55 61 39 62 40 63 48 64
REMARK SMILES IDX 41 65 42 66 46 67 49 68 43 69 44 70 47 71 45 72 71 73 72 74
REMARK SMILES IDX 80 75 73 76 74 77 78 78 81 79 75 80 76 81 79 82 77 83 56 84
REMARK SMILES IDX 57 85 65 86 58 87 59 88 63 89 66 90 60 91 61 92 64 93 62 94
REMARK H PARENT 86 47 54 58
REMARK Flexibility Score: inf
ROOT
ATOM      1  C   UNL A   1      32.856  28.303  27.342  1.00  0.00     0.261 C 
ENDROOT
BRANCH   1   2
ATOM      2  O   UNL A   1      33.121  27.349  26.298  1.00  0.00    -0.461 OA
BRANCH   2   3
ATOM      3  C   UNL A   1      32.264  26.306  26.237  1.00  0.00     0.331 C 
ATOM      4  O   UNL A   1      31.239  26.224  26.911  1.00  0.00    -0.249 OA
BRANCH   3   5
ATOM      5  C   UNL A   1      32.695  25.191  25.254  1.00  0.00     0.139 C 
ATOM      6  N   UNL A   1      32.147  25.118  23.858  1.00  0.00    -0.308 N 
ATOM      7  C   UNL A   1      31.739  23.750  23.569  1.00  0.00     0.123 C 
ATOM      8  C   UNL A   1      31.195  23.236  24.871  1.00  0.00     0.025 C 
ATOM      9  C   UNL A   1      32.120  23.868  25.899  1.00  0.00     0.042 C 
ATOM     10  C   UNL A   1      34.228  25.092  25.322  1.00  0.00     0.048 C 
BRANCH   6  11
ATOM     11  C   UNL A   1      31.833  26.042  22.895  1.00  0.00     0.320 C 
ATOM     12  O   UNL A   1      31.803  25.649  21.725  1.00  0.00    -0.248 OA
BRANCH  11  13
ATOM     13  N   UNL A   1      31.609  27.366  23.169  1.00  0.00    -0.325 N 
ATOM     14  C   UNL A   1      32.631  28.386  23.227  1.00  0.00     0.149 C 
BRANCH  13  15
ATOM     15  C   UNL A   1      30.216  27.826  23.440  1.00  0.00     0.088 C 
ATOM     16  C   UNL A   1      29.416  26.718  24.098  1.00  0.00     0.031 C 
BRANCH  15  17
ATOM     17  C   UNL A   1      29.496  28.599  22.288  1.00  0.00     0.071 C 
BRANCH  17  18
ATOM     18  C   UNL A   1      29.110  30.047  22.502  1.00  0.00     0.007 A 
ATOM     19  C   UNL A   1      29.222  30.802  23.655  1.00  0.00     0.015 A 
ATOM     20  S   UNL A   1      28.296  30.941  21.278  1.00  0.00    -0.149 S 
ATOM     21  C   UNL A   1      28.778  32.146  23.488  1.00  0.00     0.012 A 
ATOM     22  C   UNL A   1      28.281  32.365  22.224  1.00  0.00     0.065 A 
ENDBRANCH  17  18
ENDBRANCH  15  17
ENDBRANCH  13  15
ENDBRANCH  11  13
ENDBRANCH   6  11
ENDBRANCH   3   5
ENDBRANCH   2   3
ENDBRANCH   1   2
BRANCH   1  23
ATOM     23  C   UNL A   1      31.915  29.379  26.811  1.00  0.00     0.202 C 
BRANCH  23  24
ATOM     24  O   UNL A   1      32.417  30.707  26.972  1.00  0.00    -0.374 OA
BRANCH  24  25
ATOM     25  C   UNL A   1      31.522  31.753  26.579  1.00  0.00     0.202 C 
BRANCH  25  26
ATOM     26  C   UNL A   1      32.025  33.172  26.866  1.00  0.00     0.261 C 
BRANCH  26  27
ATOM     27  O   UNL A   1      32.865  33.225  28.032  1.00  0.00    -0.460 OA
BRANCH  27  28
ATOM     28  C   UNL A   1      33.987  33.978  27.933  1.00  0.00     0.338 C 
ATOM     29  O   UNL A   1      34.075  35.150  27.611  1.00  0.00    -0.246 OA
BRANCH  28  30
ATOM     30  C   UNL A   1      35.120  33.193  28.468  1.00  0.00     0.060 A 
ATOM     31  C   UNL A   1      34.878  31.917  28.991  1.00  0.00     0.016 A 
ATOM     32  C   UNL A   1      36.418  33.695  28.429  1.00  0.00     0.016 A 
ATOM     33  C   UNL A   1      35.936  31.144  29.484  1.00  0.00     0.010 A 
ATOM     34  C   UNL A   1      37.478  32.905  28.886  1.00  0.00     0.010 A 
ATOM     35  C   UNL A   1      37.249  31.635  29.448  1.00  0.00    -0.014 A 
BRANCH  35  36
ATOM     36  C   UNL A   1      38.364  30.919  30.136  1.00  0.00     0.031 A 
ATOM     37  C   UNL A   1      38.610  31.207  31.597  1.00  0.00     0.074 A 
ATOM     38  C   UNL A   1      39.159  30.038  29.497  1.00  0.00     0.049 A 
ATOM     39  N   UNL A   1      39.561  30.775  32.387  1.00  0.00    -0.248 NA
ATOM     40  C   UNL A   1      37.676  32.142  32.245  1.00  0.00     0.031 C 
ATOM     41  C   UNL A   1      39.068  29.671  28.085  1.00  0.00     0.029 A 
ATOM     42  N   UNL A   1      40.214  29.287  29.966  1.00  0.00    -0.354 N 
ATOM     43  C   UNL A   1      39.358  31.419  33.602  1.00  0.00     0.074 A 
ATOM     44  C   UNL A   1      38.243  32.320  33.426  1.00  0.00     0.031 C 
ATOM     45  C   UNL A   1      40.008  28.748  27.809  1.00  0.00     0.029 A 
ATOM     46  C   UNL A   1      40.788  28.476  29.016  1.00  0.00     0.049 A 
ATOM     47  H   UNL A   1      40.528  29.327  30.898  1.00  0.00     0.167 HD
ATOM     48  C   UNL A   1      40.012  31.253  34.777  1.00  0.00     0.037 A 
ATOM     49  C   UNL A   1      41.823  27.616  29.111  1.00  0.00     0.037 A 
ATOM     50  C   UNL A   1      41.073  30.309  34.989  1.00  0.00     0.049 A 
ATOM     51  C   UNL A   1      42.527  27.433  30.434  1.00  0.00     0.074 A 
ATOM     52  C   UNL A   1      41.749  30.020  36.160  1.00  0.00     0.029 A 
ATOM     53  N   UNL A   1      41.604  29.490  34.005  1.00  0.00    -0.354 N 
ATOM     54  N   UNL A   1      42.289  28.006  31.588  1.00  0.00    -0.248 NA
ATOM     55  C   UNL A   1      43.643  26.474  30.466  1.00  0.00     0.031 C 
ATOM     56  C   UNL A   1      42.713  29.047  35.880  1.00  0.00     0.029 A 
ATOM     57  C   UNL A   1      42.606  28.700  34.542  1.00  0.00     0.049 A 
ATOM     58  H   UNL A   1      41.312  29.471  33.065  1.00  0.00     0.167 HD
ATOM     59  C   UNL A   1      43.196  27.454  32.485  1.00  0.00     0.074 A 
ATOM     60  C   UNL A   1      43.984  26.491  31.748  1.00  0.00     0.031 C 
ATOM     61  C   UNL A   1      43.363  27.723  33.804  1.00  0.00     0.037 A 
BRANCH  48  62
ATOM     62  C   UNL A   1      39.574  32.108  35.930  1.00  0.00     0.064 A 
ATOM     63  C   UNL A   1      40.177  33.346  36.200  1.00  0.00     0.173 A 
ATOM     64  C   UNL A   1      38.538  31.683  36.776  1.00  0.00     0.173 A 
ATOM     65  F   UNL A   1      41.183  33.789  35.430  1.00  0.00    -0.203 F 
ATOM     66  C   UNL A   1      39.791  34.106  37.300  1.00  0.00     0.198 A 
ATOM     67  C   UNL A   1      38.129  32.464  37.853  1.00  0.00     0.198 A 
ATOM     68  F   UNL A   1      37.922  30.512  36.558  1.00  0.00    -0.203 F 
ATOM     69  F   UNL A   1      40.429  35.252  37.576  1.00  0.00    -0.200 F 
ATOM     70  C   UNL A   1      38.764  33.668  38.121  1.00  0.00     0.200 A 
ATOM     71  F   UNL A   1      37.126  32.048  38.638  1.00  0.00    -0.200 F 
ATOM     72  F   UNL A   1      38.391  34.402  39.179  1.00  0.00    -0.200 F 
ENDBRANCH  48  62
BRANCH  49  73
ATOM     73  C   UNL A   1      42.255  26.824  27.926  1.00  0.00     0.064 A 
ATOM     74  C   UNL A   1      43.256  27.302  27.066  1.00  0.00     0.173 A 
ATOM     75  C   UNL A   1      41.647  25.603  27.600  1.00  0.00     0.173 A 
ATOM     76  F   UNL A   1      43.846  28.479  27.318  1.00  0.00    -0.203 F 
ATOM     77  C   UNL A   1      43.610  26.605  25.912  1.00  0.00     0.198 A 
ATOM     78  C   UNL A   1      42.022  24.893  26.461  1.00  0.00     0.198 A 
ATOM     79  F   UNL A   1      40.684  25.101  28.386  1.00  0.00    -0.203 F 
ATOM     80  F   UNL A   1      44.528  27.116  25.079  1.00  0.00    -0.200 F 
ATOM     81  C   UNL A   1      42.996  25.400  25.612  1.00  0.00     0.200 A 
ATOM     82  F   UNL A   1      41.433  23.723  26.177  1.00  0.00    -0.200 F 
ATOM     83  F   UNL A   1      43.333  24.733  24.500  1.00  0.00    -0.200 F 
ENDBRANCH  49  73
BRANCH  61  84
ATOM     84  C   UNL A   1      44.399  26.937  34.555  1.00  0.00     0.064 A 
ATOM     85  C   UNL A   1      44.103  25.699  35.144  1.00  0.00     0.173 A 
ATOM     86  C   UNL A   1      45.722  27.401  34.630  1.00  0.00     0.173 A 
ATOM     87  F   UNL A   1      42.852  25.218  35.111  1.00  0.00    -0.203 F 
ATOM     88  C   UNL A   1      45.090  24.963  35.795  1.00  0.00     0.198 A 
ATOM     89  C   UNL A   1      46.712  26.648  35.256  1.00  0.00     0.198 A 
ATOM     90  F   UNL A   1      46.060  28.574  34.076  1.00  0.00    -0.203 F 
ATOM     91  F   UNL A   1      44.777  23.800  36.383  1.00  0.00    -0.200 F 
ATOM     92  C   UNL A   1      46.394  25.433  35.843  1.00  0.00     0.200 A 
ATOM     93  F   UNL A   1      47.974  27.097  35.287  1.00  0.00    -0.200 F 
ATOM     94  F   UNL A   1      47.344  24.716  36.458  1.00  0.00    -0.200 F 
ENDBRANCH  61  84
ENDBRANCH  35  36
ENDBRANCH  28  30
ENDBRANCH  27  28
ENDBRANCH  26  27
ENDBRANCH  25  26
ENDBRANCH  24  25
ENDBRANCH  23  24
ENDBRANCH   1  23
TORSDOF 19
ENDMDL
MODEL 2
REMARK VINA RESULT:     -10.8      4.601     10.117
REMARK SMILES C[C@H](Cc1cccs1)N(C)C(=O)N1CCC[C@]1(C)C(=O)OCCOCCOC(=O)c1ccc(-c2c3nc(c(-c4c(F)c(F)c(F)c(F)c4F)c4ccc([nH]4)c(-c4c(F)c(F)c(F)c(F)c4F)c4nc(c(-c5c(F)c(F)c(F)c(F)c5F)c5ccc2[nH]5)C=C4)C=C3)cc1
REMARK SMILES IDX 22 1 21 2 19 3 20 4 17 5 13 6 14 7 15 8 16 9 18 10 11 11
REMARK SMILES IDX 12 12 9 13 10 14 2 15 1 16 3 17 4 18 5 19 8 20 6 21 7 22
REMARK SMILES IDX 23 23 24 24 25 25 26 26 27 27 28 28 29 29 30 30 31 31 92 32
REMARK SMILES IDX 32 33 91 34 33 35 34 36 35 37 85 38 36 39 90 40 84 41 86 42
REMARK SMILES IDX 37 43 89 44 83 45 82 46 38 48 70 49 50 50 69 51 51 52 54 53
REMARK SMILES IDX 68 54 87 55 52 56 53 57 67 59 88 60 55 61 39 62 40 63 48 64
REMARK SMILES IDX 41 65 42 66 46 67 49 68 43 69 44 70 47 71 45 72 71 73 72 74
REMARK SMILES IDX 80 75 73 76 74 77 78 78 81 79 75 80 76 81 79 82 77 83 56 84
REMARK SMILES IDX 57 85 65 86 58 87 59 88 63 89 66 90 60 91 61 92 64 93 62 94
REMARK H PARENT 86 47 54 58
REMARK Flexibility Score: inf
ROOT
ATOM      1  C   UNL A   1      36.599  23.130  23.615  1.00  0.00     0.261 C 
ENDROOT
BRANCH   1   2
ATOM      2  O   UNL A   1      35.179  23.122  23.383  1.00  0.00    -0.461 OA
BRANCH   2   3
ATOM      3  C   UNL A   1      34.434  23.718  24.340  1.00  0.00     0.331 C 
ATOM      4  O   UNL A   1      34.725  24.791  24.863  1.00  0.00    -0.249 OA
BRANCH   3   5
ATOM      5  C   UNL A   1      33.176  22.915  24.752  1.00  0.00     0.139 C 
ATOM      6  N   UNL A   1      31.806  23.531  24.723  1.00  0.00    -0.308 N 
ATOM      7  C   UNL A   1      31.111  23.221  25.966  1.00  0.00     0.123 C 
ATOM      8  C   UNL A   1      32.186  23.250  27.015  1.00  0.00     0.025 C 
ATOM      9  C   UNL A   1      33.381  22.648  26.296  1.00  0.00     0.042 C 
ATOM     10  C   UNL A   1      33.255  21.551  24.047  1.00  0.00     0.048 C 
BRANCH   6  11
ATOM     11  C   UNL A   1      31.153  24.395  23.883  1.00  0.00     0.320 C 
ATOM     12  O   UNL A   1      30.277  23.920  23.155  1.00  0.00    -0.248 OA
BRANCH  11  13
ATOM     13  N   UNL A   1      31.466  25.726  23.784  1.00  0.00    -0.325 N 
ATOM     14  C   UNL A   1      32.428  26.287  22.864  1.00  0.00     0.149 C 
BRANCH  13  15
ATOM     15  C   UNL A   1      30.786  26.701  24.687  1.00  0.00     0.088 C 
ATOM     16  C   UNL A   1      30.530  28.003  23.955  1.00  0.00     0.031 C 
BRANCH  15  17
ATOM     17  C   UNL A   1      31.359  26.831  26.136  1.00  0.00     0.071 C 
BRANCH  17  18
ATOM     18  C   UNL A   1      32.406  27.886  26.421  1.00  0.00     0.007 A 
ATOM     19  C   UNL A   1      33.773  27.812  26.223  1.00  0.00     0.015 A 
ATOM     20  S   UNL A   1      31.995  29.355  27.215  1.00  0.00    -0.149 S 
ATOM     21  C   UNL A   1      34.455  29.010  26.585  1.00  0.00     0.012 A 
ATOM     22  C   UNL A   1      33.595  29.948  27.107  1.00  0.00     0.065 A 
ENDBRANCH  17  18
ENDBRANCH  15  17
ENDBRANCH  13  15
ENDBRANCH  11  13
ENDBRANCH   6  11
ENDBRANCH   3   5
ENDBRANCH   2   3
ENDBRANCH   1   2
BRANCH   1  23
ATOM     23  C   UNL A   1      36.936  22.122  24.706  1.00  0.00     0.202 C 
BRANCH  23  24
ATOM     24  O   UNL A   1      37.708  21.013  24.241  1.00  0.00    -0.374 OA
BRANCH  24  25
ATOM     25  C   UNL A   1      37.660  19.844  25.066  1.00  0.00     0.202 C 
BRANCH  25  26
ATOM     26  C   UNL A   1      39.014  19.398  25.629  1.00  0.00     0.261 C 
BRANCH  26  27
ATOM     27  O   UNL A   1      39.913  20.504  25.824  1.00  0.00    -0.460 OA
BRANCH  27  28
ATOM     28  C   UNL A   1      40.567  20.548  27.009  1.00  0.00     0.338 C 
ATOM     29  O   UNL A   1      40.976  19.611  27.672  1.00  0.00    -0.246 OA
BRANCH  28  30
ATOM     30  C   UNL A   1      40.888  21.960  27.310  1.00  0.00     0.060 A 
ATOM     31  C   UNL A   1      40.290  22.970  26.548  1.00  0.00     0.016 A 
ATOM     32  C   UNL A   1      41.747  22.290  28.354  1.00  0.00     0.016 A 
ATOM     33  C   UNL A   1      40.560  24.316  26.826  1.00  0.00     0.010 A 
ATOM     34  C   UNL A   1      41.984  23.635  28.654  1.00  0.00     0.010 A 
ATOM     35  C   UNL A   1      41.420  24.664  27.876  1.00  0.00    -0.014 A 
BRANCH  35  36
ATOM     36  C   UNL A   1      41.874  26.073  28.073  1.00  0.00     0.031 A 
ATOM     37  C   UNL A   1      43.207  26.486  27.496  1.00  0.00     0.074 A 
ATOM     38  C   UNL A   1      41.143  26.979  28.752  1.00  0.00     0.049 A 
ATOM     39  N   UNL A   1      43.849  27.622  27.604  1.00  0.00    -0.248 NA
ATOM     40  C   UNL A   1      43.931  25.462  26.726  1.00  0.00     0.031 C 
ATOM     41  C   UNL A   1      39.851  26.730  29.390  1.00  0.00     0.029 A 
ATOM     42  N   UNL A   1      41.394  28.305  29.021  1.00  0.00    -0.354 N 
ATOM     43  C   UNL A   1      45.062  27.428  26.953  1.00  0.00     0.074 A 
ATOM     44  C   UNL A   1      45.097  26.051  26.517  1.00  0.00     0.031 C 
ATOM     45  C   UNL A   1      39.412  27.872  29.951  1.00  0.00     0.029 A 
ATOM     46  C   UNL A   1      40.401  28.928  29.740  1.00  0.00     0.049 A 
ATOM     47  H   UNL A   1      42.211  28.768  28.724  1.00  0.00     0.167 HD
ATOM     48  C   UNL A   1      46.049  28.321  26.700  1.00  0.00     0.037 A 
ATOM     49  C   UNL A   1      40.305  30.200  30.176  1.00  0.00     0.037 A 
ATOM     50  C   UNL A   1      45.998  29.710  27.061  1.00  0.00     0.049 A 
ATOM     51  C   UNL A   1      41.408  31.185  29.868  1.00  0.00     0.074 A 
ATOM     52  C   UNL A   1      46.918  30.705  26.787  1.00  0.00     0.029 A 
ATOM     53  N   UNL A   1      44.961  30.301  27.765  1.00  0.00    -0.354 N 
ATOM     54  N   UNL A   1      42.522  31.003  29.204  1.00  0.00    -0.248 NA
ATOM     55  C   UNL A   1      41.233  32.557  30.370  1.00  0.00     0.031 C 
ATOM     56  C   UNL A   1      46.454  31.896  27.353  1.00  0.00     0.029 A 
ATOM     57  C   UNL A   1      45.223  31.650  27.941  1.00  0.00     0.049 A 
ATOM     58  H   UNL A   1      44.158  29.834  28.089  1.00  0.00     0.167 HD
ATOM     59  C   UNL A   1      43.160  32.237  29.177  1.00  0.00     0.074 A 
ATOM     60  C   UNL A   1      42.304  33.167  29.881  1.00  0.00     0.031 C 
ATOM     61  C   UNL A   1      44.350  32.571  28.619  1.00  0.00     0.037 A 
BRANCH  48  62
ATOM     62  C   UNL A   1      47.263  27.813  25.978  1.00  0.00     0.064 A 
ATOM     63  C   UNL A   1      47.326  27.778  24.577  1.00  0.00     0.173 A 
ATOM     64  C   UNL A   1      48.378  27.358  26.698  1.00  0.00     0.173 A 
ATOM     65  F   UNL A   1      46.280  28.188  23.843  1.00  0.00    -0.203 F 
ATOM     66  C   UNL A   1      48.441  27.263  23.923  1.00  0.00     0.198 A 
ATOM     67  C   UNL A   1      49.507  26.879  26.040  1.00  0.00     0.198 A 
ATOM     68  F   UNL A   1      48.374  27.379  28.040  1.00  0.00    -0.203 F 
ATOM     69  F   UNL A   1      48.450  27.175  22.586  1.00  0.00    -0.200 F 
ATOM     70  C   UNL A   1      49.533  26.820  24.655  1.00  0.00     0.200 A 
ATOM     71  F   UNL A   1      50.567  26.464  26.747  1.00  0.00    -0.200 F 
ATOM     72  F   UNL A   1      50.607  26.326  24.024  1.00  0.00    -0.200 F 
ENDBRANCH  48  62
BRANCH  49  73
ATOM     73  C   UNL A   1      39.102  30.648  30.932  1.00  0.00     0.064 A 
ATOM     74  C   UNL A   1      39.067  30.582  32.334  1.00  0.00     0.173 A 
ATOM     75  C   UNL A   1      37.950  31.101  30.274  1.00  0.00     0.173 A 
ATOM     76  F   UNL A   1      40.134  30.128  33.007  1.00  0.00    -0.203 F 
ATOM     77  C   UNL A   1      37.919  30.925  33.044  1.00  0.00     0.198 A 
ATOM     78  C   UNL A   1      36.811  31.470  30.988  1.00  0.00     0.198 A 
ATOM     79  F   UNL A   1      37.928  31.181  28.936  1.00  0.00    -0.203 F 
ATOM     80  F   UNL A   1      37.895  30.796  34.378  1.00  0.00    -0.200 F 
ATOM     81  C   UNL A   1      36.792  31.371  32.372  1.00  0.00     0.200 A 
ATOM     82  F   UNL A   1      35.726  31.909  30.335  1.00  0.00    -0.200 F 
ATOM     83  F   UNL A   1      35.686  31.695  33.054  1.00  0.00    -0.200 F 
ENDBRANCH  49  73
BRANCH  61  84
ATOM     84  C   UNL A   1      44.783  34.007  28.697  1.00  0.00     0.064 A 
ATOM     85  C   UNL A   1      45.663  34.460  29.690  1.00  0.00     0.173 A 
ATOM     86  C   UNL A   1      44.361  34.927  27.723  1.00  0.00     0.173 A 
ATOM     87  F   UNL A   1      46.086  33.625  30.650  1.00  0.00    -0.203 F 
ATOM     88  C   UNL A   1      46.092  35.786  29.715  1.00  0.00     0.198 A 
ATOM     89  C   UNL A   1      44.815  36.243  27.735  1.00  0.00     0.198 A 
ATOM     90  F   UNL A   1      43.527  34.543  26.746  1.00  0.00    -0.203 F 
ATOM     91  F   UNL A   1      46.903  36.206  30.695  1.00  0.00    -0.200 F 
ATOM     92  C   UNL A   1      45.675  36.673  28.734  1.00  0.00     0.200 A 
ATOM     93  F   UNL A   1      44.424  37.094  26.776  1.00  0.00    -0.200 F 
ATOM     94  F   UNL A   1      46.099  37.943  28.753  1.00  0.00    -0.200 F 
ENDBRANCH  61  84
ENDBRANCH  35  36
ENDBRANCH  28  30
ENDBRANCH  27  28
ENDBRANCH  26  27
ENDBRANCH  25  26
ENDBRANCH  24  25
ENDBRANCH  23  24
ENDBRANCH   1  23
TORSDOF 19
ENDMDL
MODEL 3
REMARK VINA RESULT:     -10.8      4.488      9.950
REMARK SMILES C[C@H](Cc1cccs1)N(C)C(=O)N1CCC[C@]1(C)C(=O)OCCOCCOC(=O)c1ccc(-c2c3nc(c(-c4c(F)c(F)c(F)c(F)c4F)c4ccc([nH]4)c(-c4c(F)c(F)c(F)c(F)c4F)c4nc(c(-c5c(F)c(F)c(F)c(F)c5F)c5ccc2[nH]5)C=C4)C=C3)cc1
REMARK SMILES IDX 22 1 21 2 19 3 20 4 17 5 13 6 14 7 15 8 16 9 18 10 11 11
REMARK SMILES IDX 12 12 9 13 10 14 2 15 1 16 3 17 4 18 5 19 8 20 6 21 7 22
REMARK SMILES IDX 23 23 24 24 25 25 26 26 27 27 28 28 29 29 30 30 31 31 92 32
REMARK SMILES IDX 32 33 91 34 33 35 34 36 35 37 85 38 36 39 90 40 84 41 86 42
REMARK SMILES IDX 37 43 89 44 83 45 82 46 38 48 70 49 50 50 69 51 51 52 54 53
REMARK SMILES IDX 68 54 87 55 52 56 53 57 67 59 88 60 55 61 39 62 40 63 48 64
REMARK SMILES IDX 41 65 42 66 46 67 49 68 43 69 44 70 47 71 45 72 71 73 72 74
REMARK SMILES IDX 80 75 73 76 74 77 78 78 81 79 75 80 76 81 79 82 77 83 56 84
REMARK SMILES IDX 57 85 65 86 58 87 59 88 63 89 66 90 60 91 61 92 64 93 62 94
REMARK H PARENT 86 47 54 58
REMARK Flexibility Score: inf
ROOT
ATOM      1  C   UNL A   1      36.203  23.254  24.962  1.00  0.00     0.261 C 
ENDROOT
BRANCH   1   2
ATOM      2  O   UNL A   1      34.783  23.114  25.151  1.00  0.00    -0.461 OA
BRANCH   2   3
ATOM      3  C   UNL A   1      34.029  23.365  24.059  1.00  0.00     0.331 C 
ATOM      4  O   UNL A   1      34.488  23.500  22.927  1.00  0.00    -0.249 OA
BRANCH   3   5
ATOM      5  C   UNL A   1      32.515  23.499  24.355  1.00  0.00     0.139 C 
ATOM      6  N   UNL A   1      31.902  24.817  24.737  1.00  0.00    -0.308 N 
ATOM      7  C   UNL A   1      31.032  24.629  25.890  1.00  0.00     0.123 C 
ATOM      8  C   UNL A   1      31.724  23.585  26.718  1.00  0.00     0.025 C 
ATOM      9  C   UNL A   1      32.306  22.649  25.671  1.00  0.00     0.042 C 
ATOM     10  C   UNL A   1      31.764  22.772  23.228  1.00  0.00     0.048 C 
BRANCH   6  11
ATOM     11  C   UNL A   1      32.085  26.117  24.343  1.00  0.00     0.320 C 
ATOM     12  O   UNL A   1      32.799  26.828  25.056  1.00  0.00    -0.248 OA
BRANCH  11  13
ATOM     13  N   UNL A   1      31.475  26.661  23.242  1.00  0.00    -0.325 N 
ATOM     14  C   UNL A   1      31.742  26.284  21.873  1.00  0.00     0.149 C 
BRANCH  13  15
ATOM     15  C   UNL A   1      30.456  27.734  23.433  1.00  0.00     0.088 C 
ATOM     16  C   UNL A   1      29.075  27.126  23.581  1.00  0.00     0.031 C 
BRANCH  15  17
ATOM     17  C   UNL A   1      30.561  28.975  22.489  1.00  0.00     0.071 C 
BRANCH  17  18
ATOM     18  C   UNL A   1      29.533  30.081  22.609  1.00  0.00     0.007 A 
ATOM     19  C   UNL A   1      29.241  30.862  23.713  1.00  0.00     0.015 A 
ATOM     20  S   UNL A   1      28.435  30.418  21.330  1.00  0.00    -0.149 S 
ATOM     21  C   UNL A   1      28.223  31.827  23.459  1.00  0.00     0.012 A 
ATOM     22  C   UNL A   1      27.723  31.717  22.183  1.00  0.00     0.065 A 
ENDBRANCH  17  18
ENDBRANCH  15  17
ENDBRANCH  13  15
ENDBRANCH  11  13
ENDBRANCH   6  11
ENDBRANCH   3   5
ENDBRANCH   2   3
ENDBRANCH   1   2
BRANCH   1  23
ATOM     23  C   UNL A   1      36.916  22.079  25.621  1.00  0.00     0.202 C 
BRANCH  23  24
ATOM     24  O   UNL A   1      37.737  21.331  24.722  1.00  0.00    -0.374 OA
BRANCH  24  25
ATOM     25  C   UNL A   1      37.774  19.919  24.956  1.00  0.00     0.202 C 
BRANCH  25  26
ATOM     26  C   UNL A   1      39.071  19.407  25.594  1.00  0.00     0.261 C 
BRANCH  26  27
ATOM     27  O   UNL A   1      40.028  20.461  25.800  1.00  0.00    -0.460 OA
BRANCH  27  28
ATOM     28  C   UNL A   1      40.621  20.507  27.017  1.00  0.00     0.338 C 
ATOM     29  O   UNL A   1      40.991  19.571  27.704  1.00  0.00    -0.246 OA
BRANCH  28  30
ATOM     30  C   UNL A   1      40.933  21.918  27.328  1.00  0.00     0.060 A 
ATOM     31  C   UNL A   1      40.297  22.932  26.601  1.00  0.00     0.016 A 
ATOM     32  C   UNL A   1      41.821  22.246  28.349  1.00  0.00     0.016 A 
ATOM     33  C   UNL A   1      40.558  24.276  26.889  1.00  0.00     0.010 A 
ATOM     34  C   UNL A   1      42.050  23.589  28.660  1.00  0.00     0.010 A 
ATOM     35  C   UNL A   1      41.448  24.622  27.917  1.00  0.00    -0.014 A 
BRANCH  35  36
ATOM     36  C   UNL A   1      41.888  26.033  28.119  1.00  0.00     0.031 A 
ATOM     37  C   UNL A   1      43.222  26.458  27.553  1.00  0.00     0.074 A 
ATOM     38  C   UNL A   1      41.146  26.932  28.795  1.00  0.00     0.049 A 
ATOM     39  N   UNL A   1      43.855  27.600  27.667  1.00  0.00    -0.248 NA
ATOM     40  C   UNL A   1      43.960  25.442  26.786  1.00  0.00     0.031 C 
ATOM     41  C   UNL A   1      39.851  26.672  29.423  1.00  0.00     0.029 A 
ATOM     42  N   UNL A   1      41.385  28.260  29.069  1.00  0.00    -0.354 N 
ATOM     43  C   UNL A   1      45.074  27.416  27.025  1.00  0.00     0.074 A 
ATOM     44  C   UNL A   1      45.122  26.041  26.586  1.00  0.00     0.031 C 
ATOM     45  C   UNL A   1      39.399  27.809  29.983  1.00  0.00     0.029 A 
ATOM     46  C   UNL A   1      40.382  28.873  29.782  1.00  0.00     0.049 A 
ATOM     47  H   UNL A   1      42.200  28.730  28.778  1.00  0.00     0.167 HD
ATOM     48  C   UNL A   1      46.055  28.317  26.780  1.00  0.00     0.037 A 
ATOM     49  C   UNL A   1      40.272  30.144  30.219  1.00  0.00     0.037 A 
ATOM     50  C   UNL A   1      45.991  29.705  27.143  1.00  0.00     0.049 A 
ATOM     51  C   UNL A   1      41.369  31.138  29.922  1.00  0.00     0.074 A 
ATOM     52  C   UNL A   1      46.904  30.709  26.878  1.00  0.00     0.029 A 
ATOM     53  N   UNL A   1      44.945  30.287  27.841  1.00  0.00    -0.354 N 
ATOM     54  N   UNL A   1      42.490  30.966  29.265  1.00  0.00    -0.248 NA
ATOM     55  C   UNL A   1      41.180  32.508  30.425  1.00  0.00     0.031 C 
ATOM     56  C   UNL A   1      46.427  31.895  27.443  1.00  0.00     0.029 A 
ATOM     57  C   UNL A   1      45.194  31.637  28.022  1.00  0.00     0.049 A 
ATOM     58  H   UNL A   1      44.143  29.812  28.159  1.00  0.00     0.167 HD
ATOM     59  C   UNL A   1      43.118  32.206  29.245  1.00  0.00     0.074 A 
ATOM     60  C   UNL A   1      42.250  33.128  29.945  1.00  0.00     0.031 C 
ATOM     61  C   UNL A   1      44.309  32.550  28.696  1.00  0.00     0.037 A 
BRANCH  48  62
ATOM     62  C   UNL A   1      47.278  27.821  26.066  1.00  0.00     0.064 A 
ATOM     63  C   UNL A   1      48.430  27.428  26.764  1.00  0.00     0.173 A 
ATOM     64  C   UNL A   1      47.297  27.735  24.666  1.00  0.00     0.173 A 
ATOM     65  F   UNL A   1      48.468  27.506  28.104  1.00  0.00    -0.203 F 
ATOM     66  C   UNL A   1      49.572  27.013  26.086  1.00  0.00     0.198 A 
ATOM     67  C   UNL A   1      48.429  27.283  23.993  1.00  0.00     0.198 A 
ATOM     68  F   UNL A   1      46.219  28.090  23.950  1.00  0.00    -0.203 F 
ATOM     69  F   UNL A   1      50.683  26.710  26.772  1.00  0.00    -0.200 F 
ATOM     70  C   UNL A   1      49.568  26.935  24.702  1.00  0.00     0.200 A 
ATOM     71  F   UNL A   1      48.420  27.194  22.656  1.00  0.00    -0.200 F 
ATOM     72  F   UNL A   1      50.668  26.532  24.050  1.00  0.00    -0.200 F 
ENDBRANCH  48  62
BRANCH  49  73
ATOM     73  C   UNL A   1      39.061  30.581  30.968  1.00  0.00     0.064 A 
ATOM     74  C   UNL A   1      37.957  31.127  30.295  1.00  0.00     0.173 A 
ATOM     75  C   UNL A   1      38.999  30.511  32.367  1.00  0.00     0.173 A 
ATOM     76  F   UNL A   1      37.979  31.243  28.960  1.00  0.00    -0.203 F 
ATOM     77  C   UNL A   1      36.852  31.611  30.994  1.00  0.00     0.198 A 
ATOM     78  C   UNL A   1      37.882  30.970  33.063  1.00  0.00     0.198 A 
ATOM     79  F   UNL A   1      40.028  30.000  33.060  1.00  0.00    -0.203 F 
ATOM     80  F   UNL A   1      35.838  32.181  30.328  1.00  0.00    -0.200 F 
ATOM     81  C   UNL A   1      36.814  31.529  32.377  1.00  0.00     0.200 A 
ATOM     82  F   UNL A   1      37.844  30.881  34.399  1.00  0.00    -0.200 F 
ATOM     83  F   UNL A   1      35.755  31.999  33.049  1.00  0.00    -0.200 F 
ENDBRANCH  49  73
BRANCH  61  84
ATOM     84  C   UNL A   1      44.731  33.989  28.780  1.00  0.00     0.064 A 
ATOM     85  C   UNL A   1      45.504  34.472  29.844  1.00  0.00     0.173 A 
ATOM     86  C   UNL A   1      44.409  34.882  27.744  1.00  0.00     0.173 A 
ATOM     87  F   UNL A   1      45.828  33.663  30.864  1.00  0.00    -0.203 F 
ATOM     88  C   UNL A   1      45.926  35.799  29.879  1.00  0.00     0.198 A 
ATOM     89  C   UNL A   1      44.857  36.199  27.767  1.00  0.00     0.198 A 
ATOM     90  F   UNL A   1      43.679  34.469  26.698  1.00  0.00    -0.203 F 
ATOM     91  F   UNL A   1      46.633  36.248  30.924  1.00  0.00    -0.200 F 
ATOM     92  C   UNL A   1      45.610  36.659  28.837  1.00  0.00     0.200 A 
ATOM     93  F   UNL A   1      44.564  37.024  26.752  1.00  0.00    -0.200 F 
ATOM     94  F   UNL A   1      46.029  37.931  28.866  1.00  0.00    -0.200 F 
ENDBRANCH  61  84
ENDBRANCH  35  36
ENDBRANCH  28  30
ENDBRANCH  27  28
ENDBRANCH  26  27
ENDBRANCH  25  26
ENDBRANCH  24  25
ENDBRANCH  23  24
ENDBRANCH   1  23
TORSDOF 19
ENDMDL
