MODEL 1
REMARK VINA RESULT:     -12.9      0.000      0.000
REMARK SMILES O=C(OCCOCCOC(=O)c1ccc(N2C(=O)C[C@H](c3c[nH]c4ccccc34)C2=O)cc1O)c1ccc(-c2c3nc(c(-c4c(F)c(F)c(F)c(F)c4F)c4ccc([nH]4)c(-c4c(F)c(F)c(F)c(F)c4F)c4nc(c(-c5c(F)c(F)c(F)c(F)c5F)c5ccc2[nH]5)C=C4)C=C3)cc1
REMARK SMILES IDX 6 1 5 2 4 3 3 4 2 5 1 6 35 7 36 8 97 9 37 10 96 11 38 12
REMARK SMILES IDX 39 13 40 14 90 15 41 16 95 17 89 18 91 19 42 20 94 21 88 22
REMARK SMILES IDX 87 23 43 25 75 26 55 27 74 28 56 29 59 30 73 31 92 32 57 33
REMARK SMILES IDX 58 34 72 36 93 37 60 38 44 39 45 40 53 41 46 42 47 43 51 44
REMARK SMILES IDX 54 45 48 46 49 47 52 48 50 49 76 50 77 51 85 52 78 53 79 54
REMARK SMILES IDX 83 55 86 56 80 57 81 58 84 59 82 60 61 61 62 62 70 63 63 64
REMARK SMILES IDX 64 65 68 66 71 67 65 68 66 69 69 70 67 71 7 72 8 73 9 74
REMARK SMILES IDX 10 75 11 76 12 77 13 78 33 79 14 80 32 81 15 82 34 83 16 85
REMARK SMILES IDX 17 86 30 87 18 88 19 89 20 90 31 91 21 92 22 93 29 94 23 95
REMARK SMILES IDX 24 96 28 97 25 99 27 100 26 101
REMARK H PARENT 91 24 59 35 34 84 23 98
REMARK Flexibility Score: inf
ROOT
ATOM      1  O   UNL A   1      41.126  20.532  25.978  1.00  0.00    -0.374 OA
ENDROOT
BRANCH   1   2
ATOM      2  C   UNL A   1      42.443  20.774  26.472  1.00  0.00     0.202 C 
BRANCH   2   3
ATOM      3  C   UNL A   1      43.420  21.305  25.420  1.00  0.00     0.261 C 
BRANCH   3   4
ATOM      4  O   UNL A   1      42.961  22.562  24.898  1.00  0.00    -0.460 OA
BRANCH   4   5
ATOM      5  C   UNL A   1      43.440  23.802  25.148  1.00  0.00     0.338 C 
ATOM      6  O   UNL A   1      44.355  24.230  24.446  1.00  0.00    -0.246 OA
BRANCH   5   7
ATOM      7  C   UNL A   1      42.936  24.688  26.243  1.00  0.00     0.060 A 
ATOM      8  C   UNL A   1      42.125  24.275  27.302  1.00  0.00     0.016 A 
ATOM      9  C   UNL A   1      43.408  26.012  26.258  1.00  0.00     0.016 A 
ATOM     10  C   UNL A   1      41.759  25.141  28.322  1.00  0.00     0.010 A 
ATOM     11  C   UNL A   1      43.076  26.884  27.301  1.00  0.00     0.010 A 
ATOM     12  C   UNL A   1      42.244  26.444  28.335  1.00  0.00    -0.014 A 
BRANCH  12  13
ATOM     13  C   UNL A   1      41.808  27.329  29.427  1.00  0.00     0.031 A 
ATOM     14  C   UNL A   1      42.638  27.399  30.668  1.00  0.00     0.074 A 
ATOM     15  C   UNL A   1      40.753  28.142  29.230  1.00  0.00     0.049 A 
ATOM     16  N   UNL A   1      42.436  28.084  31.760  1.00  0.00    -0.248 NA
ATOM     17  C   UNL A   1      43.877  26.602  30.673  1.00  0.00     0.031 C 
ATOM     18  C   UNL A   1      39.967  28.214  27.997  1.00  0.00     0.029 A 
ATOM     19  N   UNL A   1      40.182  29.081  30.046  1.00  0.00    -0.354 N 
ATOM     20  C   UNL A   1      43.505  27.781  32.591  1.00  0.00     0.074 A 
ATOM     21  C   UNL A   1      44.359  26.857  31.880  1.00  0.00     0.031 C 
ATOM     22  C   UNL A   1      39.026  29.163  28.131  1.00  0.00     0.029 A 
ATOM     23  C   UNL A   1      39.101  29.713  29.479  1.00  0.00     0.049 A 
ATOM     24  H   UNL A   1      40.514  29.284  30.950  1.00  0.00     0.167 HD
ATOM     25  C   UNL A   1      43.733  28.236  33.844  1.00  0.00     0.037 A 
ATOM     26  C   UNL A   1      38.252  30.608  30.016  1.00  0.00     0.037 A 
ATOM     27  C   UNL A   1      42.863  29.158  34.520  1.00  0.00     0.049 A 
ATOM     28  C   UNL A   1      38.485  31.027  31.443  1.00  0.00     0.074 A 
ATOM     29  C   UNL A   1      42.952  29.649  35.809  1.00  0.00     0.029 A 
ATOM     30  N   UNL A   1      41.734  29.730  33.947  1.00  0.00    -0.354 N 
ATOM     31  N   UNL A   1      39.463  30.695  32.253  1.00  0.00    -0.248 NA
ATOM     32  C   UNL A   1      37.492  31.927  32.041  1.00  0.00     0.031 C 
ATOM     33  C   UNL A   1      41.852  30.485  36.029  1.00  0.00     0.029 A 
ATOM     34  C   UNL A   1      41.104  30.553  34.863  1.00  0.00     0.049 A 
ATOM     35  H   UNL A   1      41.427  29.573  33.025  1.00  0.00     0.167 HD
ATOM     36  C   UNL A   1      39.212  31.350  33.448  1.00  0.00     0.074 A 
ATOM     37  C   UNL A   1      38.002  32.124  33.248  1.00  0.00     0.031 C 
ATOM     38  C   UNL A   1      39.905  31.312  34.613  1.00  0.00     0.037 A 
BRANCH  25  39
ATOM     39  C   UNL A   1      44.921  27.683  34.570  1.00  0.00     0.064 A 
ATOM     40  C   UNL A   1      44.855  26.493  35.309  1.00  0.00     0.173 A 
ATOM     41  C   UNL A   1      46.146  28.365  34.530  1.00  0.00     0.173 A 
ATOM     42  F   UNL A   1      43.700  25.818  35.402  1.00  0.00    -0.203 F 
ATOM     43  C   UNL A   1      45.970  26.016  35.997  1.00  0.00     0.198 A 
ATOM     44  C   UNL A   1      47.263  27.874  35.200  1.00  0.00     0.198 A 
ATOM     45  F   UNL A   1      46.258  29.513  33.845  1.00  0.00    -0.203 F 
ATOM     46  F   UNL A   1      45.873  24.902  36.735  1.00  0.00    -0.200 F 
ATOM     47  C   UNL A   1      47.173  26.704  35.938  1.00  0.00     0.200 A 
ATOM     48  F   UNL A   1      48.425  28.540  35.140  1.00  0.00    -0.200 F 
ATOM     49  F   UNL A   1      48.242  26.245  36.603  1.00  0.00    -0.200 F 
ENDBRANCH  25  39
BRANCH  26  50
ATOM     50  C   UNL A   1      37.083  31.106  29.241  1.00  0.00     0.064 A 
ATOM     51  C   UNL A   1      37.017  32.432  28.788  1.00  0.00     0.173 A 
ATOM     52  C   UNL A   1      35.985  30.275  28.966  1.00  0.00     0.173 A 
ATOM     53  F   UNL A   1      38.026  33.278  29.043  1.00  0.00    -0.203 F 
ATOM     54  C   UNL A   1      35.893  32.911  28.116  1.00  0.00     0.198 A 
ATOM     55  C   UNL A   1      34.877  30.745  28.265  1.00  0.00     0.198 A 
ATOM     56  F   UNL A   1      35.988  28.999  29.379  1.00  0.00    -0.203 F 
ATOM     57  F   UNL A   1      35.832  34.199  27.749  1.00  0.00    -0.200 F 
ATOM     58  C   UNL A   1      34.826  32.066  27.851  1.00  0.00     0.200 A 
ATOM     59  F   UNL A   1      33.854  29.919  28.001  1.00  0.00    -0.200 F 
ATOM     60  F   UNL A   1      33.743  32.528  27.211  1.00  0.00    -0.200 F 
ENDBRANCH  26  50
BRANCH  38  61
ATOM     61  C   UNL A   1      39.377  32.148  35.739  1.00  0.00     0.064 A 
ATOM     62  C   UNL A   1      39.741  33.494  35.882  1.00  0.00     0.173 A 
ATOM     63  C   UNL A   1      38.461  31.607  36.651  1.00  0.00     0.173 A 
ATOM     64  F   UNL A   1      40.627  34.048  35.041  1.00  0.00    -0.203 F 
ATOM     65  C   UNL A   1      39.220  34.265  36.916  1.00  0.00     0.198 A 
ATOM     66  C   UNL A   1      37.919  32.389  37.665  1.00  0.00     0.198 A 
ATOM     67  F   UNL A   1      38.079  30.325  36.547  1.00  0.00    -0.203 F 
ATOM     68  F   UNL A   1      39.611  35.537  37.062  1.00  0.00    -0.200 F 
ATOM     69  C   UNL A   1      38.304  33.715  37.801  1.00  0.00     0.200 A 
ATOM     70  F   UNL A   1      37.024  31.860  38.511  1.00  0.00    -0.200 F 
ATOM     71  F   UNL A   1      37.795  34.462  38.789  1.00  0.00    -0.200 F 
ENDBRANCH  38  61
ENDBRANCH  12  13
ENDBRANCH   5   7
ENDBRANCH   4   5
ENDBRANCH   3   4
ENDBRANCH   2   3
ENDBRANCH   1   2
BRANCH   1  72
ATOM     72  C   UNL A   1      40.059  21.111  26.742  1.00  0.00     0.202 C 
BRANCH  72  73
ATOM     73  C   UNL A   1      39.466  22.285  25.961  1.00  0.00     0.261 C 
BRANCH  73  74
ATOM     74  O   UNL A   1      38.046  22.247  26.144  1.00  0.00    -0.460 OA
BRANCH  74  75
ATOM     75  C   UNL A   1      37.350  21.676  25.131  1.00  0.00     0.341 C 
ATOM     76  O   UNL A   1      37.587  20.618  24.568  1.00  0.00    -0.246 OA
BRANCH  75  77
ATOM     77  C   UNL A   1      36.075  22.405  24.993  1.00  0.00     0.101 A 
ATOM     78  C   UNL A   1      35.916  23.221  23.862  1.00  0.00     0.022 A 
ATOM     79  C   UNL A   1      35.029  22.271  25.903  1.00  0.00     0.132 A 
ATOM     80  C   UNL A   1      34.709  23.885  23.632  1.00  0.00     0.028 A 
ATOM     81  C   UNL A   1      33.853  22.992  25.714  1.00  0.00     0.074 A 
ATOM     82  C   UNL A   1      33.688  23.810  24.585  1.00  0.00     0.055 A 
BRANCH  79  83
ATOM     83  O   UNL A   1      35.153  21.466  26.999  1.00  0.00    -0.507 OA
ATOM     84  H   UNL A   1      34.418  21.328  27.564  1.00  0.00     0.293 HD
ENDBRANCH  79  83
BRANCH  82  85
ATOM     85  N   UNL A   1      32.549  24.636  24.488  1.00  0.00    -0.250 N 
ATOM     86  C   UNL A   1      31.454  24.274  23.741  1.00  0.00     0.234 C 
ATOM     87  C   UNL A   1      32.339  25.798  25.192  1.00  0.00     0.241 C 
ATOM     88  O   UNL A   1      31.323  23.303  23.009  1.00  0.00    -0.274 OA
ATOM     89  C   UNL A   1      30.327  25.186  24.092  1.00  0.00     0.119 C 
ATOM     90  C   UNL A   1      31.010  26.379  24.748  1.00  0.00     0.121 C 
ATOM     91  O   UNL A   1      33.094  26.325  26.001  1.00  0.00    -0.273 OA
BRANCH  90  92
ATOM     92  C   UNL A   1      31.107  27.541  23.794  1.00  0.00    -0.010 A 
ATOM     93  C   UNL A   1      32.225  28.106  23.211  1.00  0.00     0.088 A 
ATOM     94  C   UNL A   1      29.974  28.267  23.285  1.00  0.00     0.003 A 
ATOM     95  N   UNL A   1      31.817  29.118  22.377  1.00  0.00    -0.361 N 
ATOM     96  C   UNL A   1      30.446  29.222  22.388  1.00  0.00     0.046 A 
ATOM     97  C   UNL A   1      28.580  28.169  23.491  1.00  0.00     0.010 A 
ATOM     98  H   UNL A   1      32.420  29.686  21.846  1.00  0.00     0.166 HD
ATOM     99  C   UNL A   1      29.595  30.081  21.681  1.00  0.00     0.026 A 
ATOM    100  C   UNL A   1      27.715  29.011  22.785  1.00  0.00     0.001 A 
ATOM    101  C   UNL A   1      28.218  29.952  21.893  1.00  0.00     0.002 A 
ENDBRANCH  90  92
ENDBRANCH  82  85
ENDBRANCH  75  77
ENDBRANCH  74  75
ENDBRANCH  73  74
ENDBRANCH  72  73
ENDBRANCH   1  72
TORSDOF 17
ENDMDL
MODEL 2
REMARK VINA RESULT:     -12.7      3.329      9.310
REMARK SMILES O=C(OCCOCCOC(=O)c1ccc(N2C(=O)C[C@H](c3c[nH]c4ccccc34)C2=O)cc1O)c1ccc(-c2c3nc(c(-c4c(F)c(F)c(F)c(F)c4F)c4ccc([nH]4)c(-c4c(F)c(F)c(F)c(F)c4F)c4nc(c(-c5c(F)c(F)c(F)c(F)c5F)c5ccc2[nH]5)C=C4)C=C3)cc1
REMARK SMILES IDX 6 1 5 2 4 3 3 4 2 5 1 6 35 7 36 8 97 9 37 10 96 11 38 12
REMARK SMILES IDX 39 13 40 14 90 15 41 16 95 17 89 18 91 19 42 20 94 21 88 22
REMARK SMILES IDX 87 23 43 25 75 26 55 27 74 28 56 29 59 30 73 31 92 32 57 33
REMARK SMILES IDX 58 34 72 36 93 37 60 38 44 39 45 40 53 41 46 42 47 43 51 44
REMARK SMILES IDX 54 45 48 46 49 47 52 48 50 49 76 50 77 51 85 52 78 53 79 54
REMARK SMILES IDX 83 55 86 56 80 57 81 58 84 59 82 60 61 61 62 62 70 63 63 64
REMARK SMILES IDX 64 65 68 66 71 67 65 68 66 69 69 70 67 71 7 72 8 73 9 74
REMARK SMILES IDX 10 75 11 76 12 77 13 78 33 79 14 80 32 81 15 82 34 83 16 85
REMARK SMILES IDX 17 86 30 87 18 88 19 89 20 90 31 91 21 92 22 93 29 94 23 95
REMARK SMILES IDX 24 96 28 97 25 99 27 100 26 101
REMARK H PARENT 91 24 59 35 34 84 23 98
REMARK Flexibility Score: inf
ROOT
ATOM      1  O   UNL A   1      34.464  34.281  29.115  1.00  0.00    -0.374 OA
ENDROOT
BRANCH   1   2
ATOM      2  C   UNL A   1      33.208  34.872  28.788  1.00  0.00     0.202 C 
BRANCH   2   3
ATOM      3  C   UNL A   1      32.905  36.165  29.550  1.00  0.00     0.261 C 
BRANCH   3   4
ATOM      4  O   UNL A   1      32.139  35.883  30.731  1.00  0.00    -0.460 OA
BRANCH   4   5
ATOM      5  C   UNL A   1      32.568  35.789  32.010  1.00  0.00     0.338 C 
ATOM      6  O   UNL A   1      31.935  36.377  32.887  1.00  0.00    -0.246 OA
BRANCH   5   7
ATOM      7  C   UNL A   1      33.782  35.023  32.430  1.00  0.00     0.060 A 
ATOM      8  C   UNL A   1      33.782  33.702  32.885  1.00  0.00     0.016 A 
ATOM      9  C   UNL A   1      35.027  35.651  32.247  1.00  0.00     0.016 A 
ATOM     10  C   UNL A   1      34.959  33.034  33.186  1.00  0.00     0.010 A 
ATOM     11  C   UNL A   1      36.222  34.974  32.510  1.00  0.00     0.010 A 
ATOM     12  C   UNL A   1      36.185  33.660  32.986  1.00  0.00    -0.014 A 
BRANCH  12  13
ATOM     13  C   UNL A   1      37.403  32.915  33.341  1.00  0.00     0.031 A 
ATOM     14  C   UNL A   1      38.022  33.150  34.682  1.00  0.00     0.074 A 
ATOM     15  C   UNL A   1      37.851  31.956  32.510  1.00  0.00     0.049 A 
ATOM     16  N   UNL A   1      39.103  32.631  35.196  1.00  0.00    -0.248 NA
ATOM     17  C   UNL A   1      37.315  34.087  35.574  1.00  0.00     0.031 C 
ATOM     18  C   UNL A   1      37.226  31.588  31.238  1.00  0.00     0.029 A 
ATOM     19  N   UNL A   1      38.911  31.096  32.623  1.00  0.00    -0.354 N 
ATOM     20  C   UNL A   1      39.221  33.194  36.458  1.00  0.00     0.074 A 
ATOM     21  C   UNL A   1      38.102  34.091  36.639  1.00  0.00     0.031 C 
ATOM     22  C   UNL A   1      37.905  30.563  30.697  1.00  0.00     0.029 A 
ATOM     23  C   UNL A   1      39.046  30.251  31.548  1.00  0.00     0.049 A 
ATOM     24  H   UNL A   1      39.516  31.085  33.399  1.00  0.00     0.167 HD
ATOM     25  C   UNL A   1      40.194  32.979  37.372  1.00  0.00     0.037 A 
ATOM     26  C   UNL A   1      40.013  29.355  31.277  1.00  0.00     0.037 A 
ATOM     27  C   UNL A   1      41.292  32.077  37.160  1.00  0.00     0.049 A 
ATOM     28  C   UNL A   1      41.128  29.204  32.277  1.00  0.00     0.074 A 
ATOM     29  C   UNL A   1      42.372  31.815  37.982  1.00  0.00     0.029 A 
ATOM     30  N   UNL A   1      41.443  31.283  36.029  1.00  0.00    -0.354 N 
ATOM     31  N   UNL A   1      41.274  29.782  33.446  1.00  0.00    -0.248 NA
ATOM     32  C   UNL A   1      42.223  28.295  31.917  1.00  0.00     0.031 C 
ATOM     33  C   UNL A   1      43.198  30.894  37.329  1.00  0.00     0.029 A 
ATOM     34  C   UNL A   1      42.610  30.546  36.122  1.00  0.00     0.049 A 
ATOM     35  H   UNL A   1      40.812  31.250  35.274  1.00  0.00     0.167 HD
ATOM     36  C   UNL A   1      42.466  29.301  33.966  1.00  0.00     0.074 A 
ATOM     37  C   UNL A   1      42.990  28.360  32.995  1.00  0.00     0.031 C 
ATOM     38  C   UNL A   1      43.084  29.612  35.132  1.00  0.00     0.037 A 
BRANCH  25  39
ATOM     39  C   UNL A   1      40.143  33.787  38.633  1.00  0.00     0.064 A 
ATOM     40  C   UNL A   1      39.379  33.393  39.740  1.00  0.00     0.173 A 
ATOM     41  C   UNL A   1      40.869  34.984  38.727  1.00  0.00     0.173 A 
ATOM     42  F   UNL A   1      38.645  32.271  39.690  1.00  0.00    -0.203 F 
ATOM     43  C   UNL A   1      39.328  34.179  40.890  1.00  0.00     0.198 A 
ATOM     44  C   UNL A   1      40.833  35.755  39.886  1.00  0.00     0.198 A 
ATOM     45  F   UNL A   1      41.607  35.411  37.692  1.00  0.00    -0.203 F 
ATOM     46  F   UNL A   1      38.555  33.807  41.920  1.00  0.00    -0.200 F 
ATOM     47  C   UNL A   1      40.058  35.356  40.964  1.00  0.00     0.200 A 
ATOM     48  F   UNL A   1      41.541  36.892  39.954  1.00  0.00    -0.200 F 
ATOM     49  F   UNL A   1      40.006  36.111  42.070  1.00  0.00    -0.200 F 
ENDBRANCH  25  39
BRANCH  26  50
ATOM     50  C   UNL A   1      40.008  28.596  29.997  1.00  0.00     0.064 A 
ATOM     51  C   UNL A   1      39.404  27.334  29.897  1.00  0.00     0.173 A 
ATOM     52  C   UNL A   1      40.643  29.100  28.850  1.00  0.00     0.173 A 
ATOM     53  F   UNL A   1      38.804  26.791  30.967  1.00  0.00    -0.203 F 
ATOM     54  C   UNL A   1      39.456  26.600  28.712  1.00  0.00     0.198 A 
ATOM     55  C   UNL A   1      40.665  28.382  27.658  1.00  0.00     0.198 A 
ATOM     56  F   UNL A   1      41.244  30.299  28.887  1.00  0.00    -0.203 F 
ATOM     57  F   UNL A   1      38.923  25.371  28.663  1.00  0.00    -0.200 F 
ATOM     58  C   UNL A   1      40.083  27.126  27.592  1.00  0.00     0.200 A 
ATOM     59  F   UNL A   1      41.263  28.901  26.575  1.00  0.00    -0.200 F 
ATOM     60  F   UNL A   1      40.139  26.418  26.456  1.00  0.00    -0.200 F 
ENDBRANCH  26  50
BRANCH  38  61
ATOM     61  C   UNL A   1      44.376  28.910  35.419  1.00  0.00     0.064 A 
ATOM     62  C   UNL A   1      44.406  27.691  36.111  1.00  0.00     0.173 A 
ATOM     63  C   UNL A   1      45.587  29.439  34.951  1.00  0.00     0.173 A 
ATOM     64  F   UNL A   1      43.273  27.157  36.589  1.00  0.00    -0.203 F 
ATOM     65  C   UNL A   1      45.611  27.036  36.344  1.00  0.00     0.198 A 
ATOM     66  C   UNL A   1      46.786  28.766  35.160  1.00  0.00     0.198 A 
ATOM     67  F   UNL A   1      45.604  30.599  34.278  1.00  0.00    -0.203 F 
ATOM     68  F   UNL A   1      45.625  25.894  37.044  1.00  0.00    -0.200 F 
ATOM     69  C   UNL A   1      46.797  27.569  35.862  1.00  0.00     0.200 A 
ATOM     70  F   UNL A   1      47.930  29.274  34.683  1.00  0.00    -0.200 F 
ATOM     71  F   UNL A   1      47.955  26.931  36.078  1.00  0.00    -0.200 F 
ENDBRANCH  38  61
ENDBRANCH  12  13
ENDBRANCH   5   7
ENDBRANCH   4   5
ENDBRANCH   3   4
ENDBRANCH   2   3
ENDBRANCH   1   2
BRANCH   1  72
ATOM     72  C   UNL A   1      34.468  32.851  29.228  1.00  0.00     0.202 C 
BRANCH  72  73
ATOM     73  C   UNL A   1      34.457  32.239  27.827  1.00  0.00     0.261 C 
BRANCH  73  74
ATOM     74  O   UNL A   1      33.645  31.061  27.880  1.00  0.00    -0.460 OA
BRANCH  74  75
ATOM     75  C   UNL A   1      32.501  31.115  27.155  1.00  0.00     0.341 C 
ATOM     76  O   UNL A   1      31.858  32.109  26.852  1.00  0.00    -0.246 OA
BRANCH  75  77
ATOM     77  C   UNL A   1      32.294  29.792  26.537  1.00  0.00     0.101 A 
ATOM     78  C   UNL A   1      32.871  28.683  27.175  1.00  0.00     0.022 A 
ATOM     79  C   UNL A   1      31.520  29.609  25.394  1.00  0.00     0.132 A 
ATOM     80  C   UNL A   1      32.658  27.393  26.683  1.00  0.00     0.028 A 
ATOM     81  C   UNL A   1      31.369  28.331  24.860  1.00  0.00     0.074 A 
ATOM     82  C   UNL A   1      31.943  27.218  25.494  1.00  0.00     0.055 A 
BRANCH  79  83
ATOM     83  O   UNL A   1      30.930  30.670  24.769  1.00  0.00    -0.507 OA
ATOM     84  H   UNL A   1      30.728  30.622  23.855  1.00  0.00     0.293 HD
ENDBRANCH  79  83
BRANCH  82  85
ATOM     85  N   UNL A   1      31.896  25.959  24.861  1.00  0.00    -0.250 N 
ATOM     86  C   UNL A   1      30.771  25.171  24.900  1.00  0.00     0.234 C 
ATOM     87  C   UNL A   1      32.875  25.430  24.053  1.00  0.00     0.241 C 
ATOM     88  O   UNL A   1      29.735  25.360  25.522  1.00  0.00    -0.274 OA
ATOM     89  C   UNL A   1      30.929  24.080  23.895  1.00  0.00     0.119 C 
ATOM     90  C   UNL A   1      32.428  24.046  23.623  1.00  0.00     0.121 C 
ATOM     91  O   UNL A   1      33.951  25.938  23.757  1.00  0.00    -0.273 OA
BRANCH  90  92
ATOM     92  C   UNL A   1      33.087  22.905  24.353  1.00  0.00    -0.010 A 
ATOM     93  C   UNL A   1      32.535  21.985  25.223  1.00  0.00     0.088 A 
ATOM     94  C   UNL A   1      34.477  22.556  24.222  1.00  0.00     0.003 A 
ATOM     95  N   UNL A   1      33.517  21.104  25.605  1.00  0.00    -0.361 N 
ATOM     96  C   UNL A   1      34.706  21.418  24.992  1.00  0.00     0.046 A 
ATOM     97  C   UNL A   1      35.554  23.098  23.486  1.00  0.00     0.010 A 
ATOM     98  H   UNL A   1      33.386  20.353  26.229  1.00  0.00     0.166 HD
ATOM     99  C   UNL A   1      35.956  20.790  25.058  1.00  0.00     0.026 A 
ATOM    100  C   UNL A   1      36.806  22.477  23.533  1.00  0.00     0.001 A 
ATOM    101  C   UNL A   1      37.001  21.339  24.308  1.00  0.00     0.002 A 
ENDBRANCH  90  92
ENDBRANCH  82  85
ENDBRANCH  75  77
ENDBRANCH  74  75
ENDBRANCH  73  74
ENDBRANCH  72  73
ENDBRANCH   1  72
TORSDOF 17
ENDMDL
MODEL 3
REMARK VINA RESULT:     -12.6      5.022      7.192
REMARK SMILES O=C(OCCOCCOC(=O)c1ccc(N2C(=O)C[C@H](c3c[nH]c4ccccc34)C2=O)cc1O)c1ccc(-c2c3nc(c(-c4c(F)c(F)c(F)c(F)c4F)c4ccc([nH]4)c(-c4c(F)c(F)c(F)c(F)c4F)c4nc(c(-c5c(F)c(F)c(F)c(F)c5F)c5ccc2[nH]5)C=C4)C=C3)cc1
REMARK SMILES IDX 6 1 5 2 4 3 3 4 2 5 1 6 35 7 36 8 97 9 37 10 96 11 38 12
REMARK SMILES IDX 39 13 40 14 90 15 41 16 95 17 89 18 91 19 42 20 94 21 88 22
REMARK SMILES IDX 87 23 43 25 75 26 55 27 74 28 56 29 59 30 73 31 92 32 57 33
REMARK SMILES IDX 58 34 72 36 93 37 60 38 44 39 45 40 53 41 46 42 47 43 51 44
REMARK SMILES IDX 54 45 48 46 49 47 52 48 50 49 76 50 77 51 85 52 78 53 79 54
REMARK SMILES IDX 83 55 86 56 80 57 81 58 84 59 82 60 61 61 62 62 70 63 63 64
REMARK SMILES IDX 64 65 68 66 71 67 65 68 66 69 69 70 67 71 7 72 8 73 9 74
REMARK SMILES IDX 10 75 11 76 12 77 13 78 33 79 14 80 32 81 15 82 34 83 16 85
REMARK SMILES IDX 17 86 30 87 18 88 19 89 20 90 31 91 21 92 22 93 29 94 23 95
REMARK SMILES IDX 24 96 28 97 25 99 27 100 26 101
REMARK H PARENT 91 24 59 35 34 84 23 98
REMARK Flexibility Score: inf
ROOT
ATOM      1  O   UNL A   1      42.133  20.802  26.196  1.00  0.00    -0.374 OA
ENDROOT
BRANCH   1   2
ATOM      2  C   UNL A   1      41.868  19.417  25.973  1.00  0.00     0.202 C 
BRANCH   2   3
ATOM      3  C   UNL A   1      43.121  18.567  25.747  1.00  0.00     0.261 C 
BRANCH   3   4
ATOM      4  O   UNL A   1      43.669  18.820  24.443  1.00  0.00    -0.460 OA
BRANCH   4   5
ATOM      5  C   UNL A   1      44.746  19.568  24.114  1.00  0.00     0.338 C 
ATOM      6  O   UNL A   1      45.628  19.055  23.426  1.00  0.00    -0.246 OA
BRANCH   5   7
ATOM      7  C   UNL A   1      44.944  20.986  24.548  1.00  0.00     0.060 A 
ATOM      8  C   UNL A   1      44.550  22.111  23.821  1.00  0.00     0.016 A 
ATOM      9  C   UNL A   1      45.469  21.190  25.836  1.00  0.00     0.016 A 
ATOM     10  C   UNL A   1      44.700  23.394  24.324  1.00  0.00     0.010 A 
ATOM     11  C   UNL A   1      45.590  22.477  26.369  1.00  0.00     0.010 A 
ATOM     12  C   UNL A   1      45.207  23.584  25.606  1.00  0.00    -0.014 A 
BRANCH  12  13
ATOM     13  C   UNL A   1      45.367  24.966  26.084  1.00  0.00     0.031 A 
ATOM     14  C   UNL A   1      46.693  25.635  25.912  1.00  0.00     0.074 A 
ATOM     15  C   UNL A   1      44.290  25.630  26.542  1.00  0.00     0.049 A 
ATOM     16  N   UNL A   1      47.070  26.829  26.277  1.00  0.00    -0.248 NA
ATOM     17  C   UNL A   1      47.733  24.858  25.215  1.00  0.00     0.031 C 
ATOM     18  C   UNL A   1      42.936  25.079  26.627  1.00  0.00     0.029 A 
ATOM     19  N   UNL A   1      44.155  26.916  26.991  1.00  0.00    -0.354 N 
ATOM     20  C   UNL A   1      48.394  26.939  25.880  1.00  0.00     0.074 A 
ATOM     21  C   UNL A   1      48.759  25.695  25.239  1.00  0.00     0.031 C 
ATOM     22  C   UNL A   1      42.103  26.029  27.082  1.00  0.00     0.029 A 
ATOM     23  C   UNL A   1      42.875  27.227  27.383  1.00  0.00     0.049 A 
ATOM     24  H   UNL A   1      44.902  27.556  27.029  1.00  0.00     0.167 HD
ATOM     25  C   UNL A   1      49.226  27.991  26.053  1.00  0.00     0.037 A 
ATOM     26  C   UNL A   1      42.402  28.349  27.956  1.00  0.00     0.037 A 
ATOM     27  C   UNL A   1      48.829  29.215  26.692  1.00  0.00     0.049 A 
ATOM     28  C   UNL A   1      43.375  29.469  28.214  1.00  0.00     0.074 A 
ATOM     29  C   UNL A   1      49.592  30.331  26.980  1.00  0.00     0.029 A 
ATOM     30  N   UNL A   1      47.541  29.477  27.144  1.00  0.00    -0.354 N 
ATOM     31  N   UNL A   1      44.645  29.551  27.893  1.00  0.00    -0.248 NA
ATOM     32  C   UNL A   1      42.860  30.643  28.928  1.00  0.00     0.031 C 
ATOM     33  C   UNL A   1      48.775  31.252  27.644  1.00  0.00     0.029 A 
ATOM     34  C   UNL A   1      47.492  30.731  27.728  1.00  0.00     0.049 A 
ATOM     35  H   UNL A   1      46.777  28.863  27.060  1.00  0.00     0.167 HD
ATOM     36  C   UNL A   1      45.079  30.784  28.354  1.00  0.00     0.074 A 
ATOM     37  C   UNL A   1      43.927  31.430  28.953  1.00  0.00     0.031 C 
ATOM     38  C   UNL A   1      46.317  31.335  28.302  1.00  0.00     0.037 A 
BRANCH  25  39
ATOM     39  C   UNL A   1      50.648  27.822  25.611  1.00  0.00     0.064 A 
ATOM     40  C   UNL A   1      51.680  27.531  26.514  1.00  0.00     0.173 A 
ATOM     41  C   UNL A   1      50.981  27.965  24.256  1.00  0.00     0.173 A 
ATOM     42  F   UNL A   1      51.417  27.413  27.825  1.00  0.00    -0.203 F 
ATOM     43  C   UNL A   1      52.998  27.407  26.079  1.00  0.00     0.198 A 
ATOM     44  C   UNL A   1      52.296  27.819  23.821  1.00  0.00     0.198 A 
ATOM     45  F   UNL A   1      50.032  28.255  23.353  1.00  0.00    -0.203 F 
ATOM     46  F   UNL A   1      53.975  27.174  26.966  1.00  0.00    -0.200 F 
ATOM     47  C   UNL A   1      53.304  27.546  24.733  1.00  0.00     0.200 A 
ATOM     48  F   UNL A   1      52.588  27.953  22.520  1.00  0.00    -0.200 F 
ATOM     49  F   UNL A   1      54.572  27.430  24.317  1.00  0.00    -0.200 F 
ENDBRANCH  25  39
BRANCH  26  50
ATOM     50  C   UNL A   1      40.979  28.443  28.382  1.00  0.00     0.064 A 
ATOM     51  C   UNL A   1      39.997  28.986  27.541  1.00  0.00     0.173 A 
ATOM     52  C   UNL A   1      40.574  28.023  29.659  1.00  0.00     0.173 A 
ATOM     53  F   UNL A   1      40.332  29.427  26.319  1.00  0.00    -0.203 F 
ATOM     54  C   UNL A   1      38.677  29.129  27.969  1.00  0.00     0.198 A 
ATOM     55  C   UNL A   1      39.249  28.134  30.073  1.00  0.00     0.198 A 
ATOM     56  F   UNL A   1      41.469  27.500  30.511  1.00  0.00    -0.203 F 
ATOM     57  F   UNL A   1      37.774  29.708  27.166  1.00  0.00    -0.200 F 
ATOM     58  C   UNL A   1      38.303  28.698  29.232  1.00  0.00     0.200 A 
ATOM     59  F   UNL A   1      38.891  27.705  31.293  1.00  0.00    -0.200 F 
ATOM     60  F   UNL A   1      37.036  28.841  29.646  1.00  0.00    -0.200 F 
ENDBRANCH  26  50
BRANCH  38  61
ATOM     61  C   UNL A   1      46.470  32.705  28.888  1.00  0.00     0.064 A 
ATOM     62  C   UNL A   1      46.843  32.888  30.228  1.00  0.00     0.173 A 
ATOM     63  C   UNL A   1      46.290  33.841  28.088  1.00  0.00     0.173 A 
ATOM     64  F   UNL A   1      47.009  31.829  31.033  1.00  0.00    -0.203 F 
ATOM     65  C   UNL A   1      47.009  34.167  30.750  1.00  0.00     0.198 A 
ATOM     66  C   UNL A   1      46.487  35.116  28.606  1.00  0.00     0.198 A 
ATOM     67  F   UNL A   1      45.941  33.712  26.799  1.00  0.00    -0.203 F 
ATOM     68  F   UNL A   1      47.323  34.323  32.043  1.00  0.00    -0.200 F 
ATOM     69  C   UNL A   1      46.839  35.278  29.938  1.00  0.00     0.200 A 
ATOM     70  F   UNL A   1      46.336  36.189  27.817  1.00  0.00    -0.200 F 
ATOM     71  F   UNL A   1      47.010  36.508  30.440  1.00  0.00    -0.200 F 
ENDBRANCH  38  61
ENDBRANCH  12  13
ENDBRANCH   5   7
ENDBRANCH   4   5
ENDBRANCH   3   4
ENDBRANCH   2   3
ENDBRANCH   1   2
BRANCH   1  72
ATOM     72  C   UNL A   1      40.987  21.665  26.180  1.00  0.00     0.202 C 
BRANCH  72  73
ATOM     73  C   UNL A   1      39.722  20.818  26.323  1.00  0.00     0.261 C 
BRANCH  73  74
ATOM     74  O   UNL A   1      38.641  21.565  25.753  1.00  0.00    -0.460 OA
BRANCH  74  75
ATOM     75  C   UNL A   1      37.746  20.835  25.045  1.00  0.00     0.341 C 
ATOM     76  O   UNL A   1      37.804  19.645  24.772  1.00  0.00    -0.246 OA
BRANCH  75  77
ATOM     77  C   UNL A   1      36.526  21.648  24.883  1.00  0.00     0.101 A 
ATOM     78  C   UNL A   1      35.291  20.991  24.996  1.00  0.00     0.022 A 
ATOM     79  C   UNL A   1      36.561  23.025  24.677  1.00  0.00     0.132 A 
ATOM     80  C   UNL A   1      34.096  21.711  24.923  1.00  0.00     0.028 A 
ATOM     81  C   UNL A   1      35.371  23.732  24.529  1.00  0.00     0.074 A 
ATOM     82  C   UNL A   1      34.132  23.080  24.641  1.00  0.00     0.055 A 
BRANCH  79  83
ATOM     83  O   UNL A   1      37.751  23.690  24.586  1.00  0.00    -0.507 OA
ATOM     84  H   UNL A   1      38.425  23.368  24.021  1.00  0.00     0.293 HD
ENDBRANCH  79  83
BRANCH  82  85
ATOM     85  N   UNL A   1      32.948  23.787  24.348  1.00  0.00    -0.250 N 
ATOM     86  C   UNL A   1      32.420  23.821  23.080  1.00  0.00     0.234 C 
ATOM     87  C   UNL A   1      32.133  24.403  25.269  1.00  0.00     0.241 C 
ATOM     88  O   UNL A   1      32.896  23.368  22.048  1.00  0.00    -0.274 OA
ATOM     89  C   UNL A   1      31.035  24.367  23.163  1.00  0.00     0.119 C 
ATOM     90  C   UNL A   1      31.000  25.073  24.514  1.00  0.00     0.121 C 
ATOM     91  O   UNL A   1      32.293  24.463  26.482  1.00  0.00    -0.273 OA
BRANCH  90  92
ATOM     92  C   UNL A   1      31.135  26.564  24.351  1.00  0.00    -0.010 A 
ATOM     93  C   UNL A   1      32.240  27.371  24.542  1.00  0.00     0.088 A 
ATOM     94  C   UNL A   1      30.073  27.429  23.910  1.00  0.00     0.003 A 
ATOM     95  N   UNL A   1      31.895  28.663  24.229  1.00  0.00    -0.361 N 
ATOM     96  C   UNL A   1      30.584  28.722  23.820  1.00  0.00     0.046 A 
ATOM     97  C   UNL A   1      28.724  27.213  23.550  1.00  0.00     0.010 A 
ATOM     98  H   UNL A   1      32.502  29.436  24.287  1.00  0.00     0.166 HD
ATOM     99  C   UNL A   1      29.818  29.809  23.382  1.00  0.00     0.026 A 
ATOM    100  C   UNL A   1      27.948  28.286  23.100  1.00  0.00     0.001 A 
ATOM    101  C   UNL A   1      28.489  29.564  23.017  1.00  0.00     0.002 A 
ENDBRANCH  90  92
ENDBRANCH  82  85
ENDBRANCH  75  77
ENDBRANCH  74  75
ENDBRANCH  73  74
ENDBRANCH  72  73
ENDBRANCH   1  72
TORSDOF 17
ENDMDL
