MODEL 1
REMARK VINA RESULT:     -10.7      0.000      0.000
REMARK SMILES C[C@H](Nc1cccc(C(=O)OCCOCCOC(=O)c2ccc(-c3c4nc(c(-c5c(F)c(F)c(F)c(F)c5F)c5ccc([nH]5)c(-c5c(F)c(F)c(F)c(F)c5F)c5nc(c(-c6c(F)c(F)c(F)c(F)c6F)c6ccc3[nH]6)C=C5)C=C4)cc2)c1)C1CC[NH+](C)CC1
REMARK SMILES IDX 13 1 12 2 11 3 9 4 10 5 8 6 4 7 5 8 83 9 6 10 7 11 3 12 2 14
REMARK SMILES IDX 1 15 84 16 85 17 90 18 86 19 89 20 87 21 88 22 14 24 15 25
REMARK SMILES IDX 16 26 17 27 18 28 19 29 20 30 21 31 82 32 22 33 81 34 23 35
REMARK SMILES IDX 24 36 25 37 75 38 26 39 80 40 74 41 76 42 27 43 79 44 73 45
REMARK SMILES IDX 72 46 28 48 60 49 40 50 59 51 41 52 44 53 58 54 77 55 42 56
REMARK SMILES IDX 43 57 57 59 78 60 45 61 29 62 30 63 38 64 31 65 32 66 36 67
REMARK SMILES IDX 39 68 33 69 34 70 37 71 35 72 61 73 62 74 70 75 63 76 64 77
REMARK SMILES IDX 68 78 71 79 65 80 66 81 69 82 67 83 46 84 47 85 55 86 48 87
REMARK SMILES IDX 49 88 53 89 56 90 50 91 51 92 54 93 52 94
REMARK H PARENT 3 13 87 23 76 47 44 58
REMARK Flexibility Score: inf
ROOT
ATOM      1  C   UNL A   1      34.429  32.859  29.152  1.00  0.00     0.202 C 
ENDROOT
BRANCH   1   2
ATOM      2  C   UNL A   1      35.050  31.981  28.059  1.00  0.00     0.261 C 
BRANCH   2   3
ATOM      3  O   UNL A   1      34.170  30.895  27.715  1.00  0.00    -0.460 OA
BRANCH   3   4
ATOM      4  C   UNL A   1      34.754  29.687  27.506  1.00  0.00     0.338 C 
ATOM      5  O   UNL A   1      35.888  29.367  27.822  1.00  0.00    -0.246 OA
BRANCH   4   6
ATOM      6  C   UNL A   1      33.765  28.731  26.937  1.00  0.00     0.062 A 
ATOM      7  C   UNL A   1      33.105  27.131  25.201  1.00  0.00     0.035 A 
ATOM      8  C   UNL A   1      31.870  26.997  25.835  1.00  0.00     0.026 A 
ATOM      9  C   UNL A   1      34.026  28.010  25.769  1.00  0.00     0.041 A 
ATOM     10  C   UNL A   1      31.580  27.718  27.003  1.00  0.00     0.003 A 
ATOM     11  C   UNL A   1      32.528  28.578  27.559  1.00  0.00     0.016 A 
BRANCH   7  12
ATOM     12  N   UNL A   1      33.438  26.370  24.084  1.00  0.00    -0.382 N 
ATOM     13  H   UNL A   1      33.696  26.814  23.244  1.00  0.00     0.160 HD
BRANCH  12  14
ATOM     14  C   UNL A   1      33.402  24.901  24.161  1.00  0.00     0.079 C 
ATOM     15  C   UNL A   1      33.793  24.384  22.762  1.00  0.00     0.031 C 
BRANCH  14  16
ATOM     16  C   UNL A   1      34.367  24.266  25.216  1.00  0.00     0.022 C 
ATOM     17  C   UNL A   1      35.326  23.205  24.645  1.00  0.00     0.067 C 
ATOM     18  C   UNL A   1      33.723  23.712  26.486  1.00  0.00     0.067 C 
ATOM     19  C   UNL A   1      34.759  21.793  24.542  1.00  0.00     0.262 C 
ATOM     20  C   UNL A   1      33.073  22.351  26.269  1.00  0.00     0.262 C 
ATOM     21  N   UNL A   1      33.987  21.352  25.704  1.00  0.00    -0.337 N 
ATOM     22  C   UNL A   1      33.222  20.147  25.381  1.00  0.00     0.332 C 
ATOM     23  H   UNL A   1      34.690  21.171  26.420  1.00  0.00     0.347 HD
ENDBRANCH  14  16
ENDBRANCH  12  14
ENDBRANCH   7  12
ENDBRANCH   4   6
ENDBRANCH   3   4
ENDBRANCH   2   3
ENDBRANCH   1   2
BRANCH   1  24
ATOM     24  O   UNL A   1      34.743  34.249  29.051  1.00  0.00    -0.374 OA
BRANCH  24  25
ATOM     25  C   UNL A   1      33.726  35.073  28.478  1.00  0.00     0.202 C 
BRANCH  25  26
ATOM     26  C   UNL A   1      32.993  35.974  29.476  1.00  0.00     0.261 C 
BRANCH  26  27
ATOM     27  O   UNL A   1      32.451  35.214  30.571  1.00  0.00    -0.460 OA
BRANCH  27  28
ATOM     28  C   UNL A   1      32.729  35.708  31.800  1.00  0.00     0.338 C 
ATOM     29  O   UNL A   1      32.079  36.522  32.439  1.00  0.00    -0.246 OA
BRANCH  28  30
ATOM     30  C   UNL A   1      33.889  34.999  32.367  1.00  0.00     0.060 A 
ATOM     31  C   UNL A   1      35.138  35.627  32.292  1.00  0.00     0.016 A 
ATOM     32  C   UNL A   1      33.771  33.728  32.934  1.00  0.00     0.016 A 
ATOM     33  C   UNL A   1      36.279  34.968  32.746  1.00  0.00     0.010 A 
ATOM     34  C   UNL A   1      34.914  33.077  33.410  1.00  0.00     0.010 A 
ATOM     35  C   UNL A   1      36.181  33.676  33.282  1.00  0.00    -0.014 A 
BRANCH  35  36
ATOM     36  C   UNL A   1      37.412  32.895  33.568  1.00  0.00     0.031 A 
ATOM     37  C   UNL A   1      38.155  33.147  34.852  1.00  0.00     0.074 A 
ATOM     38  C   UNL A   1      37.854  31.955  32.711  1.00  0.00     0.049 A 
ATOM     39  N   UNL A   1      39.263  32.609  35.295  1.00  0.00    -0.248 NA
ATOM     40  C   UNL A   1      37.571  34.148  35.761  1.00  0.00     0.031 C 
ATOM     41  C   UNL A   1      37.219  31.601  31.444  1.00  0.00     0.029 A 
ATOM     42  N   UNL A   1      38.952  31.132  32.780  1.00  0.00    -0.354 N 
ATOM     43  C   UNL A   1      39.514  33.215  36.520  1.00  0.00     0.074 A 
ATOM     44  C   UNL A   1      38.467  34.189  36.734  1.00  0.00     0.031 C 
ATOM     45  C   UNL A   1      37.937  30.630  30.853  1.00  0.00     0.029 A 
ATOM     46  C   UNL A   1      39.103  30.322  31.680  1.00  0.00     0.049 A 
ATOM     47  H   UNL A   1      39.571  31.121  33.546  1.00  0.00     0.167 HD
ATOM     48  C   UNL A   1      40.519  32.972  37.394  1.00  0.00     0.037 A 
ATOM     49  C   UNL A   1      40.082  29.452  31.368  1.00  0.00     0.037 A 
ATOM     50  C   UNL A   1      41.555  31.994  37.188  1.00  0.00     0.049 A 
ATOM     51  C   UNL A   1      41.223  29.241  32.332  1.00  0.00     0.074 A 
ATOM     52  C   UNL A   1      42.596  31.650  38.032  1.00  0.00     0.029 A 
ATOM     53  N   UNL A   1      41.686  31.210  36.051  1.00  0.00    -0.354 N 
ATOM     54  N   UNL A   1      41.431  29.788  33.506  1.00  0.00    -0.248 NA
ATOM     55  C   UNL A   1      42.266  28.286  31.928  1.00  0.00     0.031 C 
ATOM     56  C   UNL A   1      43.395  30.705  37.378  1.00  0.00     0.029 A 
ATOM     57  C   UNL A   1      42.811  30.407  36.158  1.00  0.00     0.049 A 
ATOM     58  H   UNL A   1      41.072  31.222  35.281  1.00  0.00     0.167 HD
ATOM     59  C   UNL A   1      42.603  29.221  33.992  1.00  0.00     0.074 A 
ATOM     60  C   UNL A   1      43.055  28.277  32.993  1.00  0.00     0.031 C 
ATOM     61  C   UNL A   1      43.246  29.460  35.163  1.00  0.00     0.037 A 
BRANCH  48  62
ATOM     62  C   UNL A   1      40.564  33.795  38.650  1.00  0.00     0.064 A 
ATOM     63  C   UNL A   1      41.347  34.955  38.749  1.00  0.00     0.173 A 
ATOM     64  C   UNL A   1      39.783  33.436  39.759  1.00  0.00     0.173 A 
ATOM     65  F   UNL A   1      42.123  35.337  37.724  1.00  0.00    -0.203 F 
ATOM     66  C   UNL A   1      41.367  35.709  39.921  1.00  0.00     0.198 A 
ATOM     67  C   UNL A   1      39.778  34.212  40.916  1.00  0.00     0.198 A 
ATOM     68  F   UNL A   1      39.010  32.340  39.718  1.00  0.00    -0.203 F 
ATOM     69  F   UNL A   1      42.162  36.785  40.010  1.00  0.00    -0.200 F 
ATOM     70  C   UNL A   1      40.576  35.342  40.999  1.00  0.00     0.200 A 
ATOM     71  F   UNL A   1      39.001  33.864  41.951  1.00  0.00    -0.200 F 
ATOM     72  F   UNL A   1      40.588  36.074  42.121  1.00  0.00    -0.200 F 
ENDBRANCH  48  62
BRANCH  49  73
ATOM     73  C   UNL A   1      40.039  28.713  30.077  1.00  0.00     0.064 A 
ATOM     74  C   UNL A   1      39.433  27.453  29.981  1.00  0.00     0.173 A 
ATOM     75  C   UNL A   1      40.630  29.241  28.919  1.00  0.00     0.173 A 
ATOM     76  F   UNL A   1      38.879  26.891  31.066  1.00  0.00    -0.203 F 
ATOM     77  C   UNL A   1      39.441  26.738  28.784  1.00  0.00     0.198 A 
ATOM     78  C   UNL A   1      40.606  28.540  27.714  1.00  0.00     0.198 A 
ATOM     79  F   UNL A   1      41.226  30.441  28.954  1.00  0.00    -0.203 F 
ATOM     80  F   UNL A   1      38.904  25.510  28.736  1.00  0.00    -0.200 F 
ATOM     81  C   UNL A   1      40.021  27.286  27.650  1.00  0.00     0.200 A 
ATOM     82  F   UNL A   1      41.157  29.079  26.617  1.00  0.00    -0.200 F 
ATOM     83  F   UNL A   1      40.026  26.599  26.499  1.00  0.00    -0.200 F 
ENDBRANCH  49  73
BRANCH  61  84
ATOM     84  C   UNL A   1      44.481  28.655  35.455  1.00  0.00     0.064 A 
ATOM     85  C   UNL A   1      44.421  27.410  36.100  1.00  0.00     0.173 A 
ATOM     86  C   UNL A   1      45.741  29.118  35.043  1.00  0.00     0.173 A 
ATOM     87  F   UNL A   1      43.244  26.925  36.525  1.00  0.00    -0.203 F 
ATOM     88  C   UNL A   1      45.577  26.674  36.346  1.00  0.00     0.198 A 
ATOM     89  C   UNL A   1      46.891  28.363  35.260  1.00  0.00     0.198 A 
ATOM     90  F   UNL A   1      45.857  30.297  34.414  1.00  0.00    -0.203 F 
ATOM     91  F   UNL A   1      45.501  25.513  37.011  1.00  0.00    -0.200 F 
ATOM     92  C   UNL A   1      46.810  27.147  35.919  1.00  0.00     0.200 A 
ATOM     93  F   UNL A   1      48.077  28.813  34.829  1.00  0.00    -0.200 F 
ATOM     94  F   UNL A   1      47.920  26.433  36.149  1.00  0.00    -0.200 F 
ENDBRANCH  61  84
ENDBRANCH  35  36
ENDBRANCH  28  30
ENDBRANCH  27  28
ENDBRANCH  26  27
ENDBRANCH  25  26
ENDBRANCH  24  25
ENDBRANCH   1  24
TORSDOF 17
ENDMDL
MODEL 2
REMARK VINA RESULT:     -10.5      1.787      2.704
REMARK SMILES C[C@H](Nc1cccc(C(=O)OCCOCCOC(=O)c2ccc(-c3c4nc(c(-c5c(F)c(F)c(F)c(F)c5F)c5ccc([nH]5)c(-c5c(F)c(F)c(F)c(F)c5F)c5nc(c(-c6c(F)c(F)c(F)c(F)c6F)c6ccc3[nH]6)C=C5)C=C4)cc2)c1)C1CC[NH+](C)CC1
REMARK SMILES IDX 13 1 12 2 11 3 9 4 10 5 8 6 4 7 5 8 83 9 6 10 7 11 3 12 2 14
REMARK SMILES IDX 1 15 84 16 85 17 90 18 86 19 89 20 87 21 88 22 14 24 15 25
REMARK SMILES IDX 16 26 17 27 18 28 19 29 20 30 21 31 82 32 22 33 81 34 23 35
REMARK SMILES IDX 24 36 25 37 75 38 26 39 80 40 74 41 76 42 27 43 79 44 73 45
REMARK SMILES IDX 72 46 28 48 60 49 40 50 59 51 41 52 44 53 58 54 77 55 42 56
REMARK SMILES IDX 43 57 57 59 78 60 45 61 29 62 30 63 38 64 31 65 32 66 36 67
REMARK SMILES IDX 39 68 33 69 34 70 37 71 35 72 61 73 62 74 70 75 63 76 64 77
REMARK SMILES IDX 68 78 71 79 65 80 66 81 69 82 67 83 46 84 47 85 55 86 48 87
REMARK SMILES IDX 49 88 53 89 56 90 50 91 51 92 54 93 52 94
REMARK H PARENT 3 13 87 23 76 47 44 58
REMARK Flexibility Score: inf
ROOT
ATOM      1  C   UNL A   1      33.259  30.817  27.266  1.00  0.00     0.202 C 
ENDROOT
BRANCH   1   2
ATOM      2  C   UNL A   1      33.781  29.579  26.528  1.00  0.00     0.261 C 
BRANCH   2   3
ATOM      3  O   UNL A   1      33.534  28.386  27.295  1.00  0.00    -0.460 OA
BRANCH   3   4
ATOM      4  C   UNL A   1      32.301  27.829  27.165  1.00  0.00     0.338 C 
ATOM      5  O   UNL A   1      31.367  27.950  27.941  1.00  0.00    -0.246 OA
BRANCH   4   6
ATOM      6  C   UNL A   1      32.188  27.134  25.854  1.00  0.00     0.062 A 
ATOM      7  C   UNL A   1      33.129  25.655  24.140  1.00  0.00     0.035 A 
ATOM      8  C   UNL A   1      31.999  25.894  23.356  1.00  0.00     0.026 A 
ATOM      9  C   UNL A   1      33.198  26.294  25.377  1.00  0.00     0.041 A 
ATOM     10  C   UNL A   1      30.977  26.741  23.808  1.00  0.00     0.003 A 
ATOM     11  C   UNL A   1      31.066  27.355  25.059  1.00  0.00     0.016 A 
BRANCH   7  12
ATOM     12  N   UNL A   1      34.118  24.762  23.740  1.00  0.00    -0.382 N 
ATOM     13  H   UNL A   1      34.728  24.998  23.004  1.00  0.00     0.160 HD
BRANCH  12  14
ATOM     14  C   UNL A   1      34.251  23.463  24.419  1.00  0.00     0.079 C 
ATOM     15  C   UNL A   1      35.559  23.531  25.232  1.00  0.00     0.031 C 
BRANCH  14  16
ATOM     16  C   UNL A   1      33.079  23.097  25.388  1.00  0.00     0.022 C 
ATOM     17  C   UNL A   1      33.514  22.341  26.657  1.00  0.00     0.067 C 
ATOM     18  C   UNL A   1      31.882  22.372  24.773  1.00  0.00     0.067 C 
ATOM     19  C   UNL A   1      33.657  20.830  26.507  1.00  0.00     0.262 C 
ATOM     20  C   UNL A   1      32.149  20.890  24.542  1.00  0.00     0.262 C 
ATOM     21  N   UNL A   1      32.585  20.181  25.751  1.00  0.00    -0.337 N 
ATOM     22  C   UNL A   1      32.973  18.819  25.382  1.00  0.00     0.332 C 
ATOM     23  H   UNL A   1      31.789  20.186  26.388  1.00  0.00     0.347 HD
ENDBRANCH  14  16
ENDBRANCH  12  14
ENDBRANCH   7  12
ENDBRANCH   4   6
ENDBRANCH   3   4
ENDBRANCH   2   3
ENDBRANCH   1   2
BRANCH   1  24
ATOM     24  O   UNL A   1      31.907  31.166  26.962  1.00  0.00    -0.374 OA
BRANCH  24  25
ATOM     25  C   UNL A   1      31.639  32.565  26.845  1.00  0.00     0.202 C 
BRANCH  25  26
ATOM     26  C   UNL A   1      32.756  33.477  27.359  1.00  0.00     0.261 C 
BRANCH  26  27
ATOM     27  O   UNL A   1      32.240  34.504  28.224  1.00  0.00    -0.460 OA
BRANCH  27  28
ATOM     28  C   UNL A   1      33.178  35.192  28.915  1.00  0.00     0.338 C 
ATOM     29  O   UNL A   1      33.101  36.337  29.335  1.00  0.00    -0.246 OA
BRANCH  28  30
ATOM     30  C   UNL A   1      34.302  34.299  29.246  1.00  0.00     0.060 A 
ATOM     31  C   UNL A   1      34.034  33.181  30.044  1.00  0.00     0.016 A 
ATOM     32  C   UNL A   1      35.604  34.563  28.813  1.00  0.00     0.016 A 
ATOM     33  C   UNL A   1      35.075  32.347  30.448  1.00  0.00     0.010 A 
ATOM     34  C   UNL A   1      36.644  33.711  29.200  1.00  0.00     0.010 A 
ATOM     35  C   UNL A   1      36.392  32.621  30.054  1.00  0.00    -0.014 A 
BRANCH  35  36
ATOM     36  C   UNL A   1      37.520  31.861  30.652  1.00  0.00     0.031 A 
ATOM     37  C   UNL A   1      37.943  32.172  32.062  1.00  0.00     0.074 A 
ATOM     38  C   UNL A   1      38.147  30.889  29.963  1.00  0.00     0.049 A 
ATOM     39  N   UNL A   1      38.916  31.661  32.774  1.00  0.00    -0.248 NA
ATOM     40  C   UNL A   1      37.167  33.207  32.766  1.00  0.00     0.031 C 
ATOM     41  C   UNL A   1      37.823  30.476  28.599  1.00  0.00     0.029 A 
ATOM     42  N   UNL A   1      39.195  30.076  30.322  1.00  0.00    -0.354 N 
ATOM     43  C   UNL A   1      38.877  32.321  33.996  1.00  0.00     0.074 A 
ATOM     44  C   UNL A   1      37.812  33.296  33.918  1.00  0.00     0.031 C 
ATOM     45  C   UNL A   1      38.655  29.486  28.235  1.00  0.00     0.029 A 
ATOM     46  C   UNL A   1      39.595  29.221  29.323  1.00  0.00     0.049 A 
ATOM     47  H   UNL A   1      39.618  30.102  31.210  1.00  0.00     0.167 HD
ATOM     48  C   UNL A   1      39.649  32.122  35.090  1.00  0.00     0.037 A 
ATOM     49  C   UNL A   1      40.618  28.345  29.286  1.00  0.00     0.037 A 
ATOM     50  C   UNL A   1      40.702  31.144  35.173  1.00  0.00     0.049 A 
ATOM     51  C   UNL A   1      41.502  28.183  30.497  1.00  0.00     0.074 A 
ATOM     52  C   UNL A   1      41.517  30.843  36.250  1.00  0.00     0.029 A 
ATOM     53  N   UNL A   1      41.091  30.312  34.133  1.00  0.00    -0.354 N 
ATOM     54  N   UNL A   1      41.432  28.781  31.662  1.00  0.00    -0.248 NA
ATOM     55  C   UNL A   1      42.607  27.219  30.388  1.00  0.00     0.031 C 
ATOM     56  C   UNL A   1      42.443  29.876  35.843  1.00  0.00     0.029 A 
ATOM     57  C   UNL A   1      42.158  29.522  34.534  1.00  0.00     0.049 A 
ATOM     58  H   UNL A   1      40.674  30.287  33.242  1.00  0.00     0.167 HD
ATOM     59  C   UNL A   1      42.456  28.244  32.432  1.00  0.00     0.074 A 
ATOM     60  C   UNL A   1      43.126  27.260  31.608  1.00  0.00     0.031 C 
ATOM     61  C   UNL A   1      42.810  28.537  33.709  1.00  0.00     0.037 A 
BRANCH  48  62
ATOM     62  C   UNL A   1      39.403  32.998  36.286  1.00  0.00     0.064 A 
ATOM     63  C   UNL A   1      40.072  34.219  36.460  1.00  0.00     0.173 A 
ATOM     64  C   UNL A   1      38.457  32.626  37.252  1.00  0.00     0.173 A 
ATOM     65  F   UNL A   1      40.995  34.618  35.573  1.00  0.00    -0.203 F 
ATOM     66  C   UNL A   1      39.821  35.022  37.571  1.00  0.00     0.198 A 
ATOM     67  C   UNL A   1      38.184  33.446  38.344  1.00  0.00     0.198 A 
ATOM     68  F   UNL A   1      37.785  31.471  37.133  1.00  0.00    -0.203 F 
ATOM     69  F   UNL A   1      40.508  36.159  37.743  1.00  0.00    -0.200 F 
ATOM     70  C   UNL A   1      38.872  34.638  38.507  1.00  0.00     0.200 A 
ATOM     71  F   UNL A   1      37.255  33.082  39.238  1.00  0.00    -0.200 F 
ATOM     72  F   UNL A   1      38.624  35.416  39.570  1.00  0.00    -0.200 F 
ENDBRANCH  48  62
BRANCH  49  73
ATOM     73  C   UNL A   1      40.874  27.552  28.053  1.00  0.00     0.064 A 
ATOM     74  C   UNL A   1      40.352  26.260  27.899  1.00  0.00     0.173 A 
ATOM     75  C   UNL A   1      41.672  28.059  27.016  1.00  0.00     0.173 A 
ATOM     76  F   UNL A   1      39.608  25.717  28.874  1.00  0.00    -0.203 F 
ATOM     77  C   UNL A   1      40.638  25.497  26.768  1.00  0.00     0.198 A 
ATOM     78  C   UNL A   1      41.927  27.308  25.870  1.00  0.00     0.198 A 
ATOM     79  F   UNL A   1      42.199  29.288  27.112  1.00  0.00    -0.203 F 
ATOM     80  F   UNL A   1      40.173  24.243  26.673  1.00  0.00    -0.200 F 
ATOM     81  C   UNL A   1      41.419  26.025  25.751  1.00  0.00     0.200 A 
ATOM     82  F   UNL A   1      42.672  27.828  24.884  1.00  0.00    -0.200 F 
ATOM     83  F   UNL A   1      41.691  25.292  24.663  1.00  0.00    -0.200 F 
ENDBRANCH  49  73
BRANCH  61  84
ATOM     84  C   UNL A   1      43.940  27.753  34.316  1.00  0.00     0.064 A 
ATOM     85  C   UNL A   1      43.732  26.519  34.951  1.00  0.00     0.173 A 
ATOM     86  C   UNL A   1      45.259  28.224  34.219  1.00  0.00     0.173 A 
ATOM     87  F   UNL A   1      42.490  26.028  35.082  1.00  0.00    -0.203 F 
ATOM     88  C   UNL A   1      44.796  25.804  35.493  1.00  0.00     0.198 A 
ATOM     89  C   UNL A   1      46.325  27.488  34.730  1.00  0.00     0.198 A 
ATOM     90  F   UNL A   1      45.518  29.394  33.614  1.00  0.00    -0.203 F 
ATOM     91  F   UNL A   1      44.567  24.654  36.142  1.00  0.00    -0.200 F 
ATOM     92  C   UNL A   1      46.093  26.284  35.375  1.00  0.00     0.200 A 
ATOM     93  F   UNL A   1      47.578  27.946  34.597  1.00  0.00    -0.200 F 
ATOM     94  F   UNL A   1      47.117  25.589  35.888  1.00  0.00    -0.200 F 
ENDBRANCH  61  84
ENDBRANCH  35  36
ENDBRANCH  28  30
ENDBRANCH  27  28
ENDBRANCH  26  27
ENDBRANCH  25  26
ENDBRANCH  24  25
ENDBRANCH   1  24
TORSDOF 17
ENDMDL
MODEL 3
REMARK VINA RESULT:     -10.5      6.863     12.440
REMARK SMILES C[C@H](Nc1cccc(C(=O)OCCOCCOC(=O)c2ccc(-c3c4nc(c(-c5c(F)c(F)c(F)c(F)c5F)c5ccc([nH]5)c(-c5c(F)c(F)c(F)c(F)c5F)c5nc(c(-c6c(F)c(F)c(F)c(F)c6F)c6ccc3[nH]6)C=C5)C=C4)cc2)c1)C1CC[NH+](C)CC1
REMARK SMILES IDX 13 1 12 2 11 3 9 4 10 5 8 6 4 7 5 8 83 9 6 10 7 11 3 12 2 14
REMARK SMILES IDX 1 15 84 16 85 17 90 18 86 19 89 20 87 21 88 22 14 24 15 25
REMARK SMILES IDX 16 26 17 27 18 28 19 29 20 30 21 31 82 32 22 33 81 34 23 35
REMARK SMILES IDX 24 36 25 37 75 38 26 39 80 40 74 41 76 42 27 43 79 44 73 45
REMARK SMILES IDX 72 46 28 48 60 49 40 50 59 51 41 52 44 53 58 54 77 55 42 56
REMARK SMILES IDX 43 57 57 59 78 60 45 61 29 62 30 63 38 64 31 65 32 66 36 67
REMARK SMILES IDX 39 68 33 69 34 70 37 71 35 72 61 73 62 74 70 75 63 76 64 77
REMARK SMILES IDX 68 78 71 79 65 80 66 81 69 82 67 83 46 84 47 85 55 86 48 87
REMARK SMILES IDX 49 88 53 89 56 90 50 91 51 92 54 93 52 94
REMARK H PARENT 3 13 87 23 76 47 44 58
REMARK Flexibility Score: inf
ROOT
ATOM      1  C   UNL A   1      40.465  20.290  26.228  1.00  0.00     0.202 C 
ENDROOT
BRANCH   1   2
ATOM      2  C   UNL A   1      40.063  21.767  26.141  1.00  0.00     0.261 C 
BRANCH   2   3
ATOM      3  O   UNL A   1      38.634  21.901  26.032  1.00  0.00    -0.460 OA
BRANCH   3   4
ATOM      4  C   UNL A   1      38.139  23.164  26.105  1.00  0.00     0.338 C 
ATOM      5  O   UNL A   1      38.680  24.125  26.627  1.00  0.00    -0.246 OA
BRANCH   4   6
ATOM      6  C   UNL A   1      36.868  23.261  25.336  1.00  0.00     0.062 A 
ATOM      7  C   UNL A   1      34.440  23.589  25.268  1.00  0.00     0.035 A 
ATOM      8  C   UNL A   1      34.478  23.365  23.891  1.00  0.00     0.026 A 
ATOM      9  C   UNL A   1      35.647  23.522  25.962  1.00  0.00     0.041 A 
ATOM     10  C   UNL A   1      35.690  23.091  23.241  1.00  0.00     0.003 A 
ATOM     11  C   UNL A   1      36.885  23.047  23.960  1.00  0.00     0.016 A 
BRANCH   7  12
ATOM     12  N   UNL A   1      33.258  23.933  25.918  1.00  0.00    -0.382 N 
ATOM     13  H   UNL A   1      32.924  23.379  26.661  1.00  0.00     0.160 HD
BRANCH  12  14
ATOM     14  C   UNL A   1      32.510  25.127  25.494  1.00  0.00     0.079 C 
ATOM     15  C   UNL A   1      31.343  25.283  26.491  1.00  0.00     0.031 C 
BRANCH  14  16
ATOM     16  C   UNL A   1      33.333  26.457  25.476  1.00  0.00     0.022 C 
ATOM     17  C   UNL A   1      32.780  27.561  26.395  1.00  0.00     0.067 C 
ATOM     18  C   UNL A   1      33.626  27.062  24.104  1.00  0.00     0.067 C 
ATOM     19  C   UNL A   1      31.670  28.421  25.797  1.00  0.00     0.262 C 
ATOM     20  C   UNL A   1      32.428  27.801  23.521  1.00  0.00     0.262 C 
ATOM     21  N   UNL A   1      31.892  28.837  24.412  1.00  0.00    -0.337 N 
ATOM     22  C   UNL A   1      30.654  29.360  23.832  1.00  0.00     0.332 C 
ATOM     23  H   UNL A   1      32.610  29.557  24.477  1.00  0.00     0.347 HD
ENDBRANCH  14  16
ENDBRANCH  12  14
ENDBRANCH   7  12
ENDBRANCH   4   6
ENDBRANCH   3   4
ENDBRANCH   2   3
ENDBRANCH   1   2
BRANCH   1  24
ATOM     24  O   UNL A   1      41.826  20.022  25.885  1.00  0.00    -0.374 OA
BRANCH  24  25
ATOM     25  C   UNL A   1      42.284  18.696  26.159  1.00  0.00     0.202 C 
BRANCH  25  26
ATOM     26  C   UNL A   1      43.685  18.379  25.629  1.00  0.00     0.261 C 
BRANCH  26  27
ATOM     27  O   UNL A   1      43.898  18.956  24.328  1.00  0.00    -0.460 OA
BRANCH  27  28
ATOM     28  C   UNL A   1      45.078  19.601  24.177  1.00  0.00     0.338 C 
ATOM     29  O   UNL A   1      46.063  19.217  23.565  1.00  0.00    -0.246 OA
BRANCH  28  30
ATOM     30  C   UNL A   1      44.976  20.957  24.745  1.00  0.00     0.060 A 
ATOM     31  C   UNL A   1      44.592  21.996  23.889  1.00  0.00     0.016 A 
ATOM     32  C   UNL A   1      45.280  21.220  26.083  1.00  0.00     0.016 A 
ATOM     33  C   UNL A   1      44.554  23.308  24.357  1.00  0.00     0.010 A 
ATOM     34  C   UNL A   1      45.218  22.535  26.557  1.00  0.00     0.010 A 
ATOM     35  C   UNL A   1      44.894  23.592  25.687  1.00  0.00    -0.014 A 
BRANCH  35  36
ATOM     36  C   UNL A   1      45.056  25.002  26.127  1.00  0.00     0.031 A 
ATOM     37  C   UNL A   1      46.411  25.648  26.021  1.00  0.00     0.074 A 
ATOM     38  C   UNL A   1      44.010  25.711  26.592  1.00  0.00     0.049 A 
ATOM     39  N   UNL A   1      46.793  26.850  26.372  1.00  0.00    -0.248 NA
ATOM     40  C   UNL A   1      47.487  24.823  25.446  1.00  0.00     0.031 C 
ATOM     41  C   UNL A   1      42.644  25.210  26.727  1.00  0.00     0.029 A 
ATOM     42  N   UNL A   1      43.942  27.006  27.043  1.00  0.00    -0.354 N 
ATOM     43  C   UNL A   1      48.149  26.919  26.076  1.00  0.00     0.074 A 
ATOM     44  C   UNL A   1      48.534  25.626  25.553  1.00  0.00     0.031 C 
ATOM     45  C   UNL A   1      41.870  26.189  27.228  1.00  0.00     0.029 A 
ATOM     46  C   UNL A   1      42.693  27.370  27.485  1.00  0.00     0.049 A 
ATOM     47  H   UNL A   1      44.714  27.617  27.049  1.00  0.00     0.167 HD
ATOM     48  C   UNL A   1      48.993  27.968  26.212  1.00  0.00     0.037 A 
ATOM     49  C   UNL A   1      42.269  28.516  28.053  1.00  0.00     0.037 A 
ATOM     50  C   UNL A   1      48.608  29.258  26.721  1.00  0.00     0.049 A 
ATOM     51  C   UNL A   1      43.243  29.651  28.250  1.00  0.00     0.074 A 
ATOM     52  C   UNL A   1      49.384  30.395  26.865  1.00  0.00     0.029 A 
ATOM     53  N   UNL A   1      47.339  29.580  27.179  1.00  0.00    -0.354 N 
ATOM     54  N   UNL A   1      44.513  29.721  27.929  1.00  0.00    -0.248 NA
ATOM     55  C   UNL A   1      42.722  30.870  28.885  1.00  0.00     0.031 C 
ATOM     56  C   UNL A   1      48.602  31.385  27.470  1.00  0.00     0.029 A 
ATOM     57  C   UNL A   1      47.319  30.889  27.636  1.00  0.00     0.049 A 
ATOM     58  H   UNL A   1      46.566  28.970  27.179  1.00  0.00     0.167 HD
ATOM     59  C   UNL A   1      44.931  30.996  28.290  1.00  0.00     0.074 A 
ATOM     60  C   UNL A   1      43.777  31.672  28.842  1.00  0.00     0.031 C 
ATOM     61  C   UNL A   1      46.161  31.557  28.173  1.00  0.00     0.037 A 
BRANCH  48  62
ATOM     62  C   UNL A   1      50.431  27.760  25.829  1.00  0.00     0.064 A 
ATOM     63  C   UNL A   1      50.872  27.896  24.504  1.00  0.00     0.173 A 
ATOM     64  C   UNL A   1      51.387  27.455  26.810  1.00  0.00     0.173 A 
ATOM     65  F   UNL A   1      49.998  28.174  23.525  1.00  0.00    -0.203 F 
ATOM     66  C   UNL A   1      52.212  27.708  24.172  1.00  0.00     0.198 A 
ATOM     67  C   UNL A   1      52.731  27.303  26.480  1.00  0.00     0.198 A 
ATOM     68  F   UNL A   1      51.021  27.319  28.093  1.00  0.00    -0.203 F 
ATOM     69  F   UNL A   1      52.602  27.793  22.893  1.00  0.00    -0.200 F 
ATOM     70  C   UNL A   1      53.141  27.420  25.161  1.00  0.00     0.200 A 
ATOM     71  F   UNL A   1      53.630  27.040  27.439  1.00  0.00    -0.200 F 
ATOM     72  F   UNL A   1      54.431  27.250  24.842  1.00  0.00    -0.200 F 
ENDBRANCH  48  62
BRANCH  49  73
ATOM     73  C   UNL A   1      40.854  28.653  28.490  1.00  0.00     0.064 A 
ATOM     74  C   UNL A   1      40.463  28.339  29.799  1.00  0.00     0.173 A 
ATOM     75  C   UNL A   1      39.856  29.072  27.597  1.00  0.00     0.173 A 
ATOM     76  F   UNL A   1      41.374  27.906  30.684  1.00  0.00    -0.203 F 
ATOM     77  C   UNL A   1      39.128  28.416  30.192  1.00  0.00     0.198 A 
ATOM     78  C   UNL A   1      38.527  29.183  28.002  1.00  0.00     0.198 A 
ATOM     79  F   UNL A   1      40.172  29.382  26.331  1.00  0.00    -0.203 F 
ATOM     80  F   UNL A   1      38.776  28.055  31.434  1.00  0.00    -0.200 F 
ATOM     81  C   UNL A   1      38.163  28.845  29.295  1.00  0.00     0.200 A 
ATOM     82  F   UNL A   1      37.597  29.610  27.134  1.00  0.00    -0.200 F 
ATOM     83  F   UNL A   1      36.879  28.920  29.674  1.00  0.00    -0.200 F 
ENDBRANCH  49  73
BRANCH  61  84
ATOM     84  C   UNL A   1      46.316  32.989  28.603  1.00  0.00     0.064 A 
ATOM     85  C   UNL A   1      46.707  33.335  29.906  1.00  0.00     0.173 A 
ATOM     86  C   UNL A   1      46.116  34.030  27.683  1.00  0.00     0.173 A 
ATOM     87  F   UNL A   1      46.901  32.381  30.829  1.00  0.00    -0.203 F 
ATOM     88  C   UNL A   1      46.860  34.668  30.277  1.00  0.00     0.198 A 
ATOM     89  C   UNL A   1      46.305  35.360  28.048  1.00  0.00     0.198 A 
ATOM     90  F   UNL A   1      45.751  33.757  26.421  1.00  0.00    -0.203 F 
ATOM     91  F   UNL A   1      47.182  34.977  31.541  1.00  0.00    -0.200 F 
ATOM     92  C   UNL A   1      46.668  35.679  29.347  1.00  0.00     0.200 A 
ATOM     93  F   UNL A   1      46.136  36.333  27.142  1.00  0.00    -0.200 F 
ATOM     94  F   UNL A   1      46.825  36.961  29.704  1.00  0.00    -0.200 F 
ENDBRANCH  61  84
ENDBRANCH  35  36
ENDBRANCH  28  30
ENDBRANCH  27  28
ENDBRANCH  26  27
ENDBRANCH  25  26
ENDBRANCH  24  25
ENDBRANCH   1  24
TORSDOF 17
ENDMDL
