MODEL 1
REMARK VINA RESULT:     -11.1      0.000      0.000
REMARK SMILES CC(C)CN(C)S(=O)(=O)c1ccc(C(=O)OCCOCCOC(=O)c2ccc(-c3c4nc(c(-c5c(F)c(F)c(F)c(F)c5F)c5ccc([nH]5)c(-c5c(F)c(F)c(F)c(F)c5F)c5nc(c(-c6c(F)c(F)c(F)c(F)c6F)c6ccc3[nH]6)C=C5)C=C4)cc2)cc1
REMARK SMILES IDX 18 1 17 2 16 3 14 4 15 5 13 6 10 7 11 8 89 9 12 10 88 11
REMARK SMILES IDX 7 12 8 13 9 14 5 15 6 16 4 17 2 18 1 19 3 20 19 21 20 22
REMARK SMILES IDX 21 23 22 24 23 25 24 26 25 27 26 28 87 29 27 30 86 31 28 32
REMARK SMILES IDX 29 33 30 34 80 35 31 36 85 37 79 38 81 39 32 40 84 41 78 42
REMARK SMILES IDX 77 43 33 45 65 46 45 47 64 48 46 49 49 50 63 51 82 52 47 53
REMARK SMILES IDX 48 54 62 56 83 57 50 58 34 59 35 60 43 61 36 62 37 63 41 64
REMARK SMILES IDX 44 65 38 66 39 67 42 68 40 69 66 70 67 71 75 72 68 73 69 74
REMARK SMILES IDX 73 75 76 76 70 77 71 78 74 79 72 80 51 81 52 82 60 83 53 84
REMARK SMILES IDX 54 85 58 86 61 87 55 88 56 89 59 90 57 91
REMARK H PARENT 81 44 49 55
REMARK Flexibility Score: inf
ROOT
ATOM      1  C   UNL A   1      39.067  21.059  25.713  1.00  0.00     0.202 C 
ENDROOT
BRANCH   1   2
ATOM      2  C   UNL A   1      38.030  22.152  25.437  1.00  0.00     0.261 C 
BRANCH   2   3
ATOM      3  O   UNL A   1      37.096  21.766  24.416  1.00  0.00    -0.460 OA
BRANCH   3   4
ATOM      4  C   UNL A   1      35.820  21.655  24.857  1.00  0.00     0.338 C 
ATOM      5  O   UNL A   1      35.339  20.729  25.491  1.00  0.00    -0.246 OA
BRANCH   4   6
ATOM      6  C   UNL A   1      35.087  22.919  24.645  1.00  0.00     0.060 A 
ATOM      7  C   UNL A   1      33.907  25.362  24.011  1.00  0.00     0.082 A 
ATOM      8  C   UNL A   1      34.025  24.363  23.033  1.00  0.00     0.022 A 
ATOM      9  C   UNL A   1      34.334  25.123  25.321  1.00  0.00     0.022 A 
ATOM     10  C   UNL A   1      34.630  23.154  23.344  1.00  0.00     0.017 A 
ATOM     11  C   UNL A   1      34.897  23.877  25.649  1.00  0.00     0.017 A 
BRANCH   7  12
ATOM     12  S   UNL A   1      33.390  26.945  23.379  1.00  0.00     0.242 S 
ATOM     13  O   UNL A   1      33.645  26.935  21.954  1.00  0.00    -0.207 OA
ATOM     14  O   UNL A   1      34.057  27.891  24.241  1.00  0.00    -0.207 OA
BRANCH  12  15
ATOM     15  N   UNL A   1      31.681  27.094  23.596  1.00  0.00    -0.201 NA
ATOM     16  C   UNL A   1      31.041  27.741  22.398  1.00  0.00     0.124 C 
BRANCH  15  17
ATOM     17  C   UNL A   1      31.305  27.918  24.817  1.00  0.00     0.105 C 
BRANCH  17  18
ATOM     18  C   UNL A   1      31.018  27.136  26.118  1.00  0.00    -0.002 C 
ATOM     19  C   UNL A   1      30.883  25.621  25.941  1.00  0.00     0.009 C 
ATOM     20  C   UNL A   1      32.187  27.372  27.091  1.00  0.00     0.009 C 
ENDBRANCH  17  18
ENDBRANCH  15  17
ENDBRANCH  12  15
ENDBRANCH   7  12
ENDBRANCH   4   6
ENDBRANCH   3   4
ENDBRANCH   2   3
ENDBRANCH   1   2
BRANCH   1  21
ATOM     21  O   UNL A   1      40.123  21.358  26.621  1.00  0.00    -0.374 OA
BRANCH  21  22
ATOM     22  C   UNL A   1      41.366  20.678  26.456  1.00  0.00     0.202 C 
BRANCH  22  23
ATOM     23  C   UNL A   1      42.560  21.482  25.925  1.00  0.00     0.261 C 
BRANCH  23  24
ATOM     24  O   UNL A   1      42.154  22.664  25.213  1.00  0.00    -0.460 OA
BRANCH  24  25
ATOM     25  C   UNL A   1      43.017  23.703  25.297  1.00  0.00     0.338 C 
ATOM     26  O   UNL A   1      44.060  23.860  24.681  1.00  0.00    -0.246 OA
BRANCH  25  27
ATOM     27  C   UNL A   1      42.425  24.760  26.132  1.00  0.00     0.060 A 
ATOM     28  C   UNL A   1      42.963  26.053  26.051  1.00  0.00     0.016 A 
ATOM     29  C   UNL A   1      41.406  24.466  27.037  1.00  0.00     0.016 A 
ATOM     30  C   UNL A   1      42.511  27.052  26.909  1.00  0.00     0.010 A 
ATOM     31  C   UNL A   1      40.964  25.465  27.905  1.00  0.00     0.010 A 
ATOM     32  C   UNL A   1      41.539  26.750  27.869  1.00  0.00    -0.014 A 
BRANCH  32  33
ATOM     33  C   UNL A   1      41.234  27.703  28.960  1.00  0.00     0.031 A 
ATOM     34  C   UNL A   1      42.046  27.627  30.221  1.00  0.00     0.074 A 
ATOM     35  C   UNL A   1      40.232  28.591  28.847  1.00  0.00     0.049 A 
ATOM     36  N   UNL A   1      41.857  28.217  31.372  1.00  0.00    -0.248 NA
ATOM     37  C   UNL A   1      43.227  26.750  30.179  1.00  0.00     0.031 C 
ATOM     38  C   UNL A   1      39.415  28.796  27.653  1.00  0.00     0.029 A 
ATOM     39  N   UNL A   1      39.714  29.467  29.767  1.00  0.00    -0.354 N 
ATOM     40  C   UNL A   1      42.878  27.766  32.197  1.00  0.00     0.074 A 
ATOM     41  C   UNL A   1      43.671  26.834  31.424  1.00  0.00     0.031 C 
ATOM     42  C   UNL A   1      38.478  29.721  27.923  1.00  0.00     0.029 A 
ATOM     43  C   UNL A   1      38.600  30.133  29.320  1.00  0.00     0.049 A 
ATOM     44  H   UNL A   1      40.104  29.605  30.661  1.00  0.00     0.167 HD
ATOM     45  C   UNL A   1      43.128  28.100  33.484  1.00  0.00     0.037 A 
ATOM     46  C   UNL A   1      37.756  30.949  29.981  1.00  0.00     0.037 A 
ATOM     47  C   UNL A   1      42.334  29.031  34.241  1.00  0.00     0.049 A 
ATOM     48  C   UNL A   1      38.008  31.246  31.439  1.00  0.00     0.074 A 
ATOM     49  C   UNL A   1      42.507  29.451  35.547  1.00  0.00     0.029 A 
ATOM     50  N   UNL A   1      41.209  29.682  33.755  1.00  0.00    -0.354 N 
ATOM     51  N   UNL A   1      38.975  30.821  32.217  1.00  0.00    -0.248 NA
ATOM     52  C   UNL A   1      37.051  32.136  32.110  1.00  0.00     0.031 C 
ATOM     53  C   UNL A   1      41.453  30.310  35.872  1.00  0.00     0.029 A 
ATOM     54  C   UNL A   1      40.666  30.484  34.745  1.00  0.00     0.049 A 
ATOM     55  H   UNL A   1      40.852  29.589  32.843  1.00  0.00     0.167 HD
ATOM     56  C   UNL A   1      38.768  31.426  33.451  1.00  0.00     0.074 A 
ATOM     57  C   UNL A   1      37.583  32.245  33.320  1.00  0.00     0.031 C 
ATOM     58  C   UNL A   1      39.501  31.318  34.587  1.00  0.00     0.037 A 
BRANCH  45  59
ATOM     59  C   UNL A   1      44.285  27.429  34.167  1.00  0.00     0.064 A 
ATOM     60  C   UNL A   1      44.155  26.180  34.792  1.00  0.00     0.173 A 
ATOM     61  C   UNL A   1      45.551  28.035  34.171  1.00  0.00     0.173 A 
ATOM     62  F   UNL A   1      42.964  25.564  34.830  1.00  0.00    -0.203 F 
ATOM     63  C   UNL A   1      45.242  25.575  35.418  1.00  0.00     0.198 A 
ATOM     64  C   UNL A   1      46.643  27.412  34.768  1.00  0.00     0.198 A 
ATOM     65  F   UNL A   1      45.732  29.229  33.586  1.00  0.00    -0.203 F 
ATOM     66  F   UNL A   1      45.082  24.406  36.054  1.00  0.00    -0.200 F 
ATOM     67  C   UNL A   1      46.486  26.187  35.399  1.00  0.00     0.200 A 
ATOM     68  F   UNL A   1      47.847  27.998  34.736  1.00  0.00    -0.200 F 
ATOM     69  F   UNL A   1      47.533  25.600  35.994  1.00  0.00    -0.200 F 
ENDBRANCH  45  59
BRANCH  46  70
ATOM     70  C   UNL A   1      36.581  31.530  29.280  1.00  0.00     0.064 A 
ATOM     71  C   UNL A   1      35.490  30.729  28.917  1.00  0.00     0.173 A 
ATOM     72  C   UNL A   1      36.531  32.891  28.942  1.00  0.00     0.173 A 
ATOM     73  F   UNL A   1      35.501  29.418  29.196  1.00  0.00    -0.203 F 
ATOM     74  C   UNL A   1      34.404  31.260  28.223  1.00  0.00     0.198 A 
ATOM     75  C   UNL A   1      35.430  33.428  28.276  1.00  0.00     0.198 A 
ATOM     76  F   UNL A   1      37.548  33.703  29.266  1.00  0.00    -0.203 F 
ATOM     77  F   UNL A   1      33.399  30.461  27.843  1.00  0.00    -0.200 F 
ATOM     78  C   UNL A   1      34.373  32.611  27.909  1.00  0.00     0.200 A 
ATOM     79  F   UNL A   1      35.398  34.736  27.987  1.00  0.00    -0.200 F 
ATOM     80  F   UNL A   1      33.328  33.122  27.244  1.00  0.00    -0.200 F 
ENDBRANCH  46  70
BRANCH  58  81
ATOM     81  C   UNL A   1      39.096  32.161  35.762  1.00  0.00     0.064 A 
ATOM     82  C   UNL A   1      38.288  31.662  36.794  1.00  0.00     0.173 A 
ATOM     83  C   UNL A   1      39.595  33.468  35.892  1.00  0.00     0.173 A 
ATOM     84  F   UNL A   1      37.775  30.426  36.712  1.00  0.00    -0.203 F 
ATOM     85  C   UNL A   1      37.980  32.447  37.903  1.00  0.00     0.198 A 
ATOM     86  C   UNL A   1      39.313  34.236  37.017  1.00  0.00     0.198 A 
ATOM     87  F   UNL A   1      40.380  33.989  34.938  1.00  0.00    -0.203 F 
ATOM     88  F   UNL A   1      37.174  31.965  38.859  1.00  0.00    -0.200 F 
ATOM     89  C   UNL A   1      38.501  33.727  38.019  1.00  0.00     0.200 A 
ATOM     90  F   UNL A   1      39.834  35.466  37.135  1.00  0.00    -0.200 F 
ATOM     91  F   UNL A   1      38.220  34.472  39.097  1.00  0.00    -0.200 F 
ENDBRANCH  58  81
ENDBRANCH  32  33
ENDBRANCH  25  27
ENDBRANCH  24  25
ENDBRANCH  23  24
ENDBRANCH  22  23
ENDBRANCH  21  22
ENDBRANCH   1  21
TORSDOF 18
ENDMDL
MODEL 2
REMARK VINA RESULT:     -11.0      5.099     10.362
REMARK SMILES CC(C)CN(C)S(=O)(=O)c1ccc(C(=O)OCCOCCOC(=O)c2ccc(-c3c4nc(c(-c5c(F)c(F)c(F)c(F)c5F)c5ccc([nH]5)c(-c5c(F)c(F)c(F)c(F)c5F)c5nc(c(-c6c(F)c(F)c(F)c(F)c6F)c6ccc3[nH]6)C=C5)C=C4)cc2)cc1
REMARK SMILES IDX 18 1 17 2 16 3 14 4 15 5 13 6 10 7 11 8 89 9 12 10 88 11
REMARK SMILES IDX 7 12 8 13 9 14 5 15 6 16 4 17 2 18 1 19 3 20 19 21 20 22
REMARK SMILES IDX 21 23 22 24 23 25 24 26 25 27 26 28 87 29 27 30 86 31 28 32
REMARK SMILES IDX 29 33 30 34 80 35 31 36 85 37 79 38 81 39 32 40 84 41 78 42
REMARK SMILES IDX 77 43 33 45 65 46 45 47 64 48 46 49 49 50 63 51 82 52 47 53
REMARK SMILES IDX 48 54 62 56 83 57 50 58 34 59 35 60 43 61 36 62 37 63 41 64
REMARK SMILES IDX 44 65 38 66 39 67 42 68 40 69 66 70 67 71 75 72 68 73 69 74
REMARK SMILES IDX 73 75 76 76 70 77 71 78 74 79 72 80 51 81 52 82 60 83 53 84
REMARK SMILES IDX 54 85 58 86 61 87 55 88 56 89 59 90 57 91
REMARK H PARENT 81 44 49 55
REMARK Flexibility Score: inf
ROOT
ATOM      1  C   UNL A   1      33.538  33.188  27.666  1.00  0.00     0.202 C 
ENDROOT
BRANCH   1   2
ATOM      2  C   UNL A   1      33.077  31.786  27.258  1.00  0.00     0.261 C 
BRANCH   2   3
ATOM      3  O   UNL A   1      33.707  30.760  28.042  1.00  0.00    -0.460 OA
BRANCH   3   4
ATOM      4  C   UNL A   1      34.360  29.831  27.302  1.00  0.00     0.338 C 
ATOM      5  O   UNL A   1      35.533  29.849  26.970  1.00  0.00    -0.246 OA
BRANCH   4   6
ATOM      6  C   UNL A   1      33.505  28.646  27.090  1.00  0.00     0.060 A 
ATOM      7  C   UNL A   1      31.927  26.461  26.383  1.00  0.00     0.082 A 
ATOM      8  C   UNL A   1      33.247  26.556  25.917  1.00  0.00     0.022 A 
ATOM      9  C   UNL A   1      31.411  27.433  27.246  1.00  0.00     0.022 A 
ATOM     10  C   UNL A   1      34.026  27.654  26.253  1.00  0.00     0.017 A 
ATOM     11  C   UNL A   1      32.220  28.517  27.630  1.00  0.00     0.017 A 
BRANCH   7  12
ATOM     12  S   UNL A   1      30.976  25.162  25.622  1.00  0.00     0.242 S 
ATOM     13  O   UNL A   1      29.861  24.883  26.503  1.00  0.00    -0.207 OA
ATOM     14  O   UNL A   1      31.960  24.145  25.332  1.00  0.00    -0.207 OA
BRANCH  12  15
ATOM     15  N   UNL A   1      30.323  25.754  24.135  1.00  0.00    -0.201 NA
ATOM     16  C   UNL A   1      31.354  25.708  23.040  1.00  0.00     0.124 C 
BRANCH  15  17
ATOM     17  C   UNL A   1      29.823  27.187  24.233  1.00  0.00     0.105 C 
BRANCH  17  18
ATOM     18  C   UNL A   1      30.458  28.208  23.264  1.00  0.00    -0.002 C 
ATOM     19  C   UNL A   1      29.462  28.961  22.379  1.00  0.00     0.009 C 
ATOM     20  C   UNL A   1      31.205  29.265  24.099  1.00  0.00     0.009 C 
ENDBRANCH  17  18
ENDBRANCH  15  17
ENDBRANCH  12  15
ENDBRANCH   7  12
ENDBRANCH   4   6
ENDBRANCH   3   4
ENDBRANCH   2   3
ENDBRANCH   1   2
BRANCH   1  21
ATOM     21  O   UNL A   1      34.771  33.305  28.370  1.00  0.00    -0.374 OA
BRANCH  21  22
ATOM     22  C   UNL A   1      34.844  34.232  29.451  1.00  0.00     0.202 C 
BRANCH  22  23
ATOM     23  C   UNL A   1      34.329  33.778  30.823  1.00  0.00     0.261 C 
BRANCH  23  24
ATOM     24  O   UNL A   1      34.555  32.376  31.058  1.00  0.00    -0.460 OA
BRANCH  24  25
ATOM     25  C   UNL A   1      35.462  32.100  32.024  1.00  0.00     0.338 C 
ATOM     26  O   UNL A   1      35.380  32.343  33.218  1.00  0.00    -0.246 OA
BRANCH  25  27
ATOM     27  C   UNL A   1      36.536  31.269  31.457  1.00  0.00     0.060 A 
ATOM     28  C   UNL A   1      37.468  30.696  32.335  1.00  0.00     0.016 A 
ATOM     29  C   UNL A   1      36.668  31.118  30.077  1.00  0.00     0.016 A 
ATOM     30  C   UNL A   1      38.566  30.003  31.832  1.00  0.00     0.010 A 
ATOM     31  C   UNL A   1      37.776  30.434  29.575  1.00  0.00     0.010 A 
ATOM     32  C   UNL A   1      38.746  29.906  30.448  1.00  0.00    -0.014 A 
BRANCH  32  33
ATOM     33  C   UNL A   1      40.025  29.416  29.886  1.00  0.00     0.031 A 
ATOM     34  C   UNL A   1      41.159  30.390  29.739  1.00  0.00     0.074 A 
ATOM     35  C   UNL A   1      40.163  28.143  29.479  1.00  0.00     0.049 A 
ATOM     36  N   UNL A   1      42.299  30.255  29.115  1.00  0.00    -0.248 NA
ATOM     37  C   UNL A   1      40.969  31.705  30.374  1.00  0.00     0.031 C 
ATOM     38  C   UNL A   1      39.155  27.095  29.624  1.00  0.00     0.029 A 
ATOM     39  N   UNL A   1      41.204  27.525  28.833  1.00  0.00    -0.354 N 
ATOM     40  C   UNL A   1      42.952  31.471  29.260  1.00  0.00     0.074 A 
ATOM     41  C   UNL A   1      42.072  32.341  30.010  1.00  0.00     0.031 C 
ATOM     42  C   UNL A   1      39.616  25.968  29.055  1.00  0.00     0.029 A 
ATOM     43  C   UNL A   1      40.928  26.231  28.466  1.00  0.00     0.049 A 
ATOM     44  H   UNL A   1      42.065  27.967  28.650  1.00  0.00     0.167 HD
ATOM     45  C   UNL A   1      44.176  31.827  28.805  1.00  0.00     0.037 A 
ATOM     46  C   UNL A   1      41.640  25.377  27.706  1.00  0.00     0.037 A 
ATOM     47  C   UNL A   1      45.044  30.951  28.064  1.00  0.00     0.049 A 
ATOM     48  C   UNL A   1      42.967  25.821  27.142  1.00  0.00     0.074 A 
ATOM     49  C   UNL A   1      46.309  31.206  27.567  1.00  0.00     0.029 A 
ATOM     50  N   UNL A   1      44.727  29.648  27.706  1.00  0.00    -0.354 N 
ATOM     51  N   UNL A   1      43.584  26.970  27.282  1.00  0.00    -0.248 NA
ATOM     52  C   UNL A   1      43.696  24.850  26.314  1.00  0.00     0.031 C 
ATOM     53  C   UNL A   1      46.735  30.078  26.858  1.00  0.00     0.029 A 
ATOM     54  C   UNL A   1      45.766  29.094  26.976  1.00  0.00     0.049 A 
ATOM     55  H   UNL A   1      43.890  29.185  27.939  1.00  0.00     0.167 HD
ATOM     56  C   UNL A   1      44.789  26.843  26.601  1.00  0.00     0.074 A 
ATOM     57  C   UNL A   1      44.815  25.508  26.046  1.00  0.00     0.031 C 
ATOM     58  C   UNL A   1      45.787  27.750  26.457  1.00  0.00     0.037 A 
BRANCH  45  59
ATOM     59  C   UNL A   1      44.636  33.233  29.066  1.00  0.00     0.064 A 
ATOM     60  C   UNL A   1      45.369  33.573  30.213  1.00  0.00     0.173 A 
ATOM     61  C   UNL A   1      44.361  34.249  28.138  1.00  0.00     0.173 A 
ATOM     62  F   UNL A   1      45.646  32.643  31.139  1.00  0.00    -0.203 F 
ATOM     63  C   UNL A   1      45.787  34.883  30.433  1.00  0.00     0.198 A 
ATOM     64  C   UNL A   1      44.810  35.551  28.345  1.00  0.00     0.198 A 
ATOM     65  F   UNL A   1      43.666  33.979  27.023  1.00  0.00    -0.203 F 
ATOM     66  F   UNL A   1      46.441  35.195  31.560  1.00  0.00    -0.200 F 
ATOM     67  C   UNL A   1      45.515  35.868  29.496  1.00  0.00     0.200 A 
ATOM     68  F   UNL A   1      44.558  36.498  27.432  1.00  0.00    -0.200 F 
ATOM     69  F   UNL A   1      45.925  37.127  29.705  1.00  0.00    -0.200 F 
ENDBRANCH  45  59
BRANCH  46  70
ATOM     70  C   UNL A   1      41.107  24.020  27.414  1.00  0.00     0.064 A 
ATOM     71  C   UNL A   1      41.693  22.878  27.977  1.00  0.00     0.173 A 
ATOM     72  C   UNL A   1      40.015  23.834  26.553  1.00  0.00     0.173 A 
ATOM     73  F   UNL A   1      42.754  23.003  28.788  1.00  0.00    -0.203 F 
ATOM     74  C   UNL A   1      41.224  21.602  27.674  1.00  0.00     0.198 A 
ATOM     75  C   UNL A   1      39.526  22.558  26.275  1.00  0.00     0.198 A 
ATOM     76  F   UNL A   1      39.416  24.891  25.987  1.00  0.00    -0.203 F 
ATOM     77  F   UNL A   1      41.836  20.526  28.185  1.00  0.00    -0.200 F 
ATOM     78  C   UNL A   1      40.136  21.444  26.828  1.00  0.00     0.200 A 
ATOM     79  F   UNL A   1      38.466  22.411  25.468  1.00  0.00    -0.200 F 
ATOM     80  F   UNL A   1      39.684  20.216  26.538  1.00  0.00    -0.200 F 
ENDBRANCH  46  70
BRANCH  58  81
ATOM     81  C   UNL A   1      47.030  27.313  25.737  1.00  0.00     0.064 A 
ATOM     82  C   UNL A   1      47.240  27.589  24.378  1.00  0.00     0.173 A 
ATOM     83  C   UNL A   1      48.063  26.675  26.444  1.00  0.00     0.173 A 
ATOM     84  F   UNL A   1      46.281  28.185  23.654  1.00  0.00    -0.203 F 
ATOM     85  C   UNL A   1      48.430  27.227  23.751  1.00  0.00     0.198 A 
ATOM     86  C   UNL A   1      49.262  26.345  25.822  1.00  0.00     0.198 A 
ATOM     87  F   UNL A   1      47.916  26.396  27.748  1.00  0.00    -0.203 F 
ATOM     88  F   UNL A   1      48.596  27.465  22.442  1.00  0.00    -0.200 F 
ATOM     89  C   UNL A   1      49.443  26.616  24.475  1.00  0.00     0.200 A 
ATOM     90  F   UNL A   1      50.247  25.772  26.530  1.00  0.00    -0.200 F 
ATOM     91  F   UNL A   1      50.595  26.287  23.874  1.00  0.00    -0.200 F 
ENDBRANCH  58  81
ENDBRANCH  32  33
ENDBRANCH  25  27
ENDBRANCH  24  25
ENDBRANCH  23  24
ENDBRANCH  22  23
ENDBRANCH  21  22
ENDBRANCH   1  21
TORSDOF 18
ENDMDL
MODEL 3
REMARK VINA RESULT:     -10.6      5.475      7.746
REMARK SMILES CC(C)CN(C)S(=O)(=O)c1ccc(C(=O)OCCOCCOC(=O)c2ccc(-c3c4nc(c(-c5c(F)c(F)c(F)c(F)c5F)c5ccc([nH]5)c(-c5c(F)c(F)c(F)c(F)c5F)c5nc(c(-c6c(F)c(F)c(F)c(F)c6F)c6ccc3[nH]6)C=C5)C=C4)cc2)cc1
REMARK SMILES IDX 18 1 17 2 16 3 14 4 15 5 13 6 10 7 11 8 89 9 12 10 88 11
REMARK SMILES IDX 7 12 8 13 9 14 5 15 6 16 4 17 2 18 1 19 3 20 19 21 20 22
REMARK SMILES IDX 21 23 22 24 23 25 24 26 25 27 26 28 87 29 27 30 86 31 28 32
REMARK SMILES IDX 29 33 30 34 80 35 31 36 85 37 79 38 81 39 32 40 84 41 78 42
REMARK SMILES IDX 77 43 33 45 65 46 45 47 64 48 46 49 49 50 63 51 82 52 47 53
REMARK SMILES IDX 48 54 62 56 83 57 50 58 34 59 35 60 43 61 36 62 37 63 41 64
REMARK SMILES IDX 44 65 38 66 39 67 42 68 40 69 66 70 67 71 75 72 68 73 69 74
REMARK SMILES IDX 73 75 76 76 70 77 71 78 74 79 72 80 51 81 52 82 60 83 53 84
REMARK SMILES IDX 54 85 58 86 61 87 55 88 56 89 59 90 57 91
REMARK H PARENT 81 44 49 55
REMARK Flexibility Score: inf
ROOT
ATOM      1  C   UNL A   1      40.787  21.271  27.418  1.00  0.00     0.202 C 
ENDROOT
BRANCH   1   2
ATOM      2  C   UNL A   1      40.151  21.725  26.101  1.00  0.00     0.261 C 
BRANCH   2   3
ATOM      3  O   UNL A   1      38.718  21.625  26.129  1.00  0.00    -0.460 OA
BRANCH   3   4
ATOM      4  C   UNL A   1      38.086  22.818  26.013  1.00  0.00     0.338 C 
ATOM      5  O   UNL A   1      38.529  23.916  26.306  1.00  0.00    -0.246 OA
BRANCH   4   6
ATOM      6  C   UNL A   1      36.814  22.659  25.280  1.00  0.00     0.060 A 
ATOM      7  C   UNL A   1      34.436  22.665  23.828  1.00  0.00     0.082 A 
ATOM      8  C   UNL A   1      35.633  23.070  23.219  1.00  0.00     0.022 A 
ATOM      9  C   UNL A   1      34.434  22.209  25.150  1.00  0.00     0.022 A 
ATOM     10  C   UNL A   1      36.813  23.085  23.948  1.00  0.00     0.017 A 
ATOM     11  C   UNL A   1      35.641  22.173  25.871  1.00  0.00     0.017 A 
BRANCH   7  12
ATOM     12  S   UNL A   1      32.978  22.990  22.858  1.00  0.00     0.242 S 
ATOM     13  O   UNL A   1      32.300  21.723  22.678  1.00  0.00    -0.207 OA
ATOM     14  O   UNL A   1      33.481  23.726  21.723  1.00  0.00    -0.207 OA
BRANCH  12  15
ATOM     15  N   UNL A   1      31.925  24.014  23.771  1.00  0.00    -0.201 NA
ATOM     16  C   UNL A   1      30.528  23.982  23.213  1.00  0.00     0.124 C 
BRANCH  15  17
ATOM     17  C   UNL A   1      32.377  25.465  23.793  1.00  0.00     0.105 C 
BRANCH  17  18
ATOM     18  C   UNL A   1      32.606  26.097  25.183  1.00  0.00    -0.002 C 
ATOM     19  C   UNL A   1      31.758  25.501  26.309  1.00  0.00     0.009 C 
ATOM     20  C   UNL A   1      34.081  25.884  25.571  1.00  0.00     0.009 C 
ENDBRANCH  17  18
ENDBRANCH  15  17
ENDBRANCH  12  15
ENDBRANCH   7  12
ENDBRANCH   4   6
ENDBRANCH   3   4
ENDBRANCH   2   3
ENDBRANCH   1   2
BRANCH   1  21
ATOM     21  O   UNL A   1      40.988  19.875  27.615  1.00  0.00    -0.374 OA
BRANCH  21  22
ATOM     22  C   UNL A   1      42.293  19.345  27.388  1.00  0.00     0.202 C 
BRANCH  22  23
ATOM     23  C   UNL A   1      42.544  18.589  26.077  1.00  0.00     0.261 C 
BRANCH  23  24
ATOM     24  O   UNL A   1      42.863  19.471  24.986  1.00  0.00    -0.460 OA
BRANCH  24  25
ATOM     25  C   UNL A   1      44.182  19.560  24.693  1.00  0.00     0.338 C 
ATOM     26  O   UNL A   1      44.897  18.704  24.196  1.00  0.00    -0.246 OA
BRANCH  25  27
ATOM     27  C   UNL A   1      44.630  20.948  24.893  1.00  0.00     0.060 A 
ATOM     28  C   UNL A   1      45.250  21.279  26.106  1.00  0.00     0.016 A 
ATOM     29  C   UNL A   1      44.375  21.925  23.931  1.00  0.00     0.016 A 
ATOM     30  C   UNL A   1      45.582  22.603  26.383  1.00  0.00     0.010 A 
ATOM     31  C   UNL A   1      44.696  23.253  24.215  1.00  0.00     0.010 A 
ATOM     32  C   UNL A   1      45.266  23.601  25.454  1.00  0.00    -0.014 A 
BRANCH  32  33
ATOM     33  C   UNL A   1      45.358  25.032  25.825  1.00  0.00     0.031 A 
ATOM     34  C   UNL A   1      46.697  25.706  25.737  1.00  0.00     0.074 A 
ATOM     35  C   UNL A   1      44.282  25.705  26.266  1.00  0.00     0.049 A 
ATOM     36  N   UNL A   1      47.069  26.880  26.174  1.00  0.00    -0.248 NA
ATOM     37  C   UNL A   1      47.767  24.939  25.078  1.00  0.00     0.031 C 
ATOM     38  C   UNL A   1      42.923  25.175  26.338  1.00  0.00     0.029 A 
ATOM     39  N   UNL A   1      44.176  26.979  26.764  1.00  0.00    -0.354 N 
ATOM     40  C   UNL A   1      48.419  26.984  25.866  1.00  0.00     0.074 A 
ATOM     41  C   UNL A   1      48.807  25.745  25.226  1.00  0.00     0.031 C 
ATOM     42  C   UNL A   1      42.122  26.108  26.880  1.00  0.00     0.029 A 
ATOM     43  C   UNL A   1      42.922  27.279  27.235  1.00  0.00     0.049 A 
ATOM     44  H   UNL A   1      44.927  27.616  26.784  1.00  0.00     0.167 HD
ATOM     45  C   UNL A   1      49.257  28.021  26.097  1.00  0.00     0.037 A 
ATOM     46  C   UNL A   1      42.485  28.359  27.910  1.00  0.00     0.037 A 
ATOM     47  C   UNL A   1      48.858  29.250  26.731  1.00  0.00     0.049 A 
ATOM     48  C   UNL A   1      43.455  29.470  28.229  1.00  0.00     0.074 A 
ATOM     49  C   UNL A   1      49.623  30.370  27.003  1.00  0.00     0.029 A 
ATOM     50  N   UNL A   1      47.578  29.515  27.199  1.00  0.00    -0.354 N 
ATOM     51  N   UNL A   1      44.730  29.569  27.934  1.00  0.00    -0.248 NA
ATOM     52  C   UNL A   1      42.925  30.621  28.975  1.00  0.00     0.031 C 
ATOM     53  C   UNL A   1      48.822  31.289  27.687  1.00  0.00     0.029 A 
ATOM     54  C   UNL A   1      47.539  30.772  27.777  1.00  0.00     0.049 A 
ATOM     55  H   UNL A   1      46.812  28.900  27.128  1.00  0.00     0.167 HD
ATOM     56  C   UNL A   1      45.141  30.806  28.416  1.00  0.00     0.074 A 
ATOM     57  C   UNL A   1      43.982  31.421  29.025  1.00  0.00     0.031 C 
ATOM     58  C   UNL A   1      46.366  31.382  28.352  1.00  0.00     0.037 A 
BRANCH  45  59
ATOM     59  C   UNL A   1      50.695  27.860  25.697  1.00  0.00     0.064 A 
ATOM     60  C   UNL A   1      51.690  27.519  26.626  1.00  0.00     0.173 A 
ATOM     61  C   UNL A   1      51.077  28.022  24.357  1.00  0.00     0.173 A 
ATOM     62  F   UNL A   1      51.381  27.368  27.922  1.00  0.00    -0.203 F 
ATOM     63  C   UNL A   1      53.018  27.373  26.231  1.00  0.00     0.198 A 
ATOM     64  C   UNL A   1      52.400  27.841  23.961  1.00  0.00     0.198 A 
ATOM     65  F   UNL A   1      50.166  28.345  23.426  1.00  0.00    -0.203 F 
ATOM     66  F   UNL A   1      53.959  27.098  27.145  1.00  0.00    -0.200 F 
ATOM     67  C   UNL A   1      53.370  27.526  24.899  1.00  0.00     0.200 A 
ATOM     68  F   UNL A   1      52.736  27.975  22.671  1.00  0.00    -0.200 F 
ATOM     69  F   UNL A   1      54.647  27.376  24.521  1.00  0.00    -0.200 F 
ENDBRANCH  45  59
BRANCH  46  70
ATOM     70  C   UNL A   1      41.068  28.439  28.352  1.00  0.00     0.064 A 
ATOM     71  C   UNL A   1      40.080  28.971  27.512  1.00  0.00     0.173 A 
ATOM     72  C   UNL A   1      40.674  28.004  29.626  1.00  0.00     0.173 A 
ATOM     73  F   UNL A   1      40.411  29.423  26.294  1.00  0.00    -0.203 F 
ATOM     74  C   UNL A   1      38.758  29.086  27.936  1.00  0.00     0.198 A 
ATOM     75  C   UNL A   1      39.345  28.090  30.038  1.00  0.00     0.198 A 
ATOM     76  F   UNL A   1      41.579  27.486  30.470  1.00  0.00    -0.203 F 
ATOM     77  F   UNL A   1      37.845  29.647  27.133  1.00  0.00    -0.200 F 
ATOM     78  C   UNL A   1      38.391  28.640  29.197  1.00  0.00     0.200 A 
ATOM     79  F   UNL A   1      38.993  27.645  31.252  1.00  0.00    -0.200 F 
ATOM     80  F   UNL A   1      37.119  28.749  29.604  1.00  0.00    -0.200 F 
ENDBRANCH  46  70
BRANCH  58  81
ATOM     81  C   UNL A   1      46.511  32.780  28.882  1.00  0.00     0.064 A 
ATOM     82  C   UNL A   1      46.903  33.040  30.203  1.00  0.00     0.173 A 
ATOM     83  C   UNL A   1      46.328  33.877  28.023  1.00  0.00     0.173 A 
ATOM     84  F   UNL A   1      47.077  32.029  31.066  1.00  0.00    -0.203 F 
ATOM     85  C   UNL A   1      47.089  34.346  30.649  1.00  0.00     0.198 A 
ATOM     86  C   UNL A   1      46.548  35.178  28.464  1.00  0.00     0.198 A 
ATOM     87  F   UNL A   1      45.962  33.683  26.747  1.00  0.00    -0.203 F 
ATOM     88  F   UNL A   1      47.426  34.574  31.926  1.00  0.00    -0.200 F 
ATOM     89  C   UNL A   1      46.923  35.412  29.777  1.00  0.00     0.200 A 
ATOM     90  F   UNL A   1      46.404  36.205  27.613  1.00  0.00    -0.200 F 
ATOM     91  F   UNL A   1      47.122  36.667  30.204  1.00  0.00    -0.200 F 
ENDBRANCH  58  81
ENDBRANCH  32  33
ENDBRANCH  25  27
ENDBRANCH  24  25
ENDBRANCH  23  24
ENDBRANCH  22  23
ENDBRANCH  21  22
ENDBRANCH   1  21
TORSDOF 18
ENDMDL
