MODEL 1
REMARK VINA RESULT:     -11.7      0.000      0.000
REMARK SMILES C[C@H](CSc1ccc(C(=O)N(C)C)cn1)C(=O)OCCOCCOC(=O)c1ccc(-c2c3nc(c(-c4c(F)c(F)c(F)c(F)c4F)c4ccc([nH]4)c(-c4c(F)c(F)c(F)c(F)c4F)c4nc(c(-c5c(F)c(F)c(F)c(F)c5F)c5ccc2[nH]5)C=C4)C=C3)cc1
REMARK SMILES IDX 20 1 19 2 18 3 16 4 17 5 2 6 1 7 3 8 4 9 5 10 6 11 15 12
REMARK SMILES IDX 7 13 14 14 8 15 9 16 10 17 11 18 12 19 13 20 21 21 22 22
REMARK SMILES IDX 23 23 24 24 25 25 26 26 27 27 28 28 89 29 29 30 88 31 30 32
REMARK SMILES IDX 31 33 32 34 82 35 33 36 87 37 81 38 83 39 34 40 86 41 80 42
REMARK SMILES IDX 79 43 35 45 67 46 47 47 66 48 48 49 51 50 65 51 84 52 49 53
REMARK SMILES IDX 50 54 64 56 85 57 52 58 36 59 37 60 45 61 38 62 39 63 43 64
REMARK SMILES IDX 46 65 40 66 41 67 44 68 42 69 68 70 69 71 77 72 70 73 71 74
REMARK SMILES IDX 75 75 78 76 72 77 73 78 76 79 74 80 53 81 54 82 62 83 55 84
REMARK SMILES IDX 56 85 60 86 63 87 57 88 58 89 61 90 59 91
REMARK H PARENT 83 44 51 55
REMARK Flexibility Score: inf
ROOT
ATOM      1  C   UNL A   1      33.976  32.781  28.018  1.00  0.00     0.202 C 
ENDROOT
BRANCH   1   2
ATOM      2  C   UNL A   1      35.235  30.996  27.956  1.00  0.00     0.261 C 
BRANCH   2   3
ATOM      3  O   UNL A   1      34.925  29.633  27.060  1.00  0.00    -0.463 OA
BRANCH   3   4
ATOM      4  C   UNL A   1      33.650  29.193  26.837  1.00  0.00     0.309 C 
ATOM      5  O   UNL A   1      33.060  28.436  27.601  1.00  0.00    -0.252 OA
BRANCH   4   6
ATOM      6  C   UNL A   1      33.037  29.705  25.511  1.00  0.00     0.106 C 
ATOM      7  C   UNL A   1      31.614  30.221  25.692  1.00  0.00     0.021 C 
BRANCH   6   8
ATOM      8  C   UNL A   1      33.161  28.823  24.253  1.00  0.00     0.091 C 
BRANCH   8   9
ATOM      9  S   UNL A   1      31.851  27.616  23.934  1.00  0.00    -0.106 SA
BRANCH   9  10
ATOM     10  C   UNL A   1      32.799  26.153  24.266  1.00  0.00     0.096 A 
ATOM     11  C   UNL A   1      33.621  25.331  22.925  1.00  0.00     0.036 A 
ATOM     12  N   UNL A   1      32.812  25.407  25.898  1.00  0.00    -0.249 NA
ATOM     13  C   UNL A   1      34.546  23.838  23.250  1.00  0.00     0.018 A 
ATOM     14  C   UNL A   1      33.749  23.902  26.194  1.00  0.00     0.126 A 
ATOM     15  C   UNL A   1      34.614  23.101  24.867  1.00  0.00     0.058 A 
BRANCH  15  16
ATOM     16  C   UNL A   1      35.575  21.980  25.092  1.00  0.00     0.254 C 
ATOM     17  O   UNL A   1      35.114  20.844  25.031  1.00  0.00    -0.269 OA
ATOM     18  N   UNL A   1      36.948  22.236  25.286  1.00  0.00    -0.345 N 
ATOM     19  C   UNL A   1      37.542  23.435  25.850  1.00  0.00     0.146 C 
ATOM     20  C   UNL A   1      37.900  21.144  25.153  1.00  0.00     0.146 C 
ENDBRANCH  15  16
ENDBRANCH   9  10
ENDBRANCH   8   9
ENDBRANCH   6   8
ENDBRANCH   4   6
ENDBRANCH   3   4
ENDBRANCH   2   3
ENDBRANCH   1   2
BRANCH   1  21
ATOM     21  O   UNL A   1      33.757  33.835  29.153  1.00  0.00    -0.374 OA
BRANCH  21  22
ATOM     22  C   UNL A   1      33.827  35.223  28.793  1.00  0.00     0.202 C 
BRANCH  22  23
ATOM     23  C   UNL A   1      32.983  36.234  29.600  1.00  0.00     0.261 C 
BRANCH  23  24
ATOM     24  O   UNL A   1      32.189  35.699  30.687  1.00  0.00    -0.460 OA
BRANCH  24  25
ATOM     25  C   UNL A   1      32.611  36.046  31.933  1.00  0.00     0.338 C 
ATOM     26  O   UNL A   1      32.085  36.862  32.675  1.00  0.00    -0.246 OA
BRANCH  25  27
ATOM     27  C   UNL A   1      33.650  35.107  32.438  1.00  0.00     0.060 A 
ATOM     28  C   UNL A   1      34.961  35.586  32.390  1.00  0.00     0.016 A 
ATOM     29  C   UNL A   1      33.424  33.830  32.943  1.00  0.00     0.016 A 
ATOM     30  C   UNL A   1      36.033  34.876  32.919  1.00  0.00     0.010 A 
ATOM     31  C   UNL A   1      34.519  33.062  33.402  1.00  0.00     0.010 A 
ATOM     32  C   UNL A   1      35.827  33.591  33.412  1.00  0.00    -0.014 A 
BRANCH  32  33
ATOM     33  C   UNL A   1      37.034  32.773  33.697  1.00  0.00     0.031 A 
ATOM     34  C   UNL A   1      37.708  32.981  35.025  1.00  0.00     0.074 A 
ATOM     35  C   UNL A   1      37.430  31.763  32.898  1.00  0.00     0.049 A 
ATOM     36  N   UNL A   1      38.842  32.513  35.470  1.00  0.00    -0.248 NA
ATOM     37  C   UNL A   1      36.976  33.809  36.000  1.00  0.00     0.031 C 
ATOM     38  C   UNL A   1      36.722  31.300  31.704  1.00  0.00     0.029 A 
ATOM     39  N   UNL A   1      38.523  30.931  32.976  1.00  0.00    -0.354 N 
ATOM     40  C   UNL A   1      38.985  33.036  36.749  1.00  0.00     0.074 A 
ATOM     41  C   UNL A   1      37.801  33.810  37.034  1.00  0.00     0.031 C 
ATOM     42  C   UNL A   1      37.419  30.294  31.143  1.00  0.00     0.029 A 
ATOM     43  C   UNL A   1      38.661  30.098  31.887  1.00  0.00     0.049 A 
ATOM     44  H   UNL A   1      39.148  30.930  33.737  1.00  0.00     0.167 HD
ATOM     45  C   UNL A   1      40.037  32.908  37.587  1.00  0.00     0.037 A 
ATOM     46  C   UNL A   1      39.707  29.332  31.506  1.00  0.00     0.037 A 
ATOM     47  C   UNL A   1      41.198  32.119  37.282  1.00  0.00     0.049 A 
ATOM     48  C   UNL A   1      40.939  29.322  32.388  1.00  0.00     0.074 A 
ATOM     49  C   UNL A   1      42.348  31.949  38.028  1.00  0.00     0.029 A 
ATOM     50  N   UNL A   1      41.351  31.373  36.122  1.00  0.00    -0.354 N 
ATOM     51  N   UNL A   1      41.124  29.892  33.556  1.00  0.00    -0.248 NA
ATOM     52  C   UNL A   1      42.114  28.590  31.892  1.00  0.00     0.031 C 
ATOM     53  C   UNL A   1      43.232  31.168  37.280  1.00  0.00     0.029 A 
ATOM     54  C   UNL A   1      42.600  30.782  36.107  1.00  0.00     0.049 A 
ATOM     55  H   UNL A   1      40.673  31.281  35.415  1.00  0.00     0.167 HD
ATOM     56  C   UNL A   1      42.421  29.574  33.939  1.00  0.00     0.074 A 
ATOM     57  C   UNL A   1      42.971  28.739  32.893  1.00  0.00     0.031 C 
ATOM     58  C   UNL A   1      43.106  29.944  35.051  1.00  0.00     0.037 A 
BRANCH  45  59
ATOM     59  C   UNL A   1      40.041  33.737  38.838  1.00  0.00     0.064 A 
ATOM     60  C   UNL A   1      39.473  33.303  40.043  1.00  0.00     0.173 A 
ATOM     61  C   UNL A   1      40.653  35.002  38.819  1.00  0.00     0.173 A 
ATOM     62  F   UNL A   1      38.847  32.119  40.107  1.00  0.00    -0.203 F 
ATOM     63  C   UNL A   1      39.508  34.108  41.180  1.00  0.00     0.198 A 
ATOM     64  C   UNL A   1      40.715  35.789  39.964  1.00  0.00     0.198 A 
ATOM     65  F   UNL A   1      41.198  35.471  37.686  1.00  0.00    -0.203 F 
ATOM     66  F   UNL A   1      38.919  33.695  42.310  1.00  0.00    -0.200 F 
ATOM     67  C   UNL A   1      40.138  35.345  41.142  1.00  0.00     0.200 A 
ATOM     68  F   UNL A   1      41.330  36.979  39.923  1.00  0.00    -0.200 F 
ATOM     69  F   UNL A   1      40.182  36.111  42.240  1.00  0.00    -0.200 F 
ENDBRANCH  45  59
BRANCH  46  70
ATOM     70  C   UNL A   1      39.715  28.631  30.184  1.00  0.00     0.064 A 
ATOM     71  C   UNL A   1      39.244  27.317  30.034  1.00  0.00     0.173 A 
ATOM     72  C   UNL A   1      40.290  29.234  29.052  1.00  0.00     0.173 A 
ATOM     73  F   UNL A   1      38.717  26.671  31.085  1.00  0.00    -0.203 F 
ATOM     74  C   UNL A   1      39.376  26.630  28.825  1.00  0.00     0.198 A 
ATOM     75  C   UNL A   1      40.383  28.562  27.833  1.00  0.00     0.198 A 
ATOM     76  F   UNL A   1      40.782  30.479  29.128  1.00  0.00    -0.203 F 
ATOM     77  F   UNL A   1      38.989  25.349  28.738  1.00  0.00    -0.200 F 
ATOM     78  C   UNL A   1      39.940  27.255  27.724  1.00  0.00     0.200 A 
ATOM     79  F   UNL A   1      40.922  29.178  26.772  1.00  0.00    -0.200 F 
ATOM     80  F   UNL A   1      40.076  26.592  26.567  1.00  0.00    -0.200 F 
ENDBRANCH  46  70
BRANCH  58  81
ATOM     81  C   UNL A   1      44.504  29.424  35.210  1.00  0.00     0.064 A 
ATOM     82  C   UNL A   1      45.616  30.156  34.769  1.00  0.00     0.173 A 
ATOM     83  C   UNL A   1      44.736  28.221  35.894  1.00  0.00     0.173 A 
ATOM     84  F   UNL A   1      45.445  31.306  34.101  1.00  0.00    -0.203 F 
ATOM     85  C   UNL A   1      46.909  29.692  34.992  1.00  0.00     0.198 A 
ATOM     86  C   UNL A   1      46.030  27.781  36.150  1.00  0.00     0.198 A 
ATOM     87  F   UNL A   1      43.706  27.491  36.348  1.00  0.00    -0.203 F 
ATOM     88  F   UNL A   1      47.957  30.386  34.525  1.00  0.00    -0.200 F 
ATOM     89  C   UNL A   1      47.115  28.513  35.693  1.00  0.00     0.200 A 
ATOM     90  F   UNL A   1      46.226  26.655  36.849  1.00  0.00    -0.200 F 
ATOM     91  F   UNL A   1      48.362  28.082  35.928  1.00  0.00    -0.200 F 
ENDBRANCH  58  81
ENDBRANCH  32  33
ENDBRANCH  25  27
ENDBRANCH  24  25
ENDBRANCH  23  24
ENDBRANCH  22  23
ENDBRANCH  21  22
ENDBRANCH   1  21
TORSDOF 18
ENDMDL
MODEL 2
REMARK VINA RESULT:     -11.3      5.200     11.562
REMARK SMILES C[C@H](CSc1ccc(C(=O)N(C)C)cn1)C(=O)OCCOCCOC(=O)c1ccc(-c2c3nc(c(-c4c(F)c(F)c(F)c(F)c4F)c4ccc([nH]4)c(-c4c(F)c(F)c(F)c(F)c4F)c4nc(c(-c5c(F)c(F)c(F)c(F)c5F)c5ccc2[nH]5)C=C4)C=C3)cc1
REMARK SMILES IDX 20 1 19 2 18 3 16 4 17 5 2 6 1 7 3 8 4 9 5 10 6 11 15 12
REMARK SMILES IDX 7 13 14 14 8 15 9 16 10 17 11 18 12 19 13 20 21 21 22 22
REMARK SMILES IDX 23 23 24 24 25 25 26 26 27 27 28 28 89 29 29 30 88 31 30 32
REMARK SMILES IDX 31 33 32 34 82 35 33 36 87 37 81 38 83 39 34 40 86 41 80 42
REMARK SMILES IDX 79 43 35 45 67 46 47 47 66 48 48 49 51 50 65 51 84 52 49 53
REMARK SMILES IDX 50 54 64 56 85 57 52 58 36 59 37 60 45 61 38 62 39 63 43 64
REMARK SMILES IDX 46 65 40 66 41 67 44 68 42 69 68 70 69 71 77 72 70 73 71 74
REMARK SMILES IDX 75 75 78 76 72 77 73 78 76 79 74 80 53 81 54 82 62 83 55 84
REMARK SMILES IDX 56 85 60 86 63 87 57 88 58 89 61 90 59 91
REMARK H PARENT 83 44 51 55
REMARK Flexibility Score: inf
ROOT
ATOM      1  C   UNL A   1      37.641  22.477  24.892  1.00  0.00     0.202 C 
ENDROOT
BRANCH   1   2
ATOM      2  C   UNL A   1      36.523  23.070  23.111  1.00  0.00     0.261 C 
BRANCH   2   3
ATOM      3  O   UNL A   1      35.020  23.776  23.111  1.00  0.00    -0.463 OA
BRANCH   3   4
ATOM      4  C   UNL A   1      33.942  23.176  22.522  1.00  0.00     0.309 C 
ATOM      5  O   UNL A   1      33.642  23.347  21.345  1.00  0.00    -0.252 OA
BRANCH   4   6
ATOM      6  C   UNL A   1      33.114  22.294  23.488  1.00  0.00     0.106 C 
ATOM      7  C   UNL A   1      32.182  21.342  22.747  1.00  0.00     0.021 C 
BRANCH   6   8
ATOM      8  C   UNL A   1      32.402  22.971  24.675  1.00  0.00     0.091 C 
BRANCH   8   9
ATOM      9  S   UNL A   1      30.807  23.768  24.361  1.00  0.00    -0.106 SA
BRANCH   9  10
ATOM     10  C   UNL A   1      31.274  25.414  24.834  1.00  0.00     0.096 A 
ATOM     11  C   UNL A   1      30.810  26.018  26.437  1.00  0.00     0.036 A 
ATOM     12  N   UNL A   1      32.065  26.525  23.668  1.00  0.00    -0.249 NA
ATOM     13  C   UNL A   1      31.247  27.686  26.903  1.00  0.00     0.018 A 
ATOM     14  C   UNL A   1      32.489  28.199  24.164  1.00  0.00     0.126 A 
ATOM     15  C   UNL A   1      32.072  28.795  25.784  1.00  0.00     0.058 A 
BRANCH  15  16
ATOM     16  C   UNL A   1      32.584  30.091  26.323  1.00  0.00     0.254 C 
ATOM     17  O   UNL A   1      31.881  31.078  26.129  1.00  0.00    -0.269 OA
ATOM     18  N   UNL A   1      33.774  30.137  27.076  1.00  0.00    -0.345 N 
ATOM     19  C   UNL A   1      34.906  29.232  26.979  1.00  0.00     0.146 C 
ATOM     20  C   UNL A   1      34.064  31.319  27.874  1.00  0.00     0.146 C 
ENDBRANCH  15  16
ENDBRANCH   9  10
ENDBRANCH   8   9
ENDBRANCH   6   8
ENDBRANCH   4   6
ENDBRANCH   3   4
ENDBRANCH   2   3
ENDBRANCH   1   2
BRANCH   1  21
ATOM     21  O   UNL A   1      37.606  21.152  25.722  1.00  0.00    -0.374 OA
BRANCH  21  22
ATOM     22  C   UNL A   1      38.040  19.949  25.070  1.00  0.00     0.202 C 
BRANCH  22  23
ATOM     23  C   UNL A   1      39.335  19.269  25.569  1.00  0.00     0.261 C 
BRANCH  23  24
ATOM     24  O   UNL A   1      39.934  19.812  26.771  1.00  0.00    -0.460 OA
BRANCH  24  25
ATOM     25  C   UNL A   1      41.259  20.103  26.672  1.00  0.00     0.338 C 
ATOM     26  O   UNL A   1      42.109  19.427  26.111  1.00  0.00    -0.246 OA
BRANCH  25  27
ATOM     27  C   UNL A   1      41.541  21.504  27.085  1.00  0.00     0.060 A 
ATOM     28  C   UNL A   1      41.154  22.486  26.170  1.00  0.00     0.016 A 
ATOM     29  C   UNL A   1      42.138  21.902  28.278  1.00  0.00     0.016 A 
ATOM     30  C   UNL A   1      41.252  23.845  26.450  1.00  0.00     0.010 A 
ATOM     31  C   UNL A   1      42.325  23.280  28.535  1.00  0.00     0.010 A 
ATOM     32  C   UNL A   1      41.862  24.259  27.630  1.00  0.00    -0.014 A 
BRANCH  32  33
ATOM     33  C   UNL A   1      42.198  25.701  27.748  1.00  0.00     0.031 A 
ATOM     34  C   UNL A   1      43.467  26.169  27.092  1.00  0.00     0.074 A 
ATOM     35  C   UNL A   1      41.340  26.604  28.263  1.00  0.00     0.049 A 
ATOM     36  N   UNL A   1      44.066  27.327  27.158  1.00  0.00    -0.248 NA
ATOM     37  C   UNL A   1      44.135  25.197  26.208  1.00  0.00     0.031 C 
ATOM     38  C   UNL A   1      39.977  26.318  28.713  1.00  0.00     0.029 A 
ATOM     39  N   UNL A   1      41.483  27.955  28.486  1.00  0.00    -0.354 N 
ATOM     40  C   UNL A   1      45.206  27.201  26.374  1.00  0.00     0.074 A 
ATOM     41  C   UNL A   1      45.191  25.879  25.797  1.00  0.00     0.031 C 
ATOM     42  C   UNL A   1      39.426  27.449  29.191  1.00  0.00     0.029 A 
ATOM     43  C   UNL A   1      40.422  28.518  29.159  1.00  0.00     0.049 A 
ATOM     44  H   UNL A   1      42.269  28.469  28.192  1.00  0.00     0.167 HD
ATOM     45  C   UNL A   1      46.194  28.105  26.194  1.00  0.00     0.037 A 
ATOM     46  C   UNL A   1      40.311  29.730  29.747  1.00  0.00     0.037 A 
ATOM     47  C   UNL A   1      46.176  29.421  26.771  1.00  0.00     0.049 A 
ATOM     48  C   UNL A   1      41.493  30.674  29.659  1.00  0.00     0.074 A 
ATOM     49  C   UNL A   1      47.138  30.409  26.699  1.00  0.00     0.029 A 
ATOM     50  N   UNL A   1      45.133  29.922  27.537  1.00  0.00    -0.354 N 
ATOM     51  N   UNL A   1      42.619  30.529  29.001  1.00  0.00    -0.248 NA
ATOM     52  C   UNL A   1      41.405  31.932  30.415  1.00  0.00     0.031 C 
ATOM     53  C   UNL A   1      46.714  31.477  27.494  1.00  0.00     0.029 A 
ATOM     54  C   UNL A   1      45.451  31.188  27.989  1.00  0.00     0.049 A 
ATOM     55  H   UNL A   1      44.294  29.446  27.731  1.00  0.00     0.167 HD
ATOM     56  C   UNL A   1      43.361  31.678  29.247  1.00  0.00     0.074 A 
ATOM     57  C   UNL A   1      42.548  32.524  30.094  1.00  0.00     0.031 C 
ATOM     58  C   UNL A   1      44.607  32.006  28.822  1.00  0.00     0.037 A 
BRANCH  45  59
ATOM     59  C   UNL A   1      47.425  27.660  25.460  1.00  0.00     0.064 A 
ATOM     60  C   UNL A   1      48.558  27.152  26.109  1.00  0.00     0.173 A 
ATOM     61  C   UNL A   1      47.449  27.733  24.057  1.00  0.00     0.173 A 
ATOM     62  F   UNL A   1      48.600  27.092  27.448  1.00  0.00    -0.203 F 
ATOM     63  C   UNL A   1      49.675  26.745  25.381  1.00  0.00     0.198 A 
ATOM     64  C   UNL A   1      48.553  27.296  23.332  1.00  0.00     0.198 A 
ATOM     65  F   UNL A   1      46.396  28.226  23.388  1.00  0.00    -0.203 F 
ATOM     66  F   UNL A   1      50.767  26.306  26.022  1.00  0.00    -0.200 F 
ATOM     67  C   UNL A   1      49.667  26.806  23.994  1.00  0.00     0.200 A 
ATOM     68  F   UNL A   1      48.536  27.352  21.993  1.00  0.00    -0.200 F 
ATOM     69  F   UNL A   1      50.737  26.402  23.297  1.00  0.00    -0.200 F 
ENDBRANCH  45  59
BRANCH  46  70
ATOM     70  C   UNL A   1      39.121  30.080  30.584  1.00  0.00     0.064 A 
ATOM     71  C   UNL A   1      38.041  30.817  30.073  1.00  0.00     0.173 A 
ATOM     72  C   UNL A   1      39.085  29.766  31.953  1.00  0.00     0.173 A 
ATOM     73  F   UNL A   1      38.030  31.182  28.782  1.00  0.00    -0.203 F 
ATOM     74  C   UNL A   1      36.998  31.248  30.897  1.00  0.00     0.198 A 
ATOM     75  C   UNL A   1      38.023  30.160  32.767  1.00  0.00     0.198 A 
ATOM     76  F   UNL A   1      40.095  29.084  32.514  1.00  0.00    -0.203 F 
ATOM     77  F   UNL A   1      36.023  32.018  30.395  1.00  0.00    -0.200 F 
ATOM     78  C   UNL A   1      36.988  30.914  32.242  1.00  0.00     0.200 A 
ATOM     79  F   UNL A   1      38.018  29.824  34.065  1.00  0.00    -0.200 F 
ATOM     80  F   UNL A   1      35.993  31.336  33.036  1.00  0.00    -0.200 F 
ENDBRANCH  46  70
BRANCH  58  81
ATOM     81  C   UNL A   1      45.152  33.342  29.233  1.00  0.00     0.064 A 
ATOM     82  C   UNL A   1      44.896  34.501  28.487  1.00  0.00     0.173 A 
ATOM     83  C   UNL A   1      45.861  33.475  30.436  1.00  0.00     0.173 A 
ATOM     84  F   UNL A   1      44.231  34.424  27.325  1.00  0.00    -0.203 F 
ATOM     85  C   UNL A   1      45.348  35.744  28.924  1.00  0.00     0.198 A 
ATOM     86  C   UNL A   1      46.276  34.723  30.889  1.00  0.00     0.198 A 
ATOM     87  F   UNL A   1      46.119  32.397  31.192  1.00  0.00    -0.203 F 
ATOM     88  F   UNL A   1      45.129  36.834  28.175  1.00  0.00    -0.200 F 
ATOM     89  C   UNL A   1      46.025  35.855  30.129  1.00  0.00     0.200 A 
ATOM     90  F   UNL A   1      46.908  34.830  32.066  1.00  0.00    -0.200 F 
ATOM     91  F   UNL A   1      46.436  37.055  30.558  1.00  0.00    -0.200 F 
ENDBRANCH  58  81
ENDBRANCH  32  33
ENDBRANCH  25  27
ENDBRANCH  24  25
ENDBRANCH  23  24
ENDBRANCH  22  23
ENDBRANCH  21  22
ENDBRANCH   1  21
TORSDOF 18
ENDMDL
MODEL 3
REMARK VINA RESULT:     -11.2      2.038      7.878
REMARK SMILES C[C@H](CSc1ccc(C(=O)N(C)C)cn1)C(=O)OCCOCCOC(=O)c1ccc(-c2c3nc(c(-c4c(F)c(F)c(F)c(F)c4F)c4ccc([nH]4)c(-c4c(F)c(F)c(F)c(F)c4F)c4nc(c(-c5c(F)c(F)c(F)c(F)c5F)c5ccc2[nH]5)C=C4)C=C3)cc1
REMARK SMILES IDX 20 1 19 2 18 3 16 4 17 5 2 6 1 7 3 8 4 9 5 10 6 11 15 12
REMARK SMILES IDX 7 13 14 14 8 15 9 16 10 17 11 18 12 19 13 20 21 21 22 22
REMARK SMILES IDX 23 23 24 24 25 25 26 26 27 27 28 28 89 29 29 30 88 31 30 32
REMARK SMILES IDX 31 33 32 34 82 35 33 36 87 37 81 38 83 39 34 40 86 41 80 42
REMARK SMILES IDX 79 43 35 45 67 46 47 47 66 48 48 49 51 50 65 51 84 52 49 53
REMARK SMILES IDX 50 54 64 56 85 57 52 58 36 59 37 60 45 61 38 62 39 63 43 64
REMARK SMILES IDX 46 65 40 66 41 67 44 68 42 69 68 70 69 71 77 72 70 73 71 74
REMARK SMILES IDX 75 75 78 76 72 77 73 78 76 79 74 80 53 81 54 82 62 83 55 84
REMARK SMILES IDX 56 85 60 86 63 87 57 88 58 89 61 90 59 91
REMARK H PARENT 83 44 51 55
REMARK Flexibility Score: inf
ROOT
ATOM      1  C   UNL A   1      32.041  29.878  26.898  1.00  0.00     0.202 C 
ENDROOT
BRANCH   1   2
ATOM      2  C   UNL A   1      31.407  27.790  26.804  1.00  0.00     0.261 C 
BRANCH   2   3
ATOM      3  O   UNL A   1      31.337  26.869  25.424  1.00  0.00    -0.463 OA
BRANCH   3   4
ATOM      4  C   UNL A   1      30.702  27.309  24.296  1.00  0.00     0.309 C 
ATOM      5  O   UNL A   1      29.520  27.080  24.062  1.00  0.00    -0.252 OA
BRANCH   4   6
ATOM      6  C   UNL A   1      31.623  28.086  23.325  1.00  0.00     0.106 C 
ATOM      7  C   UNL A   1      30.849  29.073  22.458  1.00  0.00     0.021 C 
BRANCH   6   8
ATOM      8  C   UNL A   1      32.653  27.295  22.495  1.00  0.00     0.091 C 
BRANCH   8   9
ATOM      9  S   UNL A   1      32.035  26.013  21.377  1.00  0.00    -0.106 SA
BRANCH   9  10
ATOM     10  C   UNL A   1      32.399  24.614  22.407  1.00  0.00     0.096 A 
ATOM     11  C   UNL A   1      31.110  23.920  23.412  1.00  0.00     0.036 A 
ATOM     12  N   UNL A   1      34.074  23.992  22.569  1.00  0.00    -0.249 NA
ATOM     13  C   UNL A   1      31.482  22.535  24.477  1.00  0.00     0.018 A 
ATOM     14  C   UNL A   1      34.419  22.600  23.651  1.00  0.00     0.126 A 
ATOM     15  C   UNL A   1      33.124  21.868  24.622  1.00  0.00     0.058 A 
BRANCH  15  16
ATOM     16  C   UNL A   1      33.303  20.587  25.369  1.00  0.00     0.254 C 
ATOM     17  O   UNL A   1      33.841  20.666  26.469  1.00  0.00    -0.269 OA
ATOM     18  N   UNL A   1      32.803  19.376  24.850  1.00  0.00    -0.345 N 
ATOM     19  C   UNL A   1      32.609  19.038  23.450  1.00  0.00     0.146 C 
ATOM     20  C   UNL A   1      32.674  18.224  25.731  1.00  0.00     0.146 C 
ENDBRANCH  15  16
ENDBRANCH   9  10
ENDBRANCH   8   9
ENDBRANCH   6   8
ENDBRANCH   4   6
ENDBRANCH   3   4
ENDBRANCH   2   3
ENDBRANCH   1   2
BRANCH   1  21
ATOM     21  O   UNL A   1      33.472  30.511  26.877  1.00  0.00    -0.374 OA
BRANCH  21  22
ATOM     22  C   UNL A   1      33.694  31.677  27.684  1.00  0.00     0.202 C 
BRANCH  22  23
ATOM     23  C   UNL A   1      32.897  32.959  27.356  1.00  0.00     0.261 C 
BRANCH  23  24
ATOM     24  O   UNL A   1      32.534  33.805  28.475  1.00  0.00    -0.460 OA
BRANCH  24  25
ATOM     25  C   UNL A   1      33.450  34.758  28.796  1.00  0.00     0.338 C 
ATOM     26  O   UNL A   1      33.341  35.960  28.605  1.00  0.00    -0.246 OA
BRANCH  25  27
ATOM     27  C   UNL A   1      34.514  34.215  29.683  1.00  0.00     0.060 A 
ATOM     28  C   UNL A   1      35.821  34.391  29.224  1.00  0.00     0.016 A 
ATOM     29  C   UNL A   1      34.316  33.569  30.900  1.00  0.00     0.016 A 
ATOM     30  C   UNL A   1      36.932  34.035  29.982  1.00  0.00     0.010 A 
ATOM     31  C   UNL A   1      35.436  33.122  31.639  1.00  0.00     0.010 A 
ATOM     32  C   UNL A   1      36.750  33.373  31.192  1.00  0.00    -0.014 A 
BRANCH  32  33
ATOM     33  C   UNL A   1      37.953  32.766  31.819  1.00  0.00     0.031 A 
ATOM     34  C   UNL A   1      38.637  31.660  31.065  1.00  0.00     0.074 A 
ATOM     35  C   UNL A   1      38.530  33.276  32.925  1.00  0.00     0.049 A 
ATOM     36  N   UNL A   1      39.606  30.869  31.437  1.00  0.00    -0.248 NA
ATOM     37  C   UNL A   1      38.181  31.441  29.681  1.00  0.00     0.031 C 
ATOM     38  C   UNL A   1      38.106  34.495  33.616  1.00  0.00     0.029 A 
ATOM     39  N   UNL A   1      39.608  32.839  33.660  1.00  0.00    -0.354 N 
ATOM     40  C   UNL A   1      39.834  30.025  30.357  1.00  0.00     0.074 A 
ATOM     41  C   UNL A   1      38.945  30.432  29.296  1.00  0.00     0.031 C 
ATOM     42  C   UNL A   1      38.891  34.685  34.693  1.00  0.00     0.029 A 
ATOM     43  C   UNL A   1      39.816  33.560  34.815  1.00  0.00     0.049 A 
ATOM     44  H   UNL A   1      40.176  32.084  33.386  1.00  0.00     0.167 HD
ATOM     45  C   UNL A   1      40.684  28.978  30.284  1.00  0.00     0.037 A 
ATOM     46  C   UNL A   1      40.607  33.290  35.877  1.00  0.00     0.037 A 
ATOM     47  C   UNL A   1      41.569  28.604  31.353  1.00  0.00     0.049 A 
ATOM     48  C   UNL A   1      41.443  32.027  35.837  1.00  0.00     0.074 A 
ATOM     49  C   UNL A   1      42.443  27.537  31.417  1.00  0.00     0.029 A 
ATOM     50  N   UNL A   1      41.678  29.293  32.552  1.00  0.00    -0.354 N 
ATOM     51  N   UNL A   1      41.594  31.166  34.858  1.00  0.00    -0.248 NA
ATOM     52  C   UNL A   1      42.195  31.680  37.052  1.00  0.00     0.031 C 
ATOM     53  C   UNL A   1      43.019  27.531  32.690  1.00  0.00     0.029 A 
ATOM     54  C   UNL A   1      42.568  28.643  33.386  1.00  0.00     0.049 A 
ATOM     55  H   UNL A   1      41.193  30.119  32.776  1.00  0.00     0.167 HD
ATOM     56  C   UNL A   1      42.466  30.193  35.330  1.00  0.00     0.074 A 
ATOM     57  C   UNL A   1      42.833  30.581  36.675  1.00  0.00     0.031 C 
ATOM     58  C   UNL A   1      42.918  29.070  34.716  1.00  0.00     0.037 A 
BRANCH  45  59
ATOM     59  C   UNL A   1      40.603  28.092  29.076  1.00  0.00     0.064 A 
ATOM     60  C   UNL A   1      41.330  28.332  27.902  1.00  0.00     0.173 A 
ATOM     61  C   UNL A   1      39.777  26.956  29.116  1.00  0.00     0.173 A 
ATOM     62  F   UNL A   1      42.107  29.421  27.800  1.00  0.00    -0.203 F 
ATOM     63  C   UNL A   1      41.224  27.475  26.809  1.00  0.00     0.198 A 
ATOM     64  C   UNL A   1      39.699  26.084  28.034  1.00  0.00     0.198 A 
ATOM     65  F   UNL A   1      39.048  26.688  30.209  1.00  0.00    -0.203 F 
ATOM     66  F   UNL A   1      41.892  27.747  25.679  1.00  0.00    -0.200 F 
ATOM     67  C   UNL A   1      40.418  26.347  26.880  1.00  0.00     0.200 A 
ATOM     68  F   UNL A   1      38.924  24.994  28.110  1.00  0.00    -0.200 F 
ATOM     69  F   UNL A   1      40.329  25.517  25.831  1.00  0.00    -0.200 F 
ENDBRANCH  45  59
BRANCH  46  70
ATOM     70  C   UNL A   1      40.555  34.126  37.116  1.00  0.00     0.064 A 
ATOM     71  C   UNL A   1      39.616  33.892  38.134  1.00  0.00     0.173 A 
ATOM     72  C   UNL A   1      41.388  35.248  37.265  1.00  0.00     0.173 A 
ATOM     73  F   UNL A   1      38.766  32.859  38.036  1.00  0.00    -0.203 F 
ATOM     74  C   UNL A   1      39.493  34.758  39.224  1.00  0.00     0.198 A 
ATOM     75  C   UNL A   1      41.294  36.088  38.375  1.00  0.00     0.198 A 
ATOM     76  F   UNL A   1      42.292  35.546  36.321  1.00  0.00    -0.203 F 
ATOM     77  F   UNL A   1      38.533  34.551  40.136  1.00  0.00    -0.200 F 
ATOM     78  C   UNL A   1      40.335  35.851  39.346  1.00  0.00     0.200 A 
ATOM     79  F   UNL A   1      42.119  37.138  38.489  1.00  0.00    -0.200 F 
ATOM     80  F   UNL A   1      40.211  36.687  40.387  1.00  0.00    -0.200 F 
ENDBRANCH  46  70
BRANCH  58  81
ATOM     81  C   UNL A   1      43.882  28.205  35.473  1.00  0.00     0.064 A 
ATOM     82  C   UNL A   1      43.440  27.169  36.308  1.00  0.00     0.173 A 
ATOM     83  C   UNL A   1      45.265  28.359  35.288  1.00  0.00     0.173 A 
ATOM     84  F   UNL A   1      42.129  26.988  36.526  1.00  0.00    -0.203 F 
ATOM     85  C   UNL A   1      44.351  26.329  36.945  1.00  0.00     0.198 A 
ATOM     86  C   UNL A   1      46.169  27.493  35.893  1.00  0.00     0.198 A 
ATOM     87  F   UNL A   1      45.736  29.327  34.487  1.00  0.00    -0.203 F 
ATOM     88  F   UNL A   1      43.909  25.371  37.772  1.00  0.00    -0.200 F 
ATOM     89  C   UNL A   1      45.711  26.484  36.726  1.00  0.00     0.200 A 
ATOM     90  F   UNL A   1      47.481  27.629  35.660  1.00  0.00    -0.200 F 
ATOM     91  F   UNL A   1      46.584  25.658  37.320  1.00  0.00    -0.200 F 
ENDBRANCH  58  81
ENDBRANCH  32  33
ENDBRANCH  25  27
ENDBRANCH  24  25
ENDBRANCH  23  24
ENDBRANCH  22  23
ENDBRANCH  21  22
ENDBRANCH   1  21
TORSDOF 18
ENDMDL
