MODEL 1
REMARK VINA RESULT:     -10.9      0.000      0.000
REMARK SMILES C[C@@H](C(=O)OCCOCCOC(=O)c1ccc(-c2c3nc(c(-c4c(F)c(F)c(F)c(F)c4F)c4ccc([nH]4)c(-c4c(F)c(F)c(F)c(F)c4F)c4nc(c(-c5c(F)c(F)c(F)c(F)c5F)c5ccc2[nH]5)C=C4)C=C3)cc1)[C@H](C)[N@@H+]1C[C@H]2C[NH2+]C[C@@H]2[C@@H]1C
REMARK SMILES IDX 8 1 7 2 6 3 5 4 3 5 4 6 2 7 1 8 77 9 78 10 79 11 80 12 86 13
REMARK SMILES IDX 81 15 85 16 87 17 82 18 84 19 83 20 9 23 10 24 11 25 12 26
REMARK SMILES IDX 13 27 14 28 15 29 76 30 16 31 75 32 17 33 18 34 19 35 69 36
REMARK SMILES IDX 20 37 74 38 68 39 70 40 21 41 73 42 67 43 66 44 22 46 54 47
REMARK SMILES IDX 34 48 53 49 35 50 38 51 52 52 71 53 36 54 37 55 51 57 72 58
REMARK SMILES IDX 39 59 23 60 24 61 32 62 25 63 26 64 30 65 33 66 27 67 28 68
REMARK SMILES IDX 31 69 29 70 55 71 56 72 64 73 57 74 58 75 62 76 65 77 59 78
REMARK SMILES IDX 60 79 63 80 61 81 40 82 41 83 49 84 42 85 43 86 47 87 50 88
REMARK SMILES IDX 44 89 45 90 48 91 46 92
REMARK H PARENT 79 14 83 21 83 22 70 45 38 56
REMARK Flexibility Score: inf
ROOT
ATOM      1  O   UNL A   1      31.871  30.557  26.801  1.00  0.00    -0.374 OA
ENDROOT
BRANCH   1   2
ATOM      2  C   UNL A   1      32.880  29.925  26.011  1.00  0.00     0.202 C 
BRANCH   2   3
ATOM      3  C   UNL A   1      32.411  29.260  24.716  1.00  0.00     0.261 C 
BRANCH   3   4
ATOM      4  O   UNL A   1      32.352  27.831  24.882  1.00  0.00    -0.463 OA
BRANCH   4   5
ATOM      5  C   UNL A   1      32.589  27.103  23.760  1.00  0.00     0.314 C 
ATOM      6  O   UNL A   1      33.630  27.162  23.113  1.00  0.00    -0.252 OA
BRANCH   5   7
ATOM      7  C   UNL A   1      31.431  26.184  23.379  1.00  0.00     0.154 C 
ATOM      8  C   UNL A   1      30.094  26.497  24.055  1.00  0.00     0.026 C 
BRANCH   7   9
ATOM      9  C   UNL A   1      31.924  24.695  23.501  1.00  0.00     0.195 C 
ATOM     10  C   UNL A   1      30.678  23.803  23.483  1.00  0.00     0.076 C 
BRANCH   9  11
ATOM     11  N   UNL A   1      32.940  24.477  24.543  1.00  0.00    -0.329 N 
ATOM     12  C   UNL A   1      34.005  23.509  24.168  1.00  0.00     0.272 C 
ATOM     13  C   UNL A   1      32.732  24.443  26.021  1.00  0.00     0.190 C 
ATOM     14  H   UNL A   1      33.153  25.472  24.488  1.00  0.00     0.348 HD
ATOM     15  C   UNL A   1      33.945  22.545  25.314  1.00  0.00     0.114 C 
ATOM     16  C   UNL A   1      33.852  23.501  26.473  1.00  0.00     0.116 C 
ATOM     17  C   UNL A   1      31.398  24.038  26.636  1.00  0.00     0.076 C 
ATOM     18  C   UNL A   1      35.077  21.659  25.751  1.00  0.00     0.270 C 
ATOM     19  C   UNL A   1      33.834  22.521  27.624  1.00  0.00     0.271 C 
ATOM     20  N   UNL A   1      34.781  21.455  27.194  1.00  0.00    -0.345 N 
ATOM     21  H   UNL A   1      35.643  21.518  27.736  1.00  0.00     0.346 HD
ATOM     22  H   UNL A   1      34.369  20.534  27.344  1.00  0.00     0.346 HD
ENDBRANCH   9  11
ENDBRANCH   7   9
ENDBRANCH   5   7
ENDBRANCH   4   5
ENDBRANCH   3   4
ENDBRANCH   2   3
ENDBRANCH   1   2
BRANCH   1  23
ATOM     23  C   UNL A   1      31.339  31.788  26.320  1.00  0.00     0.202 C 
BRANCH  23  24
ATOM     24  C   UNL A   1      31.945  33.078  26.888  1.00  0.00     0.261 C 
BRANCH  24  25
ATOM     25  O   UNL A   1      32.907  32.838  27.928  1.00  0.00    -0.460 OA
BRANCH  25  26
ATOM     26  C   UNL A   1      33.979  33.664  27.900  1.00  0.00     0.338 C 
ATOM     27  O   UNL A   1      33.979  34.878  27.737  1.00  0.00    -0.246 OA
BRANCH  26  28
ATOM     28  C   UNL A   1      35.202  32.929  28.266  1.00  0.00     0.060 A 
ATOM     29  C   UNL A   1      35.063  31.572  28.587  1.00  0.00     0.016 A 
ATOM     30  C   UNL A   1      36.442  33.562  28.374  1.00  0.00     0.016 A 
ATOM     31  C   UNL A   1      36.154  30.855  29.070  1.00  0.00     0.010 A 
ATOM     32  C   UNL A   1      37.535  32.841  28.868  1.00  0.00     0.010 A 
ATOM     33  C   UNL A   1      37.386  31.496  29.253  1.00  0.00    -0.014 A 
BRANCH  33  34
ATOM     34  C   UNL A   1      38.463  30.795  29.992  1.00  0.00     0.031 A 
ATOM     35  C   UNL A   1      38.689  31.131  31.440  1.00  0.00     0.074 A 
ATOM     36  C   UNL A   1      39.198  29.840  29.396  1.00  0.00     0.049 A 
ATOM     37  N   UNL A   1      39.574  30.652  32.276  1.00  0.00    -0.248 NA
ATOM     38  C   UNL A   1      37.796  32.144  32.023  1.00  0.00     0.031 C 
ATOM     39  C   UNL A   1      39.045  29.400  28.011  1.00  0.00     0.029 A 
ATOM     40  N   UNL A   1      40.222  29.069  29.885  1.00  0.00    -0.354 N 
ATOM     41  C   UNL A   1      39.344  31.302  33.481  1.00  0.00     0.074 A 
ATOM     42  C   UNL A   1      38.260  32.235  33.261  1.00  0.00     0.031 C 
ATOM     43  C   UNL A   1      39.953  28.443  27.757  1.00  0.00     0.029 A 
ATOM     44  C   UNL A   1      40.766  28.224  28.952  1.00  0.00     0.049 A 
ATOM     45  H   UNL A   1      40.537  29.120  30.816  1.00  0.00     0.167 HD
ATOM     46  C   UNL A   1      39.972  31.129  34.668  1.00  0.00     0.037 A 
ATOM     47  C   UNL A   1      41.815  27.383  29.049  1.00  0.00     0.037 A 
ATOM     48  C   UNL A   1      41.052  30.203  34.886  1.00  0.00     0.049 A 
ATOM     49  C   UNL A   1      42.542  27.258  30.362  1.00  0.00     0.074 A 
ATOM     50  C   UNL A   1      41.748  29.946  36.055  1.00  0.00     0.029 A 
ATOM     51  N   UNL A   1      41.598  29.384  33.908  1.00  0.00    -0.354 N 
ATOM     52  N   UNL A   1      42.304  27.859  31.502  1.00  0.00    -0.248 NA
ATOM     53  C   UNL A   1      43.682  26.330  30.402  1.00  0.00     0.031 C 
ATOM     54  C   UNL A   1      42.745  29.006  35.772  1.00  0.00     0.029 A 
ATOM     55  C   UNL A   1      42.637  28.639  34.440  1.00  0.00     0.049 A 
ATOM     56  H   UNL A   1      41.291  29.340  32.973  1.00  0.00     0.167 HD
ATOM     57  C   UNL A   1      43.245  27.367  32.399  1.00  0.00     0.074 A 
ATOM     58  C   UNL A   1      44.049  26.406  31.674  1.00  0.00     0.031 C 
ATOM     59  C   UNL A   1      43.425  27.684  33.705  1.00  0.00     0.037 A 
BRANCH  46  60
ATOM     60  C   UNL A   1      39.520  31.977  35.820  1.00  0.00     0.064 A 
ATOM     61  C   UNL A   1      38.458  31.588  36.649  1.00  0.00     0.173 A 
ATOM     62  C   UNL A   1      40.174  33.184  36.114  1.00  0.00     0.173 A 
ATOM     63  F   UNL A   1      37.790  30.451  36.401  1.00  0.00    -0.203 F 
ATOM     64  C   UNL A   1      38.051  32.386  37.716  1.00  0.00     0.198 A 
ATOM     65  C   UNL A   1      39.783  33.965  37.198  1.00  0.00     0.198 A 
ATOM     66  F   UNL A   1      41.198  33.600  35.353  1.00  0.00    -0.203 F 
ATOM     67  F   UNL A   1      37.005  32.017  38.467  1.00  0.00    -0.200 F 
ATOM     68  C   UNL A   1      38.717  33.571  37.993  1.00  0.00     0.200 A 
ATOM     69  F   UNL A   1      40.434  35.104  37.470  1.00  0.00    -0.200 F 
ATOM     70  F   UNL A   1      38.328  34.335  39.022  1.00  0.00    -0.200 F 
ENDBRANCH  46  60
BRANCH  47  71
ATOM     71  C   UNL A   1      42.248  26.602  27.861  1.00  0.00     0.064 A 
ATOM     72  C   UNL A   1      43.221  27.096  26.983  1.00  0.00     0.173 A 
ATOM     73  C   UNL A   1      41.684  25.350  27.575  1.00  0.00     0.173 A 
ATOM     74  F   UNL A   1      43.769  28.300  27.200  1.00  0.00    -0.203 F 
ATOM     75  C   UNL A   1      43.604  26.373  25.854  1.00  0.00     0.198 A 
ATOM     76  C   UNL A   1      42.088  24.616  26.462  1.00  0.00     0.198 A 
ATOM     77  F   UNL A   1      40.747  24.834  28.383  1.00  0.00    -0.203 F 
ATOM     78  F   UNL A   1      44.506  26.888  25.007  1.00  0.00    -0.200 F 
ATOM     79  C   UNL A   1      43.042  25.132  25.599  1.00  0.00     0.200 A 
ATOM     80  F   UNL A   1      41.549  23.412  26.224  1.00  0.00    -0.200 F 
ATOM     81  F   UNL A   1      43.414  24.435  24.516  1.00  0.00    -0.200 F 
ENDBRANCH  47  71
BRANCH  59  82
ATOM     82  C   UNL A   1      44.514  26.962  34.445  1.00  0.00     0.064 A 
ATOM     83  C   UNL A   1      44.287  25.724  35.065  1.00  0.00     0.173 A 
ATOM     84  C   UNL A   1      45.811  27.495  34.497  1.00  0.00     0.173 A 
ATOM     85  F   UNL A   1      43.061  25.180  35.056  1.00  0.00    -0.203 F 
ATOM     86  C   UNL A   1      45.314  25.058  35.729  1.00  0.00     0.198 A 
ATOM     87  C   UNL A   1      46.842  26.812  35.137  1.00  0.00     0.198 A 
ATOM     88  F   UNL A   1      46.082  28.672  33.913  1.00  0.00    -0.203 F 
ATOM     89  F   UNL A   1      45.064  23.898  36.352  1.00  0.00    -0.200 F 
ATOM     90  C   UNL A   1      46.591  25.598  35.758  1.00  0.00     0.200 A 
ATOM     91  F   UNL A   1      48.078  27.330  35.152  1.00  0.00    -0.200 F 
ATOM     92  F   UNL A   1      47.579  24.952  36.391  1.00  0.00    -0.200 F 
ENDBRANCH  59  82
ENDBRANCH  33  34
ENDBRANCH  26  28
ENDBRANCH  25  26
ENDBRANCH  24  25
ENDBRANCH  23  24
ENDBRANCH   1  23
TORSDOF 16
ENDMDL
MODEL 2
REMARK VINA RESULT:     -10.9      1.414      2.966
REMARK SMILES C[C@@H](C(=O)OCCOCCOC(=O)c1ccc(-c2c3nc(c(-c4c(F)c(F)c(F)c(F)c4F)c4ccc([nH]4)c(-c4c(F)c(F)c(F)c(F)c4F)c4nc(c(-c5c(F)c(F)c(F)c(F)c5F)c5ccc2[nH]5)C=C4)C=C3)cc1)[C@H](C)[N@@H+]1C[C@H]2C[NH2+]C[C@@H]2[C@@H]1C
REMARK SMILES IDX 8 1 7 2 6 3 5 4 3 5 4 6 2 7 1 8 77 9 78 10 79 11 80 12 86 13
REMARK SMILES IDX 81 15 85 16 87 17 82 18 84 19 83 20 9 23 10 24 11 25 12 26
REMARK SMILES IDX 13 27 14 28 15 29 76 30 16 31 75 32 17 33 18 34 19 35 69 36
REMARK SMILES IDX 20 37 74 38 68 39 70 40 21 41 73 42 67 43 66 44 22 46 54 47
REMARK SMILES IDX 34 48 53 49 35 50 38 51 52 52 71 53 36 54 37 55 51 57 72 58
REMARK SMILES IDX 39 59 23 60 24 61 32 62 25 63 26 64 30 65 33 66 27 67 28 68
REMARK SMILES IDX 31 69 29 70 55 71 56 72 64 73 57 74 58 75 62 76 65 77 59 78
REMARK SMILES IDX 60 79 63 80 61 81 40 82 41 83 49 84 42 85 43 86 47 87 50 88
REMARK SMILES IDX 44 89 45 90 48 91 46 92
REMARK H PARENT 79 14 83 21 83 22 70 45 38 56
REMARK Flexibility Score: inf
ROOT
ATOM      1  O   UNL A   1      31.822  30.354  26.951  1.00  0.00    -0.374 OA
ENDROOT
BRANCH   1   2
ATOM      2  C   UNL A   1      32.992  29.692  26.466  1.00  0.00     0.202 C 
BRANCH   2   3
ATOM      3  C   UNL A   1      33.391  28.404  27.189  1.00  0.00     0.261 C 
BRANCH   3   4
ATOM      4  O   UNL A   1      33.582  27.338  26.242  1.00  0.00    -0.463 OA
BRANCH   4   5
ATOM      5  C   UNL A   1      32.539  26.478  26.113  1.00  0.00     0.314 C 
ATOM      6  O   UNL A   1      31.578  26.448  26.876  1.00  0.00    -0.252 OA
BRANCH   5   7
ATOM      7  C   UNL A   1      32.667  25.548  24.909  1.00  0.00     0.154 C 
ATOM      8  C   UNL A   1      34.007  25.607  24.173  1.00  0.00     0.026 C 
BRANCH   7   9
ATOM      9  C   UNL A   1      31.387  25.727  24.011  1.00  0.00     0.195 C 
ATOM     10  C   UNL A   1      31.760  25.271  22.596  1.00  0.00     0.076 C 
BRANCH   9  11
ATOM     11  N   UNL A   1      30.702  27.017  24.185  1.00  0.00    -0.329 N 
ATOM     12  C   UNL A   1      29.227  26.958  24.002  1.00  0.00     0.272 C 
ATOM     13  C   UNL A   1      31.199  28.369  23.794  1.00  0.00     0.190 C 
ATOM     14  H   UNL A   1      31.068  27.039  25.136  1.00  0.00     0.348 HD
ATOM     15  C   UNL A   1      29.013  28.024  22.970  1.00  0.00     0.114 C 
ATOM     16  C   UNL A   1      29.890  29.117  23.520  1.00  0.00     0.116 C 
ATOM     17  C   UNL A   1      32.187  28.563  22.650  1.00  0.00     0.076 C 
ATOM     18  C   UNL A   1      27.722  28.761  22.751  1.00  0.00     0.270 C 
ATOM     19  C   UNL A   1      29.635  30.201  22.496  1.00  0.00     0.271 C 
ATOM     20  N   UNL A   1      28.188  30.052  22.180  1.00  0.00    -0.345 N 
ATOM     21  H   UNL A   1      27.662  30.823  22.591  1.00  0.00     0.346 HD
ATOM     22  H   UNL A   1      28.044  30.064  21.169  1.00  0.00     0.346 HD
ENDBRANCH   9  11
ENDBRANCH   7   9
ENDBRANCH   5   7
ENDBRANCH   4   5
ENDBRANCH   3   4
ENDBRANCH   2   3
ENDBRANCH   1   2
BRANCH   1  23
ATOM     23  C   UNL A   1      31.423  31.549  26.285  1.00  0.00     0.202 C 
BRANCH  23  24
ATOM     24  C   UNL A   1      31.747  32.877  26.982  1.00  0.00     0.261 C 
BRANCH  24  25
ATOM     25  O   UNL A   1      33.132  33.244  26.877  1.00  0.00    -0.460 OA
BRANCH  25  26
ATOM     26  C   UNL A   1      33.666  33.744  28.016  1.00  0.00     0.338 C 
ATOM     27  O   UNL A   1      33.173  34.577  28.766  1.00  0.00    -0.246 OA
BRANCH  26  28
ATOM     28  C   UNL A   1      34.900  33.019  28.365  1.00  0.00     0.060 A 
ATOM     29  C   UNL A   1      34.777  31.661  28.688  1.00  0.00     0.016 A 
ATOM     30  C   UNL A   1      36.136  33.662  28.454  1.00  0.00     0.016 A 
ATOM     31  C   UNL A   1      35.880  30.953  29.155  1.00  0.00     0.010 A 
ATOM     32  C   UNL A   1      37.243  32.950  28.932  1.00  0.00     0.010 A 
ATOM     33  C   UNL A   1      37.110  31.604  29.319  1.00  0.00    -0.014 A 
BRANCH  33  34
ATOM     34  C   UNL A   1      38.203  30.912  30.043  1.00  0.00     0.031 A 
ATOM     35  C   UNL A   1      38.435  31.236  31.492  1.00  0.00     0.074 A 
ATOM     36  C   UNL A   1      38.948  29.975  29.431  1.00  0.00     0.049 A 
ATOM     37  N   UNL A   1      39.334  30.761  32.317  1.00  0.00    -0.248 NA
ATOM     38  C   UNL A   1      37.531  32.228  32.094  1.00  0.00     0.031 C 
ATOM     39  C   UNL A   1      38.792  29.548  28.042  1.00  0.00     0.029 A 
ATOM     40  N   UNL A   1      39.988  29.216  29.903  1.00  0.00    -0.354 N 
ATOM     41  C   UNL A   1      39.103  31.395  33.531  1.00  0.00     0.074 A 
ATOM     42  C   UNL A   1      38.002  32.312  33.329  1.00  0.00     0.031 C 
ATOM     43  C   UNL A   1      39.713  28.608  27.771  1.00  0.00     0.029 A 
ATOM     44  C   UNL A   1      40.539  28.389  28.957  1.00  0.00     0.049 A 
ATOM     45  H   UNL A   1      40.310  29.261  30.833  1.00  0.00     0.167 HD
ATOM     46  C   UNL A   1      39.743  31.218  34.711  1.00  0.00     0.037 A 
ATOM     47  C   UNL A   1      41.601  27.564  29.037  1.00  0.00     0.037 A 
ATOM     48  C   UNL A   1      40.839  30.306  34.911  1.00  0.00     0.049 A 
ATOM     49  C   UNL A   1      42.341  27.436  30.343  1.00  0.00     0.074 A 
ATOM     50  C   UNL A   1      41.547  30.048  36.071  1.00  0.00     0.029 A 
ATOM     51  N   UNL A   1      41.389  29.508  33.919  1.00  0.00    -0.354 N 
ATOM     52  N   UNL A   1      42.102  28.021  31.491  1.00  0.00    -0.248 NA
ATOM     53  C   UNL A   1      43.495  26.526  30.364  1.00  0.00     0.031 C 
ATOM     54  C   UNL A   1      42.557  29.127  35.771  1.00  0.00     0.029 A 
ATOM     55  C   UNL A   1      42.445  28.773  34.435  1.00  0.00     0.049 A 
ATOM     56  H   UNL A   1      41.076  29.469  32.987  1.00  0.00     0.167 HD
ATOM     57  C   UNL A   1      43.056  27.534  32.376  1.00  0.00     0.074 A 
ATOM     58  C   UNL A   1      43.870  26.594  31.634  1.00  0.00     0.031 C 
ATOM     59  C   UNL A   1      43.242  27.838  33.684  1.00  0.00     0.037 A 
BRANCH  46  60
ATOM     60  C   UNL A   1      39.285  32.047  35.875  1.00  0.00     0.064 A 
ATOM     61  C   UNL A   1      38.335  31.571  36.789  1.00  0.00     0.173 A 
ATOM     62  C   UNL A   1      39.825  33.324  36.094  1.00  0.00     0.173 A 
ATOM     63  F   UNL A   1      37.777  30.362  36.616  1.00  0.00    -0.203 F 
ATOM     64  C   UNL A   1      37.922  32.352  37.867  1.00  0.00     0.198 A 
ATOM     65  C   UNL A   1      39.431  34.090  37.188  1.00  0.00     0.198 A 
ATOM     66  F   UNL A   1      40.741  33.824  35.251  1.00  0.00    -0.203 F 
ATOM     67  F   UNL A   1      36.979  31.895  38.702  1.00  0.00    -0.200 F 
ATOM     68  C   UNL A   1      38.475  33.608  38.068  1.00  0.00     0.200 A 
ATOM     69  F   UNL A   1      39.974  35.299  37.386  1.00  0.00    -0.200 F 
ATOM     70  F   UNL A   1      38.081  34.356  39.108  1.00  0.00    -0.200 F 
ENDBRANCH  46  60
BRANCH  47  71
ATOM     71  C   UNL A   1      42.037  26.803  27.837  1.00  0.00     0.064 A 
ATOM     72  C   UNL A   1      42.959  27.343  26.931  1.00  0.00     0.173 A 
ATOM     73  C   UNL A   1      41.527  25.525  27.568  1.00  0.00     0.173 A 
ATOM     74  F   UNL A   1      43.454  28.572  27.132  1.00  0.00    -0.203 F 
ATOM     75  C   UNL A   1      43.345  26.637  25.792  1.00  0.00     0.198 A 
ATOM     76  C   UNL A   1      41.934  24.809  26.444  1.00  0.00     0.198 A 
ATOM     77  F   UNL A   1      40.640  24.965  28.402  1.00  0.00    -0.203 F 
ATOM     78  F   UNL A   1      44.196  27.194  24.919  1.00  0.00    -0.200 F 
ATOM     79  C   UNL A   1      42.836  25.369  25.553  1.00  0.00     0.200 A 
ATOM     80  F   UNL A   1      41.448  23.581  26.222  1.00  0.00    -0.200 F 
ATOM     81  F   UNL A   1      43.211  24.690  24.460  1.00  0.00    -0.200 F 
ENDBRANCH  47  71
BRANCH  59  82
ATOM     82  C   UNL A   1      44.347  27.126  34.408  1.00  0.00     0.064 A 
ATOM     83  C   UNL A   1      45.626  27.687  34.532  1.00  0.00     0.173 A 
ATOM     84  C   UNL A   1      44.111  25.886  35.021  1.00  0.00     0.173 A 
ATOM     85  F   UNL A   1      45.907  28.863  33.952  1.00  0.00    -0.203 F 
ATOM     86  C   UNL A   1      46.635  27.022  35.226  1.00  0.00     0.198 A 
ATOM     87  C   UNL A   1      45.113  25.238  35.738  1.00  0.00     0.198 A 
ATOM     88  F   UNL A   1      42.902  25.310  34.938  1.00  0.00    -0.203 F 
ATOM     89  F   UNL A   1      47.862  27.556  35.295  1.00  0.00    -0.200 F 
ATOM     90  C   UNL A   1      46.375  25.803  35.834  1.00  0.00     0.200 A 
ATOM     91  F   UNL A   1      44.856  24.066  36.335  1.00  0.00    -0.200 F 
ATOM     92  F   UNL A   1      47.345  25.168  36.506  1.00  0.00    -0.200 F 
ENDBRANCH  59  82
ENDBRANCH  33  34
ENDBRANCH  26  28
ENDBRANCH  25  26
ENDBRANCH  24  25
ENDBRANCH  23  24
ENDBRANCH   1  23
TORSDOF 16
ENDMDL
MODEL 3
REMARK VINA RESULT:     -10.8      1.190      7.582
REMARK SMILES C[C@@H](C(=O)OCCOCCOC(=O)c1ccc(-c2c3nc(c(-c4c(F)c(F)c(F)c(F)c4F)c4ccc([nH]4)c(-c4c(F)c(F)c(F)c(F)c4F)c4nc(c(-c5c(F)c(F)c(F)c(F)c5F)c5ccc2[nH]5)C=C4)C=C3)cc1)[C@H](C)[N@@H+]1C[C@H]2C[NH2+]C[C@@H]2[C@@H]1C
REMARK SMILES IDX 8 1 7 2 6 3 5 4 3 5 4 6 2 7 1 8 77 9 78 10 79 11 80 12 86 13
REMARK SMILES IDX 81 15 85 16 87 17 82 18 84 19 83 20 9 23 10 24 11 25 12 26
REMARK SMILES IDX 13 27 14 28 15 29 76 30 16 31 75 32 17 33 18 34 19 35 69 36
REMARK SMILES IDX 20 37 74 38 68 39 70 40 21 41 73 42 67 43 66 44 22 46 54 47
REMARK SMILES IDX 34 48 53 49 35 50 38 51 52 52 71 53 36 54 37 55 51 57 72 58
REMARK SMILES IDX 39 59 23 60 24 61 32 62 25 63 26 64 30 65 33 66 27 67 28 68
REMARK SMILES IDX 31 69 29 70 55 71 56 72 64 73 57 74 58 75 62 76 65 77 59 78
REMARK SMILES IDX 60 79 63 80 61 81 40 82 41 83 49 84 42 85 43 86 47 87 50 88
REMARK SMILES IDX 44 89 45 90 48 91 46 92
REMARK H PARENT 79 14 83 21 83 22 70 45 38 56
REMARK Flexibility Score: inf
ROOT
ATOM      1  O   UNL A   1      32.588  28.971  23.405  1.00  0.00    -0.374 OA
ENDROOT
BRANCH   1   2
ATOM      2  C   UNL A   1      31.173  28.912  23.218  1.00  0.00     0.202 C 
BRANCH   2   3
ATOM      3  C   UNL A   1      30.631  27.653  22.538  1.00  0.00     0.261 C 
BRANCH   3   4
ATOM      4  O   UNL A   1      30.195  26.700  23.526  1.00  0.00    -0.463 OA
BRANCH   4   5
ATOM      5  C   UNL A   1      30.919  25.553  23.590  1.00  0.00     0.314 C 
ATOM      6  O   UNL A   1      31.591  25.115  22.662  1.00  0.00    -0.252 OA
BRANCH   5   7
ATOM      7  C   UNL A   1      30.829  24.857  24.945  1.00  0.00     0.154 C 
ATOM      8  C   UNL A   1      29.889  25.512  25.960  1.00  0.00     0.026 C 
BRANCH   7   9
ATOM      9  C   UNL A   1      32.292  24.577  25.453  1.00  0.00     0.195 C 
ATOM     10  C   UNL A   1      32.980  25.936  25.622  1.00  0.00     0.076 C 
BRANCH   9  11
ATOM     11  N   UNL A   1      32.994  23.512  24.719  1.00  0.00    -0.329 N 
ATOM     12  C   UNL A   1      32.224  22.246  24.590  1.00  0.00     0.272 C 
ATOM     13  C   UNL A   1      34.455  23.208  24.738  1.00  0.00     0.190 C 
ATOM     14  H   UNL A   1      33.025  24.140  23.917  1.00  0.00     0.348 HD
ATOM     15  C   UNL A   1      33.200  21.249  25.139  1.00  0.00     0.114 C 
ATOM     16  C   UNL A   1      34.465  21.701  24.460  1.00  0.00     0.116 C 
ATOM     17  C   UNL A   1      35.333  23.547  25.937  1.00  0.00     0.076 C 
ATOM     18  C   UNL A   1      33.200  19.781  24.819  1.00  0.00     0.270 C 
ATOM     19  C   UNL A   1      35.433  20.665  24.988  1.00  0.00     0.271 C 
ATOM     20  N   UNL A   1      34.626  19.414  25.017  1.00  0.00    -0.345 N 
ATOM     21  H   UNL A   1      34.930  18.788  24.271  1.00  0.00     0.346 HD
ATOM     22  H   UNL A   1      34.747  18.936  25.911  1.00  0.00     0.346 HD
ENDBRANCH   9  11
ENDBRANCH   7   9
ENDBRANCH   5   7
ENDBRANCH   4   5
ENDBRANCH   3   4
ENDBRANCH   2   3
ENDBRANCH   1   2
BRANCH   1  23
ATOM     23  C   UNL A   1      33.063  29.350  24.694  1.00  0.00     0.202 C 
BRANCH  23  24
ATOM     24  C   UNL A   1      32.082  30.103  25.603  1.00  0.00     0.261 C 
BRANCH  24  25
ATOM     25  O   UNL A   1      32.547  30.220  26.958  1.00  0.00    -0.460 OA
BRANCH  25  26
ATOM     26  C   UNL A   1      33.229  31.360  27.218  1.00  0.00     0.338 C 
ATOM     27  O   UNL A   1      32.798  32.506  27.197  1.00  0.00    -0.246 OA
BRANCH  26  28
ATOM     28  C   UNL A   1      34.580  31.047  27.715  1.00  0.00     0.060 A 
ATOM     29  C   UNL A   1      34.853  29.709  28.032  1.00  0.00     0.016 A 
ATOM     30  C   UNL A   1      35.533  32.041  27.945  1.00  0.00     0.016 A 
ATOM     31  C   UNL A   1      36.062  29.368  28.630  1.00  0.00     0.010 A 
ATOM     32  C   UNL A   1      36.745  31.697  28.555  1.00  0.00     0.010 A 
ATOM     33  C   UNL A   1      36.998  30.366  28.934  1.00  0.00    -0.014 A 
BRANCH  33  34
ATOM     34  C   UNL A   1      38.163  30.028  29.786  1.00  0.00     0.031 A 
ATOM     35  C   UNL A   1      39.205  29.085  29.253  1.00  0.00     0.074 A 
ATOM     36  C   UNL A   1      38.315  30.591  30.998  1.00  0.00     0.049 A 
ATOM     37  N   UNL A   1      40.298  28.645  29.823  1.00  0.00    -0.248 NA
ATOM     38  C   UNL A   1      38.985  28.569  27.893  1.00  0.00     0.031 C 
ATOM     39  C   UNL A   1      37.394  31.549  31.604  1.00  0.00     0.029 A 
ATOM     40  N   UNL A   1      39.305  30.432  31.935  1.00  0.00    -0.354 N 
ATOM     41  C   UNL A   1      40.895  27.804  28.893  1.00  0.00     0.074 A 
ATOM     42  C   UNL A   1      40.027  27.766  27.735  1.00  0.00     0.031 C 
ATOM     43  C   UNL A   1      37.856  31.885  32.820  1.00  0.00     0.029 A 
ATOM     44  C   UNL A   1      39.089  31.146  33.087  1.00  0.00     0.049 A 
ATOM     45  H   UNL A   1      40.093  29.860  31.795  1.00  0.00     0.167 HD
ATOM     46  C   UNL A   1      42.066  27.132  28.992  1.00  0.00     0.037 A 
ATOM     47  C   UNL A   1      39.799  31.182  34.232  1.00  0.00     0.037 A 
ATOM     48  C   UNL A   1      42.927  27.168  30.145  1.00  0.00     0.049 A 
ATOM     49  C   UNL A   1      41.064  30.373  34.342  1.00  0.00     0.074 A 
ATOM     50  C   UNL A   1      44.140  26.530  30.337  1.00  0.00     0.029 A 
ATOM     51  N   UNL A   1      42.660  27.879  31.305  1.00  0.00    -0.354 N 
ATOM     52  N   UNL A   1      41.633  29.597  33.451  1.00  0.00    -0.248 NA
ATOM     53  C   UNL A   1      41.789  30.448  35.619  1.00  0.00     0.031 C 
ATOM     54  C   UNL A   1      44.585  26.818  31.633  1.00  0.00     0.029 A 
ATOM     55  C   UNL A   1      43.673  27.676  32.228  1.00  0.00     0.049 A 
ATOM     56  H   UNL A   1      41.867  28.444  31.452  1.00  0.00     0.167 HD
ATOM     57  C   UNL A   1      42.791  29.114  34.047  1.00  0.00     0.074 A 
ATOM     58  C   UNL A   1      42.852  29.694  35.372  1.00  0.00     0.031 C 
ATOM     59  C   UNL A   1      43.720  28.265  33.541  1.00  0.00     0.037 A 
BRANCH  46  60
ATOM     60  C   UNL A   1      42.474  26.281  27.825  1.00  0.00     0.064 A 
ATOM     61  C   UNL A   1      41.967  24.986  27.645  1.00  0.00     0.173 A 
ATOM     62  C   UNL A   1      43.365  26.778  26.860  1.00  0.00     0.173 A 
ATOM     63  F   UNL A   1      41.125  24.459  28.546  1.00  0.00    -0.203 F 
ATOM     64  C   UNL A   1      42.354  24.210  26.554  1.00  0.00     0.198 A 
ATOM     65  C   UNL A   1      43.728  26.010  25.757  1.00  0.00     0.198 A 
ATOM     66  F   UNL A   1      43.877  28.012  26.985  1.00  0.00    -0.203 F 
ATOM     67  F   UNL A   1      41.892  22.959  26.426  1.00  0.00    -0.200 F 
ATOM     68  C   UNL A   1      43.229  24.724  25.609  1.00  0.00     0.200 A 
ATOM     69  F   UNL A   1      44.565  26.512  24.840  1.00  0.00    -0.200 F 
ATOM     70  F   UNL A   1      43.597  23.978  24.558  1.00  0.00    -0.200 F 
ENDBRANCH  46  60
BRANCH  47  71
ATOM     71  C   UNL A   1      39.321  32.008  35.371  1.00  0.00     0.064 A 
ATOM     72  C   UNL A   1      38.492  31.465  36.362  1.00  0.00     0.173 A 
ATOM     73  C   UNL A   1      39.674  33.360  35.481  1.00  0.00     0.173 A 
ATOM     74  F   UNL A   1      38.106  30.184  36.284  1.00  0.00    -0.203 F 
ATOM     75  C   UNL A   1      38.023  32.250  37.415  1.00  0.00     0.198 A 
ATOM     76  C   UNL A   1      39.227  34.136  36.549  1.00  0.00     0.198 A 
ATOM     77  F   UNL A   1      40.463  33.927  34.557  1.00  0.00    -0.203 F 
ATOM     78  F   UNL A   1      37.197  31.718  38.326  1.00  0.00    -0.200 F 
ATOM     79  C   UNL A   1      38.396  33.582  37.510  1.00  0.00     0.200 A 
ATOM     80  F   UNL A   1      39.598  35.420  36.643  1.00  0.00    -0.200 F 
ATOM     81  F   UNL A   1      37.948  34.335  38.524  1.00  0.00    -0.200 F 
ENDBRANCH  47  71
BRANCH  59  82
ATOM     82  C   UNL A   1      44.900  27.937  34.410  1.00  0.00     0.064 A 
ATOM     83  C   UNL A   1      44.898  26.824  35.263  1.00  0.00     0.173 A 
ATOM     84  C   UNL A   1      46.062  28.722  34.357  1.00  0.00     0.173 A 
ATOM     85  F   UNL A   1      43.806  26.051  35.361  1.00  0.00    -0.203 F 
ATOM     86  C   UNL A   1      46.009  26.521  36.047  1.00  0.00     0.198 A 
ATOM     87  C   UNL A   1      47.180  28.400  35.120  1.00  0.00     0.198 A 
ATOM     88  F   UNL A   1      46.117  29.794  33.551  1.00  0.00    -0.203 F 
ATOM     89  F   UNL A   1      45.970  25.478  36.887  1.00  0.00    -0.200 F 
ATOM     90  C   UNL A   1      47.151  27.304  35.969  1.00  0.00     0.200 A 
ATOM     91  F   UNL A   1      48.287  29.151  35.034  1.00  0.00    -0.200 F 
ATOM     92  F   UNL A   1      48.221  27.008  36.719  1.00  0.00    -0.200 F 
ENDBRANCH  59  82
ENDBRANCH  33  34
ENDBRANCH  26  28
ENDBRANCH  25  26
ENDBRANCH  24  25
ENDBRANCH  23  24
ENDBRANCH   1  23
TORSDOF 16
ENDMDL
