MODEL 1
REMARK VINA RESULT:     -11.0      0.000      0.000
REMARK SMILES [NH3+]C[C@H]1CC[C@@H](C(=O)NCc2ccc(C(=O)OCCOCCOC(=O)c3ccc(-c4c5nc(c(-c6c(F)c(F)c(F)c(F)c6F)c6ccc([nH]6)c(-c6c(F)c(F)c(F)c(F)c6F)c6nc(c(-c7c(F)c(F)c(F)c(F)c7F)c7ccc4[nH]7)C=C6)C=C5)cc3)cc2)CC1
REMARK SMILES IDX 18 1 17 2 15 3 16 4 14 5 11 6 12 7 90 8 13 9 89 10 10 11
REMARK SMILES IDX 9 12 7 13 8 14 6 16 3 17 4 18 92 19 5 20 91 21 2 22 1 23
REMARK SMILES IDX 19 27 20 28 21 29 22 30 23 31 24 32 25 33 26 34 27 35 88 36
REMARK SMILES IDX 28 37 87 38 29 39 30 40 31 41 81 42 32 43 86 44 80 45 82 46
REMARK SMILES IDX 33 47 85 48 79 49 78 50 34 52 66 53 46 54 65 55 47 56 50 57
REMARK SMILES IDX 64 58 83 59 48 60 49 61 63 63 84 64 51 65 35 66 36 67 44 68
REMARK SMILES IDX 37 69 38 70 42 71 45 72 39 73 40 74 43 75 41 76 67 77 68 78
REMARK SMILES IDX 76 79 69 80 70 81 74 82 77 83 71 84 72 85 75 86 73 87 52 88
REMARK SMILES IDX 53 89 61 90 54 91 55 92 59 93 62 94 56 95 57 96 60 97 58 98
REMARK H PARENT 9 15 1 24 1 25 1 26 82 51 50 62
REMARK Flexibility Score: inf
ROOT
ATOM      1  C   UNL A   1      39.766  22.038  26.811  1.00  0.00     0.261 C 
ENDROOT
BRANCH   1   2
ATOM      2  O   UNL A   1      38.655  22.236  25.925  1.00  0.00    -0.460 OA
BRANCH   2   3
ATOM      3  C   UNL A   1      38.066  23.451  26.049  1.00  0.00     0.338 C 
ATOM      4  O   UNL A   1      38.561  24.459  26.526  1.00  0.00    -0.246 OA
BRANCH   3   5
ATOM      5  C   UNL A   1      36.735  23.450  25.408  1.00  0.00     0.060 A 
ATOM      6  C   UNL A   1      34.288  23.605  24.036  1.00  0.00    -0.029 A 
ATOM      7  C   UNL A   1      35.470  23.332  23.341  1.00  0.00     0.006 A 
ATOM      8  C   UNL A   1      34.347  23.761  25.436  1.00  0.00     0.006 A 
ATOM      9  C   UNL A   1      36.686  23.267  24.021  1.00  0.00     0.016 A 
ATOM     10  C   UNL A   1      35.559  23.666  26.125  1.00  0.00     0.016 A 
BRANCH   6  11
ATOM     11  C   UNL A   1      32.950  23.759  23.352  1.00  0.00     0.151 C 
BRANCH  11  12
ATOM     12  N   UNL A   1      32.999  24.089  21.948  1.00  0.00    -0.352 N 
ATOM     13  C   UNL A   1      32.904  25.237  21.244  1.00  0.00     0.223 C 
ATOM     14  O   UNL A   1      33.109  25.123  20.027  1.00  0.00    -0.275 OA
ATOM     15  H   UNL A   1      33.131  23.300  21.375  1.00  0.00     0.163 HD
BRANCH  13  16
ATOM     16  C   UNL A   1      32.566  26.626  21.805  1.00  0.00     0.078 C 
ATOM     17  C   UNL A   1      32.221  27.170  24.755  1.00  0.00     0.044 C 
ATOM     18  C   UNL A   1      33.620  27.124  24.110  1.00  0.00     0.010 C 
ATOM     19  C   UNL A   1      31.086  26.563  23.904  1.00  0.00     0.010 C 
ATOM     20  C   UNL A   1      33.654  27.335  22.604  1.00  0.00     0.014 C 
ATOM     21  C   UNL A   1      31.178  26.796  22.407  1.00  0.00     0.014 C 
BRANCH  17  22
ATOM     22  C   UNL A   1      32.186  26.485  26.145  1.00  0.00     0.262 C 
BRANCH  22  23
ATOM     23  N   UNL A   1      31.112  26.916  27.026  1.00  0.00    -0.357 N 
ATOM     24  H   UNL A   1      30.704  26.102  27.487  1.00  0.00     0.344 HD
ATOM     25  H   UNL A   1      30.394  27.392  26.480  1.00  0.00     0.344 HD
ATOM     26  H   UNL A   1      31.484  27.554  27.730  1.00  0.00     0.344 HD
ENDBRANCH  22  23
ENDBRANCH  17  22
ENDBRANCH  13  16
ENDBRANCH  11  12
ENDBRANCH   6  11
ENDBRANCH   3   5
ENDBRANCH   2   3
ENDBRANCH   1   2
BRANCH   1  27
ATOM     27  C   UNL A   1      41.073  21.798  26.052  1.00  0.00     0.202 C 
BRANCH  27  28
ATOM     28  O   UNL A   1      42.031  20.948  26.678  1.00  0.00    -0.374 OA
BRANCH  28  29
ATOM     29  C   UNL A   1      41.801  19.540  26.571  1.00  0.00     0.202 C 
BRANCH  29  30
ATOM     30  C   UNL A   1      42.923  18.723  25.916  1.00  0.00     0.261 C 
BRANCH  30  31
ATOM     31  O   UNL A   1      43.292  19.257  24.631  1.00  0.00    -0.460 OA
BRANCH  31  32
ATOM     32  C   UNL A   1      44.610  19.518  24.467  1.00  0.00     0.338 C 
ATOM     33  O   UNL A   1      45.462  18.786  23.985  1.00  0.00    -0.246 OA
BRANCH  32  34
ATOM     34  C   UNL A   1      44.863  20.938  24.776  1.00  0.00     0.060 A 
ATOM     35  C   UNL A   1      45.423  21.249  26.022  1.00  0.00     0.016 A 
ATOM     36  C   UNL A   1      44.538  21.949  23.872  1.00  0.00     0.016 A 
ATOM     37  C   UNL A   1      45.651  22.577  26.376  1.00  0.00     0.010 A 
ATOM     38  C   UNL A   1      44.753  23.282  24.232  1.00  0.00     0.010 A 
ATOM     39  C   UNL A   1      45.296  23.603  25.490  1.00  0.00    -0.014 A 
BRANCH  39  40
ATOM     40  C   UNL A   1      45.413  25.022  25.901  1.00  0.00     0.031 A 
ATOM     41  C   UNL A   1      46.743  25.708  25.805  1.00  0.00     0.074 A 
ATOM     42  C   UNL A   1      44.342  25.684  26.371  1.00  0.00     0.049 A 
ATOM     43  N   UNL A   1      47.093  26.905  26.203  1.00  0.00    -0.248 NA
ATOM     44  C   UNL A   1      47.828  24.939  25.178  1.00  0.00     0.031 C 
ATOM     45  C   UNL A   1      42.990  25.138  26.464  1.00  0.00     0.029 A 
ATOM     46  N   UNL A   1      44.231  26.955  26.876  1.00  0.00    -0.354 N 
ATOM     47  C   UNL A   1      48.438  27.030  25.882  1.00  0.00     0.074 A 
ATOM     48  C   UNL A   1      48.849  25.776  25.285  1.00  0.00     0.031 C 
ATOM     49  C   UNL A   1      42.183  26.066  27.006  1.00  0.00     0.029 A 
ATOM     50  C   UNL A   1      42.973  27.250  27.341  1.00  0.00     0.049 A 
ATOM     51  H   UNL A   1      44.979  27.594  26.901  1.00  0.00     0.167 HD
ATOM     52  C   UNL A   1      49.253  28.098  26.064  1.00  0.00     0.037 A 
ATOM     53  C   UNL A   1      42.522  28.338  27.993  1.00  0.00     0.037 A 
ATOM     54  C   UNL A   1      48.837  29.336  26.672  1.00  0.00     0.049 A 
ATOM     55  C   UNL A   1      43.474  29.467  28.291  1.00  0.00     0.074 A 
ATOM     56  C   UNL A   1      49.576  30.487  26.880  1.00  0.00     0.029 A 
ATOM     57  N   UNL A   1      47.570  29.577  27.187  1.00  0.00    -0.354 N 
ATOM     58  N   UNL A   1      44.737  29.594  27.962  1.00  0.00    -0.248 NA
ATOM     59  C   UNL A   1      42.941  30.598  29.063  1.00  0.00     0.031 C 
ATOM     60  C   UNL A   1      48.777  31.399  27.580  1.00  0.00     0.029 A 
ATOM     61  C   UNL A   1      47.520  30.840  27.753  1.00  0.00     0.049 A 
ATOM     62  H   UNL A   1      46.817  28.943  27.152  1.00  0.00     0.167 HD
ATOM     63  C   UNL A   1      45.143  30.823  28.464  1.00  0.00     0.074 A 
ATOM     64  C   UNL A   1      43.987  31.412  29.108  1.00  0.00     0.031 C 
ATOM     65  C   UNL A   1      46.363  31.411  28.398  1.00  0.00     0.037 A 
BRANCH  52  66
ATOM     66  C   UNL A   1      50.685  27.954  25.637  1.00  0.00     0.064 A 
ATOM     67  C   UNL A   1      51.067  28.025  24.287  1.00  0.00     0.173 A 
ATOM     68  C   UNL A   1      51.695  27.755  26.592  1.00  0.00     0.173 A 
ATOM     69  F   UNL A   1      50.141  28.203  23.333  1.00  0.00    -0.203 F 
ATOM     70  C   UNL A   1      52.397  27.861  23.909  1.00  0.00     0.198 A 
ATOM     71  C   UNL A   1      53.028  27.625  26.212  1.00  0.00     0.198 A 
ATOM     72  F   UNL A   1      51.388  27.687  27.896  1.00  0.00    -0.203 F 
ATOM     73  F   UNL A   1      52.728  27.870  22.610  1.00  0.00    -0.200 F 
ATOM     74  C   UNL A   1      53.377  27.667  24.871  1.00  0.00     0.200 A 
ATOM     75  F   UNL A   1      53.975  27.453  27.145  1.00  0.00    -0.200 F 
ATOM     76  F   UNL A   1      54.656  27.509  24.504  1.00  0.00    -0.200 F 
ENDBRANCH  52  66
BRANCH  53  77
ATOM     77  C   UNL A   1      41.102  28.404  28.423  1.00  0.00     0.064 A 
ATOM     78  C   UNL A   1      40.713  27.958  29.693  1.00  0.00     0.173 A 
ATOM     79  C   UNL A   1      40.104  28.920  27.581  1.00  0.00     0.173 A 
ATOM     80  F   UNL A   1      41.626  27.432  30.524  1.00  0.00    -0.203 F 
ATOM     81  C   UNL A   1      39.383  28.018  30.102  1.00  0.00     0.198 A 
ATOM     82  C   UNL A   1      38.780  29.006  28.001  1.00  0.00     0.198 A 
ATOM     83  F   UNL A   1      40.422  29.358  26.353  1.00  0.00    -0.203 F 
ATOM     84  F   UNL A   1      39.034  27.551  31.309  1.00  0.00    -0.200 F 
ATOM     85  C   UNL A   1      38.419  28.551  29.260  1.00  0.00     0.200 A 
ATOM     86  F   UNL A   1      37.854  29.535  27.189  1.00  0.00    -0.200 F 
ATOM     87  F   UNL A   1      37.142  28.620  29.659  1.00  0.00    -0.200 F 
ENDBRANCH  53  77
BRANCH  65  88
ATOM     88  C   UNL A   1      46.513  32.768  29.027  1.00  0.00     0.064 A 
ATOM     89  C   UNL A   1      46.208  33.942  28.322  1.00  0.00     0.173 A 
ATOM     90  C   UNL A   1      46.911  32.893  30.367  1.00  0.00     0.173 A 
ATOM     91  F   UNL A   1      45.840  33.879  27.034  1.00  0.00    -0.203 F 
ATOM     92  C   UNL A   1      46.314  35.191  28.931  1.00  0.00     0.198 A 
ATOM     93  C   UNL A   1      46.984  34.140  30.982  1.00  0.00     0.198 A 
ATOM     94  F   UNL A   1      47.210  31.802  31.088  1.00  0.00    -0.203 F 
ATOM     95  F   UNL A   1      46.057  36.300  28.225  1.00  0.00    -0.200 F 
ATOM     96  C   UNL A   1      46.691  35.288  30.261  1.00  0.00     0.200 A 
ATOM     97  F   UNL A   1      47.335  34.231  32.271  1.00  0.00    -0.200 F 
ATOM     98  F   UNL A   1      46.776  36.489  30.848  1.00  0.00    -0.200 F 
ENDBRANCH  65  88
ENDBRANCH  39  40
ENDBRANCH  32  34
ENDBRANCH  31  32
ENDBRANCH  30  31
ENDBRANCH  29  30
ENDBRANCH  28  29
ENDBRANCH  27  28
ENDBRANCH   1  27
TORSDOF 19
ENDMDL
MODEL 2
REMARK VINA RESULT:     -10.8      5.201      7.541
REMARK SMILES [NH3+]C[C@H]1CC[C@@H](C(=O)NCc2ccc(C(=O)OCCOCCOC(=O)c3ccc(-c4c5nc(c(-c6c(F)c(F)c(F)c(F)c6F)c6ccc([nH]6)c(-c6c(F)c(F)c(F)c(F)c6F)c6nc(c(-c7c(F)c(F)c(F)c(F)c7F)c7ccc4[nH]7)C=C6)C=C5)cc3)cc2)CC1
REMARK SMILES IDX 18 1 17 2 15 3 16 4 14 5 11 6 12 7 90 8 13 9 89 10 10 11
REMARK SMILES IDX 9 12 7 13 8 14 6 16 3 17 4 18 92 19 5 20 91 21 2 22 1 23
REMARK SMILES IDX 19 27 20 28 21 29 22 30 23 31 24 32 25 33 26 34 27 35 88 36
REMARK SMILES IDX 28 37 87 38 29 39 30 40 31 41 81 42 32 43 86 44 80 45 82 46
REMARK SMILES IDX 33 47 85 48 79 49 78 50 34 52 66 53 46 54 65 55 47 56 50 57
REMARK SMILES IDX 64 58 83 59 48 60 49 61 63 63 84 64 51 65 35 66 36 67 44 68
REMARK SMILES IDX 37 69 38 70 42 71 45 72 39 73 40 74 43 75 41 76 67 77 68 78
REMARK SMILES IDX 76 79 69 80 70 81 74 82 77 83 71 84 72 85 75 86 73 87 52 88
REMARK SMILES IDX 53 89 61 90 54 91 55 92 59 93 62 94 56 95 57 96 60 97 58 98
REMARK H PARENT 9 15 1 24 1 25 1 26 82 51 50 62
REMARK Flexibility Score: inf
ROOT
ATOM      1  C   UNL A   1      38.901  21.994  26.165  1.00  0.00     0.261 C 
ENDROOT
BRANCH   1   2
ATOM      2  O   UNL A   1      38.260  21.756  24.905  1.00  0.00    -0.460 OA
BRANCH   2   3
ATOM      3  C   UNL A   1      37.048  21.158  25.011  1.00  0.00     0.338 C 
ATOM      4  O   UNL A   1      36.822  19.958  25.013  1.00  0.00    -0.246 OA
BRANCH   3   5
ATOM      5  C   UNL A   1      35.991  22.163  25.249  1.00  0.00     0.060 A 
ATOM      6  C   UNL A   1      34.152  24.237  25.702  1.00  0.00    -0.029 A 
ATOM      7  C   UNL A   1      35.043  24.307  24.627  1.00  0.00     0.006 A 
ATOM      8  C   UNL A   1      34.172  23.092  26.524  1.00  0.00     0.006 A 
ATOM      9  C   UNL A   1      35.964  23.282  24.410  1.00  0.00     0.016 A 
ATOM     10  C   UNL A   1      35.072  22.048  26.291  1.00  0.00     0.016 A 
BRANCH   6  11
ATOM     11  C   UNL A   1      33.178  25.343  26.035  1.00  0.00     0.151 C 
BRANCH  11  12
ATOM     12  N   UNL A   1      31.911  24.917  26.579  1.00  0.00    -0.352 N 
ATOM     13  C   UNL A   1      30.664  24.785  26.077  1.00  0.00     0.223 C 
ATOM     14  O   UNL A   1      29.841  24.272  26.849  1.00  0.00    -0.275 OA
ATOM     15  H   UNL A   1      31.969  24.665  27.529  1.00  0.00     0.163 HD
BRANCH  13  16
ATOM     16  C   UNL A   1      30.194  25.212  24.679  1.00  0.00     0.078 C 
ATOM     17  C   UNL A   1      32.061  26.324  22.583  1.00  0.00     0.044 C 
ATOM     18  C   UNL A   1      31.927  24.805  22.808  1.00  0.00     0.010 C 
ATOM     19  C   UNL A   1      31.494  27.208  23.714  1.00  0.00     0.010 C 
ATOM     20  C   UNL A   1      30.650  24.357  23.503  1.00  0.00     0.014 C 
ATOM     21  C   UNL A   1      30.225  26.704  24.378  1.00  0.00     0.014 C 
BRANCH  17  22
ATOM     22  C   UNL A   1      33.528  26.759  22.337  1.00  0.00     0.262 C 
BRANCH  22  23
ATOM     23  N   UNL A   1      33.698  28.090  21.774  1.00  0.00    -0.357 N 
ATOM     24  H   UNL A   1      34.598  28.471  22.068  1.00  0.00     0.344 HD
ATOM     25  H   UNL A   1      32.948  28.697  22.104  1.00  0.00     0.344 HD
ATOM     26  H   UNL A   1      33.668  28.036  20.756  1.00  0.00     0.344 HD
ENDBRANCH  22  23
ENDBRANCH  17  22
ENDBRANCH  13  16
ENDBRANCH  11  12
ENDBRANCH   6  11
ENDBRANCH   3   5
ENDBRANCH   2   3
ENDBRANCH   1   2
BRANCH   1  27
ATOM     27  C   UNL A   1      40.044  21.009  26.426  1.00  0.00     0.202 C 
BRANCH  27  28
ATOM     28  O   UNL A   1      41.221  21.169  25.638  1.00  0.00    -0.374 OA
BRANCH  28  29
ATOM     29  C   UNL A   1      42.417  20.575  26.150  1.00  0.00     0.202 C 
BRANCH  29  30
ATOM     30  C   UNL A   1      43.735  21.124  25.586  1.00  0.00     0.261 C 
BRANCH  30  31
ATOM     31  O   UNL A   1      44.064  22.408  26.149  1.00  0.00    -0.460 OA
BRANCH  31  32
ATOM     32  C   UNL A   1      43.571  23.478  25.482  1.00  0.00     0.338 C 
ATOM     33  O   UNL A   1      43.394  23.590  24.278  1.00  0.00    -0.246 OA
BRANCH  32  34
ATOM     34  C   UNL A   1      43.068  24.463  26.456  1.00  0.00     0.060 A 
ATOM     35  C   UNL A   1      43.624  25.749  26.436  1.00  0.00     0.016 A 
ATOM     36  C   UNL A   1      42.083  24.130  27.387  1.00  0.00     0.016 A 
ATOM     37  C   UNL A   1      43.206  26.707  27.358  1.00  0.00     0.010 A 
ATOM     38  C   UNL A   1      41.674  25.087  28.320  1.00  0.00     0.010 A 
ATOM     39  C   UNL A   1      42.243  26.373  28.320  1.00  0.00    -0.014 A 
BRANCH  39  40
ATOM     40  C   UNL A   1      41.881  27.338  29.385  1.00  0.00     0.031 A 
ATOM     41  C   UNL A   1      42.661  27.347  30.666  1.00  0.00     0.074 A 
ATOM     42  C   UNL A   1      40.855  28.187  29.211  1.00  0.00     0.049 A 
ATOM     43  N   UNL A   1      42.453  28.032  31.762  1.00  0.00    -0.248 NA
ATOM     44  C   UNL A   1      43.832  26.460  30.720  1.00  0.00     0.031 C 
ATOM     45  C   UNL A   1      40.056  28.305  27.993  1.00  0.00     0.029 A 
ATOM     46  N   UNL A   1      40.297  29.100  30.071  1.00  0.00    -0.354 N 
ATOM     47  C   UNL A   1      43.461  27.654  32.638  1.00  0.00     0.074 A 
ATOM     48  C   UNL A   1      44.262  26.657  31.958  1.00  0.00     0.031 C 
ATOM     49  C   UNL A   1      39.101  29.230  28.186  1.00  0.00     0.029 A 
ATOM     50  C   UNL A   1      39.192  29.732  29.556  1.00  0.00     0.049 A 
ATOM     51  H   UNL A   1      40.654  29.283  30.970  1.00  0.00     0.167 HD
ATOM     52  C   UNL A   1      43.700  28.105  33.894  1.00  0.00     0.037 A 
ATOM     53  C   UNL A   1      38.334  30.592  30.138  1.00  0.00     0.037 A 
ATOM     54  C   UNL A   1      42.889  29.087  34.566  1.00  0.00     0.049 A 
ATOM     55  C   UNL A   1      38.549  30.990  31.575  1.00  0.00     0.074 A 
ATOM     56  C   UNL A   1      43.058  29.630  35.827  1.00  0.00     0.029 A 
ATOM     57  N   UNL A   1      41.741  29.662  34.036  1.00  0.00    -0.354 N 
ATOM     58  N   UNL A   1      39.519  30.652  32.391  1.00  0.00    -0.248 NA
ATOM     59  C   UNL A   1      37.544  31.878  32.175  1.00  0.00     0.031 C 
ATOM     60  C   UNL A   1      41.978  30.482  36.086  1.00  0.00     0.029 A 
ATOM     61  C   UNL A   1      41.168  30.518  34.961  1.00  0.00     0.049 A 
ATOM     62  H   UNL A   1      41.389  29.487  33.133  1.00  0.00     0.167 HD
ATOM     63  C   UNL A   1      39.254  31.302  33.590  1.00  0.00     0.074 A 
ATOM     64  C   UNL A   1      38.040  32.066  33.390  1.00  0.00     0.031 C 
ATOM     65  C   UNL A   1      39.953  31.268  34.751  1.00  0.00     0.037 A 
BRANCH  52  66
ATOM     66  C   UNL A   1      44.861  27.505  34.634  1.00  0.00     0.064 A 
ATOM     67  C   UNL A   1      44.713  26.380  35.460  1.00  0.00     0.173 A 
ATOM     68  C   UNL A   1      46.146  28.057  34.505  1.00  0.00     0.173 A 
ATOM     69  F   UNL A   1      43.505  25.820  35.626  1.00  0.00    -0.203 F 
ATOM     70  C   UNL A   1      45.797  25.856  36.159  1.00  0.00     0.198 A 
ATOM     71  C   UNL A   1      47.234  27.509  35.180  1.00  0.00     0.198 A 
ATOM     72  F   UNL A   1      46.347  29.128  33.723  1.00  0.00    -0.203 F 
ATOM     73  F   UNL A   1      45.618  24.819  36.990  1.00  0.00    -0.200 F 
ATOM     74  C   UNL A   1      47.057  26.417  36.015  1.00  0.00     0.200 A 
ATOM     75  F   UNL A   1      48.453  28.044  35.027  1.00  0.00    -0.200 F 
ATOM     76  F   UNL A   1      48.099  25.911  36.689  1.00  0.00    -0.200 F 
ENDBRANCH  52  66
BRANCH  53  77
ATOM     77  C   UNL A   1      37.182  31.121  29.364  1.00  0.00     0.064 A 
ATOM     78  C   UNL A   1      37.152  32.457  28.943  1.00  0.00     0.173 A 
ATOM     79  C   UNL A   1      36.092  30.305  29.022  1.00  0.00     0.173 A 
ATOM     80  F   UNL A   1      38.158  33.283  29.267  1.00  0.00    -0.203 F 
ATOM     81  C   UNL A   1      36.075  32.959  28.216  1.00  0.00     0.198 A 
ATOM     82  C   UNL A   1      35.029  30.800  28.271  1.00  0.00     0.198 A 
ATOM     83  F   UNL A   1      36.070  29.020  29.404  1.00  0.00    -0.203 F 
ATOM     84  F   UNL A   1      36.055  34.249  27.856  1.00  0.00    -0.200 F 
ATOM     85  C   UNL A   1      35.018  32.128  27.873  1.00  0.00     0.200 A 
ATOM     86  F   UNL A   1      34.018  29.990  27.930  1.00  0.00    -0.200 F 
ATOM     87  F   UNL A   1      33.989  32.608  27.163  1.00  0.00    -0.200 F 
ENDBRANCH  53  77
BRANCH  65  88
ATOM     88  C   UNL A   1      39.433  32.089  35.897  1.00  0.00     0.064 A 
ATOM     89  C   UNL A   1      39.854  33.412  36.102  1.00  0.00     0.173 A 
ATOM     90  C   UNL A   1      38.461  31.569  36.766  1.00  0.00     0.173 A 
ATOM     91  F   UNL A   1      40.793  33.952  35.312  1.00  0.00    -0.203 F 
ATOM     92  C   UNL A   1      39.333  34.176  37.145  1.00  0.00     0.198 A 
ATOM     93  C   UNL A   1      37.920  32.345  37.787  1.00  0.00     0.198 A 
ATOM     94  F   UNL A   1      38.021  30.311  36.611  1.00  0.00    -0.203 F 
ATOM     95  F   UNL A   1      39.780  35.422  37.347  1.00  0.00    -0.200 F 
ATOM     96  C   UNL A   1      38.360  33.646  37.979  1.00  0.00     0.200 A 
ATOM     97  F   UNL A   1      36.970  31.836  38.582  1.00  0.00    -0.200 F 
ATOM     98  F   UNL A   1      37.850  34.387  38.971  1.00  0.00    -0.200 F 
ENDBRANCH  65  88
ENDBRANCH  39  40
ENDBRANCH  32  34
ENDBRANCH  31  32
ENDBRANCH  30  31
ENDBRANCH  29  30
ENDBRANCH  28  29
ENDBRANCH  27  28
ENDBRANCH   1  27
TORSDOF 19
ENDMDL
MODEL 3
REMARK VINA RESULT:     -10.8      0.708      2.141
REMARK SMILES [NH3+]C[C@H]1CC[C@@H](C(=O)NCc2ccc(C(=O)OCCOCCOC(=O)c3ccc(-c4c5nc(c(-c6c(F)c(F)c(F)c(F)c6F)c6ccc([nH]6)c(-c6c(F)c(F)c(F)c(F)c6F)c6nc(c(-c7c(F)c(F)c(F)c(F)c7F)c7ccc4[nH]7)C=C6)C=C5)cc3)cc2)CC1
REMARK SMILES IDX 18 1 17 2 15 3 16 4 14 5 11 6 12 7 90 8 13 9 89 10 10 11
REMARK SMILES IDX 9 12 7 13 8 14 6 16 3 17 4 18 92 19 5 20 91 21 2 22 1 23
REMARK SMILES IDX 19 27 20 28 21 29 22 30 23 31 24 32 25 33 26 34 27 35 88 36
REMARK SMILES IDX 28 37 87 38 29 39 30 40 31 41 81 42 32 43 86 44 80 45 82 46
REMARK SMILES IDX 33 47 85 48 79 49 78 50 34 52 66 53 46 54 65 55 47 56 50 57
REMARK SMILES IDX 64 58 83 59 48 60 49 61 63 63 84 64 51 65 35 66 36 67 44 68
REMARK SMILES IDX 37 69 38 70 42 71 45 72 39 73 40 74 43 75 41 76 67 77 68 78
REMARK SMILES IDX 76 79 69 80 70 81 74 82 77 83 71 84 72 85 75 86 73 87 52 88
REMARK SMILES IDX 53 89 61 90 54 91 55 92 59 93 62 94 56 95 57 96 60 97 58 98
REMARK H PARENT 9 15 1 24 1 25 1 26 82 51 50 62
REMARK Flexibility Score: inf
ROOT
ATOM      1  C   UNL A   1      40.038  22.185  26.929  1.00  0.00     0.261 C 
ENDROOT
BRANCH   1   2
ATOM      2  O   UNL A   1      38.851  22.130  26.128  1.00  0.00    -0.460 OA
BRANCH   2   3
ATOM      3  C   UNL A   1      38.172  23.303  26.075  1.00  0.00     0.338 C 
ATOM      4  O   UNL A   1      38.550  24.387  26.490  1.00  0.00    -0.246 OA
BRANCH   3   5
ATOM      5  C   UNL A   1      36.911  23.139  25.321  1.00  0.00     0.060 A 
ATOM      6  C   UNL A   1      34.586  23.005  23.750  1.00  0.00    -0.029 A 
ATOM      7  C   UNL A   1      35.847  22.952  23.149  1.00  0.00     0.006 A 
ATOM      8  C   UNL A   1      34.509  23.088  25.156  1.00  0.00     0.006 A 
ATOM      9  C   UNL A   1      37.001  23.031  23.929  1.00  0.00     0.016 A 
ATOM     10  C   UNL A   1      35.663  23.135  25.943  1.00  0.00     0.016 A 
BRANCH   6  11
ATOM     11  C   UNL A   1      33.298  22.996  22.961  1.00  0.00     0.151 C 
BRANCH  11  12
ATOM     12  N   UNL A   1      33.179  24.016  21.947  1.00  0.00    -0.352 N 
ATOM     13  C   UNL A   1      33.017  25.356  21.970  1.00  0.00     0.223 C 
ATOM     14  O   UNL A   1      33.068  25.908  20.862  1.00  0.00    -0.275 OA
ATOM     15  H   UNL A   1      33.226  23.652  21.033  1.00  0.00     0.163 HD
BRANCH  13  16
ATOM     16  C   UNL A   1      32.774  26.224  23.213  1.00  0.00     0.078 C 
ATOM     17  C   UNL A   1      30.052  27.288  23.972  1.00  0.00     0.044 C 
ATOM     18  C   UNL A   1      30.478  25.851  24.335  1.00  0.00     0.010 C 
ATOM     19  C   UNL A   1      30.925  27.981  22.905  1.00  0.00     0.010 C 
ATOM     20  C   UNL A   1      31.978  25.598  24.352  1.00  0.00     0.014 C 
ATOM     21  C   UNL A   1      32.412  27.682  22.964  1.00  0.00     0.014 C 
BRANCH  17  22
ATOM     22  C   UNL A   1      28.579  27.368  23.501  1.00  0.00     0.262 C 
BRANCH  22  23
ATOM     23  N   UNL A   1      27.702  26.327  24.014  1.00  0.00    -0.357 N 
ATOM     24  H   UNL A   1      27.557  25.619  23.294  1.00  0.00     0.344 HD
ATOM     25  H   UNL A   1      26.804  26.735  24.274  1.00  0.00     0.344 HD
ATOM     26  H   UNL A   1      28.129  25.895  24.834  1.00  0.00     0.344 HD
ENDBRANCH  22  23
ENDBRANCH  17  22
ENDBRANCH  13  16
ENDBRANCH  11  12
ENDBRANCH   6  11
ENDBRANCH   3   5
ENDBRANCH   2   3
ENDBRANCH   1   2
BRANCH   1  27
ATOM     27  C   UNL A   1      41.293  21.829  26.126  1.00  0.00     0.202 C 
BRANCH  27  28
ATOM     28  O   UNL A   1      42.197  20.904  26.725  1.00  0.00    -0.374 OA
BRANCH  28  29
ATOM     29  C   UNL A   1      41.920  19.516  26.518  1.00  0.00     0.202 C 
BRANCH  29  30
ATOM     30  C   UNL A   1      43.027  18.704  25.832  1.00  0.00     0.261 C 
BRANCH  30  31
ATOM     31  O   UNL A   1      43.344  19.228  24.529  1.00  0.00    -0.460 OA
BRANCH  31  32
ATOM     32  C   UNL A   1      44.653  19.498  24.314  1.00  0.00     0.338 C 
ATOM     33  O   UNL A   1      45.487  18.777  23.786  1.00  0.00    -0.246 OA
BRANCH  32  34
ATOM     34  C   UNL A   1      44.912  20.914  24.632  1.00  0.00     0.060 A 
ATOM     35  C   UNL A   1      45.539  21.209  25.850  1.00  0.00     0.016 A 
ATOM     36  C   UNL A   1      44.530  21.938  23.765  1.00  0.00     0.016 A 
ATOM     37  C   UNL A   1      45.777  22.533  26.213  1.00  0.00     0.010 A 
ATOM     38  C   UNL A   1      44.756  23.266  24.135  1.00  0.00     0.010 A 
ATOM     39  C   UNL A   1      45.366  23.571  25.365  1.00  0.00    -0.014 A 
BRANCH  39  40
ATOM     40  C   UNL A   1      45.496  24.983  25.793  1.00  0.00     0.031 A 
ATOM     41  C   UNL A   1      46.835  25.655  25.718  1.00  0.00     0.074 A 
ATOM     42  C   UNL A   1      44.428  25.653  26.260  1.00  0.00     0.049 A 
ATOM     43  N   UNL A   1      47.195  26.843  26.132  1.00  0.00    -0.248 NA
ATOM     44  C   UNL A   1      47.916  24.880  25.092  1.00  0.00     0.031 C 
ATOM     45  C   UNL A   1      43.069  25.122  26.334  1.00  0.00     0.029 A 
ATOM     46  N   UNL A   1      44.327  26.920  26.778  1.00  0.00    -0.354 N 
ATOM     47  C   UNL A   1      48.544  26.955  25.826  1.00  0.00     0.074 A 
ATOM     48  C   UNL A   1      48.946  25.703  25.219  1.00  0.00     0.031 C 
ATOM     49  C   UNL A   1      42.268  26.054  26.879  1.00  0.00     0.029 A 
ATOM     50  C   UNL A   1      43.068  27.225  27.234  1.00  0.00     0.049 A 
ATOM     51  H   UNL A   1      45.083  27.549  26.818  1.00  0.00     0.167 HD
ATOM     52  C   UNL A   1      49.370  28.011  26.027  1.00  0.00     0.037 A 
ATOM     53  C   UNL A   1      42.624  28.311  27.893  1.00  0.00     0.037 A 
ATOM     54  C   UNL A   1      48.962  29.247  26.645  1.00  0.00     0.049 A 
ATOM     55  C   UNL A   1      43.586  29.426  28.213  1.00  0.00     0.074 A 
ATOM     56  C   UNL A   1      49.713  30.387  26.873  1.00  0.00     0.029 A 
ATOM     57  N   UNL A   1      47.694  29.498  27.150  1.00  0.00    -0.354 N 
ATOM     58  N   UNL A   1      44.854  29.540  27.897  1.00  0.00    -0.248 NA
ATOM     59  C   UNL A   1      43.059  30.554  28.992  1.00  0.00     0.031 C 
ATOM     60  C   UNL A   1      48.919  31.301  27.575  1.00  0.00     0.029 A 
ATOM     61  C   UNL A   1      47.653  30.756  27.729  1.00  0.00     0.049 A 
ATOM     62  H   UNL A   1      46.934  28.874  27.101  1.00  0.00     0.167 HD
ATOM     63  C   UNL A   1      45.270  30.760  28.418  1.00  0.00     0.074 A 
ATOM     64  C   UNL A   1      44.114  31.355  29.056  1.00  0.00     0.031 C 
ATOM     65  C   UNL A   1      46.497  31.333  28.370  1.00  0.00     0.037 A 
BRANCH  52  66
ATOM     66  C   UNL A   1      50.805  27.855  25.612  1.00  0.00     0.064 A 
ATOM     67  C   UNL A   1      51.820  27.581  26.543  1.00  0.00     0.173 A 
ATOM     68  C   UNL A   1      51.169  27.967  24.261  1.00  0.00     0.173 A 
ATOM     69  F   UNL A   1      51.528  27.474  27.848  1.00  0.00    -0.203 F 
ATOM     70  C   UNL A   1      53.148  27.468  26.142  1.00  0.00     0.198 A 
ATOM     71  C   UNL A   1      52.495  27.820  23.860  1.00  0.00     0.198 A 
ATOM     72  F   UNL A   1      50.240  28.220  23.328  1.00  0.00    -0.203 F 
ATOM     73  F   UNL A   1      54.108  27.268  27.057  1.00  0.00    -0.200 F 
ATOM     74  C   UNL A   1      53.484  27.581  24.802  1.00  0.00     0.200 A 
ATOM     75  F   UNL A   1      52.815  27.915  22.562  1.00  0.00    -0.200 F 
ATOM     76  F   UNL A   1      54.764  27.472  24.418  1.00  0.00    -0.200 F 
ENDBRANCH  52  66
BRANCH  53  77
ATOM     77  C   UNL A   1      41.200  28.390  28.310  1.00  0.00     0.064 A 
ATOM     78  C   UNL A   1      40.225  28.905  27.445  1.00  0.00     0.173 A 
ATOM     79  C   UNL A   1      40.781  27.947  29.574  1.00  0.00     0.173 A 
ATOM     80  F   UNL A   1      40.580  29.366  26.237  1.00  0.00    -0.203 F 
ATOM     81  C   UNL A   1      38.888  28.981  27.830  1.00  0.00     0.198 A 
ATOM     82  C   UNL A   1      39.440  27.996  29.947  1.00  0.00     0.198 A 
ATOM     83  F   UNL A   1      41.675  27.447  30.441  1.00  0.00    -0.203 F 
ATOM     84  F   UNL A   1      37.982  29.511  26.997  1.00  0.00    -0.200 F 
ATOM     85  C   UNL A   1      38.495  28.517  29.077  1.00  0.00     0.200 A 
ATOM     86  F   UNL A   1      39.064  27.534  31.148  1.00  0.00    -0.200 F 
ATOM     87  F   UNL A   1      37.208  28.579  29.442  1.00  0.00    -0.200 F 
ENDBRANCH  53  77
BRANCH  65  88
ATOM     88  C   UNL A   1      46.657  32.681  29.015  1.00  0.00     0.064 A 
ATOM     89  C   UNL A   1      47.089  32.812  30.343  1.00  0.00     0.173 A 
ATOM     90  C   UNL A   1      46.432  33.856  28.280  1.00  0.00     0.173 A 
ATOM     91  F   UNL A   1      47.301  31.722  31.095  1.00  0.00    -0.203 F 
ATOM     92  C   UNL A   1      47.271  34.069  30.917  1.00  0.00     0.198 A 
ATOM     93  C   UNL A   1      46.647  35.110  28.846  1.00  0.00     0.198 A 
ATOM     94  F   UNL A   1      46.024  33.787  27.004  1.00  0.00    -0.203 F 
ATOM     95  F   UNL A   1      47.644  34.169  32.199  1.00  0.00    -0.200 F 
ATOM     96  C   UNL A   1      47.061  35.215  30.166  1.00  0.00     0.200 A 
ATOM     97  F   UNL A   1      46.457  36.215  28.114  1.00  0.00    -0.200 F 
ATOM     98  F   UNL A   1      47.253  36.422  30.714  1.00  0.00    -0.200 F 
ENDBRANCH  65  88
ENDBRANCH  39  40
ENDBRANCH  32  34
ENDBRANCH  31  32
ENDBRANCH  30  31
ENDBRANCH  29  30
ENDBRANCH  28  29
ENDBRANCH  27  28
ENDBRANCH   1  27
TORSDOF 19
ENDMDL
