MODEL 1
REMARK VINA RESULT:     -11.2      0.000      0.000
REMARK SMILES CCC[NH+]1CCC(NC(=O)NC2(CC(=O)OCCOCCOC(=O)c3ccc(-c4c5nc(c(-c6c(F)c(F)c(F)c(F)c6F)c6ccc([nH]6)c(-c6c(F)c(F)c(F)c(F)c6F)c6nc(c(-c7c(F)c(F)c(F)c(F)c7F)c7ccc4[nH]7)C=C6)C=C5)cc3)CCC2)CC1
REMARK SMILES IDX 17 1 16 2 14 3 15 4 13 5 12 6 88 7 90 8 89 9 11 10 8 11 9 12
REMARK SMILES IDX 10 14 7 16 4 17 5 18 92 19 6 21 91 22 3 23 2 24 1 25 18 26
REMARK SMILES IDX 19 27 20 28 21 29 22 30 23 31 24 32 25 33 26 34 87 35 27 36
REMARK SMILES IDX 86 37 28 38 29 39 30 40 80 41 31 42 85 43 79 44 81 45 32 46
REMARK SMILES IDX 84 47 78 48 77 49 33 51 65 52 45 53 64 54 46 55 49 56 63 57
REMARK SMILES IDX 82 58 47 59 48 60 62 62 83 63 50 64 34 65 35 66 43 67 36 68
REMARK SMILES IDX 37 69 41 70 44 71 38 72 39 73 42 74 40 75 66 76 67 77 75 78
REMARK SMILES IDX 68 79 69 80 73 81 76 82 70 83 71 84 74 85 72 86 51 87 52 88
REMARK SMILES IDX 60 89 53 90 54 91 58 92 61 93 55 94 56 95 59 96 57 97
REMARK H PARENT 8 13 11 15 4 20 81 50 49 61
REMARK Flexibility Score: inf
ROOT
ATOM      1  C   UNL A   1      33.737  27.898  21.891  1.00  0.00     0.261 C 
ENDROOT
BRANCH   1   2
ATOM      2  O   UNL A   1      33.893  26.470  21.948  1.00  0.00    -0.463 OA
BRANCH   2   3
ATOM      3  C   UNL A   1      32.988  25.738  21.255  1.00  0.00     0.308 C 
ATOM      4  O   UNL A   1      32.948  25.647  20.034  1.00  0.00    -0.252 OA
BRANCH   3   5
ATOM      5  C   UNL A   1      31.928  25.129  22.130  1.00  0.00     0.151 C 
BRANCH   5   6
ATOM      6  C   UNL A   1      32.313  24.244  23.345  1.00  0.00     0.052 C 
ATOM      7  C   UNL A   1      33.087  23.028  22.767  1.00  0.00     0.029 C 
ATOM      8  C   UNL A   1      31.218  23.273  23.852  1.00  0.00     0.029 C 
ATOM      9  C   UNL A   1      31.814  22.179  22.945  1.00  0.00     0.005 C 
BRANCH   6  10
ATOM     10  N   UNL A   1      33.092  25.033  24.346  1.00  0.00    -0.332 N 
ATOM     11  N   UNL A   1      33.905  23.742  26.208  1.00  0.00    -0.335 N 
ATOM     12  C   UNL A   1      33.662  24.887  25.557  1.00  0.00     0.315 C 
ATOM     13  H   UNL A   1      33.978  23.843  27.184  1.00  0.00     0.165 HD
ATOM     14  O   UNL A   1      33.993  25.933  26.128  1.00  0.00    -0.249 OA
ATOM     15  H   UNL A   1      33.236  25.948  24.015  1.00  0.00     0.165 HD
BRANCH  11  16
ATOM     16  C   UNL A   1      34.079  22.388  25.739  1.00  0.00     0.095 C 
ATOM     17  N   UNL A   1      34.642  19.594  25.327  1.00  0.00    -0.335 N 
ATOM     18  C   UNL A   1      35.615  20.630  24.976  1.00  0.00     0.264 C 
ATOM     19  C   UNL A   1      33.273  20.061  25.598  1.00  0.00     0.264 C 
ATOM     20  H   UNL A   1      34.989  19.270  26.230  1.00  0.00     0.348 HD
ATOM     21  C   UNL A   1      35.520  21.900  25.821  1.00  0.00     0.086 C 
ATOM     22  C   UNL A   1      33.201  21.353  26.425  1.00  0.00     0.086 C 
BRANCH  17  23
ATOM     23  C   UNL A   1      34.649  18.437  24.405  1.00  0.00     0.261 C 
BRANCH  23  24
ATOM     24  C   UNL A   1      33.795  17.188  24.729  1.00  0.00     0.058 C 
ATOM     25  C   UNL A   1      34.583  15.987  25.247  1.00  0.00     0.010 C 
ENDBRANCH  23  24
ENDBRANCH  17  23
ENDBRANCH  11  16
ENDBRANCH   6  10
ENDBRANCH   5   6
ENDBRANCH   3   5
ENDBRANCH   2   3
ENDBRANCH   1   2
BRANCH   1  26
ATOM     26  C   UNL A   1      33.481  28.485  23.279  1.00  0.00     0.202 C 
BRANCH  26  27
ATOM     27  O   UNL A   1      32.294  28.008  23.912  1.00  0.00    -0.374 OA
BRANCH  27  28
ATOM     28  C   UNL A   1      32.004  28.573  25.196  1.00  0.00     0.202 C 
BRANCH  28  29
ATOM     29  C   UNL A   1      32.707  29.902  25.468  1.00  0.00     0.261 C 
BRANCH  29  30
ATOM     30  O   UNL A   1      32.658  30.203  26.876  1.00  0.00    -0.460 OA
BRANCH  30  31
ATOM     31  C   UNL A   1      33.285  31.342  27.235  1.00  0.00     0.338 C 
ATOM     32  O   UNL A   1      32.810  32.468  27.299  1.00  0.00    -0.246 OA
BRANCH  31  33
ATOM     33  C   UNL A   1      34.633  31.031  27.740  1.00  0.00     0.060 A 
ATOM     34  C   UNL A   1      34.901  29.690  28.045  1.00  0.00     0.016 A 
ATOM     35  C   UNL A   1      35.596  32.019  27.971  1.00  0.00     0.016 A 
ATOM     36  C   UNL A   1      36.103  29.341  28.650  1.00  0.00     0.010 A 
ATOM     37  C   UNL A   1      36.803  31.667  28.584  1.00  0.00     0.010 A 
ATOM     38  C   UNL A   1      37.040  30.333  28.964  1.00  0.00    -0.014 A 
BRANCH  38  39
ATOM     39  C   UNL A   1      38.188  29.983  29.835  1.00  0.00     0.031 A 
ATOM     40  C   UNL A   1      39.245  29.056  29.305  1.00  0.00     0.074 A 
ATOM     41  C   UNL A   1      38.317  30.536  31.052  1.00  0.00     0.049 A 
ATOM     42  N   UNL A   1      40.343  28.632  29.877  1.00  0.00    -0.248 NA
ATOM     43  C   UNL A   1      39.036  28.538  27.944  1.00  0.00     0.031 C 
ATOM     44  C   UNL A   1      37.382  31.486  31.649  1.00  0.00     0.029 A 
ATOM     45  N   UNL A   1      39.295  30.380  32.001  1.00  0.00    -0.354 N 
ATOM     46  C   UNL A   1      40.954  27.800  28.948  1.00  0.00     0.074 A 
ATOM     47  C   UNL A   1      40.089  27.749  27.789  1.00  0.00     0.031 C 
ATOM     48  C   UNL A   1      37.832  31.833  32.866  1.00  0.00     0.029 A 
ATOM     49  C   UNL A   1      39.070  31.105  33.144  1.00  0.00     0.049 A 
ATOM     50  H   UNL A   1      40.083  29.803  31.875  1.00  0.00     0.167 HD
ATOM     51  C   UNL A   1      42.137  27.148  29.048  1.00  0.00     0.037 A 
ATOM     52  C   UNL A   1      39.779  31.162  34.288  1.00  0.00     0.037 A 
ATOM     53  C   UNL A   1      42.993  27.200  30.204  1.00  0.00     0.049 A 
ATOM     54  C   UNL A   1      41.044  30.356  34.410  1.00  0.00     0.074 A 
ATOM     55  C   UNL A   1      44.224  26.600  30.396  1.00  0.00     0.029 A 
ATOM     56  N   UNL A   1      42.696  27.888  31.373  1.00  0.00    -0.354 N 
ATOM     57  N   UNL A   1      41.631  29.594  33.520  1.00  0.00    -0.248 NA
ATOM     58  C   UNL A   1      41.743  30.415  35.702  1.00  0.00     0.031 C 
ATOM     59  C   UNL A   1      44.646  26.879  31.702  1.00  0.00     0.029 A 
ATOM     60  C   UNL A   1      43.702  27.694  32.305  1.00  0.00     0.049 A 
ATOM     61  H   UNL A   1      41.888  28.433  31.517  1.00  0.00     0.167 HD
ATOM     62  C   UNL A   1      42.772  29.096  34.133  1.00  0.00     0.074 A 
ATOM     63  C   UNL A   1      42.806  29.657  35.468  1.00  0.00     0.031 C 
ATOM     64  C   UNL A   1      43.709  28.250  33.636  1.00  0.00     0.037 A 
BRANCH  51  65
ATOM     65  C   UNL A   1      42.551  26.293  27.885  1.00  0.00     0.064 A 
ATOM     66  C   UNL A   1      43.416  26.769  26.889  1.00  0.00     0.173 A 
ATOM     67  C   UNL A   1      42.076  24.978  27.768  1.00  0.00     0.173 A 
ATOM     68  F   UNL A   1      43.887  28.024  26.947  1.00  0.00    -0.203 F 
ATOM     69  C   UNL A   1      43.762  25.971  25.800  1.00  0.00     0.198 A 
ATOM     70  C   UNL A   1      42.447  24.174  26.693  1.00  0.00     0.198 A 
ATOM     71  F   UNL A   1      41.249  24.472  28.696  1.00  0.00    -0.203 F 
ATOM     72  F   UNL A   1      44.545  26.467  24.830  1.00  0.00    -0.200 F 
ATOM     73  C   UNL A   1      43.281  24.674  25.705  1.00  0.00     0.200 A 
ATOM     74  F   UNL A   1      41.989  22.917  26.609  1.00  0.00    -0.200 F 
ATOM     75  F   UNL A   1      43.611  23.910  24.656  1.00  0.00    -0.200 F 
ENDBRANCH  51  65
BRANCH  52  76
ATOM     76  C   UNL A   1      39.299  32.011  35.407  1.00  0.00     0.064 A 
ATOM     77  C   UNL A   1      38.495  31.479  36.425  1.00  0.00     0.173 A 
ATOM     78  C   UNL A   1      39.645  33.368  35.489  1.00  0.00     0.173 A 
ATOM     79  F   UNL A   1      38.117  30.193  36.377  1.00  0.00    -0.203 F 
ATOM     80  C   UNL A   1      38.052  32.275  37.480  1.00  0.00     0.198 A 
ATOM     81  C   UNL A   1      39.223  34.156  36.558  1.00  0.00     0.198 A 
ATOM     82  F   UNL A   1      40.410  33.924  34.538  1.00  0.00    -0.203 F 
ATOM     83  F   UNL A   1      37.260  31.750  38.425  1.00  0.00    -0.200 F 
ATOM     84  C   UNL A   1      38.423  33.609  37.550  1.00  0.00     0.200 A 
ATOM     85  F   UNL A   1      39.593  35.441  36.627  1.00  0.00    -0.200 F 
ATOM     86  F   UNL A   1      38.007  34.370  38.571  1.00  0.00    -0.200 F 
ENDBRANCH  52  76
BRANCH  64  87
ATOM     87  C   UNL A   1      44.852  27.884  34.539  1.00  0.00     0.064 A 
ATOM     88  C   UNL A   1      46.012  28.669  34.606  1.00  0.00     0.173 A 
ATOM     89  C   UNL A   1      44.768  26.761  35.376  1.00  0.00     0.173 A 
ATOM     90  F   UNL A   1      46.146  29.743  33.814  1.00  0.00    -0.203 F 
ATOM     91  C   UNL A   1      47.057  28.329  35.461  1.00  0.00     0.198 A 
ATOM     92  C   UNL A   1      45.803  26.440  36.250  1.00  0.00     0.198 A 
ATOM     93  F   UNL A   1      43.677  25.980  35.354  1.00  0.00    -0.203 F 
ATOM     94  F   UNL A   1      48.174  29.068  35.476  1.00  0.00    -0.200 F 
ATOM     95  C   UNL A   1      46.948  27.221  36.288  1.00  0.00     0.200 A 
ATOM     96  F   UNL A   1      45.691  25.377  37.057  1.00  0.00    -0.200 F 
ATOM     97  F   UNL A   1      47.952  26.900  37.116  1.00  0.00    -0.200 F 
ENDBRANCH  64  87
ENDBRANCH  38  39
ENDBRANCH  31  33
ENDBRANCH  30  31
ENDBRANCH  29  30
ENDBRANCH  28  29
ENDBRANCH  27  28
ENDBRANCH  26  27
ENDBRANCH   1  26
TORSDOF 19
ENDMDL
MODEL 2
REMARK VINA RESULT:     -11.1      4.741      8.259
REMARK SMILES CCC[NH+]1CCC(NC(=O)NC2(CC(=O)OCCOCCOC(=O)c3ccc(-c4c5nc(c(-c6c(F)c(F)c(F)c(F)c6F)c6ccc([nH]6)c(-c6c(F)c(F)c(F)c(F)c6F)c6nc(c(-c7c(F)c(F)c(F)c(F)c7F)c7ccc4[nH]7)C=C6)C=C5)cc3)CCC2)CC1
REMARK SMILES IDX 17 1 16 2 14 3 15 4 13 5 12 6 88 7 90 8 89 9 11 10 8 11 9 12
REMARK SMILES IDX 10 14 7 16 4 17 5 18 92 19 6 21 91 22 3 23 2 24 1 25 18 26
REMARK SMILES IDX 19 27 20 28 21 29 22 30 23 31 24 32 25 33 26 34 87 35 27 36
REMARK SMILES IDX 86 37 28 38 29 39 30 40 80 41 31 42 85 43 79 44 81 45 32 46
REMARK SMILES IDX 84 47 78 48 77 49 33 51 65 52 45 53 64 54 46 55 49 56 63 57
REMARK SMILES IDX 82 58 47 59 48 60 62 62 83 63 50 64 34 65 35 66 43 67 36 68
REMARK SMILES IDX 37 69 41 70 44 71 38 72 39 73 42 74 40 75 66 76 67 77 75 78
REMARK SMILES IDX 68 79 69 80 73 81 76 82 70 83 71 84 74 85 72 86 51 87 52 88
REMARK SMILES IDX 60 89 53 90 54 91 58 92 61 93 55 94 56 95 59 96 57 97
REMARK H PARENT 8 13 11 15 4 20 81 50 49 61
REMARK Flexibility Score: inf
ROOT
ATOM      1  C   UNL A   1      36.107  23.263  26.129  1.00  0.00     0.261 C 
ENDROOT
BRANCH   1   2
ATOM      2  O   UNL A   1      35.283  22.091  26.258  1.00  0.00    -0.463 OA
BRANCH   2   3
ATOM      3  C   UNL A   1      33.972  22.303  26.521  1.00  0.00     0.308 C 
ATOM      4  O   UNL A   1      33.366  21.836  27.478  1.00  0.00    -0.252 OA
BRANCH   3   5
ATOM      5  C   UNL A   1      33.272  23.079  25.441  1.00  0.00     0.151 C 
BRANCH   5   6
ATOM      6  C   UNL A   1      31.935  22.573  24.840  1.00  0.00     0.052 C 
ATOM      7  C   UNL A   1      32.235  21.175  24.233  1.00  0.00     0.029 C 
ATOM      8  C   UNL A   1      31.591  23.086  23.418  1.00  0.00     0.029 C 
ATOM      9  C   UNL A   1      32.259  21.825  22.836  1.00  0.00     0.005 C 
BRANCH   6  10
ATOM     10  N   UNL A   1      30.861  22.561  25.877  1.00  0.00    -0.332 N 
ATOM     11  N   UNL A   1      30.374  24.720  26.823  1.00  0.00    -0.335 N 
ATOM     12  C   UNL A   1      30.276  23.386  26.767  1.00  0.00     0.315 C 
ATOM     13  H   UNL A   1      30.193  25.099  27.714  1.00  0.00     0.165 HD
ATOM     14  O   UNL A   1      29.573  22.842  27.626  1.00  0.00    -0.249 OA
ATOM     15  H   UNL A   1      30.450  21.668  25.926  1.00  0.00     0.165 HD
BRANCH  11  16
ATOM     16  C   UNL A   1      30.695  25.704  25.817  1.00  0.00     0.095 C 
ATOM     17  N   UNL A   1      30.872  27.939  24.008  1.00  0.00    -0.335 N 
ATOM     18  C   UNL A   1      30.154  26.716  23.645  1.00  0.00     0.264 C 
ATOM     19  C   UNL A   1      31.746  27.846  25.189  1.00  0.00     0.264 C 
ATOM     20  H   UNL A   1      30.113  28.556  24.295  1.00  0.00     0.348 HD
ATOM     21  C   UNL A   1      29.562  25.953  24.830  1.00  0.00     0.086 C 
ATOM     22  C   UNL A   1      31.142  27.054  26.358  1.00  0.00     0.086 C 
BRANCH  17  23
ATOM     23  C   UNL A   1      31.564  28.581  22.869  1.00  0.00     0.261 C 
BRANCH  23  24
ATOM     24  C   UNL A   1      33.060  28.953  22.987  1.00  0.00     0.058 C 
ATOM     25  C   UNL A   1      34.025  27.937  22.379  1.00  0.00     0.010 C 
ENDBRANCH  23  24
ENDBRANCH  17  23
ENDBRANCH  11  16
ENDBRANCH   6  10
ENDBRANCH   5   6
ENDBRANCH   3   5
ENDBRANCH   2   3
ENDBRANCH   1   2
BRANCH   1  26
ATOM     26  C   UNL A   1      37.152  23.088  25.027  1.00  0.00     0.202 C 
BRANCH  26  27
ATOM     27  O   UNL A   1      37.658  21.759  24.898  1.00  0.00    -0.374 OA
BRANCH  27  28
ATOM     28  C   UNL A   1      38.762  21.428  25.748  1.00  0.00     0.202 C 
BRANCH  28  29
ATOM     29  C   UNL A   1      39.304  20.013  25.547  1.00  0.00     0.261 C 
BRANCH  29  30
ATOM     30  O   UNL A   1      40.210  19.680  26.617  1.00  0.00    -0.460 OA
BRANCH  30  31
ATOM     31  C   UNL A   1      41.505  19.581  26.253  1.00  0.00     0.338 C 
ATOM     32  O   UNL A   1      42.054  18.639  25.697  1.00  0.00    -0.246 OA
BRANCH  31  33
ATOM     33  C   UNL A   1      42.179  20.875  26.452  1.00  0.00     0.060 A 
ATOM     34  C   UNL A   1      42.377  21.289  27.776  1.00  0.00     0.016 A 
ATOM     35  C   UNL A   1      42.557  21.698  25.386  1.00  0.00     0.016 A 
ATOM     36  C   UNL A   1      42.885  22.555  28.041  1.00  0.00     0.010 A 
ATOM     37  C   UNL A   1      43.064  22.974  25.654  1.00  0.00     0.010 A 
ATOM     38  C   UNL A   1      43.188  23.421  26.982  1.00  0.00    -0.014 A 
BRANCH  38  39
ATOM     39  C   UNL A   1      43.477  24.843  27.282  1.00  0.00     0.031 A 
ATOM     40  C   UNL A   1      44.836  25.393  26.953  1.00  0.00     0.074 A 
ATOM     41  C   UNL A   1      42.521  25.647  27.778  1.00  0.00     0.049 A 
ATOM     42  N   UNL A   1      45.302  26.607  27.105  1.00  0.00    -0.248 NA
ATOM     43  C   UNL A   1      45.800  24.446  26.372  1.00  0.00     0.031 C 
ATOM     44  C   UNL A   1      41.154  25.236  28.087  1.00  0.00     0.029 A 
ATOM     45  N   UNL A   1      42.557  26.979  28.100  1.00  0.00    -0.354 N 
ATOM     46  C   UNL A   1      46.610  26.568  26.639  1.00  0.00     0.074 A 
ATOM     47  C   UNL A   1      46.877  25.205  26.233  1.00  0.00     0.031 C 
ATOM     48  C   UNL A   1      40.477  26.298  28.555  1.00  0.00     0.029 A 
ATOM     49  C   UNL A   1      41.372  27.452  28.605  1.00  0.00     0.049 A 
ATOM     50  H   UNL A   1      43.356  27.542  27.982  1.00  0.00     0.167 HD
ATOM     51  C   UNL A   1      47.503  27.582  26.547  1.00  0.00     0.037 A 
ATOM     52  C   UNL A   1      41.055  28.677  29.067  1.00  0.00     0.037 A 
ATOM     53  C   UNL A   1      47.234  28.936  26.954  1.00  0.00     0.049 A 
ATOM     54  C   UNL A   1      42.095  29.767  29.039  1.00  0.00     0.074 A 
ATOM     55  C   UNL A   1      48.059  30.043  26.877  1.00  0.00     0.029 A 
ATOM     56  N   UNL A   1      46.045  29.363  27.530  1.00  0.00    -0.354 N 
ATOM     57  N   UNL A   1      43.319  29.731  28.573  1.00  0.00    -0.248 NA
ATOM     58  C   UNL A   1      41.707  31.065  29.608  1.00  0.00     0.031 C 
ATOM     59  C   UNL A   1      47.390  31.128  27.456  1.00  0.00     0.029 A 
ATOM     60  C   UNL A   1      46.129  30.708  27.849  1.00  0.00     0.049 A 
ATOM     61  H   UNL A   1      45.257  28.792  27.688  1.00  0.00     0.167 HD
ATOM     62  C   UNL A   1      43.843  31.001  28.776  1.00  0.00     0.074 A 
ATOM     63  C   UNL A   1      42.796  31.790  29.392  1.00  0.00     0.031 C 
ATOM     64  C   UNL A   1      45.080  31.472  28.478  1.00  0.00     0.037 A 
BRANCH  51  65
ATOM     65  C   UNL A   1      48.868  27.249  26.016  1.00  0.00     0.064 A 
ATOM     66  C   UNL A   1      49.178  27.360  24.652  1.00  0.00     0.173 A 
ATOM     67  C   UNL A   1      49.880  26.815  26.885  1.00  0.00     0.173 A 
ATOM     68  F   UNL A   1      48.242  27.758  23.777  1.00  0.00    -0.203 F 
ATOM     69  C   UNL A   1      50.441  27.015  24.174  1.00  0.00     0.198 A 
ATOM     70  C   UNL A   1      51.149  26.498  26.408  1.00  0.00     0.198 A 
ATOM     71  F   UNL A   1      49.637  26.695  28.200  1.00  0.00    -0.203 F 
ATOM     72  F   UNL A   1      50.697  27.075  22.860  1.00  0.00    -0.200 F 
ATOM     73  C   UNL A   1      51.425  26.589  25.052  1.00  0.00     0.200 A 
ATOM     74  F   UNL A   1      52.102  26.096  27.260  1.00  0.00    -0.200 F 
ATOM     75  F   UNL A   1      52.638  26.253  24.591  1.00  0.00    -0.200 F 
ENDBRANCH  51  65
BRANCH  52  76
ATOM     76  C   UNL A   1      39.693  28.932  29.600  1.00  0.00     0.064 A 
ATOM     77  C   UNL A   1      39.383  28.678  30.943  1.00  0.00     0.173 A 
ATOM     78  C   UNL A   1      38.677  29.444  28.780  1.00  0.00     0.173 A 
ATOM     79  F   UNL A   1      40.314  28.164  31.760  1.00  0.00    -0.203 F 
ATOM     80  C   UNL A   1      38.106  28.925  31.444  1.00  0.00     0.198 A 
ATOM     81  C   UNL A   1      37.408  29.714  29.289  1.00  0.00     0.198 A 
ATOM     82  F   UNL A   1      38.923  29.701  27.487  1.00  0.00    -0.203 F 
ATOM     83  F   UNL A   1      37.827  28.646  32.725  1.00  0.00    -0.200 F 
ATOM     84  C   UNL A   1      37.123  29.450  30.619  1.00  0.00     0.200 A 
ATOM     85  F   UNL A   1      36.465  30.232  28.490  1.00  0.00    -0.200 F 
ATOM     86  F   UNL A   1      35.899  29.698  31.106  1.00  0.00    -0.200 F 
ENDBRANCH  52  76
BRANCH  64  87
ATOM     87  C   UNL A   1      45.366  32.908  28.812  1.00  0.00     0.064 A 
ATOM     88  C   UNL A   1      45.971  33.270  30.023  1.00  0.00     0.173 A 
ATOM     89  C   UNL A   1      45.070  33.927  27.893  1.00  0.00     0.173 A 
ATOM     90  F   UNL A   1      46.258  32.334  30.941  1.00  0.00    -0.203 F 
ATOM     91  C   UNL A   1      46.249  34.603  30.314  1.00  0.00     0.198 A 
ATOM     92  C   UNL A   1      45.376  35.255  28.175  1.00  0.00     0.198 A 
ATOM     93  F   UNL A   1      44.496  33.632  26.717  1.00  0.00    -0.203 F 
ATOM     94  F   UNL A   1      46.787  34.931  31.496  1.00  0.00    -0.200 F 
ATOM     95  C   UNL A   1      45.958  35.593  29.387  1.00  0.00     0.200 A 
ATOM     96  F   UNL A   1      45.106  36.209  27.274  1.00  0.00    -0.200 F 
ATOM     97  F   UNL A   1      46.234  36.875  29.665  1.00  0.00    -0.200 F 
ENDBRANCH  64  87
ENDBRANCH  38  39
ENDBRANCH  31  33
ENDBRANCH  30  31
ENDBRANCH  29  30
ENDBRANCH  28  29
ENDBRANCH  27  28
ENDBRANCH  26  27
ENDBRANCH   1  26
TORSDOF 19
ENDMDL
MODEL 3
REMARK VINA RESULT:     -10.9      2.052      8.164
REMARK SMILES CCC[NH+]1CCC(NC(=O)NC2(CC(=O)OCCOCCOC(=O)c3ccc(-c4c5nc(c(-c6c(F)c(F)c(F)c(F)c6F)c6ccc([nH]6)c(-c6c(F)c(F)c(F)c(F)c6F)c6nc(c(-c7c(F)c(F)c(F)c(F)c7F)c7ccc4[nH]7)C=C6)C=C5)cc3)CCC2)CC1
REMARK SMILES IDX 17 1 16 2 14 3 15 4 13 5 12 6 88 7 90 8 89 9 11 10 8 11 9 12
REMARK SMILES IDX 10 14 7 16 4 17 5 18 92 19 6 21 91 22 3 23 2 24 1 25 18 26
REMARK SMILES IDX 19 27 20 28 21 29 22 30 23 31 24 32 25 33 26 34 87 35 27 36
REMARK SMILES IDX 86 37 28 38 29 39 30 40 80 41 31 42 85 43 79 44 81 45 32 46
REMARK SMILES IDX 84 47 78 48 77 49 33 51 65 52 45 53 64 54 46 55 49 56 63 57
REMARK SMILES IDX 82 58 47 59 48 60 62 62 83 63 50 64 34 65 35 66 43 67 36 68
REMARK SMILES IDX 37 69 41 70 44 71 38 72 39 73 42 74 40 75 66 76 67 77 75 78
REMARK SMILES IDX 68 79 69 80 73 81 76 82 70 83 71 84 74 85 72 86 51 87 52 88
REMARK SMILES IDX 60 89 53 90 54 91 58 92 61 93 55 94 56 95 59 96 57 97
REMARK H PARENT 8 13 11 15 4 20 81 50 49 61
REMARK Flexibility Score: inf
ROOT
ATOM      1  C   UNL A   1      31.771  28.732  27.167  1.00  0.00     0.261 C 
ENDROOT
BRANCH   1   2
ATOM      2  O   UNL A   1      32.680  27.654  27.451  1.00  0.00    -0.463 OA
BRANCH   2   3
ATOM      3  C   UNL A   1      33.137  26.956  26.384  1.00  0.00     0.308 C 
ATOM      4  O   UNL A   1      34.234  27.112  25.863  1.00  0.00    -0.252 OA
BRANCH   3   5
ATOM      5  C   UNL A   1      32.104  26.036  25.797  1.00  0.00     0.151 C 
BRANCH   5   6
ATOM      6  C   UNL A   1      32.400  24.524  25.613  1.00  0.00     0.052 C 
ATOM      7  C   UNL A   1      31.146  23.917  24.926  1.00  0.00     0.029 C 
ATOM      8  C   UNL A   1      32.129  23.623  26.844  1.00  0.00     0.029 C 
ATOM      9  C   UNL A   1      30.716  23.350  26.292  1.00  0.00     0.005 C 
BRANCH   6  10
ATOM     10  N   UNL A   1      33.664  24.325  24.843  1.00  0.00    -0.332 N 
ATOM     11  N   UNL A   1      33.667  25.344  22.662  1.00  0.00    -0.335 N 
ATOM     12  C   UNL A   1      34.173  24.553  23.617  1.00  0.00     0.315 C 
ATOM     13  H   UNL A   1      33.956  25.108  21.751  1.00  0.00     0.165 HD
ATOM     14  O   UNL A   1      35.225  23.961  23.350  1.00  0.00    -0.249 OA
ATOM     15  H   UNL A   1      34.339  23.889  25.412  1.00  0.00     0.165 HD
BRANCH  11  16
ATOM     16  C   UNL A   1      32.776  26.477  22.725  1.00  0.00     0.095 C 
ATOM     17  N   UNL A   1      31.155  28.821  22.304  1.00  0.00    -0.335 N 
ATOM     18  C   UNL A   1      32.513  28.917  22.841  1.00  0.00     0.264 C 
ATOM     19  C   UNL A   1      30.561  27.474  22.290  1.00  0.00     0.264 C 
ATOM     20  H   UNL A   1      31.295  29.052  21.321  1.00  0.00     0.348 HD
ATOM     21  C   UNL A   1      33.453  27.799  22.389  1.00  0.00     0.086 C 
ATOM     22  C   UNL A   1      31.530  26.364  21.859  1.00  0.00     0.086 C 
BRANCH  17  23
ATOM     23  C   UNL A   1      30.222  29.820  22.869  1.00  0.00     0.261 C 
BRANCH  23  24
ATOM     24  C   UNL A   1      29.191  30.517  21.950  1.00  0.00     0.058 C 
ATOM     25  C   UNL A   1      27.738  30.110  22.190  1.00  0.00     0.010 C 
ENDBRANCH  23  24
ENDBRANCH  17  23
ENDBRANCH  11  16
ENDBRANCH   6  10
ENDBRANCH   5   6
ENDBRANCH   3   5
ENDBRANCH   2   3
ENDBRANCH   1   2
BRANCH   1  26
ATOM     26  C   UNL A   1      32.524  30.023  26.846  1.00  0.00     0.202 C 
BRANCH  26  27
ATOM     27  O   UNL A   1      31.786  30.957  26.058  1.00  0.00    -0.374 OA
BRANCH  27  28
ATOM     28  C   UNL A   1      31.178  32.035  26.778  1.00  0.00     0.202 C 
BRANCH  28  29
ATOM     29  C   UNL A   1      32.036  33.297  26.856  1.00  0.00     0.261 C 
BRANCH  29  30
ATOM     30  O   UNL A   1      32.605  33.421  28.175  1.00  0.00    -0.460 OA
BRANCH  30  31
ATOM     31  C   UNL A   1      33.684  34.226  28.253  1.00  0.00     0.338 C 
ATOM     32  O   UNL A   1      33.706  35.450  28.238  1.00  0.00    -0.246 OA
BRANCH  31  33
ATOM     33  C   UNL A   1      34.883  33.425  28.555  1.00  0.00     0.060 A 
ATOM     34  C   UNL A   1      34.674  32.161  29.122  1.00  0.00     0.016 A 
ATOM     35  C   UNL A   1      36.180  33.907  28.350  1.00  0.00     0.016 A 
ATOM     36  C   UNL A   1      35.757  31.405  29.555  1.00  0.00     0.010 A 
ATOM     37  C   UNL A   1      37.268  33.146  28.791  1.00  0.00     0.010 A 
ATOM     38  C   UNL A   1      37.056  31.913  29.434  1.00  0.00    -0.014 A 
BRANCH  38  39
ATOM     39  C   UNL A   1      38.164  31.218  30.130  1.00  0.00     0.031 A 
ATOM     40  C   UNL A   1      38.421  31.528  31.578  1.00  0.00     0.074 A 
ATOM     41  C   UNL A   1      38.887  30.277  29.499  1.00  0.00     0.049 A 
ATOM     42  N   UNL A   1      39.316  31.026  32.391  1.00  0.00    -0.248 NA
ATOM     43  C   UNL A   1      37.548  32.540  32.193  1.00  0.00     0.031 C 
ATOM     44  C   UNL A   1      38.695  29.858  28.113  1.00  0.00     0.029 A 
ATOM     45  N   UNL A   1      39.923  29.501  29.948  1.00  0.00    -0.354 N 
ATOM     46  C   UNL A   1      39.113  31.661  33.610  1.00  0.00     0.074 A 
ATOM     47  C   UNL A   1      38.036  32.609  33.422  1.00  0.00     0.031 C 
ATOM     48  C   UNL A   1      39.585  28.895  27.823  1.00  0.00     0.029 A 
ATOM     49  C   UNL A   1      40.428  28.654  28.993  1.00  0.00     0.049 A 
ATOM     50  H   UNL A   1      40.273  29.546  30.868  1.00  0.00     0.167 HD
ATOM     51  C   UNL A   1      39.759  31.460  34.783  1.00  0.00     0.037 A 
ATOM     52  C   UNL A   1      41.462  27.794  29.057  1.00  0.00     0.037 A 
ATOM     53  C   UNL A   1      40.831  30.517  34.964  1.00  0.00     0.049 A 
ATOM     54  C   UNL A   1      42.225  27.654  30.348  1.00  0.00     0.074 A 
ATOM     55  C   UNL A   1      41.533  30.216  36.117  1.00  0.00     0.029 A 
ATOM     56  N   UNL A   1      41.365  29.728  33.954  1.00  0.00    -0.354 N 
ATOM     57  N   UNL A   1      42.012  28.235  31.503  1.00  0.00    -0.248 NA
ATOM     58  C   UNL A   1      43.377  26.742  30.339  1.00  0.00     0.031 C 
ATOM     59  C   UNL A   1      42.528  29.286  35.792  1.00  0.00     0.029 A 
ATOM     60  C   UNL A   1      42.413  28.971  34.448  1.00  0.00     0.049 A 
ATOM     61  H   UNL A   1      41.044  29.711  33.023  1.00  0.00     0.167 HD
ATOM     62  C   UNL A   1      42.988  27.750  32.363  1.00  0.00     0.074 A 
ATOM     63  C   UNL A   1      43.785  26.812  31.599  1.00  0.00     0.031 C 
ATOM     64  C   UNL A   1      43.205  28.052  33.667  1.00  0.00     0.037 A 
BRANCH  51  65
ATOM     65  C   UNL A   1      39.342  32.307  35.951  1.00  0.00     0.064 A 
ATOM     66  C   UNL A   1      38.372  31.875  36.868  1.00  0.00     0.173 A 
ATOM     67  C   UNL A   1      39.923  33.568  36.155  1.00  0.00     0.173 A 
ATOM     68  F   UNL A   1      37.776  30.684  36.710  1.00  0.00    -0.203 F 
ATOM     69  C   UNL A   1      37.975  32.690  37.927  1.00  0.00     0.198 A 
ATOM     70  C   UNL A   1      39.544  34.367  37.230  1.00  0.00     0.198 A 
ATOM     71  F   UNL A   1      40.858  34.026  35.309  1.00  0.00    -0.203 F 
ATOM     72  F   UNL A   1      37.006  32.281  38.758  1.00  0.00    -0.200 F 
ATOM     73  C   UNL A   1      38.563  33.932  38.109  1.00  0.00     0.200 A 
ATOM     74  F   UNL A   1      40.121  35.563  37.410  1.00  0.00    -0.200 F 
ATOM     75  F   UNL A   1      38.177  34.716  39.125  1.00  0.00    -0.200 F 
ENDBRANCH  51  65
BRANCH  52  76
ATOM     76  C   UNL A   1      41.835  27.003  27.857  1.00  0.00     0.064 A 
ATOM     77  C   UNL A   1      41.292  25.730  27.633  1.00  0.00     0.173 A 
ATOM     78  C   UNL A   1      42.732  27.509  26.905  1.00  0.00     0.173 A 
ATOM     79  F   UNL A   1      40.450  25.194  28.528  1.00  0.00    -0.203 F 
ATOM     80  C   UNL A   1      41.637  24.992  26.502  1.00  0.00     0.198 A 
ATOM     81  C   UNL A   1      43.055  26.780  25.762  1.00  0.00     0.198 A 
ATOM     82  F   UNL A   1      43.280  28.721  27.075  1.00  0.00    -0.203 F 
ATOM     83  F   UNL A   1      41.127  23.765  26.325  1.00  0.00    -0.200 F 
ATOM     84  C   UNL A   1      42.510  25.521  25.564  1.00  0.00     0.200 A 
ATOM     85  F   UNL A   1      43.891  27.300  24.853  1.00  0.00    -0.200 F 
ATOM     86  F   UNL A   1      42.831  24.815  24.471  1.00  0.00    -0.200 F 
ENDBRANCH  52  76
BRANCH  64  87
ATOM     87  C   UNL A   1      44.348  27.360  34.351  1.00  0.00     0.064 A 
ATOM     88  C   UNL A   1      45.626  27.935  34.405  1.00  0.00     0.173 A 
ATOM     89  C   UNL A   1      44.154  26.128  34.995  1.00  0.00     0.173 A 
ATOM     90  F   UNL A   1      45.866  29.103  33.791  1.00  0.00    -0.203 F 
ATOM     91  C   UNL A   1      46.673  27.292  35.060  1.00  0.00     0.198 A 
ATOM     92  C   UNL A   1      45.196  25.501  35.672  1.00  0.00     0.198 A 
ATOM     93  F   UNL A   1      42.949  25.538  34.978  1.00  0.00    -0.203 F 
ATOM     94  F   UNL A   1      47.896  27.839  35.060  1.00  0.00    -0.200 F 
ATOM     95  C   UNL A   1      46.455  26.080  35.698  1.00  0.00     0.200 A 
ATOM     96  F   UNL A   1      44.982  24.337  36.300  1.00  0.00    -0.200 F 
ATOM     97  F   UNL A   1      47.464  25.466  36.334  1.00  0.00    -0.200 F 
ENDBRANCH  64  87
ENDBRANCH  38  39
ENDBRANCH  31  33
ENDBRANCH  30  31
ENDBRANCH  29  30
ENDBRANCH  28  29
ENDBRANCH  27  28
ENDBRANCH  26  27
ENDBRANCH   1  26
TORSDOF 19
ENDMDL
