MODEL 1
REMARK VINA RESULT:     -11.4      0.000      0.000
REMARK SMILES CCc1cccc(OCC(=O)N/N=C/c2ccc(C(=O)OCCOCCOC(=O)c3ccc(-c4c5nc(c(-c6c(F)c(F)c(F)c(F)c6F)c6ccc([nH]6)c(-c6c(F)c(F)c(F)c(F)c6F)c6nc(c(-c7c(F)c(F)c(F)c(F)c7F)c7ccc4[nH]7)C=C6)C=C5)cc3)cc2)c1
REMARK SMILES IDX 22 1 21 2 19 3 20 4 18 5 15 6 16 7 94 8 17 9 93 10 14 11
REMARK SMILES IDX 13 12 12 13 10 14 11 15 9 17 8 18 7 19 3 20 4 21 95 22 5 23
REMARK SMILES IDX 6 24 2 25 1 26 23 27 24 28 25 29 26 30 27 31 28 32 29 33
REMARK SMILES IDX 30 34 31 35 92 36 32 37 91 38 33 39 34 40 35 41 85 42 36 43
REMARK SMILES IDX 90 44 84 45 86 46 37 47 89 48 83 49 82 50 38 52 70 53 50 54
REMARK SMILES IDX 69 55 51 56 54 57 68 58 87 59 52 60 53 61 67 63 88 64 55 65
REMARK SMILES IDX 39 66 40 67 48 68 41 69 42 70 46 71 49 72 43 73 44 74 47 75
REMARK SMILES IDX 45 76 71 77 72 78 80 79 73 80 74 81 78 82 81 83 75 84 76 85
REMARK SMILES IDX 79 86 77 87 56 88 57 89 65 90 58 91 59 92 63 93 66 94 60 95
REMARK SMILES IDX 61 96 64 97 62 98
REMARK H PARENT 12 16 86 51 54 62
REMARK Flexibility Score: inf
ROOT
ATOM      1  C   UNL A   1      34.081  34.253  28.262  1.00  0.00     0.261 C 
ENDROOT
BRANCH   1   2
ATOM      2  O   UNL A   1      33.528  32.956  27.982  1.00  0.00    -0.460 OA
BRANCH   2   3
ATOM      3  C   UNL A   1      34.437  32.009  27.648  1.00  0.00     0.338 C 
ATOM      4  O   UNL A   1      35.646  32.055  27.822  1.00  0.00    -0.246 OA
BRANCH   3   5
ATOM      5  C   UNL A   1      33.745  30.786  27.187  1.00  0.00     0.060 A 
ATOM      6  C   UNL A   1      32.578  28.415  26.333  1.00  0.00    -0.005 A 
ATOM      7  C   UNL A   1      33.949  28.449  26.587  1.00  0.00     0.010 A 
ATOM      8  C   UNL A   1      31.777  29.546  26.514  1.00  0.00     0.010 A 
ATOM      9  C   UNL A   1      34.535  29.642  26.996  1.00  0.00     0.016 A 
ATOM     10  C   UNL A   1      32.361  30.734  26.965  1.00  0.00     0.016 A 
BRANCH   6  11
ATOM     11  C   UNL A   1      32.008  27.143  25.871  1.00  0.00     0.141 C 
ATOM     12  N   UNL A   1      31.151  27.112  24.912  1.00  0.00    -0.181 NA
BRANCH  12  13
ATOM     13  N   UNL A   1      30.690  25.941  24.388  1.00  0.00    -0.244 N 
ATOM     14  C   UNL A   1      31.100  25.117  23.373  1.00  0.00     0.277 C 
ATOM     15  O   UNL A   1      30.415  24.113  23.133  1.00  0.00    -0.269 OA
ATOM     16  H   UNL A   1      29.880  25.614  24.842  1.00  0.00     0.193 HD
BRANCH  14  17
ATOM     17  C   UNL A   1      32.368  25.366  22.555  1.00  0.00     0.331 C 
BRANCH  17  18
ATOM     18  O   UNL A   1      33.179  24.240  22.258  1.00  0.00    -0.484 OA
BRANCH  18  19
ATOM     19  C   UNL A   1      33.833  23.642  23.301  1.00  0.00     0.120 A 
ATOM     20  C   UNL A   1      34.556  21.762  24.685  1.00  0.00    -0.045 A 
ATOM     21  C   UNL A   1      35.243  22.656  25.513  1.00  0.00     0.004 A 
ATOM     22  C   UNL A   1      33.840  22.276  23.587  1.00  0.00     0.050 A 
ATOM     23  C   UNL A   1      35.233  24.024  25.239  1.00  0.00     0.004 A 
ATOM     24  C   UNL A   1      34.530  24.513  24.138  1.00  0.00     0.046 A 
BRANCH  20  25
ATOM     25  C   UNL A   1      34.490  20.273  24.938  1.00  0.00     0.032 C 
ATOM     26  C   UNL A   1      33.293  19.774  25.736  1.00  0.00     0.009 C 
ENDBRANCH  20  25
ENDBRANCH  18  19
ENDBRANCH  17  18
ENDBRANCH  14  17
ENDBRANCH  12  13
ENDBRANCH   6  11
ENDBRANCH   3   5
ENDBRANCH   2   3
ENDBRANCH   1   2
BRANCH   1  27
ATOM     27  C   UNL A   1      33.121  35.091  29.110  1.00  0.00     0.202 C 
BRANCH  27  28
ATOM     28  O   UNL A   1      33.306  35.011  30.522  1.00  0.00    -0.374 OA
BRANCH  28  29
ATOM     29  C   UNL A   1      34.515  34.404  30.983  1.00  0.00     0.202 C 
BRANCH  29  30
ATOM     30  C   UNL A   1      34.416  33.630  32.303  1.00  0.00     0.261 C 
BRANCH  30  31
ATOM     31  O   UNL A   1      35.005  32.320  32.196  1.00  0.00    -0.460 OA
BRANCH  31  32
ATOM     32  C   UNL A   1      36.130  32.136  32.922  1.00  0.00     0.338 C 
ATOM     33  O   UNL A   1      36.297  32.370  34.111  1.00  0.00    -0.246 OA
BRANCH  32  34
ATOM     34  C   UNL A   1      37.134  31.420  32.113  1.00  0.00     0.060 A 
ATOM     35  C   UNL A   1      38.209  30.828  32.789  1.00  0.00     0.016 A 
ATOM     36  C   UNL A   1      37.062  31.379  30.719  1.00  0.00     0.016 A 
ATOM     37  C   UNL A   1      39.243  30.234  32.069  1.00  0.00     0.010 A 
ATOM     38  C   UNL A   1      38.104  30.789  29.998  1.00  0.00     0.010 A 
ATOM     39  C   UNL A   1      39.215  30.244  30.668  1.00  0.00    -0.014 A 
BRANCH  39  40
ATOM     40  C   UNL A   1      40.410  29.807  29.905  1.00  0.00     0.031 A 
ATOM     41  C   UNL A   1      41.514  30.796  29.652  1.00  0.00     0.074 A 
ATOM     42  C   UNL A   1      40.519  28.544  29.461  1.00  0.00     0.049 A 
ATOM     43  N   UNL A   1      42.622  30.650  28.972  1.00  0.00    -0.248 NA
ATOM     44  C   UNL A   1      41.342  32.133  30.244  1.00  0.00     0.031 C 
ATOM     45  C   UNL A   1      39.534  27.486  29.677  1.00  0.00     0.029 A 
ATOM     46  N   UNL A   1      41.508  27.940  28.726  1.00  0.00    -0.354 N 
ATOM     47  C   UNL A   1      43.275  31.873  29.047  1.00  0.00     0.074 A 
ATOM     48  C   UNL A   1      42.426  32.761  29.813  1.00  0.00     0.031 C 
ATOM     49  C   UNL A   1      39.963  26.363  29.076  1.00  0.00     0.029 A 
ATOM     50  C   UNL A   1      41.234  26.634  28.406  1.00  0.00     0.049 A 
ATOM     51  H   UNL A   1      42.335  28.400  28.454  1.00  0.00     0.167 HD
ATOM     52  C   UNL A   1      44.478  32.221  28.530  1.00  0.00     0.037 A 
ATOM     53  C   UNL A   1      41.923  25.764  27.642  1.00  0.00     0.037 A 
ATOM     54  C   UNL A   1      45.321  31.335  27.772  1.00  0.00     0.049 A 
ATOM     55  C   UNL A   1      43.228  26.196  27.022  1.00  0.00     0.074 A 
ATOM     56  C   UNL A   1      46.566  31.587  27.224  1.00  0.00     0.029 A 
ATOM     57  N   UNL A   1      44.999  30.025  27.449  1.00  0.00    -0.354 N 
ATOM     58  N   UNL A   1      43.850  27.345  27.119  1.00  0.00    -0.248 NA
ATOM     59  C   UNL A   1      43.926  25.206  26.189  1.00  0.00     0.031 C 
ATOM     60  C   UNL A   1      46.975  30.446  26.525  1.00  0.00     0.029 A 
ATOM     61  C   UNL A   1      46.011  29.464  26.686  1.00  0.00     0.049 A 
ATOM     62  H   UNL A   1      44.173  29.562  27.721  1.00  0.00     0.167 HD
ATOM     63  C   UNL A   1      45.025  27.207  26.391  1.00  0.00     0.074 A 
ATOM     64  C   UNL A   1      45.033  25.859  25.865  1.00  0.00     0.031 C 
ATOM     65  C   UNL A   1      46.010  28.115  26.181  1.00  0.00     0.037 A 
BRANCH  52  66
ATOM     66  C   UNL A   1      44.944  33.631  28.748  1.00  0.00     0.064 A 
ATOM     67  C   UNL A   1      44.586  34.671  27.877  1.00  0.00     0.173 A 
ATOM     68  C   UNL A   1      45.730  33.952  29.865  1.00  0.00     0.173 A 
ATOM     69  F   UNL A   1      43.847  34.414  26.788  1.00  0.00    -0.203 F 
ATOM     70  C   UNL A   1      45.018  35.975  28.104  1.00  0.00     0.198 A 
ATOM     71  C   UNL A   1      46.137  35.262  30.104  1.00  0.00     0.198 A 
ATOM     72  F   UNL A   1      46.098  32.996  30.731  1.00  0.00    -0.203 F 
ATOM     73  F   UNL A   1      44.701  36.945  27.233  1.00  0.00    -0.200 F 
ATOM     74  C   UNL A   1      45.787  36.272  29.220  1.00  0.00     0.200 A 
ATOM     75  F   UNL A   1      46.869  35.548  31.189  1.00  0.00    -0.200 F 
ATOM     76  F   UNL A   1      46.195  37.529  29.440  1.00  0.00    -0.200 F 
ENDBRANCH  52  66
BRANCH  53  77
ATOM     77  C   UNL A   1      41.389  24.396  27.409  1.00  0.00     0.064 A 
ATOM     78  C   UNL A   1      40.264  24.187  26.598  1.00  0.00     0.173 A 
ATOM     79  C   UNL A   1      41.982  23.274  28.005  1.00  0.00     0.173 A 
ATOM     80  F   UNL A   1      39.647  25.232  26.028  1.00  0.00    -0.203 F 
ATOM     81  C   UNL A   1      39.744  22.908  26.408  1.00  0.00     0.198 A 
ATOM     82  C   UNL A   1      41.478  21.993  27.789  1.00  0.00     0.198 A 
ATOM     83  F   UNL A   1      43.060  23.421  28.790  1.00  0.00    -0.203 F 
ATOM     84  F   UNL A   1      38.640  22.741  25.666  1.00  0.00    -0.200 F 
ATOM     85  C   UNL A   1      40.355  21.813  26.997  1.00  0.00     0.200 A 
ATOM     86  F   UNL A   1      42.079  20.936  28.352  1.00  0.00    -0.200 F 
ATOM     87  F   UNL A   1      39.855  20.583  26.811  1.00  0.00    -0.200 F 
ENDBRANCH  53  77
BRANCH  65  88
ATOM     88  C   UNL A   1      47.204  27.669  25.386  1.00  0.00     0.064 A 
ATOM     89  C   UNL A   1      48.309  27.053  25.993  1.00  0.00     0.173 A 
ATOM     90  C   UNL A   1      47.222  27.819  23.990  1.00  0.00     0.173 A 
ATOM     91  F   UNL A   1      48.348  26.900  27.325  1.00  0.00    -0.203 F 
ATOM     92  C   UNL A   1      49.395  26.624  25.235  1.00  0.00     0.198 A 
ATOM     93  C   UNL A   1      48.296  27.361  23.233  1.00  0.00     0.198 A 
ATOM     94  F   UNL A   1      46.186  28.394  23.360  1.00  0.00    -0.203 F 
ATOM     95  F   UNL A   1      50.458  26.078  25.841  1.00  0.00    -0.200 F 
ATOM     96  C   UNL A   1      49.384  26.771  23.856  1.00  0.00     0.200 A 
ATOM     97  F   UNL A   1      48.276  27.490  21.899  1.00  0.00    -0.200 F 
ATOM     98  F   UNL A   1      50.426  26.349  23.128  1.00  0.00    -0.200 F 
ENDBRANCH  65  88
ENDBRANCH  39  40
ENDBRANCH  32  34
ENDBRANCH  31  32
ENDBRANCH  30  31
ENDBRANCH  29  30
ENDBRANCH  28  29
ENDBRANCH  27  28
ENDBRANCH   1  27
TORSDOF 20
ENDMDL
MODEL 2
REMARK VINA RESULT:     -11.4      5.373     10.647
REMARK SMILES CCc1cccc(OCC(=O)N/N=C/c2ccc(C(=O)OCCOCCOC(=O)c3ccc(-c4c5nc(c(-c6c(F)c(F)c(F)c(F)c6F)c6ccc([nH]6)c(-c6c(F)c(F)c(F)c(F)c6F)c6nc(c(-c7c(F)c(F)c(F)c(F)c7F)c7ccc4[nH]7)C=C6)C=C5)cc3)cc2)c1
REMARK SMILES IDX 22 1 21 2 19 3 20 4 18 5 15 6 16 7 94 8 17 9 93 10 14 11
REMARK SMILES IDX 13 12 12 13 10 14 11 15 9 17 8 18 7 19 3 20 4 21 95 22 5 23
REMARK SMILES IDX 6 24 2 25 1 26 23 27 24 28 25 29 26 30 27 31 28 32 29 33
REMARK SMILES IDX 30 34 31 35 92 36 32 37 91 38 33 39 34 40 35 41 85 42 36 43
REMARK SMILES IDX 90 44 84 45 86 46 37 47 89 48 83 49 82 50 38 52 70 53 50 54
REMARK SMILES IDX 69 55 51 56 54 57 68 58 87 59 52 60 53 61 67 63 88 64 55 65
REMARK SMILES IDX 39 66 40 67 48 68 41 69 42 70 46 71 49 72 43 73 44 74 47 75
REMARK SMILES IDX 45 76 71 77 72 78 80 79 73 80 74 81 78 82 81 83 75 84 76 85
REMARK SMILES IDX 79 86 77 87 56 88 57 89 65 90 58 91 59 92 63 93 66 94 60 95
REMARK SMILES IDX 61 96 64 97 62 98
REMARK H PARENT 12 16 86 51 54 62
REMARK Flexibility Score: inf
ROOT
ATOM      1  C   UNL A   1      40.729  19.854  26.696  1.00  0.00     0.261 C 
ENDROOT
BRANCH   1   2
ATOM      2  O   UNL A   1      39.750  20.608  25.961  1.00  0.00    -0.460 OA
BRANCH   2   3
ATOM      3  C   UNL A   1      39.402  21.790  26.522  1.00  0.00     0.338 C 
ATOM      4  O   UNL A   1      40.000  22.391  27.402  1.00  0.00    -0.246 OA
BRANCH   3   5
ATOM      5  C   UNL A   1      38.260  22.379  25.789  1.00  0.00     0.060 A 
ATOM      6  C   UNL A   1      36.105  23.356  24.336  1.00  0.00    -0.005 A 
ATOM      7  C   UNL A   1      36.592  22.078  24.060  1.00  0.00     0.010 A 
ATOM      8  C   UNL A   1      36.670  24.148  25.339  1.00  0.00     0.010 A 
ATOM      9  C   UNL A   1      37.684  21.598  24.775  1.00  0.00     0.016 A 
ATOM     10  C   UNL A   1      37.742  23.648  26.085  1.00  0.00     0.016 A 
BRANCH   6  11
ATOM     11  C   UNL A   1      34.971  23.834  23.534  1.00  0.00     0.141 C 
ATOM     12  N   UNL A   1      34.200  24.767  23.971  1.00  0.00    -0.181 NA
BRANCH  12  13
ATOM     13  N   UNL A   1      33.211  25.308  23.205  1.00  0.00    -0.244 N 
ATOM     14  C   UNL A   1      31.892  25.006  22.986  1.00  0.00     0.277 C 
ATOM     15  O   UNL A   1      31.265  25.709  22.181  1.00  0.00    -0.269 OA
ATOM     16  H   UNL A   1      33.512  26.096  22.696  1.00  0.00     0.193 HD
BRANCH  14  17
ATOM     17  C   UNL A   1      31.165  23.870  23.707  1.00  0.00     0.331 C 
BRANCH  17  18
ATOM     18  O   UNL A   1      31.304  23.805  25.117  1.00  0.00    -0.484 OA
BRANCH  18  19
ATOM     19  C   UNL A   1      32.200  22.902  25.621  1.00  0.00     0.120 A 
ATOM     20  C   UNL A   1      33.495  20.830  25.640  1.00  0.00    -0.045 A 
ATOM     21  C   UNL A   1      34.060  21.212  26.861  1.00  0.00     0.004 A 
ATOM     22  C   UNL A   1      32.552  21.684  25.038  1.00  0.00     0.050 A 
ATOM     23  C   UNL A   1      33.708  22.424  27.455  1.00  0.00     0.004 A 
ATOM     24  C   UNL A   1      32.781  23.264  26.837  1.00  0.00     0.046 A 
BRANCH  20  25
ATOM     25  C   UNL A   1      33.799  19.517  24.954  1.00  0.00     0.032 C 
ATOM     26  C   UNL A   1      32.629  18.561  24.773  1.00  0.00     0.009 C 
ENDBRANCH  20  25
ENDBRANCH  18  19
ENDBRANCH  17  18
ENDBRANCH  14  17
ENDBRANCH  12  13
ENDBRANCH   6  11
ENDBRANCH   3   5
ENDBRANCH   2   3
ENDBRANCH   1   2
BRANCH   1  27
ATOM     27  C   UNL A   1      41.721  19.168  25.753  1.00  0.00     0.202 C 
BRANCH  27  28
ATOM     28  O   UNL A   1      43.063  19.650  25.804  1.00  0.00    -0.374 OA
BRANCH  28  29
ATOM     29  C   UNL A   1      43.247  21.013  26.192  1.00  0.00     0.202 C 
BRANCH  29  30
ATOM     30  C   UNL A   1      44.267  21.811  25.371  1.00  0.00     0.261 C 
BRANCH  30  31
ATOM     31  O   UNL A   1      44.722  22.979  26.081  1.00  0.00    -0.460 OA
BRANCH  31  32
ATOM     32  C   UNL A   1      44.476  24.157  25.465  1.00  0.00     0.338 C 
ATOM     33  O   UNL A   1      44.697  24.447  24.297  1.00  0.00    -0.246 OA
BRANCH  32  34
ATOM     34  C   UNL A   1      43.712  25.040  26.364  1.00  0.00     0.060 A 
ATOM     35  C   UNL A   1      44.136  26.371  26.481  1.00  0.00     0.016 A 
ATOM     36  C   UNL A   1      42.642  24.566  27.126  1.00  0.00     0.016 A 
ATOM     37  C   UNL A   1      43.520  27.221  27.397  1.00  0.00     0.010 A 
ATOM     38  C   UNL A   1      42.031  25.419  28.051  1.00  0.00     0.010 A 
ATOM     39  C   UNL A   1      42.489  26.739  28.214  1.00  0.00    -0.014 A 
BRANCH  39  40
ATOM     40  C   UNL A   1      41.984  27.575  29.331  1.00  0.00     0.031 A 
ATOM     41  C   UNL A   1      42.701  27.536  30.651  1.00  0.00     0.074 A 
ATOM     42  C   UNL A   1      40.913  28.370  29.165  1.00  0.00     0.049 A 
ATOM     43  N   UNL A   1      42.411  28.143  31.774  1.00  0.00    -0.248 NA
ATOM     44  C   UNL A   1      43.909  26.697  30.714  1.00  0.00     0.031 C 
ATOM     45  C   UNL A   1      40.159  28.521  27.923  1.00  0.00     0.029 A 
ATOM     46  N   UNL A   1      40.271  29.195  30.055  1.00  0.00    -0.354 N 
ATOM     47  C   UNL A   1      43.393  27.754  32.677  1.00  0.00     0.074 A 
ATOM     48  C   UNL A   1      44.270  26.837  31.982  1.00  0.00     0.031 C 
ATOM     49  C   UNL A   1      39.145  29.379  28.132  1.00  0.00     0.029 A 
ATOM     50  C   UNL A   1      39.161  29.809  29.529  1.00  0.00     0.049 A 
ATOM     51  H   UNL A   1      40.576  29.333  30.980  1.00  0.00     0.167 HD
ATOM     52  C   UNL A   1      43.550  28.136  33.967  1.00  0.00     0.037 A 
ATOM     53  C   UNL A   1      38.252  30.610  30.117  1.00  0.00     0.037 A 
ATOM     54  C   UNL A   1      42.679  29.052  34.654  1.00  0.00     0.049 A 
ATOM     55  C   UNL A   1      38.413  30.968  31.574  1.00  0.00     0.074 A 
ATOM     56  C   UNL A   1      42.766  29.517  35.954  1.00  0.00     0.029 A 
ATOM     57  N   UNL A   1      41.551  29.636  34.095  1.00  0.00    -0.354 N 
ATOM     58  N   UNL A   1      39.357  30.617  32.413  1.00  0.00    -0.248 NA
ATOM     59  C   UNL A   1      37.383  31.836  32.161  1.00  0.00     0.031 C 
ATOM     60  C   UNL A   1      41.664  30.343  36.199  1.00  0.00     0.029 A 
ATOM     61  C   UNL A   1      40.921  30.438  35.034  1.00  0.00     0.049 A 
ATOM     62  H   UNL A   1      41.245  29.501  33.170  1.00  0.00     0.167 HD
ATOM     63  C   UNL A   1      39.055  31.246  33.614  1.00  0.00     0.074 A 
ATOM     64  C   UNL A   1      37.843  32.008  33.392  1.00  0.00     0.031 C 
ATOM     65  C   UNL A   1      39.722  31.200  34.793  1.00  0.00     0.037 A 
BRANCH  52  66
ATOM     66  C   UNL A   1      44.700  27.544  34.729  1.00  0.00     0.064 A 
ATOM     67  C   UNL A   1      45.940  28.195  34.820  1.00  0.00     0.173 A 
ATOM     68  C   UNL A   1      44.547  26.327  35.409  1.00  0.00     0.173 A 
ATOM     69  F   UNL A   1      46.141  29.354  34.177  1.00  0.00    -0.203 F 
ATOM     70  C   UNL A   1      46.990  27.636  35.543  1.00  0.00     0.198 A 
ATOM     71  C   UNL A   1      45.590  25.785  36.155  1.00  0.00     0.198 A 
ATOM     72  F   UNL A   1      43.381  25.665  35.358  1.00  0.00    -0.203 F 
ATOM     73  F   UNL A   1      48.181  28.253  35.578  1.00  0.00    -0.200 F 
ATOM     74  C   UNL A   1      46.814  26.436  36.216  1.00  0.00     0.200 A 
ATOM     75  F   UNL A   1      45.414  24.631  36.814  1.00  0.00    -0.200 F 
ATOM     76  F   UNL A   1      47.824  25.903  36.917  1.00  0.00    -0.200 F 
ENDBRANCH  52  66
BRANCH  53  77
ATOM     77  C   UNL A   1      37.099  31.124  29.334  1.00  0.00     0.064 A 
ATOM     78  C   UNL A   1      36.019  30.293  29.005  1.00  0.00     0.173 A 
ATOM     79  C   UNL A   1      37.061  32.452  28.884  1.00  0.00     0.173 A 
ATOM     80  F   UNL A   1      36.021  29.009  29.391  1.00  0.00    -0.203 F 
ATOM     81  C   UNL A   1      34.953  30.767  28.241  1.00  0.00     0.198 A 
ATOM     82  C   UNL A   1      35.981  32.932  28.145  1.00  0.00     0.198 A 
ATOM     83  F   UNL A   1      38.070  33.289  29.171  1.00  0.00    -0.203 F 
ATOM     84  F   UNL A   1      33.956  29.938  27.902  1.00  0.00    -0.200 F 
ATOM     85  C   UNL A   1      34.933  32.086  27.818  1.00  0.00     0.200 A 
ATOM     86  F   UNL A   1      35.960  34.212  27.748  1.00  0.00    -0.200 F 
ATOM     87  F   UNL A   1      33.906  32.541  27.086  1.00  0.00    -0.200 F 
ENDBRANCH  53  77
BRANCH  65  88
ATOM     88  C   UNL A   1      39.188  32.031  35.924  1.00  0.00     0.064 A 
ATOM     89  C   UNL A   1      38.290  31.508  36.866  1.00  0.00     0.173 A 
ATOM     90  C   UNL A   1      39.619  33.357  36.094  1.00  0.00     0.173 A 
ATOM     91  F   UNL A   1      37.837  30.251  36.741  1.00  0.00    -0.203 F 
ATOM     92  C   UNL A   1      37.826  32.287  37.923  1.00  0.00     0.198 A 
ATOM     93  C   UNL A   1      39.176  34.123  37.168  1.00  0.00     0.198 A 
ATOM     94  F   UNL A   1      40.483  33.903  35.225  1.00  0.00    -0.203 F 
ATOM     95  F   UNL A   1      36.935  31.781  38.785  1.00  0.00    -0.200 F 
ATOM     96  C   UNL A   1      38.275  33.591  38.078  1.00  0.00     0.200 A 
ATOM     97  F   UNL A   1      39.624  35.377  37.325  1.00  0.00    -0.200 F 
ATOM     98  F   UNL A   1      37.835  34.336  39.100  1.00  0.00    -0.200 F 
ENDBRANCH  65  88
ENDBRANCH  39  40
ENDBRANCH  32  34
ENDBRANCH  31  32
ENDBRANCH  30  31
ENDBRANCH  29  30
ENDBRANCH  28  29
ENDBRANCH  27  28
ENDBRANCH   1  27
TORSDOF 20
ENDMDL
MODEL 3
REMARK VINA RESULT:     -11.2      0.724      7.118
REMARK SMILES CCc1cccc(OCC(=O)N/N=C/c2ccc(C(=O)OCCOCCOC(=O)c3ccc(-c4c5nc(c(-c6c(F)c(F)c(F)c(F)c6F)c6ccc([nH]6)c(-c6c(F)c(F)c(F)c(F)c6F)c6nc(c(-c7c(F)c(F)c(F)c(F)c7F)c7ccc4[nH]7)C=C6)C=C5)cc3)cc2)c1
REMARK SMILES IDX 22 1 21 2 19 3 20 4 18 5 15 6 16 7 94 8 17 9 93 10 14 11
REMARK SMILES IDX 13 12 12 13 10 14 11 15 9 17 8 18 7 19 3 20 4 21 95 22 5 23
REMARK SMILES IDX 6 24 2 25 1 26 23 27 24 28 25 29 26 30 27 31 28 32 29 33
REMARK SMILES IDX 30 34 31 35 92 36 32 37 91 38 33 39 34 40 35 41 85 42 36 43
REMARK SMILES IDX 90 44 84 45 86 46 37 47 89 48 83 49 82 50 38 52 70 53 50 54
REMARK SMILES IDX 69 55 51 56 54 57 68 58 87 59 52 60 53 61 67 63 88 64 55 65
REMARK SMILES IDX 39 66 40 67 48 68 41 69 42 70 46 71 49 72 43 73 44 74 47 75
REMARK SMILES IDX 45 76 71 77 72 78 80 79 73 80 74 81 78 82 81 83 75 84 76 85
REMARK SMILES IDX 79 86 77 87 56 88 57 89 65 90 58 91 59 92 63 93 66 94 60 95
REMARK SMILES IDX 61 96 64 97 62 98
REMARK H PARENT 12 16 86 51 54 62
REMARK Flexibility Score: inf
ROOT
ATOM      1  C   UNL A   1      34.294  34.207  28.390  1.00  0.00     0.261 C 
ENDROOT
BRANCH   1   2
ATOM      2  O   UNL A   1      33.693  32.964  27.986  1.00  0.00    -0.460 OA
BRANCH   2   3
ATOM      3  C   UNL A   1      34.569  31.972  27.706  1.00  0.00     0.338 C 
ATOM      4  O   UNL A   1      35.775  31.975  27.909  1.00  0.00    -0.246 OA
BRANCH   3   5
ATOM      5  C   UNL A   1      33.839  30.762  27.269  1.00  0.00     0.060 A 
ATOM      6  C   UNL A   1      32.592  28.410  26.480  1.00  0.00    -0.005 A 
ATOM      7  C   UNL A   1      33.926  28.372  26.887  1.00  0.00     0.010 A 
ATOM      8  C   UNL A   1      31.866  29.604  26.476  1.00  0.00     0.010 A 
ATOM      9  C   UNL A   1      34.554  29.555  27.263  1.00  0.00     0.016 A 
ATOM     10  C   UNL A   1      32.488  30.785  26.894  1.00  0.00     0.016 A 
BRANCH   6  11
ATOM     11  C   UNL A   1      31.979  27.143  26.060  1.00  0.00     0.141 C 
ATOM     12  N   UNL A   1      31.379  27.044  24.927  1.00  0.00    -0.181 NA
BRANCH  12  13
ATOM     13  N   UNL A   1      30.899  25.856  24.461  1.00  0.00    -0.244 N 
ATOM     14  C   UNL A   1      31.374  24.899  23.602  1.00  0.00     0.277 C 
ATOM     15  O   UNL A   1      30.649  23.923  23.368  1.00  0.00    -0.269 OA
ATOM     16  H   UNL A   1      30.011  25.635  24.825  1.00  0.00     0.193 HD
BRANCH  14  17
ATOM     17  C   UNL A   1      32.757  24.971  22.954  1.00  0.00     0.331 C 
BRANCH  17  18
ATOM     18  O   UNL A   1      33.871  25.129  23.819  1.00  0.00    -0.484 OA
BRANCH  18  19
ATOM     19  C   UNL A   1      34.191  24.077  24.633  1.00  0.00     0.120 A 
ATOM     20  C   UNL A   1      34.929  21.802  25.136  1.00  0.00    -0.045 A 
ATOM     21  C   UNL A   1      34.775  22.071  26.500  1.00  0.00     0.004 A 
ATOM     22  C   UNL A   1      34.617  22.816  24.211  1.00  0.00     0.050 A 
ATOM     23  C   UNL A   1      34.342  23.325  26.930  1.00  0.00     0.004 A 
ATOM     24  C   UNL A   1      34.050  24.323  25.998  1.00  0.00     0.046 A 
BRANCH  20  25
ATOM     25  C   UNL A   1      35.359  20.458  24.594  1.00  0.00     0.032 C 
ATOM     26  C   UNL A   1      36.742  19.973  25.005  1.00  0.00     0.009 C 
ENDBRANCH  20  25
ENDBRANCH  18  19
ENDBRANCH  17  18
ENDBRANCH  14  17
ENDBRANCH  12  13
ENDBRANCH   6  11
ENDBRANCH   3   5
ENDBRANCH   2   3
ENDBRANCH   1   2
BRANCH   1  27
ATOM     27  C   UNL A   1      33.466  34.892  29.480  1.00  0.00     0.202 C 
BRANCH  27  28
ATOM     28  O   UNL A   1      33.573  34.331  30.788  1.00  0.00    -0.374 OA
BRANCH  28  29
ATOM     29  C   UNL A   1      34.799  33.673  31.112  1.00  0.00     0.202 C 
BRANCH  29  30
ATOM     30  C   UNL A   1      34.891  33.086  32.526  1.00  0.00     0.261 C 
BRANCH  30  31
ATOM     31  O   UNL A   1      35.482  31.773  32.518  1.00  0.00    -0.460 OA
BRANCH  31  32
ATOM     32  C   UNL A   1      36.685  31.682  33.130  1.00  0.00     0.338 C 
ATOM     33  O   UNL A   1      36.944  31.920  34.302  1.00  0.00    -0.246 OA
BRANCH  32  34
ATOM     34  C   UNL A   1      37.663  31.063  32.217  1.00  0.00     0.060 A 
ATOM     35  C   UNL A   1      38.802  30.478  32.787  1.00  0.00     0.016 A 
ATOM     36  C   UNL A   1      37.506  31.107  30.831  1.00  0.00     0.016 A 
ATOM     37  C   UNL A   1      39.811  29.976  31.969  1.00  0.00     0.010 A 
ATOM     38  C   UNL A   1      38.523  30.609  30.011  1.00  0.00     0.010 A 
ATOM     39  C   UNL A   1      39.695  30.072  30.576  1.00  0.00    -0.014 A 
BRANCH  39  40
ATOM     40  C   UNL A   1      40.856  29.737  29.716  1.00  0.00     0.031 A 
ATOM     41  C   UNL A   1      40.947  28.362  29.116  1.00  0.00     0.074 A 
ATOM     42  C   UNL A   1      41.807  30.652  29.459  1.00  0.00     0.049 A 
ATOM     43  N   UNL A   1      41.891  27.837  28.377  1.00  0.00    -0.248 NA
ATOM     44  C   UNL A   1      39.821  27.454  29.390  1.00  0.00     0.031 C 
ATOM     45  C   UNL A   1      41.809  32.028  29.950  1.00  0.00     0.029 A 
ATOM     46  N   UNL A   1      42.961  30.553  28.723  1.00  0.00    -0.354 N 
ATOM     47  C   UNL A   1      41.478  26.539  28.104  1.00  0.00     0.074 A 
ATOM     48  C   UNL A   1      40.214  26.345  28.781  1.00  0.00     0.031 C 
ATOM     49  C   UNL A   1      42.921  32.644  29.513  1.00  0.00     0.029 A 
ATOM     50  C   UNL A   1      43.721  31.697  28.739  1.00  0.00     0.049 A 
ATOM     51  H   UNL A   1      43.220  29.741  28.230  1.00  0.00     0.167 HD
ATOM     52  C   UNL A   1      42.096  25.599  27.350  1.00  0.00     0.037 A 
ATOM     53  C   UNL A   1      44.934  31.941  28.207  1.00  0.00     0.037 A 
ATOM     54  C   UNL A   1      43.352  25.796  26.676  1.00  0.00     0.049 A 
ATOM     55  C   UNL A   1      45.632  30.855  27.428  1.00  0.00     0.074 A 
ATOM     56  C   UNL A   1      44.048  24.912  25.872  1.00  0.00     0.029 A 
ATOM     57  N   UNL A   1      44.103  26.961  26.735  1.00  0.00    -0.354 N 
ATOM     58  N   UNL A   1      45.224  29.640  27.152  1.00  0.00    -0.248 NA
ATOM     59  C   UNL A   1      46.958  31.178  26.882  1.00  0.00     0.031 C 
ATOM     60  C   UNL A   1      45.246  25.523  25.485  1.00  0.00     0.029 A 
ATOM     61  C   UNL A   1      45.269  26.808  26.001  1.00  0.00     0.049 A 
ATOM     62  H   UNL A   1      43.846  27.775  27.225  1.00  0.00     0.167 HD
ATOM     63  C   UNL A   1      46.223  29.067  26.377  1.00  0.00     0.074 A 
ATOM     64  C   UNL A   1      47.254  30.070  26.217  1.00  0.00     0.031 C 
ATOM     65  C   UNL A   1      46.280  27.822  25.841  1.00  0.00     0.037 A 
BRANCH  52  66
ATOM     66  C   UNL A   1      41.431  24.258  27.233  1.00  0.00     0.064 A 
ATOM     67  C   UNL A   1      40.249  24.081  26.499  1.00  0.00     0.173 A 
ATOM     68  C   UNL A   1      42.006  23.128  27.834  1.00  0.00     0.173 A 
ATOM     69  F   UNL A   1      39.653  25.132  25.917  1.00  0.00    -0.203 F 
ATOM     70  C   UNL A   1      39.655  22.826  26.391  1.00  0.00     0.198 A 
ATOM     71  C   UNL A   1      41.425  21.870  27.700  1.00  0.00     0.198 A 
ATOM     72  F   UNL A   1      43.138  23.242  28.545  1.00  0.00    -0.203 F 
ATOM     73  F   UNL A   1      38.501  22.688  25.722  1.00  0.00    -0.200 F 
ATOM     74  C   UNL A   1      40.246  21.721  26.985  1.00  0.00     0.200 A 
ATOM     75  F   UNL A   1      42.004  20.801  28.264  1.00  0.00    -0.200 F 
ATOM     76  F   UNL A   1      39.676  20.513  26.874  1.00  0.00    -0.200 F 
ENDBRANCH  52  66
BRANCH  53  77
ATOM     77  C   UNL A   1      45.576  33.267  28.401  1.00  0.00     0.064 A 
ATOM     78  C   UNL A   1      45.387  34.304  27.477  1.00  0.00     0.173 A 
ATOM     79  C   UNL A   1      46.404  33.519  29.504  1.00  0.00     0.173 A 
ATOM     80  F   UNL A   1      44.625  34.103  26.392  1.00  0.00    -0.203 F 
ATOM     81  C   UNL A   1      46.017  35.537  27.641  1.00  0.00     0.198 A 
ATOM     82  C   UNL A   1      47.010  34.762  29.682  1.00  0.00     0.198 A 
ATOM     83  F   UNL A   1      46.619  32.560  30.417  1.00  0.00    -0.203 F 
ATOM     84  F   UNL A   1      45.856  36.496  26.718  1.00  0.00    -0.200 F 
ATOM     85  C   UNL A   1      46.821  35.766  28.746  1.00  0.00     0.200 A 
ATOM     86  F   UNL A   1      47.777  34.982  30.758  1.00  0.00    -0.200 F 
ATOM     87  F   UNL A   1      47.423  36.953  28.904  1.00  0.00    -0.200 F 
ENDBRANCH  53  77
BRANCH  65  88
ATOM     88  C   UNL A   1      47.473  27.487  24.993  1.00  0.00     0.064 A 
ATOM     89  C   UNL A   1      47.498  27.751  23.615  1.00  0.00     0.173 A 
ATOM     90  C   UNL A   1      48.625  26.937  25.577  1.00  0.00     0.173 A 
ATOM     91  F   UNL A   1      46.418  28.264  23.007  1.00  0.00    -0.203 F 
ATOM     92  C   UNL A   1      48.624  27.456  22.850  1.00  0.00     0.198 A 
ATOM     93  C   UNL A   1      49.759  26.671  24.815  1.00  0.00     0.198 A 
ATOM     94  F   UNL A   1      48.655  26.672  26.892  1.00  0.00    -0.203 F 
ATOM     95  F   UNL A   1      48.610  27.676  21.529  1.00  0.00    -0.200 F 
ATOM     96  C   UNL A   1      49.755  26.924  23.452  1.00  0.00     0.200 A 
ATOM     97  F   UNL A   1      50.856  26.172  25.401  1.00  0.00    -0.200 F 
ATOM     98  F   UNL A   1      50.841  26.651  22.716  1.00  0.00    -0.200 F 
ENDBRANCH  65  88
ENDBRANCH  39  40
ENDBRANCH  32  34
ENDBRANCH  31  32
ENDBRANCH  30  31
ENDBRANCH  29  30
ENDBRANCH  28  29
ENDBRANCH  27  28
ENDBRANCH   1  27
TORSDOF 20
ENDMDL
