MODEL 1
REMARK VINA RESULT:     -11.8      0.000      0.000
REMARK SMILES CC(C)(C)OC(=O)N1CCN(N[C@@H](C(=O)OCCOCCOC(=O)c2ccc(-c3c4nc(c(-c5c(F)c(F)c(F)c(F)c5F)c5ccc([nH]5)c(-c5c(F)c(F)c(F)c(F)c5F)c5nc(c(-c6c(F)c(F)c(F)c(F)c6F)c6ccc3[nH]6)C=C5)C=C4)cc2)c2ccccc2Cl)CC1
REMARK SMILES IDX 18 1 17 2 16 3 14 4 15 5 13 6 12 7 11 9 6 10 7 11 8 12 9 13
REMARK SMILES IDX 96 14 10 15 95 16 5 17 2 18 1 19 3 20 4 21 88 22 89 23 93 24
REMARK SMILES IDX 90 25 92 26 94 27 91 28 19 29 20 30 21 31 22 32 23 33 24 34
REMARK SMILES IDX 25 35 26 36 87 37 27 38 86 39 28 40 29 41 30 42 80 43 31 44
REMARK SMILES IDX 85 45 79 46 81 47 32 48 84 49 78 50 77 51 33 53 65 54 45 55
REMARK SMILES IDX 64 56 46 57 49 58 63 59 82 60 47 61 48 62 62 64 83 65 50 66
REMARK SMILES IDX 34 67 35 68 43 69 36 70 37 71 41 72 44 73 38 74 39 75 42 76
REMARK SMILES IDX 40 77 66 78 67 79 75 80 68 81 69 82 73 83 76 84 70 85 71 86
REMARK SMILES IDX 74 87 72 88 51 89 52 90 60 91 53 92 54 93 58 94 61 95 55 96
REMARK SMILES IDX 56 97 59 98 57 99
REMARK H PARENT 12 8 81 52 49 63
REMARK Flexibility Score: inf
ROOT
ATOM      1  C   UNL A   1      32.419  28.918  26.946  1.00  0.00     0.202 C 
ENDROOT
BRANCH   1   2
ATOM      2  C   UNL A   1      31.733  27.597  27.300  1.00  0.00     0.261 C 
BRANCH   2   3
ATOM      3  O   UNL A   1      32.001  26.618  26.285  1.00  0.00    -0.462 OA
BRANCH   3   4
ATOM      4  C   UNL A   1      30.927  25.947  25.793  1.00  0.00     0.329 C 
ATOM      5  O   UNL A   1      30.009  25.544  26.502  1.00  0.00    -0.250 OA
BRANCH   4   6
ATOM      6  C   UNL A   1      30.951  25.735  24.255  1.00  0.00     0.211 C 
BRANCH   6   7
ATOM      7  N   UNL A   1      32.171  25.076  23.667  1.00  0.00    -0.237 NA
ATOM      8  H   UNL A   1      32.513  25.666  22.909  1.00  0.00     0.143 HD
BRANCH   7   9
ATOM      9  N   UNL A   1      31.959  23.719  23.126  1.00  0.00    -0.240 NA
ATOM     10  C   UNL A   1      34.382  20.798  25.083  1.00  0.00     0.410 C 
ATOM     11  O   UNL A   1      35.599  20.744  24.944  1.00  0.00    -0.224 OA
ATOM     12  N   UNL A   1      33.644  21.893  24.705  1.00  0.00    -0.306 N 
ATOM     13  C   UNL A   1      34.224  22.824  23.755  1.00  0.00     0.140 C 
ATOM     14  C   UNL A   1      32.348  22.289  25.253  1.00  0.00     0.140 C 
ATOM     15  C   UNL A   1      33.212  23.097  22.639  1.00  0.00     0.124 C 
ATOM     16  C   UNL A   1      31.373  22.831  24.176  1.00  0.00     0.124 C 
BRANCH  10  17
ATOM     17  O   UNL A   1      33.613  19.767  25.516  1.00  0.00    -0.444 OA
BRANCH  17  18
ATOM     18  C   UNL A   1      33.323  18.665  24.610  1.00  0.00     0.106 C 
ATOM     19  C   UNL A   1      32.421  17.712  25.408  1.00  0.00     0.056 C 
ATOM     20  C   UNL A   1      34.625  17.946  24.250  1.00  0.00     0.056 C 
ATOM     21  C   UNL A   1      32.540  19.087  23.353  1.00  0.00     0.056 C 
ENDBRANCH  17  18
ENDBRANCH  10  17
ENDBRANCH   7   9
ENDBRANCH   6   7
BRANCH   6  22
ATOM     22  C   UNL A   1      30.686  27.059  23.522  1.00  0.00     0.000 A 
ATOM     23  C   UNL A   1      31.759  27.828  23.019  1.00  0.00     0.007 A 
ATOM     24  C   UNL A   1      29.388  27.572  23.354  1.00  0.00     0.046 A 
ATOM     25  C   UNL A   1      31.550  29.071  22.416  1.00  0.00     0.000 A 
ATOM     26  C   UNL A   1      29.182  28.818  22.747  1.00  0.00     0.021 A 
ATOM     27  Cl  UNL A   1      27.979  26.731  23.893  1.00  0.00    -0.084 Cl
ATOM     28  C   UNL A   1      30.261  29.570  22.288  1.00  0.00     0.002 A 
ENDBRANCH   6  22
ENDBRANCH   4   6
ENDBRANCH   3   4
ENDBRANCH   2   3
ENDBRANCH   1   2
BRANCH   1  29
ATOM     29  O   UNL A   1      31.707  30.118  27.251  1.00  0.00    -0.374 OA
BRANCH  29  30
ATOM     30  C   UNL A   1      31.773  31.184  26.308  1.00  0.00     0.202 C 
BRANCH  30  31
ATOM     31  C   UNL A   1      31.944  32.610  26.840  1.00  0.00     0.261 C 
BRANCH  31  32
ATOM     32  O   UNL A   1      32.777  32.669  28.006  1.00  0.00    -0.460 OA
BRANCH  32  33
ATOM     33  C   UNL A   1      33.879  33.443  27.858  1.00  0.00     0.338 C 
ATOM     34  O   UNL A   1      33.920  34.642  27.642  1.00  0.00    -0.246 OA
BRANCH  33  35
ATOM     35  C   UNL A   1      35.081  32.655  28.181  1.00  0.00     0.060 A 
ATOM     36  C   UNL A   1      34.917  31.277  28.381  1.00  0.00     0.016 A 
ATOM     37  C   UNL A   1      36.324  33.262  28.356  1.00  0.00     0.016 A 
ATOM     38  C   UNL A   1      35.986  30.506  28.825  1.00  0.00     0.010 A 
ATOM     39  C   UNL A   1      37.393  32.490  28.812  1.00  0.00     0.010 A 
ATOM     40  C   UNL A   1      37.212  31.122  29.094  1.00  0.00    -0.014 A 
BRANCH  40  41
ATOM     41  C   UNL A   1      38.246  30.401  29.871  1.00  0.00     0.031 A 
ATOM     42  C   UNL A   1      38.418  30.760  31.320  1.00  0.00     0.074 A 
ATOM     43  C   UNL A   1      39.012  29.457  29.301  1.00  0.00     0.049 A 
ATOM     44  N   UNL A   1      39.340  30.386  32.166  1.00  0.00    -0.248 NA
ATOM     45  C   UNL A   1      37.416  31.679  31.886  1.00  0.00     0.031 C 
ATOM     46  C   UNL A   1      38.888  28.985  27.925  1.00  0.00     0.029 A 
ATOM     47  N   UNL A   1      40.066  28.744  29.813  1.00  0.00    -0.354 N 
ATOM     48  C   UNL A   1      39.045  31.041  33.355  1.00  0.00     0.074 A 
ATOM     49  C   UNL A   1      37.875  31.855  33.116  1.00  0.00     0.031 C 
ATOM     50  C   UNL A   1      39.849  28.075  27.690  1.00  0.00     0.029 A 
ATOM     51  C   UNL A   1      40.681  27.939  28.885  1.00  0.00     0.049 A 
ATOM     52  H   UNL A   1      40.354  28.802  30.752  1.00  0.00     0.167 HD
ATOM     53  C   UNL A   1      39.696  30.966  34.539  1.00  0.00     0.037 A 
ATOM     54  C   UNL A   1      41.811  27.212  28.986  1.00  0.00     0.037 A 
ATOM     55  C   UNL A   1      40.856  30.146  34.762  1.00  0.00     0.049 A 
ATOM     56  C   UNL A   1      42.565  27.206  30.291  1.00  0.00     0.074 A 
ATOM     57  C   UNL A   1      41.587  29.984  35.925  1.00  0.00     0.029 A 
ATOM     58  N   UNL A   1      41.456  29.352  33.795  1.00  0.00    -0.354 N 
ATOM     59  N   UNL A   1      42.285  27.823  31.414  1.00  0.00    -0.248 NA
ATOM     60  C   UNL A   1      43.795  26.401  30.346  1.00  0.00     0.031 C 
ATOM     61  C   UNL A   1      42.666  29.142  35.646  1.00  0.00     0.029 A 
ATOM     62  C   UNL A   1      42.565  28.718  34.330  1.00  0.00     0.049 A 
ATOM     63  H   UNL A   1      41.142  29.255  32.868  1.00  0.00     0.167 HD
ATOM     64  C   UNL A   1      43.271  27.446  32.317  1.00  0.00     0.074 A 
ATOM     65  C   UNL A   1      44.162  26.551  31.611  1.00  0.00     0.031 C 
ATOM     66  C   UNL A   1      43.419  27.803  33.617  1.00  0.00     0.037 A 
BRANCH  53  67
ATOM     67  C   UNL A   1      39.193  31.818  35.668  1.00  0.00     0.064 A 
ATOM     68  C   UNL A   1      38.293  31.328  36.626  1.00  0.00     0.173 A 
ATOM     69  C   UNL A   1      39.646  33.139  35.811  1.00  0.00     0.173 A 
ATOM     70  F   UNL A   1      37.818  30.077  36.528  1.00  0.00    -0.203 F 
ATOM     71  C   UNL A   1      37.844  32.137  37.667  1.00  0.00     0.198 A 
ATOM     72  C   UNL A   1      39.221  33.934  36.871  1.00  0.00     0.198 A 
ATOM     73  F   UNL A   1      40.509  33.658  34.924  1.00  0.00    -0.203 F 
ATOM     74  F   UNL A   1      36.943  31.664  38.540  1.00  0.00    -0.200 F 
ATOM     75  C   UNL A   1      38.314  33.436  37.793  1.00  0.00     0.200 A 
ATOM     76  F   UNL A   1      39.689  35.183  37.000  1.00  0.00    -0.200 F 
ATOM     77  F   UNL A   1      37.887  34.210  38.801  1.00  0.00    -0.200 F 
ENDBRANCH  53  67
BRANCH  54  78
ATOM     78  C   UNL A   1      42.307  26.446  27.812  1.00  0.00     0.064 A 
ATOM     79  C   UNL A   1      41.852  25.146  27.553  1.00  0.00     0.173 A 
ATOM     80  C   UNL A   1      43.256  26.990  26.934  1.00  0.00     0.173 A 
ATOM     81  F   UNL A   1      40.961  24.572  28.377  1.00  0.00    -0.203 F 
ATOM     82  C   UNL A   1      42.342  24.412  26.475  1.00  0.00     0.198 A 
ATOM     83  C   UNL A   1      43.722  26.268  25.837  1.00  0.00     0.198 A 
ATOM     84  F   UNL A   1      43.725  28.230  27.135  1.00  0.00    -0.203 F 
ATOM     85  F   UNL A   1      41.927  23.153  26.280  1.00  0.00    -0.200 F 
ATOM     86  C   UNL A   1      43.272  24.976  25.614  1.00  0.00     0.200 A 
ATOM     87  F   UNL A   1      44.608  26.823  25.001  1.00  0.00    -0.200 F 
ATOM     88  F   UNL A   1      43.739  24.271  24.574  1.00  0.00    -0.200 F 
ENDBRANCH  54  78
BRANCH  66  89
ATOM     89  C   UNL A   1      44.536  27.170  34.396  1.00  0.00     0.064 A 
ATOM     90  C   UNL A   1      45.783  27.792  34.550  1.00  0.00     0.173 A 
ATOM     91  C   UNL A   1      44.315  25.960  35.075  1.00  0.00     0.173 A 
ATOM     92  F   UNL A   1      46.047  28.941  33.912  1.00  0.00    -0.203 F 
ATOM     93  C   UNL A   1      46.771  27.221  35.348  1.00  0.00     0.198 A 
ATOM     94  C   UNL A   1      45.293  25.410  35.897  1.00  0.00     0.198 A 
ATOM     95  F   UNL A   1      43.136  25.330  34.966  1.00  0.00    -0.203 F 
ATOM     96  F   UNL A   1      47.967  27.815  35.458  1.00  0.00    -0.200 F 
ATOM     97  C   UNL A   1      46.521  26.039  36.031  1.00  0.00     0.200 A 
ATOM     98  F   UNL A   1      45.042  24.278  36.570  1.00  0.00    -0.200 F 
ATOM     99  F   UNL A   1      47.465  25.505  36.818  1.00  0.00    -0.200 F 
ENDBRANCH  66  89
ENDBRANCH  40  41
ENDBRANCH  33  35
ENDBRANCH  32  33
ENDBRANCH  31  32
ENDBRANCH  30  31
ENDBRANCH  29  30
ENDBRANCH   1  29
TORSDOF 19
ENDMDL
MODEL 2
REMARK VINA RESULT:     -11.6      0.381      1.580
REMARK SMILES CC(C)(C)OC(=O)N1CCN(N[C@@H](C(=O)OCCOCCOC(=O)c2ccc(-c3c4nc(c(-c5c(F)c(F)c(F)c(F)c5F)c5ccc([nH]5)c(-c5c(F)c(F)c(F)c(F)c5F)c5nc(c(-c6c(F)c(F)c(F)c(F)c6F)c6ccc3[nH]6)C=C5)C=C4)cc2)c2ccccc2Cl)CC1
REMARK SMILES IDX 18 1 17 2 16 3 14 4 15 5 13 6 12 7 11 9 6 10 7 11 8 12 9 13
REMARK SMILES IDX 96 14 10 15 95 16 5 17 2 18 1 19 3 20 4 21 88 22 89 23 93 24
REMARK SMILES IDX 90 25 92 26 94 27 91 28 19 29 20 30 21 31 22 32 23 33 24 34
REMARK SMILES IDX 25 35 26 36 87 37 27 38 86 39 28 40 29 41 30 42 80 43 31 44
REMARK SMILES IDX 85 45 79 46 81 47 32 48 84 49 78 50 77 51 33 53 65 54 45 55
REMARK SMILES IDX 64 56 46 57 49 58 63 59 82 60 47 61 48 62 62 64 83 65 50 66
REMARK SMILES IDX 34 67 35 68 43 69 36 70 37 71 41 72 44 73 38 74 39 75 42 76
REMARK SMILES IDX 40 77 66 78 67 79 75 80 68 81 69 82 73 83 76 84 70 85 71 86
REMARK SMILES IDX 74 87 72 88 51 89 52 90 60 91 53 92 54 93 58 94 61 95 55 96
REMARK SMILES IDX 56 97 59 98 57 99
REMARK H PARENT 12 8 81 52 49 63
REMARK Flexibility Score: inf
ROOT
ATOM      1  C   UNL A   1      31.918  29.193  26.409  1.00  0.00     0.202 C 
ENDROOT
BRANCH   1   2
ATOM      2  C   UNL A   1      32.728  28.067  27.052  1.00  0.00     0.261 C 
BRANCH   2   3
ATOM      3  O   UNL A   1      32.858  26.971  26.135  1.00  0.00    -0.462 OA
BRANCH   3   4
ATOM      4  C   UNL A   1      31.755  26.200  25.952  1.00  0.00     0.329 C 
ATOM      5  O   UNL A   1      31.025  25.847  26.876  1.00  0.00    -0.250 OA
BRANCH   4   6
ATOM      6  C   UNL A   1      31.485  25.802  24.476  1.00  0.00     0.211 C 
BRANCH   6   7
ATOM      7  N   UNL A   1      32.604  25.130  23.725  1.00  0.00    -0.237 NA
ATOM      8  H   UNL A   1      32.857  25.726  22.938  1.00  0.00     0.143 HD
BRANCH   7   9
ATOM      9  N   UNL A   1      32.297  23.787  23.197  1.00  0.00    -0.240 NA
ATOM     10  C   UNL A   1      34.569  20.728  25.125  1.00  0.00     0.410 C 
ATOM     11  O   UNL A   1      35.778  20.597  24.962  1.00  0.00    -0.224 OA
ATOM     12  N   UNL A   1      33.894  21.865  24.754  1.00  0.00    -0.306 N 
ATOM     13  C   UNL A   1      34.513  22.753  23.787  1.00  0.00     0.140 C 
ATOM     14  C   UNL A   1      32.637  22.346  25.325  1.00  0.00     0.140 C 
ATOM     15  C   UNL A   1      33.498  23.084  22.689  1.00  0.00     0.124 C 
ATOM     16  C   UNL A   1      31.677  22.943  24.264  1.00  0.00     0.124 C 
BRANCH  10  17
ATOM     17  O   UNL A   1      33.745  19.750  25.579  1.00  0.00    -0.444 OA
BRANCH  17  18
ATOM     18  C   UNL A   1      33.388  18.651  24.694  1.00  0.00     0.106 C 
ATOM     19  C   UNL A   1      32.530  17.706  25.548  1.00  0.00     0.056 C 
ATOM     20  C   UNL A   1      34.657  17.921  24.251  1.00  0.00     0.056 C 
ATOM     21  C   UNL A   1      32.529  19.081  23.490  1.00  0.00     0.056 C 
ENDBRANCH  17  18
ENDBRANCH  10  17
ENDBRANCH   7   9
ENDBRANCH   6   7
BRANCH   6  22
ATOM     22  C   UNL A   1      30.989  27.013  23.671  1.00  0.00     0.000 A 
ATOM     23  C   UNL A   1      31.908  27.888  23.050  1.00  0.00     0.007 A 
ATOM     24  C   UNL A   1      29.622  27.319  23.549  1.00  0.00     0.046 A 
ATOM     25  C   UNL A   1      31.487  29.037  22.377  1.00  0.00     0.000 A 
ATOM     26  C   UNL A   1      29.203  28.472  22.872  1.00  0.00     0.021 A 
ATOM     27  Cl  UNL A   1      28.383  26.328  24.232  1.00  0.00    -0.084 Cl
ATOM     28  C   UNL A   1      30.133  29.334  22.295  1.00  0.00     0.002 A 
ENDBRANCH   6  22
ENDBRANCH   4   6
ENDBRANCH   3   4
ENDBRANCH   2   3
ENDBRANCH   1   2
BRANCH   1  29
ATOM     29  O   UNL A   1      32.354  30.529  26.664  1.00  0.00    -0.374 OA
BRANCH  29  30
ATOM     30  C   UNL A   1      31.400  31.576  26.508  1.00  0.00     0.202 C 
BRANCH  30  31
ATOM     31  C   UNL A   1      31.821  33.000  26.889  1.00  0.00     0.261 C 
BRANCH  31  32
ATOM     32  O   UNL A   1      33.244  33.177  26.876  1.00  0.00    -0.460 OA
BRANCH  32  33
ATOM     33  C   UNL A   1      33.764  33.559  28.067  1.00  0.00     0.338 C 
ATOM     34  O   UNL A   1      33.280  34.334  28.874  1.00  0.00    -0.246 OA
BRANCH  33  35
ATOM     35  C   UNL A   1      34.959  32.751  28.364  1.00  0.00     0.060 A 
ATOM     36  C   UNL A   1      34.770  31.385  28.617  1.00  0.00     0.016 A 
ATOM     37  C   UNL A   1      36.223  33.331  28.465  1.00  0.00     0.016 A 
ATOM     38  C   UNL A   1      35.838  30.601  29.040  1.00  0.00     0.010 A 
ATOM     39  C   UNL A   1      37.292  32.546  28.901  1.00  0.00     0.010 A 
ATOM     40  C   UNL A   1      37.090  31.194  29.236  1.00  0.00    -0.014 A 
BRANCH  40  41
ATOM     41  C   UNL A   1      38.138  30.471  29.992  1.00  0.00     0.031 A 
ATOM     42  C   UNL A   1      38.338  30.828  31.437  1.00  0.00     0.074 A 
ATOM     43  C   UNL A   1      38.894  29.529  29.405  1.00  0.00     0.049 A 
ATOM     44  N   UNL A   1      39.276  30.452  32.266  1.00  0.00    -0.248 NA
ATOM     45  C   UNL A   1      37.347  31.746  32.025  1.00  0.00     0.031 C 
ATOM     46  C   UNL A   1      38.743  29.059  28.031  1.00  0.00     0.029 A 
ATOM     47  N   UNL A   1      39.958  28.815  29.896  1.00  0.00    -0.354 N 
ATOM     48  C   UNL A   1      39.004  31.106  33.461  1.00  0.00     0.074 A 
ATOM     49  C   UNL A   1      37.829  31.920  33.246  1.00  0.00     0.031 C 
ATOM     50  C   UNL A   1      39.700  28.150  27.777  1.00  0.00     0.029 A 
ATOM     51  C   UNL A   1      40.554  28.012  28.955  1.00  0.00     0.049 A 
ATOM     52  H   UNL A   1      40.263  28.872  30.830  1.00  0.00     0.167 HD
ATOM     53  C   UNL A   1      39.677  31.029  34.632  1.00  0.00     0.037 A 
ATOM     54  C   UNL A   1      41.686  27.285  29.033  1.00  0.00     0.037 A 
ATOM     55  C   UNL A   1      40.841  30.208  34.832  1.00  0.00     0.049 A 
ATOM     56  C   UNL A   1      42.465  27.277  30.324  1.00  0.00     0.074 A 
ATOM     57  C   UNL A   1      41.594  30.045  35.980  1.00  0.00     0.029 A 
ATOM     58  N   UNL A   1      41.423  29.416  33.852  1.00  0.00    -0.354 N 
ATOM     59  N   UNL A   1      42.206  27.892  31.453  1.00  0.00    -0.248 NA
ATOM     60  C   UNL A   1      43.696  26.472  30.353  1.00  0.00     0.031 C 
ATOM     61  C   UNL A   1      42.668  29.203  35.679  1.00  0.00     0.029 A 
ATOM     62  C   UNL A   1      42.542  28.782  34.365  1.00  0.00     0.049 A 
ATOM     63  H   UNL A   1      41.091  29.321  32.931  1.00  0.00     0.167 HD
ATOM     64  C   UNL A   1      43.210  27.514  32.336  1.00  0.00     0.074 A 
ATOM     65  C   UNL A   1      44.088  26.620  31.611  1.00  0.00     0.031 C 
ATOM     66  C   UNL A   1      43.383  27.868  33.633  1.00  0.00     0.037 A 
BRANCH  53  67
ATOM     67  C   UNL A   1      39.196  31.879  35.772  1.00  0.00     0.064 A 
ATOM     68  C   UNL A   1      39.623  33.204  35.943  1.00  0.00     0.173 A 
ATOM     69  C   UNL A   1      38.267  31.366  36.691  1.00  0.00     0.173 A 
ATOM     70  F   UNL A   1      40.521  33.739  35.103  1.00  0.00    -0.203 F 
ATOM     71  C   UNL A   1      39.159  33.974  37.008  1.00  0.00     0.198 A 
ATOM     72  C   UNL A   1      37.780  32.150  37.734  1.00  0.00     0.198 A 
ATOM     73  F   UNL A   1      37.823  30.105  36.573  1.00  0.00    -0.203 F 
ATOM     74  F   UNL A   1      39.621  35.221  37.182  1.00  0.00    -0.200 F 
ATOM     75  C   UNL A   1      38.232  33.450  37.896  1.00  0.00     0.200 A 
ATOM     76  F   UNL A   1      36.873  31.646  38.581  1.00  0.00    -0.200 F 
ATOM     77  F   UNL A   1      37.780  34.195  38.914  1.00  0.00    -0.200 F 
ENDBRANCH  53  67
BRANCH  54  78
ATOM     78  C   UNL A   1      42.160  26.521  27.849  1.00  0.00     0.064 A 
ATOM     79  C   UNL A   1      43.101  27.067  26.966  1.00  0.00     0.173 A 
ATOM     80  C   UNL A   1      41.673  25.236  27.567  1.00  0.00     0.173 A 
ATOM     81  F   UNL A   1      43.581  28.302  27.179  1.00  0.00    -0.203 F 
ATOM     82  C   UNL A   1      43.521  26.368  25.836  1.00  0.00     0.198 A 
ATOM     83  C   UNL A   1      42.117  24.524  26.455  1.00  0.00     0.198 A 
ATOM     84  F   UNL A   1      40.771  24.666  28.379  1.00  0.00    -0.203 F 
ATOM     85  F   UNL A   1      44.383  26.935  24.982  1.00  0.00    -0.200 F 
ATOM     86  C   UNL A   1      43.033  25.095  25.585  1.00  0.00     0.200 A 
ATOM     87  F   UNL A   1      41.653  23.288  26.225  1.00  0.00    -0.200 F 
ATOM     88  F   UNL A   1      43.440  24.421  24.500  1.00  0.00    -0.200 F 
ENDBRANCH  54  78
BRANCH  66  89
ATOM     89  C   UNL A   1      44.515  27.233  34.390  1.00  0.00     0.064 A 
ATOM     90  C   UNL A   1      45.763  27.856  34.522  1.00  0.00     0.173 A 
ATOM     91  C   UNL A   1      44.306  26.022  35.071  1.00  0.00     0.173 A 
ATOM     92  F   UNL A   1      46.015  29.006  33.881  1.00  0.00    -0.203 F 
ATOM     93  C   UNL A   1      46.766  27.284  35.300  1.00  0.00     0.198 A 
ATOM     94  C   UNL A   1      45.300  25.471  35.873  1.00  0.00     0.198 A 
ATOM     95  F   UNL A   1      43.126  25.392  34.983  1.00  0.00    -0.203 F 
ATOM     96  F   UNL A   1      47.965  27.878  35.388  1.00  0.00    -0.200 F 
ATOM     97  C   UNL A   1      46.531  26.100  35.985  1.00  0.00     0.200 A 
ATOM     98  F   UNL A   1      45.062  24.339  36.549  1.00  0.00    -0.200 F 
ATOM     99  F   UNL A   1      47.490  25.565  36.753  1.00  0.00    -0.200 F 
ENDBRANCH  66  89
ENDBRANCH  40  41
ENDBRANCH  33  35
ENDBRANCH  32  33
ENDBRANCH  31  32
ENDBRANCH  30  31
ENDBRANCH  29  30
ENDBRANCH   1  29
TORSDOF 19
ENDMDL
MODEL 3
REMARK VINA RESULT:     -11.4      4.615      8.997
REMARK SMILES CC(C)(C)OC(=O)N1CCN(N[C@@H](C(=O)OCCOCCOC(=O)c2ccc(-c3c4nc(c(-c5c(F)c(F)c(F)c(F)c5F)c5ccc([nH]5)c(-c5c(F)c(F)c(F)c(F)c5F)c5nc(c(-c6c(F)c(F)c(F)c(F)c6F)c6ccc3[nH]6)C=C5)C=C4)cc2)c2ccccc2Cl)CC1
REMARK SMILES IDX 18 1 17 2 16 3 14 4 15 5 13 6 12 7 11 9 6 10 7 11 8 12 9 13
REMARK SMILES IDX 96 14 10 15 95 16 5 17 2 18 1 19 3 20 4 21 88 22 89 23 93 24
REMARK SMILES IDX 90 25 92 26 94 27 91 28 19 29 20 30 21 31 22 32 23 33 24 34
REMARK SMILES IDX 25 35 26 36 87 37 27 38 86 39 28 40 29 41 30 42 80 43 31 44
REMARK SMILES IDX 85 45 79 46 81 47 32 48 84 49 78 50 77 51 33 53 65 54 45 55
REMARK SMILES IDX 64 56 46 57 49 58 63 59 82 60 47 61 48 62 62 64 83 65 50 66
REMARK SMILES IDX 34 67 35 68 43 69 36 70 37 71 41 72 44 73 38 74 39 75 42 76
REMARK SMILES IDX 40 77 66 78 67 79 75 80 68 81 69 82 73 83 76 84 70 85 71 86
REMARK SMILES IDX 74 87 72 88 51 89 52 90 60 91 53 92 54 93 58 94 61 95 55 96
REMARK SMILES IDX 56 97 59 98 57 99
REMARK H PARENT 12 8 81 52 49 63
REMARK Flexibility Score: inf
ROOT
ATOM      1  C   UNL A   1      36.567  22.718  24.439  1.00  0.00     0.202 C 
ENDROOT
BRANCH   1   2
ATOM      2  C   UNL A   1      35.917  23.336  23.201  1.00  0.00     0.261 C 
BRANCH   2   3
ATOM      3  O   UNL A   1      34.766  24.104  23.583  1.00  0.00    -0.462 OA
BRANCH   3   4
ATOM      4  C   UNL A   1      33.642  23.921  22.842  1.00  0.00     0.329 C 
ATOM      5  O   UNL A   1      33.610  24.088  21.625  1.00  0.00    -0.250 OA
BRANCH   4   6
ATOM      6  C   UNL A   1      32.399  23.476  23.658  1.00  0.00     0.211 C 
BRANCH   6   7
ATOM      7  N   UNL A   1      31.900  24.415  24.725  1.00  0.00    -0.237 NA
ATOM      8  H   UNL A   1      31.921  23.918  25.615  1.00  0.00     0.143 HD
BRANCH   7   9
ATOM      9  N   UNL A   1      30.533  24.933  24.524  1.00  0.00    -0.240 NA
ATOM     10  C   UNL A   1      30.492  29.124  23.708  1.00  0.00     0.410 C 
ATOM     11  O   UNL A   1      30.768  29.968  24.554  1.00  0.00    -0.224 OA
ATOM     12  N   UNL A   1      30.786  27.792  23.871  1.00  0.00    -0.306 N 
ATOM     13  C   UNL A   1      31.040  27.300  25.212  1.00  0.00     0.140 C 
ATOM     14  C   UNL A   1      30.982  26.817  22.801  1.00  0.00     0.140 C 
ATOM     15  C   UNL A   1      30.201  26.041  25.451  1.00  0.00     0.124 C 
ATOM     16  C   UNL A   1      30.370  25.429  23.124  1.00  0.00     0.124 C 
BRANCH  10  17
ATOM     17  O   UNL A   1      29.781  29.373  22.580  1.00  0.00    -0.444 OA
BRANCH  17  18
ATOM     18  C   UNL A   1      28.437  29.920  22.690  1.00  0.00     0.106 C 
ATOM     19  C   UNL A   1      28.064  30.370  21.269  1.00  0.00     0.056 C 
ATOM     20  C   UNL A   1      28.456  31.137  23.617  1.00  0.00     0.056 C 
ATOM     21  C   UNL A   1      27.383  28.886  23.130  1.00  0.00     0.056 C 
ENDBRANCH  17  18
ENDBRANCH  10  17
ENDBRANCH   7   9
ENDBRANCH   6   7
BRANCH   6  22
ATOM     22  C   UNL A   1      32.623  22.085  24.270  1.00  0.00     0.000 A 
ATOM     23  C   UNL A   1      33.084  21.951  25.599  1.00  0.00     0.007 A 
ATOM     24  C   UNL A   1      32.416  20.904  23.535  1.00  0.00     0.046 A 
ATOM     25  C   UNL A   1      33.367  20.700  26.154  1.00  0.00     0.000 A 
ATOM     26  C   UNL A   1      32.701  19.652  24.096  1.00  0.00     0.021 A 
ATOM     27  Cl  UNL A   1      31.831  20.911  21.911  1.00  0.00    -0.084 Cl
ATOM     28  C   UNL A   1      33.184  19.551  25.399  1.00  0.00     0.002 A 
ENDBRANCH   6  22
ENDBRANCH   4   6
ENDBRANCH   3   4
ENDBRANCH   2   3
ENDBRANCH   1   2
BRANCH   1  29
ATOM     29  O   UNL A   1      37.350  21.540  24.239  1.00  0.00    -0.374 OA
BRANCH  29  30
ATOM     30  C   UNL A   1      37.869  20.887  25.394  1.00  0.00     0.202 C 
BRANCH  30  31
ATOM     31  C   UNL A   1      39.301  21.216  25.828  1.00  0.00     0.261 C 
BRANCH  31  32
ATOM     32  O   UNL A   1      39.898  20.167  26.604  1.00  0.00    -0.460 OA
BRANCH  32  33
ATOM     33  C   UNL A   1      41.174  19.880  26.254  1.00  0.00     0.338 C 
ATOM     34  O   UNL A   1      41.568  18.932  25.598  1.00  0.00    -0.246 OA
BRANCH  33  35
ATOM     35  C   UNL A   1      42.052  21.001  26.632  1.00  0.00     0.060 A 
ATOM     36  C   UNL A   1      42.189  21.283  27.999  1.00  0.00     0.016 A 
ATOM     37  C   UNL A   1      42.666  21.801  25.670  1.00  0.00     0.016 A 
ATOM     38  C   UNL A   1      42.890  22.412  28.409  1.00  0.00     0.010 A 
ATOM     39  C   UNL A   1      43.359  22.940  26.082  1.00  0.00     0.010 A 
ATOM     40  C   UNL A   1      43.429  23.273  27.448  1.00  0.00    -0.014 A 
BRANCH  40  41
ATOM     41  C   UNL A   1      43.878  24.628  27.841  1.00  0.00     0.031 A 
ATOM     42  C   UNL A   1      42.828  25.646  28.186  1.00  0.00     0.074 A 
ATOM     43  C   UNL A   1      45.183  24.944  27.883  1.00  0.00     0.049 A 
ATOM     44  N   UNL A   1      42.954  26.927  28.413  1.00  0.00    -0.248 NA
ATOM     45  C   UNL A   1      41.444  25.151  28.275  1.00  0.00     0.031 C 
ATOM     46  C   UNL A   1      46.284  24.019  27.632  1.00  0.00     0.029 A 
ATOM     47  N   UNL A   1      45.795  26.146  28.133  1.00  0.00    -0.354 N 
ATOM     48  C   UNL A   1      41.666  27.394  28.646  1.00  0.00     0.074 A 
ATOM     49  C   UNL A   1      40.772  26.267  28.509  1.00  0.00     0.031 C 
ATOM     50  C   UNL A   1      47.444  24.694  27.714  1.00  0.00     0.029 A 
ATOM     51  C   UNL A   1      47.159  26.104  27.977  1.00  0.00     0.049 A 
ATOM     52  H   UNL A   1      45.306  26.957  28.398  1.00  0.00     0.167 HD
ATOM     53  C   UNL A   1      41.271  28.652  28.948  1.00  0.00     0.037 A 
ATOM     54  C   UNL A   1      48.062  27.104  28.004  1.00  0.00     0.037 A 
ATOM     55  C   UNL A   1      42.176  29.762  29.087  1.00  0.00     0.049 A 
ATOM     56  C   UNL A   1      47.590  28.512  28.263  1.00  0.00     0.074 A 
ATOM     57  C   UNL A   1      41.886  31.077  29.402  1.00  0.00     0.029 A 
ATOM     58  N   UNL A   1      43.550  29.684  28.911  1.00  0.00    -0.354 N 
ATOM     59  N   UNL A   1      46.375  28.952  28.486  1.00  0.00    -0.248 NA
ATOM     60  C   UNL A   1      48.615  29.566  28.275  1.00  0.00     0.031 C 
ATOM     61  C   UNL A   1      43.076  31.807  29.357  1.00  0.00     0.029 A 
ATOM     62  C   UNL A   1      44.118  30.934  29.087  1.00  0.00     0.049 A 
ATOM     63  H   UNL A   1      44.046  28.862  28.693  1.00  0.00     0.167 HD
ATOM     64  C   UNL A   1      46.494  30.317  28.709  1.00  0.00     0.074 A 
ATOM     65  C   UNL A   1      47.901  30.637  28.590  1.00  0.00     0.031 C 
ATOM     66  C   UNL A   1      45.527  31.223  28.998  1.00  0.00     0.037 A 
BRANCH  53  67
ATOM     67  C   UNL A   1      39.800  28.903  29.110  1.00  0.00     0.064 A 
ATOM     68  C   UNL A   1      39.159  28.786  30.353  1.00  0.00     0.173 A 
ATOM     69  C   UNL A   1      39.026  29.298  28.009  1.00  0.00     0.173 A 
ATOM     70  F   UNL A   1      39.849  28.397  31.436  1.00  0.00    -0.203 F 
ATOM     71  C   UNL A   1      37.793  29.027  30.479  1.00  0.00     0.198 A 
ATOM     72  C   UNL A   1      37.667  29.571  28.145  1.00  0.00     0.198 A 
ATOM     73  F   UNL A   1      39.589  29.428  26.797  1.00  0.00    -0.203 F 
ATOM     74  F   UNL A   1      37.191  28.857  31.665  1.00  0.00    -0.200 F 
ATOM     75  C   UNL A   1      37.051  29.427  29.378  1.00  0.00     0.200 A 
ATOM     76  F   UNL A   1      36.956  29.973  27.084  1.00  0.00    -0.200 F 
ATOM     77  F   UNL A   1      35.738  29.668  29.503  1.00  0.00    -0.200 F 
ENDBRANCH  53  67
BRANCH  54  78
ATOM     78  C   UNL A   1      49.499  26.812  27.761  1.00  0.00     0.064 A 
ATOM     79  C   UNL A   1      50.375  26.553  28.824  1.00  0.00     0.173 A 
ATOM     80  C   UNL A   1      50.032  26.799  26.462  1.00  0.00     0.173 A 
ATOM     81  F   UNL A   1      49.919  26.576  30.086  1.00  0.00    -0.203 F 
ATOM     82  C   UNL A   1      51.729  26.314  28.602  1.00  0.00     0.198 A 
ATOM     83  C   UNL A   1      51.380  26.528  26.238  1.00  0.00     0.198 A 
ATOM     84  F   UNL A   1      49.238  27.039  25.408  1.00  0.00    -0.203 F 
ATOM     85  F   UNL A   1      52.552  26.120  29.641  1.00  0.00    -0.200 F 
ATOM     86  C   UNL A   1      52.230  26.296  27.309  1.00  0.00     0.200 A 
ATOM     87  F   UNL A   1      51.855  26.497  24.986  1.00  0.00    -0.200 F 
ATOM     88  F   UNL A   1      53.532  26.062  27.095  1.00  0.00    -0.200 F 
ENDBRANCH  54  78
BRANCH  66  89
ATOM     89  C   UNL A   1      45.950  32.635  29.286  1.00  0.00     0.064 A 
ATOM     90  C   UNL A   1      46.046  33.604  28.278  1.00  0.00     0.173 A 
ATOM     91  C   UNL A   1      46.172  33.039  30.613  1.00  0.00     0.173 A 
ATOM     92  F   UNL A   1      45.856  33.265  26.995  1.00  0.00    -0.203 F 
ATOM     93  C   UNL A   1      46.358  34.925  28.587  1.00  0.00     0.198 A 
ATOM     94  C   UNL A   1      46.451  34.367  30.920  1.00  0.00     0.198 A 
ATOM     95  F   UNL A   1      46.084  32.151  31.614  1.00  0.00    -0.203 F 
ATOM     96  F   UNL A   1      46.476  35.831  27.606  1.00  0.00    -0.200 F 
ATOM     97  C   UNL A   1      46.547  35.309  29.907  1.00  0.00     0.200 A 
ATOM     98  F   UNL A   1      46.614  34.737  32.198  1.00  0.00    -0.200 F 
ATOM     99  F   UNL A   1      46.823  36.586  30.204  1.00  0.00    -0.200 F 
ENDBRANCH  66  89
ENDBRANCH  40  41
ENDBRANCH  33  35
ENDBRANCH  32  33
ENDBRANCH  31  32
ENDBRANCH  30  31
ENDBRANCH  29  30
ENDBRANCH   1  29
TORSDOF 19
ENDMDL
