MODEL 1
REMARK VINA RESULT:     -11.0      0.000      0.000
REMARK SMILES CC[NH2+][C@@]1(C(=O)OCCOCCOC(=O)c2ccc(-c3c4nc(c(-c5c(F)c(F)c(F)c(F)c5F)c5ccc([nH]5)c(-c5c(F)c(F)c(F)c(F)c5F)c5nc(c(-c6c(F)c(F)c(F)c(F)c6F)c6ccc3[nH]6)C=C5)C=C4)cc2)CCC[C@H]1CCSc1cnn(C)c1
REMARK SMILES IDX 9 1 8 2 7 3 5 4 6 5 4 6 79 7 82 8 80 9 81 10 3 11 2 14 1 15
REMARK SMILES IDX 83 16 84 17 85 18 86 19 87 20 91 21 88 22 89 23 90 24 10 25
REMARK SMILES IDX 11 26 12 27 13 28 14 29 15 30 16 31 17 32 78 33 18 34 77 35
REMARK SMILES IDX 19 36 20 37 21 38 71 39 22 40 76 41 70 42 72 43 23 44 75 45
REMARK SMILES IDX 69 46 68 47 24 49 56 50 36 51 55 52 37 53 40 54 54 55 73 56
REMARK SMILES IDX 38 57 39 58 53 60 74 61 41 62 25 63 26 64 34 65 27 66 28 67
REMARK SMILES IDX 32 68 35 69 29 70 30 71 33 72 31 73 57 74 58 75 66 76 59 77
REMARK SMILES IDX 60 78 64 79 67 80 61 81 62 82 65 83 63 84 42 85 43 86 51 87
REMARK SMILES IDX 44 88 45 89 49 90 52 91 46 92 47 93 50 94 48 95
REMARK H PARENT 3 12 3 13 72 48 40 59
REMARK Flexibility Score: inf
ROOT
ATOM      1  C   UNL A   1      34.669  31.801  28.066  1.00  0.00     0.202 C 
ENDROOT
BRANCH   1   2
ATOM      2  C   UNL A   1      33.501  31.271  27.213  1.00  0.00     0.261 C 
BRANCH   2   3
ATOM      3  O   UNL A   1      33.575  29.851  26.966  1.00  0.00    -0.459 OA
BRANCH   3   4
ATOM      4  C   UNL A   1      32.402  29.256  26.640  1.00  0.00     0.368 C 
ATOM      5  O   UNL A   1      31.414  29.270  27.372  1.00  0.00    -0.245 OA
BRANCH   4   6
ATOM      6  C   UNL A   1      32.381  28.516  25.224  1.00  0.00     0.197 C 
ATOM      7  C   UNL A   1      31.439  27.325  25.507  1.00  0.00     0.081 C 
ATOM      8  C   UNL A   1      33.652  27.765  24.692  1.00  0.00     0.063 C 
ATOM      9  C   UNL A   1      32.363  26.292  26.160  1.00  0.00     0.008 C 
ATOM     10  C   UNL A   1      33.614  26.345  25.309  1.00  0.00     0.011 C 
BRANCH   6  11
ATOM     11  N   UNL A   1      31.883  29.532  24.241  1.00  0.00    -0.332 N 
ATOM     12  H   UNL A   1      31.956  30.462  24.652  1.00  0.00     0.347 HD
ATOM     13  H   UNL A   1      32.448  29.476  23.394  1.00  0.00     0.347 HD
BRANCH  11  14
ATOM     14  C   UNL A   1      30.466  29.262  23.892  1.00  0.00     0.257 C 
ATOM     15  C   UNL A   1      30.034  29.685  22.500  1.00  0.00     0.071 C 
ENDBRANCH  11  14
ENDBRANCH   6  11
BRANCH   8  16
ATOM     16  C   UNL A   1      34.021  27.659  23.181  1.00  0.00     0.022 C 
BRANCH  16  17
ATOM     17  C   UNL A   1      32.986  27.253  22.086  1.00  0.00     0.075 C 
BRANCH  17  18
ATOM     18  S   UNL A   1      32.658  25.587  21.265  1.00  0.00    -0.123 SA
BRANCH  18  19
ATOM     19  C   UNL A   1      32.767  24.294  22.452  1.00  0.00     0.045 A 
ATOM     20  C   UNL A   1      34.323  23.353  23.130  1.00  0.00     0.150 A 
ATOM     21  C   UNL A   1      31.444  23.886  23.405  1.00  0.00     0.123 A 
ATOM     22  N   UNL A   1      33.818  22.444  24.570  1.00  0.00    -0.181 NA
ATOM     23  N   UNL A   1      31.981  22.851  24.802  1.00  0.00    -0.275 N 
ATOM     24  C   UNL A   1      31.047  22.649  25.887  1.00  0.00     0.173 C 
ENDBRANCH  18  19
ENDBRANCH  17  18
ENDBRANCH  16  17
ENDBRANCH   8  16
ENDBRANCH   4   6
ENDBRANCH   3   4
ENDBRANCH   2   3
ENDBRANCH   1   2
BRANCH   1  25
ATOM     25  O   UNL A   1      34.587  31.559  29.473  1.00  0.00    -0.374 OA
BRANCH  25  26
ATOM     26  C   UNL A   1      34.778  32.796  30.496  1.00  0.00     0.202 C 
BRANCH  26  27
ATOM     27  C   UNL A   1      34.847  32.824  32.764  1.00  0.00     0.261 C 
BRANCH  27  28
ATOM     28  O   UNL A   1      36.262  32.895  33.635  1.00  0.00    -0.460 OA
BRANCH  28  29
ATOM     29  C   UNL A   1      37.340  33.635  33.228  1.00  0.00     0.338 C 
ATOM     30  O   UNL A   1      37.689  34.741  33.593  1.00  0.00    -0.246 OA
BRANCH  29  31
ATOM     31  C   UNL A   1      38.189  32.746  32.378  1.00  0.00     0.060 A 
ATOM     32  C   UNL A   1      39.022  31.786  32.980  1.00  0.00     0.016 A 
ATOM     33  C   UNL A   1      38.062  32.765  30.983  1.00  0.00     0.016 A 
ATOM     34  C   UNL A   1      39.801  30.928  32.188  1.00  0.00     0.010 A 
ATOM     35  C   UNL A   1      38.803  31.878  30.196  1.00  0.00     0.010 A 
ATOM     36  C   UNL A   1      39.746  31.018  30.790  1.00  0.00    -0.014 A 
BRANCH  36  37
ATOM     37  C   UNL A   1      40.852  30.469  29.956  1.00  0.00     0.031 A 
ATOM     38  C   UNL A   1      42.009  31.391  29.641  1.00  0.00     0.074 A 
ATOM     39  C   UNL A   1      40.875  29.196  29.518  1.00  0.00     0.049 A 
ATOM     40  N   UNL A   1      43.090  31.173  28.934  1.00  0.00    -0.248 NA
ATOM     41  C   UNL A   1      41.925  32.756  30.188  1.00  0.00     0.031 C 
ATOM     42  C   UNL A   1      39.841  28.195  29.760  1.00  0.00     0.029 A 
ATOM     43  N   UNL A   1      41.818  28.529  28.769  1.00  0.00    -0.354 N 
ATOM     44  C   UNL A   1      43.797  32.370  28.951  1.00  0.00     0.074 A 
ATOM     45  C   UNL A   1      42.997  33.331  29.672  1.00  0.00     0.031 C 
ATOM     46  C   UNL A   1      40.209  27.037  29.182  1.00  0.00     0.029 A 
ATOM     47  C   UNL A   1      41.489  27.223  28.500  1.00  0.00     0.049 A 
ATOM     48  H   UNL A   1      42.650  28.950  28.455  1.00  0.00     0.167 HD
ATOM     49  C   UNL A   1      45.018  32.647  28.435  1.00  0.00     0.037 A 
ATOM     50  C   UNL A   1      42.144  26.291  27.777  1.00  0.00     0.037 A 
ATOM     51  C   UNL A   1      45.823  31.691  27.722  1.00  0.00     0.049 A 
ATOM     52  C   UNL A   1      43.475  26.639  27.154  1.00  0.00     0.074 A 
ATOM     53  C   UNL A   1      47.083  31.860  27.180  1.00  0.00     0.029 A 
ATOM     54  N   UNL A   1      45.437  30.389  27.443  1.00  0.00    -0.354 N 
ATOM     55  N   UNL A   1      44.153  27.761  27.212  1.00  0.00    -0.248 NA
ATOM     56  C   UNL A   1      44.138  25.583  26.375  1.00  0.00     0.031 C 
ATOM     57  C   UNL A   1      47.426  30.686  26.504  1.00  0.00     0.029 A 
ATOM     58  C   UNL A   1      46.419  29.755  26.700  1.00  0.00     0.049 A 
ATOM     59  H   UNL A   1      44.589  29.976  27.729  1.00  0.00     0.167 HD
ATOM     60  C   UNL A   1      45.331  27.535  26.507  1.00  0.00     0.074 A 
ATOM     61  C   UNL A   1      45.286  26.159  26.058  1.00  0.00     0.031 C 
ATOM     62  C   UNL A   1      46.358  28.385  26.253  1.00  0.00     0.037 A 
BRANCH  49  63
ATOM     63  C   UNL A   1      45.545  34.046  28.602  1.00  0.00     0.064 A 
ATOM     64  C   UNL A   1      46.341  34.419  29.697  1.00  0.00     0.173 A 
ATOM     65  C   UNL A   1      45.265  35.026  27.637  1.00  0.00     0.173 A 
ATOM     66  F   UNL A   1      46.625  33.529  30.660  1.00  0.00    -0.203 F 
ATOM     67  C   UNL A   1      46.805  35.725  29.837  1.00  0.00     0.198 A 
ATOM     68  C   UNL A   1      45.766  36.319  27.758  1.00  0.00     0.198 A 
ATOM     69  F   UNL A   1      44.511  34.727  26.569  1.00  0.00    -0.203 F 
ATOM     70  F   UNL A   1      47.508  36.072  30.924  1.00  0.00    -0.200 F 
ATOM     71  C   UNL A   1      46.526  36.671  28.862  1.00  0.00     0.200 A 
ATOM     72  F   UNL A   1      45.509  37.226  26.806  1.00  0.00    -0.200 F 
ATOM     73  F   UNL A   1      46.982  37.924  28.992  1.00  0.00    -0.200 F 
ENDBRANCH  49  63
BRANCH  50  74
ATOM     74  C   UNL A   1      41.558  24.932  27.594  1.00  0.00     0.064 A 
ATOM     75  C   UNL A   1      40.441  24.722  26.772  1.00  0.00     0.173 A 
ATOM     76  C   UNL A   1      42.082  23.819  28.267  1.00  0.00     0.173 A 
ATOM     77  F   UNL A   1      39.881  25.756  26.126  1.00  0.00    -0.203 F 
ATOM     78  C   UNL A   1      39.856  23.462  26.652  1.00  0.00     0.198 A 
ATOM     79  C   UNL A   1      41.522  22.551  28.116  1.00  0.00     0.198 A 
ATOM     80  F   UNL A   1      43.148  23.959  29.070  1.00  0.00    -0.203 F 
ATOM     81  F   UNL A   1      38.753  23.304  25.908  1.00  0.00    -0.200 F 
ATOM     82  C   UNL A   1      40.402  22.376  27.318  1.00  0.00     0.200 A 
ATOM     83  F   UNL A   1      42.066  21.502  28.749  1.00  0.00    -0.200 F 
ATOM     84  F   UNL A   1      39.846  21.162  27.198  1.00  0.00    -0.200 F 
ENDBRANCH  50  74
BRANCH  62  85
ATOM     85  C   UNL A   1      47.534  27.840  25.488  1.00  0.00     0.064 A 
ATOM     86  C   UNL A   1      48.687  27.365  26.133  1.00  0.00     0.173 A 
ATOM     87  C   UNL A   1      47.506  27.789  24.084  1.00  0.00     0.173 A 
ATOM     88  F   UNL A   1      48.771  27.391  27.472  1.00  0.00    -0.203 F 
ATOM     89  C   UNL A   1      49.787  26.921  25.403  1.00  0.00     0.198 A 
ATOM     90  C   UNL A   1      48.589  27.300  23.359  1.00  0.00     0.198 A 
ATOM     91  F   UNL A   1      46.425  28.213  23.412  1.00  0.00    -0.203 F 
ATOM     92  F   UNL A   1      50.907  26.556  26.041  1.00  0.00    -0.200 F 
ATOM     93  C   UNL A   1      49.736  26.884  24.017  1.00  0.00     0.200 A 
ATOM     94  F   UNL A   1      48.526  27.242  22.022  1.00  0.00    -0.200 F 
ATOM     95  F   UNL A   1      50.795  26.460  23.317  1.00  0.00    -0.200 F 
ENDBRANCH  62  85
ENDBRANCH  36  37
ENDBRANCH  29  31
ENDBRANCH  28  29
ENDBRANCH  27  28
ENDBRANCH  26  27
ENDBRANCH  25  26
ENDBRANCH   1  25
TORSDOF 20
ENDMDL
MODEL 2
REMARK VINA RESULT:     -10.4      3.249      4.381
REMARK SMILES CC[NH2+][C@@]1(C(=O)OCCOCCOC(=O)c2ccc(-c3c4nc(c(-c5c(F)c(F)c(F)c(F)c5F)c5ccc([nH]5)c(-c5c(F)c(F)c(F)c(F)c5F)c5nc(c(-c6c(F)c(F)c(F)c(F)c6F)c6ccc3[nH]6)C=C5)C=C4)cc2)CCC[C@H]1CCSc1cnn(C)c1
REMARK SMILES IDX 9 1 8 2 7 3 5 4 6 5 4 6 79 7 82 8 80 9 81 10 3 11 2 14 1 15
REMARK SMILES IDX 83 16 84 17 85 18 86 19 87 20 91 21 88 22 89 23 90 24 10 25
REMARK SMILES IDX 11 26 12 27 13 28 14 29 15 30 16 31 17 32 78 33 18 34 77 35
REMARK SMILES IDX 19 36 20 37 21 38 71 39 22 40 76 41 70 42 72 43 23 44 75 45
REMARK SMILES IDX 69 46 68 47 24 49 56 50 36 51 55 52 37 53 40 54 54 55 73 56
REMARK SMILES IDX 38 57 39 58 53 60 74 61 41 62 25 63 26 64 34 65 27 66 28 67
REMARK SMILES IDX 32 68 35 69 29 70 30 71 33 72 31 73 57 74 58 75 66 76 59 77
REMARK SMILES IDX 60 78 64 79 67 80 61 81 62 82 65 83 63 84 42 85 43 86 51 87
REMARK SMILES IDX 44 88 45 89 49 90 52 91 46 92 47 93 50 94 48 95
REMARK H PARENT 3 12 3 13 72 48 40 59
REMARK Flexibility Score: inf
ROOT
ATOM      1  C   UNL A   1      31.055  31.413  26.508  1.00  0.00     0.202 C 
ENDROOT
BRANCH   1   2
ATOM      2  C   UNL A   1      32.135  30.365  26.185  1.00  0.00     0.261 C 
BRANCH   2   3
ATOM      3  O   UNL A   1      31.596  29.141  25.644  1.00  0.00    -0.459 OA
BRANCH   3   4
ATOM      4  C   UNL A   1      31.639  28.070  26.473  1.00  0.00     0.368 C 
ATOM      5  O   UNL A   1      31.421  28.145  27.682  1.00  0.00    -0.245 OA
BRANCH   4   6
ATOM      6  C   UNL A   1      32.005  26.679  25.776  1.00  0.00     0.197 C 
ATOM      7  C   UNL A   1      31.039  26.670  24.571  1.00  0.00     0.081 C 
ATOM      8  C   UNL A   1      31.634  25.317  26.461  1.00  0.00     0.063 C 
ATOM      9  C   UNL A   1      29.728  26.153  25.174  1.00  0.00     0.008 C 
ATOM     10  C   UNL A   1      30.171  25.006  26.057  1.00  0.00     0.011 C 
BRANCH   6  11
ATOM     11  N   UNL A   1      33.466  26.758  25.450  1.00  0.00    -0.332 N 
ATOM     12  H   UNL A   1      33.859  27.600  25.870  1.00  0.00     0.347 HD
ATOM     13  H   UNL A   1      33.932  25.930  25.820  1.00  0.00     0.347 HD
BRANCH  11  14
ATOM     14  C   UNL A   1      33.665  26.806  23.981  1.00  0.00     0.257 C 
ATOM     15  C   UNL A   1      34.013  28.167  23.403  1.00  0.00     0.071 C 
ENDBRANCH  11  14
ENDBRANCH   6  11
BRANCH   8  16
ATOM     16  C   UNL A   1      32.490  24.022  26.323  1.00  0.00     0.022 C 
BRANCH  16  17
ATOM     17  C   UNL A   1      31.890  22.658  25.858  1.00  0.00     0.075 C 
BRANCH  17  18
ATOM     18  S   UNL A   1      32.694  21.202  24.969  1.00  0.00    -0.123 SA
BRANCH  18  19
ATOM     19  C   UNL A   1      34.324  21.627  24.462  1.00  0.00     0.045 A 
ATOM     20  C   UNL A   1      34.943  23.107  23.371  1.00  0.00     0.150 A 
ATOM     21  C   UNL A   1      35.663  20.881  25.153  1.00  0.00     0.123 A 
ATOM     22  N   UNL A   1      36.708  23.202  23.543  1.00  0.00    -0.181 NA
ATOM     23  N   UNL A   1      37.169  21.822  24.758  1.00  0.00    -0.275 N 
ATOM     24  C   UNL A   1      38.369  21.512  25.502  1.00  0.00     0.173 C 
ENDBRANCH  18  19
ENDBRANCH  17  18
ENDBRANCH  16  17
ENDBRANCH   8  16
ENDBRANCH   4   6
ENDBRANCH   3   4
ENDBRANCH   2   3
ENDBRANCH   1   2
BRANCH   1  25
ATOM     25  O   UNL A   1      31.403  32.778  26.266  1.00  0.00    -0.374 OA
BRANCH  25  26
ATOM     26  C   UNL A   1      32.331  33.557  27.338  1.00  0.00     0.202 C 
BRANCH  26  27
ATOM     27  C   UNL A   1      34.396  33.051  28.129  1.00  0.00     0.261 C 
BRANCH  27  28
ATOM     28  O   UNL A   1      34.742  31.646  28.951  1.00  0.00    -0.460 OA
BRANCH  28  29
ATOM     29  C   UNL A   1      35.365  31.643  30.169  1.00  0.00     0.338 C 
ATOM     30  O   UNL A   1      34.946  32.031  31.243  1.00  0.00    -0.246 OA
BRANCH  29  31
ATOM     31  C   UNL A   1      36.626  30.854  30.018  1.00  0.00     0.060 A 
ATOM     32  C   UNL A   1      36.931  29.836  30.939  1.00  0.00     0.016 A 
ATOM     33  C   UNL A   1      37.440  31.024  28.891  1.00  0.00     0.016 A 
ATOM     34  C   UNL A   1      38.098  29.071  30.787  1.00  0.00     0.010 A 
ATOM     35  C   UNL A   1      38.577  30.230  28.716  1.00  0.00     0.010 A 
ATOM     36  C   UNL A   1      38.963  29.313  29.710  1.00  0.00    -0.014 A 
BRANCH  36  37
ATOM     37  C   UNL A   1      40.382  28.860  29.768  1.00  0.00     0.031 A 
ATOM     38  C   UNL A   1      41.360  29.733  30.522  1.00  0.00     0.074 A 
ATOM     39  C   UNL A   1      40.804  27.706  29.217  1.00  0.00     0.049 A 
ATOM     40  N   UNL A   1      42.646  29.579  30.719  1.00  0.00    -0.248 NA
ATOM     41  C   UNL A   1      40.811  30.958  31.126  1.00  0.00     0.031 C 
ATOM     42  C   UNL A   1      39.971  26.762  28.479  1.00  0.00     0.029 A 
ATOM     43  N   UNL A   1      42.056  27.134  29.198  1.00  0.00    -0.354 N 
ATOM     44  C   UNL A   1      43.048  30.688  31.456  1.00  0.00     0.074 A 
ATOM     45  C   UNL A   1      41.894  31.540  31.612  1.00  0.00     0.031 C 
ATOM     46  C   UNL A   1      40.730  25.722  28.089  1.00  0.00     0.029 A 
ATOM     47  C   UNL A   1      42.110  25.941  28.520  1.00  0.00     0.049 A 
ATOM     48  H   UNL A   1      42.839  27.543  29.631  1.00  0.00     0.167 HD
ATOM     49  C   UNL A   1      44.264  30.966  31.982  1.00  0.00     0.037 A 
ATOM     50  C   UNL A   1      43.157  25.127  28.270  1.00  0.00     0.037 A 
ATOM     51  C   UNL A   1      45.415  30.116  31.836  1.00  0.00     0.049 A 
ATOM     52  C   UNL A   1      44.520  25.490  28.811  1.00  0.00     0.074 A 
ATOM     53  C   UNL A   1      46.687  30.292  32.349  1.00  0.00     0.029 A 
ATOM     54  N   UNL A   1      45.434  28.934  31.112  1.00  0.00    -0.354 N 
ATOM     55  N   UNL A   1      44.879  26.518  29.541  1.00  0.00    -0.248 NA
ATOM     56  C   UNL A   1      45.621  24.566  28.501  1.00  0.00     0.031 C 
ATOM     57  C   UNL A   1      47.495  29.257  31.870  1.00  0.00     0.029 A 
ATOM     58  C   UNL A   1      46.707  28.389  31.132  1.00  0.00     0.049 A 
ATOM     59  H   UNL A   1      44.657  28.539  30.652  1.00  0.00     0.167 HD
ATOM     60  C   UNL A   1      46.234  26.349  29.804  1.00  0.00     0.074 A 
ATOM     61  C   UNL A   1      46.624  25.102  29.178  1.00  0.00     0.031 C 
ATOM     62  C   UNL A   1      47.083  27.149  30.499  1.00  0.00     0.037 A 
BRANCH  49  63
ATOM     63  C   UNL A   1      44.416  32.255  32.743  1.00  0.00     0.064 A 
ATOM     64  C   UNL A   1      44.055  32.372  34.095  1.00  0.00     0.173 A 
ATOM     65  C   UNL A   1      44.951  33.389  32.111  1.00  0.00     0.173 A 
ATOM     66  F   UNL A   1      43.522  31.326  34.745  1.00  0.00    -0.203 F 
ATOM     67  C   UNL A   1      44.192  33.580  34.774  1.00  0.00     0.198 A 
ATOM     68  C   UNL A   1      45.126  34.584  32.804  1.00  0.00     0.198 A 
ATOM     69  F   UNL A   1      45.313  33.337  30.821  1.00  0.00    -0.203 F 
ATOM     70  F   UNL A   1      43.781  33.684  36.045  1.00  0.00    -0.200 F 
ATOM     71  C   UNL A   1      44.736  34.682  34.131  1.00  0.00     0.200 A 
ATOM     72  F   UNL A   1      45.668  35.641  32.186  1.00  0.00    -0.200 F 
ATOM     73  F   UNL A   1      44.878  35.841  34.788  1.00  0.00    -0.200 F 
ENDBRANCH  49  63
BRANCH  50  74
ATOM     74  C   UNL A   1      42.969  23.886  27.466  1.00  0.00     0.064 A 
ATOM     75  C   UNL A   1      42.495  22.702  28.050  1.00  0.00     0.173 A 
ATOM     76  C   UNL A   1      43.294  23.848  26.102  1.00  0.00     0.173 A 
ATOM     77  F   UNL A   1      42.195  22.673  29.357  1.00  0.00    -0.203 F 
ATOM     78  C   UNL A   1      42.380  21.525  27.309  1.00  0.00     0.198 A 
ATOM     79  C   UNL A   1      43.141  22.683  25.353  1.00  0.00     0.198 A 
ATOM     80  F   UNL A   1      43.755  24.949  25.490  1.00  0.00    -0.203 F 
ATOM     81  F   UNL A   1      41.983  20.394  27.909  1.00  0.00    -0.200 F 
ATOM     82  C   UNL A   1      42.695  21.519  25.960  1.00  0.00     0.200 A 
ATOM     83  F   UNL A   1      43.431  22.688  24.044  1.00  0.00    -0.200 F 
ATOM     84  F   UNL A   1      42.578  20.391  25.246  1.00  0.00    -0.200 F 
ENDBRANCH  50  74
BRANCH  62  85
ATOM     85  C   UNL A   1      48.505  26.681  30.652  1.00  0.00     0.064 A 
ATOM     86  C   UNL A   1      48.897  25.817  31.686  1.00  0.00     0.173 A 
ATOM     87  C   UNL A   1      49.493  27.102  29.747  1.00  0.00     0.173 A 
ATOM     88  F   UNL A   1      47.997  25.384  32.583  1.00  0.00    -0.203 F 
ATOM     89  C   UNL A   1      50.230  25.444  31.845  1.00  0.00     0.198 A 
ATOM     90  C   UNL A   1      50.816  26.689  29.880  1.00  0.00     0.198 A 
ATOM     91  F   UNL A   1      49.176  27.914  28.727  1.00  0.00    -0.203 F 
ATOM     92  F   UNL A   1      50.591  24.690  32.892  1.00  0.00    -0.200 F 
ATOM     93  C   UNL A   1      51.187  25.876  30.940  1.00  0.00     0.200 A 
ATOM     94  F   UNL A   1      51.733  27.088  28.988  1.00  0.00    -0.200 F 
ATOM     95  F   UNL A   1      52.469  25.520  31.096  1.00  0.00    -0.200 F 
ENDBRANCH  62  85
ENDBRANCH  36  37
ENDBRANCH  29  31
ENDBRANCH  28  29
ENDBRANCH  27  28
ENDBRANCH  26  27
ENDBRANCH  25  26
ENDBRANCH   1  25
TORSDOF 20
ENDMDL
MODEL 3
REMARK VINA RESULT:     -10.4      5.406      8.043
REMARK SMILES CC[NH2+][C@@]1(C(=O)OCCOCCOC(=O)c2ccc(-c3c4nc(c(-c5c(F)c(F)c(F)c(F)c5F)c5ccc([nH]5)c(-c5c(F)c(F)c(F)c(F)c5F)c5nc(c(-c6c(F)c(F)c(F)c(F)c6F)c6ccc3[nH]6)C=C5)C=C4)cc2)CCC[C@H]1CCSc1cnn(C)c1
REMARK SMILES IDX 9 1 8 2 7 3 5 4 6 5 4 6 79 7 82 8 80 9 81 10 3 11 2 14 1 15
REMARK SMILES IDX 83 16 84 17 85 18 86 19 87 20 91 21 88 22 89 23 90 24 10 25
REMARK SMILES IDX 11 26 12 27 13 28 14 29 15 30 16 31 17 32 78 33 18 34 77 35
REMARK SMILES IDX 19 36 20 37 21 38 71 39 22 40 76 41 70 42 72 43 23 44 75 45
REMARK SMILES IDX 69 46 68 47 24 49 56 50 36 51 55 52 37 53 40 54 54 55 73 56
REMARK SMILES IDX 38 57 39 58 53 60 74 61 41 62 25 63 26 64 34 65 27 66 28 67
REMARK SMILES IDX 32 68 35 69 29 70 30 71 33 72 31 73 57 74 58 75 66 76 59 77
REMARK SMILES IDX 60 78 64 79 67 80 61 81 62 82 65 83 63 84 42 85 43 86 51 87
REMARK SMILES IDX 44 88 45 89 49 90 52 91 46 92 47 93 50 94 48 95
REMARK H PARENT 3 12 3 13 72 48 40 59
REMARK Flexibility Score: inf
ROOT
ATOM      1  C   UNL A   1      37.771  32.507  38.565  1.00  0.00     0.202 C 
ENDROOT
BRANCH   1   2
ATOM      2  C   UNL A   1      37.556  31.345  37.578  1.00  0.00     0.261 C 
BRANCH   2   3
ATOM      3  O   UNL A   1      37.776  31.719  36.201  1.00  0.00    -0.459 OA
BRANCH   3   4
ATOM      4  C   UNL A   1      38.430  30.802  35.448  1.00  0.00     0.368 C 
ATOM      5  O   UNL A   1      39.301  30.058  35.897  1.00  0.00    -0.245 OA
BRANCH   4   6
ATOM      6  C   UNL A   1      37.997  30.746  33.910  1.00  0.00     0.197 C 
ATOM      7  C   UNL A   1      39.286  31.222  33.205  1.00  0.00     0.081 C 
ATOM      8  C   UNL A   1      36.953  31.765  33.333  1.00  0.00     0.063 C 
ATOM      9  C   UNL A   1      39.193  32.750  33.294  1.00  0.00     0.008 C 
ATOM     10  C   UNL A   1      37.747  33.038  32.948  1.00  0.00     0.011 C 
BRANCH   6  11
ATOM     11  N   UNL A   1      37.591  29.327  33.652  1.00  0.00    -0.332 N 
ATOM     12  H   UNL A   1      37.997  28.725  34.369  1.00  0.00     0.347 HD
ATOM     13  H   UNL A   1      36.573  29.265  33.677  1.00  0.00     0.347 HD
BRANCH  11  14
ATOM     14  C   UNL A   1      38.067  28.887  32.318  1.00  0.00     0.257 C 
ATOM     15  C   UNL A   1      38.392  27.410  32.183  1.00  0.00     0.071 C 
ENDBRANCH  11  14
ENDBRANCH   6  11
BRANCH   8  16
ATOM     16  C   UNL A   1      35.952  31.419  32.190  1.00  0.00     0.022 C 
BRANCH  16  17
ATOM     17  C   UNL A   1      36.227  31.766  30.693  1.00  0.00     0.075 C 
BRANCH  17  18
ATOM     18  S   UNL A   1      35.053  32.322  29.326  1.00  0.00    -0.123 SA
BRANCH  18  19
ATOM     19  C   UNL A   1      34.371  33.896  29.715  1.00  0.00     0.045 A 
ATOM     20  C   UNL A   1      33.113  34.989  28.722  1.00  0.00     0.150 A 
ATOM     21  C   UNL A   1      34.549  34.556  31.252  1.00  0.00     0.123 A 
ATOM     22  N   UNL A   1      32.530  36.265  29.811  1.00  0.00    -0.181 NA
ATOM     23  N   UNL A   1      33.388  35.941  31.469  1.00  0.00    -0.275 N 
ATOM     24  C   UNL A   1      33.182  36.438  32.811  1.00  0.00     0.173 C 
ENDBRANCH  18  19
ENDBRANCH  17  18
ENDBRANCH  16  17
ENDBRANCH   8  16
ENDBRANCH   4   6
ENDBRANCH   3   4
ENDBRANCH   2   3
ENDBRANCH   1   2
BRANCH   1  25
ATOM     25  O   UNL A   1      39.036  32.548  39.229  1.00  0.00    -0.374 OA
BRANCH  25  26
ATOM     26  C   UNL A   1      39.219  33.511  40.515  1.00  0.00     0.202 C 
BRANCH  26  27
ATOM     27  C   UNL A   1      40.907  34.927  41.058  1.00  0.00     0.261 C 
BRANCH  27  28
ATOM     28  O   UNL A   1      42.001  35.514  39.951  1.00  0.00    -0.460 OA
BRANCH  28  29
ATOM     29  C   UNL A   1      41.659  36.434  38.998  1.00  0.00     0.338 C 
ATOM     30  O   UNL A   1      41.352  37.603  39.138  1.00  0.00    -0.246 OA
BRANCH  29  31
ATOM     31  C   UNL A   1      41.940  35.815  37.666  1.00  0.00     0.060 A 
ATOM     32  C   UNL A   1      40.877  35.498  36.802  1.00  0.00     0.016 A 
ATOM     33  C   UNL A   1      43.257  35.675  37.212  1.00  0.00     0.016 A 
ATOM     34  C   UNL A   1      41.133  34.943  35.539  1.00  0.00     0.010 A 
ATOM     35  C   UNL A   1      43.512  35.167  35.934  1.00  0.00     0.010 A 
ATOM     36  C   UNL A   1      42.454  34.711  35.127  1.00  0.00    -0.014 A 
BRANCH  36  37
ATOM     37  C   UNL A   1      42.741  33.739  34.034  1.00  0.00     0.031 A 
ATOM     38  C   UNL A   1      42.981  34.300  32.650  1.00  0.00     0.074 A 
ATOM     39  C   UNL A   1      42.833  32.412  34.241  1.00  0.00     0.049 A 
ATOM     40  N   UNL A   1      43.242  33.682  31.525  1.00  0.00    -0.248 NA
ATOM     41  C   UNL A   1      42.900  35.765  32.516  1.00  0.00     0.031 C 
ATOM     42  C   UNL A   1      42.644  31.736  35.521  1.00  0.00     0.029 A 
ATOM     43  N   UNL A   1      43.111  31.391  33.361  1.00  0.00    -0.354 N 
ATOM     44  C   UNL A   1      43.344  34.681  30.563  1.00  0.00     0.074 A 
ATOM     45  C   UNL A   1      43.049  35.934  31.213  1.00  0.00     0.031 C 
ATOM     46  C   UNL A   1      42.823  30.414  35.348  1.00  0.00     0.029 A 
ATOM     47  C   UNL A   1      43.106  30.145  33.939  1.00  0.00     0.049 A 
ATOM     48  H   UNL A   1      43.296  31.541  32.406  1.00  0.00     0.167 HD
ATOM     49  C   UNL A   1      43.679  34.574  29.256  1.00  0.00     0.037 A 
ATOM     50  C   UNL A   1      43.299  28.928  33.388  1.00  0.00     0.037 A 
ATOM     51  C   UNL A   1      43.981  33.328  28.604  1.00  0.00     0.049 A 
ATOM     52  C   UNL A   1      43.607  28.825  31.913  1.00  0.00     0.074 A 
ATOM     53  C   UNL A   1      44.356  33.110  27.291  1.00  0.00     0.029 A 
ATOM     54  N   UNL A   1      43.932  32.085  29.219  1.00  0.00    -0.354 N 
ATOM     55  N   UNL A   1      43.743  29.779  31.022  1.00  0.00    -0.248 NA
ATOM     56  C   UNL A   1      43.803  27.472  31.371  1.00  0.00     0.031 C 
ATOM     57  C   UNL A   1      44.455  31.730  27.091  1.00  0.00     0.029 A 
ATOM     58  C   UNL A   1      44.230  31.092  28.301  1.00  0.00     0.049 A 
ATOM     59  H   UNL A   1      43.715  31.932  30.168  1.00  0.00     0.167 HD
ATOM     60  C   UNL A   1      44.070  29.145  29.828  1.00  0.00     0.074 A 
ATOM     61  C   UNL A   1      44.141  27.728  30.117  1.00  0.00     0.031 C 
ATOM     62  C   UNL A   1      44.291  29.684  28.601  1.00  0.00     0.037 A 
BRANCH  49  63
ATOM     63  C   UNL A   1      43.710  35.836  28.438  1.00  0.00     0.064 A 
ATOM     64  C   UNL A   1      42.548  36.398  27.885  1.00  0.00     0.173 A 
ATOM     65  C   UNL A   1      44.925  36.507  28.220  1.00  0.00     0.173 A 
ATOM     66  F   UNL A   1      41.363  35.791  28.046  1.00  0.00    -0.203 F 
ATOM     67  C   UNL A   1      42.605  37.560  27.120  1.00  0.00     0.198 A 
ATOM     68  C   UNL A   1      44.972  37.691  27.490  1.00  0.00     0.198 A 
ATOM     69  F   UNL A   1      46.067  36.017  28.724  1.00  0.00    -0.203 F 
ATOM     70  F   UNL A   1      41.492  38.041  26.549  1.00  0.00    -0.200 F 
ATOM     71  C   UNL A   1      43.815  38.211  26.931  1.00  0.00     0.200 A 
ATOM     72  F   UNL A   1      46.140  38.326  27.324  1.00  0.00    -0.200 F 
ATOM     73  F   UNL A   1      43.867  39.334  26.203  1.00  0.00    -0.200 F 
ENDBRANCH  49  63
BRANCH  50  74
ATOM     74  C   UNL A   1      43.206  27.699  34.228  1.00  0.00     0.064 A 
ATOM     75  C   UNL A   1      44.352  27.091  34.762  1.00  0.00     0.173 A 
ATOM     76  C   UNL A   1      41.971  27.087  34.483  1.00  0.00     0.173 A 
ATOM     77  F   UNL A   1      45.562  27.618  34.526  1.00  0.00    -0.203 F 
ATOM     78  C   UNL A   1      44.268  25.907  35.495  1.00  0.00     0.198 A 
ATOM     79  C   UNL A   1      41.883  25.925  35.249  1.00  0.00     0.198 A 
ATOM     80  F   UNL A   1      40.842  27.621  33.995  1.00  0.00    -0.203 F 
ATOM     81  F   UNL A   1      45.384  25.316  35.941  1.00  0.00    -0.200 F 
ATOM     82  C   UNL A   1      43.033  25.330  35.744  1.00  0.00     0.200 A 
ATOM     83  F   UNL A   1      40.684  25.381  35.501  1.00  0.00    -0.200 F 
ATOM     84  F   UNL A   1      42.950  24.196  36.454  1.00  0.00    -0.200 F 
ENDBRANCH  50  74
BRANCH  62  85
ATOM     85  C   UNL A   1      44.670  28.741  27.490  1.00  0.00     0.064 A 
ATOM     86  C   UNL A   1      43.715  28.192  26.621  1.00  0.00     0.173 A 
ATOM     87  C   UNL A   1      46.013  28.382  27.291  1.00  0.00     0.173 A 
ATOM     88  F   UNL A   1      42.416  28.496  26.766  1.00  0.00    -0.203 F 
ATOM     89  C   UNL A   1      44.080  27.274  25.639  1.00  0.00     0.198 A 
ATOM     90  C   UNL A   1      46.381  27.502  26.277  1.00  0.00     0.198 A 
ATOM     91  F   UNL A   1      46.974  28.888  28.079  1.00  0.00    -0.203 F 
ATOM     92  F   UNL A   1      43.137  26.698  24.880  1.00  0.00    -0.200 F 
ATOM     93  C   UNL A   1      45.413  26.934  25.464  1.00  0.00     0.200 A 
ATOM     94  F   UNL A   1      47.673  27.195  26.095  1.00  0.00    -0.200 F 
ATOM     95  F   UNL A   1      45.762  26.049  24.522  1.00  0.00    -0.200 F 
ENDBRANCH  62  85
ENDBRANCH  36  37
ENDBRANCH  29  31
ENDBRANCH  28  29
ENDBRANCH  27  28
ENDBRANCH  26  27
ENDBRANCH  25  26
ENDBRANCH   1  25
TORSDOF 20
ENDMDL
