MODEL 1
REMARK VINA RESULT:     -10.9      0.000      0.000
REMARK SMILES CN(CC(=O)N1C[C@@H](O)C[C@H]1C(=O)OCCOCCOC(=O)c1ccc(-c2c3nc(c(-c4c(F)c(F)c(F)c(F)c4F)c4ccc([nH]4)c(-c4c(F)c(F)c(F)c(F)c4F)c4nc(c(-c5c(F)c(F)c(F)c(F)c5F)c5ccc2[nH]5)C=C4)C=C3)cc1)C(=O)c1cccs1
REMARK SMILES IDX 15 1 14 2 12 3 13 4 11 5 6 6 7 7 8 8 10 9 4 10 5 11 3 12
REMARK SMILES IDX 2 13 1 14 86 15 87 16 88 17 89 18 92 19 90 20 91 21 9 22
REMARK SMILES IDX 16 24 17 25 18 26 19 27 20 28 21 29 22 30 23 31 24 32 85 33
REMARK SMILES IDX 25 34 84 35 26 36 27 37 28 38 78 39 29 40 83 41 77 42 79 43
REMARK SMILES IDX 30 44 82 45 76 46 75 47 31 49 63 50 43 51 62 52 44 53 47 54
REMARK SMILES IDX 61 55 80 56 45 57 46 58 60 60 81 61 48 62 32 63 33 64 41 65
REMARK SMILES IDX 34 66 35 67 39 68 42 69 36 70 37 71 40 72 38 73 64 74 65 75
REMARK SMILES IDX 73 76 66 77 67 78 71 79 74 80 68 81 69 82 72 83 70 84 49 85
REMARK SMILES IDX 50 86 58 87 51 88 52 89 56 90 59 91 53 92 54 93 57 94 55 95
REMARK H PARENT 9 23 79 48 47 59
REMARK Flexibility Score: inf
ROOT
ATOM      1  C   UNL A   1      36.742  23.568  25.205  1.00  0.00     0.261 C 
ENDROOT
BRANCH   1   2
ATOM      2  O   UNL A   1      35.337  23.821  24.995  1.00  0.00    -0.462 OA
BRANCH   2   3
ATOM      3  C   UNL A   1      34.950  23.798  23.686  1.00  0.00     0.329 C 
ATOM      4  O   UNL A   1      35.633  23.348  22.768  1.00  0.00    -0.250 OA
BRANCH   3   5
ATOM      5  C   UNL A   1      33.661  24.580  23.402  1.00  0.00     0.197 C 
ATOM      6  N   UNL A   1      33.588  26.052  23.542  1.00  0.00    -0.325 N 
ATOM      7  C   UNL A   1      33.500  26.659  22.228  1.00  0.00     0.152 C 
ATOM      8  C   UNL A   1      32.740  25.618  21.414  1.00  0.00     0.136 C 
ATOM      9  C   UNL A   1      33.324  24.310  21.922  1.00  0.00     0.070 C 
BRANCH   6  10
ATOM     10  C   UNL A   1      33.346  26.591  24.786  1.00  0.00     0.243 C 
ATOM     11  O   UNL A   1      33.684  27.763  25.004  1.00  0.00    -0.273 OA
BRANCH  10  12
ATOM     12  C   UNL A   1      32.868  25.754  26.008  1.00  0.00     0.219 C 
BRANCH  12  13
ATOM     13  N   UNL A   1      31.528  25.181  26.109  1.00  0.00    -0.332 N 
ATOM     14  C   UNL A   1      30.506  25.776  25.250  1.00  0.00     0.147 C 
BRANCH  13  15
ATOM     15  C   UNL A   1      31.194  23.958  26.719  1.00  0.00     0.264 C 
ATOM     16  O   UNL A   1      30.050  23.800  27.155  1.00  0.00    -0.268 OA
BRANCH  15  17
ATOM     17  C   UNL A   1      32.175  22.880  26.776  1.00  0.00     0.092 A 
ATOM     18  C   UNL A   1      33.121  22.537  27.723  1.00  0.00     0.025 A 
ATOM     19  S   UNL A   1      32.206  21.761  25.465  1.00  0.00    -0.139 S 
ATOM     20  C   UNL A   1      33.933  21.434  27.321  1.00  0.00     0.012 A 
ATOM     21  C   UNL A   1      33.529  20.908  26.118  1.00  0.00     0.065 A 
ENDBRANCH  15  17
ENDBRANCH  13  15
ENDBRANCH  12  13
ENDBRANCH  10  12
ENDBRANCH   6  10
BRANCH   8  22
ATOM     22  O   UNL A   1      32.906  25.766  20.018  1.00  0.00    -0.391 OA
ATOM     23  H   UNL A   1      32.223  26.363  19.673  1.00  0.00     0.211 HD
ENDBRANCH   8  22
ENDBRANCH   3   5
ENDBRANCH   2   3
ENDBRANCH   1   2
BRANCH   1  24
ATOM     24  C   UNL A   1      37.104  22.137  25.624  1.00  0.00     0.202 C 
BRANCH  24  25
ATOM     25  O   UNL A   1      37.788  21.319  24.685  1.00  0.00    -0.374 OA
BRANCH  25  26
ATOM     26  C   UNL A   1      37.806  19.912  24.924  1.00  0.00     0.202 C 
BRANCH  26  27
ATOM     27  C   UNL A   1      39.014  19.353  25.682  1.00  0.00     0.261 C 
BRANCH  27  28
ATOM     28  O   UNL A   1      40.117  20.282  25.755  1.00  0.00    -0.460 OA
BRANCH  28  29
ATOM     29  C   UNL A   1      40.700  20.366  26.975  1.00  0.00     0.338 C 
ATOM     30  O   UNL A   1      41.088  19.441  27.673  1.00  0.00    -0.246 OA
BRANCH  29  31
ATOM     31  C   UNL A   1      40.922  21.767  27.373  1.00  0.00     0.060 A 
ATOM     32  C   UNL A   1      40.435  22.770  26.525  1.00  0.00     0.016 A 
ATOM     33  C   UNL A   1      41.744  22.097  28.452  1.00  0.00     0.016 A 
ATOM     34  C   UNL A   1      40.813  24.098  26.724  1.00  0.00     0.010 A 
ATOM     35  C   UNL A   1      42.127  23.428  28.648  1.00  0.00     0.010 A 
ATOM     36  C   UNL A   1      41.695  24.428  27.764  1.00  0.00    -0.014 A 
BRANCH  36  37
ATOM     37  C   UNL A   1      42.245  25.802  27.854  1.00  0.00     0.031 A 
ATOM     38  C   UNL A   1      41.457  26.876  28.552  1.00  0.00     0.074 A 
ATOM     39  C   UNL A   1      43.449  26.083  27.327  1.00  0.00     0.049 A 
ATOM     40  N   UNL A   1      41.771  28.131  28.763  1.00  0.00    -0.248 NA
ATOM     41  C   UNL A   1      40.142  26.488  29.082  1.00  0.00     0.031 C 
ATOM     42  C   UNL A   1      44.306  25.126  26.632  1.00  0.00     0.029 A 
ATOM     43  N   UNL A   1      44.155  27.259  27.291  1.00  0.00    -0.354 N 
ATOM     44  C   UNL A   1      40.698  28.678  29.453  1.00  0.00     0.074 A 
ATOM     45  C   UNL A   1      39.709  27.630  29.597  1.00  0.00     0.031 C 
ATOM     46  C   UNL A   1      45.423  25.755  26.229  1.00  0.00     0.029 A 
ATOM     47  C   UNL A   1      45.351  27.161  26.625  1.00  0.00     0.049 A 
ATOM     48  H   UNL A   1      43.834  28.094  27.704  1.00  0.00     0.167 HD
ATOM     49  C   UNL A   1      40.557  29.936  29.935  1.00  0.00     0.037 A 
ATOM     50  C   UNL A   1      46.278  28.101  26.360  1.00  0.00     0.037 A 
ATOM     51  C   UNL A   1      41.538  30.979  29.788  1.00  0.00     0.049 A 
ATOM     52  C   UNL A   1      46.078  29.503  26.869  1.00  0.00     0.074 A 
ATOM     53  C   UNL A   1      41.501  32.276  30.270  1.00  0.00     0.029 A 
ATOM     54  N   UNL A   1      42.732  30.845  29.094  1.00  0.00    -0.354 N 
ATOM     55  N   UNL A   1      45.088  29.994  27.573  1.00  0.00    -0.248 NA
ATOM     56  C   UNL A   1      47.131  30.480  26.553  1.00  0.00     0.031 C 
ATOM     57  C   UNL A   1      42.653  32.939  29.834  1.00  0.00     0.029 A 
ATOM     58  C   UNL A   1      43.428  32.043  29.116  1.00  0.00     0.049 A 
ATOM     59  H   UNL A   1      43.039  30.020  28.652  1.00  0.00     0.167 HD
ATOM     60  C   UNL A   1      45.410  31.324  27.809  1.00  0.00     0.074 A 
ATOM     61  C   UNL A   1      46.691  31.563  27.178  1.00  0.00     0.031 C 
ATOM     62  C   UNL A   1      44.707  32.261  28.491  1.00  0.00     0.037 A 
BRANCH  49  63
ATOM     63  C   UNL A   1      39.287  30.262  30.663  1.00  0.00     0.064 A 
ATOM     64  C   UNL A   1      39.171  30.085  32.050  1.00  0.00     0.173 A 
ATOM     65  C   UNL A   1      38.190  30.804  29.977  1.00  0.00     0.173 A 
ATOM     66  F   UNL A   1      40.190  29.563  32.750  1.00  0.00    -0.203 F 
ATOM     67  C   UNL A   1      37.997  30.418  32.720  1.00  0.00     0.198 A 
ATOM     68  C   UNL A   1      37.024  31.157  30.653  1.00  0.00     0.198 A 
ATOM     69  F   UNL A   1      38.251  31.000  28.652  1.00  0.00    -0.203 F 
ATOM     70  F   UNL A   1      37.897  30.208  34.040  1.00  0.00    -0.200 F 
ATOM     71  C   UNL A   1      36.928  30.960  32.023  1.00  0.00     0.200 A 
ATOM     72  F   UNL A   1      35.996  31.691  29.980  1.00  0.00    -0.200 F 
ATOM     73  F   UNL A   1      35.801  31.288  32.670  1.00  0.00    -0.200 F 
ENDBRANCH  49  63
BRANCH  50  74
ATOM     74  C   UNL A   1      47.489  27.738  25.584  1.00  0.00     0.064 A 
ATOM     75  C   UNL A   1      47.480  27.757  24.183  1.00  0.00     0.173 A 
ATOM     76  C   UNL A   1      48.680  27.371  26.227  1.00  0.00     0.173 A 
ATOM     77  F   UNL A   1      46.357  28.080  23.525  1.00  0.00    -0.203 F 
ATOM     78  C   UNL A   1      48.615  27.411  23.453  1.00  0.00     0.198 A 
ATOM     79  C   UNL A   1      49.822  27.049  25.496  1.00  0.00     0.198 A 
ATOM     80  F   UNL A   1      48.739  27.341  27.566  1.00  0.00    -0.203 F 
ATOM     81  F   UNL A   1      48.572  27.404  22.113  1.00  0.00    -0.200 F 
ATOM     82  C   UNL A   1      49.787  27.063  24.110  1.00  0.00     0.200 A 
ATOM     83  F   UNL A   1      50.954  26.726  26.135  1.00  0.00    -0.200 F 
ATOM     84  F   UNL A   1      50.880  26.738  23.408  1.00  0.00    -0.200 F 
ENDBRANCH  50  74
BRANCH  62  85
ATOM     85  C   UNL A   1      45.322  33.624  28.621  1.00  0.00     0.064 A 
ATOM     86  C   UNL A   1      45.047  34.644  27.699  1.00  0.00     0.173 A 
ATOM     87  C   UNL A   1      46.157  33.924  29.707  1.00  0.00     0.173 A 
ATOM     88  F   UNL A   1      44.266  34.400  26.637  1.00  0.00    -0.203 F 
ATOM     89  C   UNL A   1      45.602  35.912  27.851  1.00  0.00     0.198 A 
ATOM     90  C   UNL A   1      46.692  35.200  29.868  1.00  0.00     0.198 A 
ATOM     91  F   UNL A   1      46.445  32.983  30.619  1.00  0.00    -0.203 F 
ATOM     92  F   UNL A   1      45.357  36.862  26.939  1.00  0.00    -0.200 F 
ATOM     93  C   UNL A   1      46.417  36.191  28.939  1.00  0.00     0.200 A 
ATOM     94  F   UNL A   1      47.471  35.469  30.925  1.00  0.00    -0.200 F 
ATOM     95  F   UNL A   1      46.945  37.413  29.086  1.00  0.00    -0.200 F 
ENDBRANCH  62  85
ENDBRANCH  36  37
ENDBRANCH  29  31
ENDBRANCH  28  29
ENDBRANCH  27  28
ENDBRANCH  26  27
ENDBRANCH  25  26
ENDBRANCH  24  25
ENDBRANCH   1  24
TORSDOF 20
ENDMDL
MODEL 2
REMARK VINA RESULT:     -10.7      4.775      8.037
REMARK SMILES CN(CC(=O)N1C[C@@H](O)C[C@H]1C(=O)OCCOCCOC(=O)c1ccc(-c2c3nc(c(-c4c(F)c(F)c(F)c(F)c4F)c4ccc([nH]4)c(-c4c(F)c(F)c(F)c(F)c4F)c4nc(c(-c5c(F)c(F)c(F)c(F)c5F)c5ccc2[nH]5)C=C4)C=C3)cc1)C(=O)c1cccs1
REMARK SMILES IDX 15 1 14 2 12 3 13 4 11 5 6 6 7 7 8 8 10 9 4 10 5 11 3 12
REMARK SMILES IDX 2 13 1 14 86 15 87 16 88 17 89 18 92 19 90 20 91 21 9 22
REMARK SMILES IDX 16 24 17 25 18 26 19 27 20 28 21 29 22 30 23 31 24 32 85 33
REMARK SMILES IDX 25 34 84 35 26 36 27 37 28 38 78 39 29 40 83 41 77 42 79 43
REMARK SMILES IDX 30 44 82 45 76 46 75 47 31 49 63 50 43 51 62 52 44 53 47 54
REMARK SMILES IDX 61 55 80 56 45 57 46 58 60 60 81 61 48 62 32 63 33 64 41 65
REMARK SMILES IDX 34 66 35 67 39 68 42 69 36 70 37 71 40 72 38 73 64 74 65 75
REMARK SMILES IDX 73 76 66 77 67 78 71 79 74 80 68 81 69 82 72 83 70 84 49 85
REMARK SMILES IDX 50 86 58 87 51 88 52 89 56 90 59 91 53 92 54 93 57 94 55 95
REMARK H PARENT 9 23 79 48 47 59
REMARK Flexibility Score: inf
ROOT
ATOM      1  C   UNL A   1      32.673  27.033  26.816  1.00  0.00     0.261 C 
ENDROOT
BRANCH   1   2
ATOM      2  O   UNL A   1      33.802  27.102  25.921  1.00  0.00    -0.462 OA
BRANCH   2   3
ATOM      3  C   UNL A   1      33.485  26.950  24.601  1.00  0.00     0.329 C 
ATOM      4  O   UNL A   1      33.707  27.791  23.733  1.00  0.00    -0.250 OA
BRANCH   3   5
ATOM      5  C   UNL A   1      32.626  25.714  24.302  1.00  0.00     0.197 C 
ATOM      6  N   UNL A   1      31.353  25.806  23.553  1.00  0.00    -0.325 N 
ATOM      7  C   UNL A   1      31.525  25.226  22.235  1.00  0.00     0.152 C 
ATOM      8  C   UNL A   1      32.558  24.130  22.469  1.00  0.00     0.136 C 
ATOM      9  C   UNL A   1      33.514  24.781  23.456  1.00  0.00     0.070 C 
BRANCH   6  10
ATOM     10  C   UNL A   1      30.202  26.134  24.235  1.00  0.00     0.243 C 
ATOM     11  O   UNL A   1      30.051  25.707  25.388  1.00  0.00    -0.273 OA
BRANCH  10  12
ATOM     12  C   UNL A   1      28.978  26.831  23.573  1.00  0.00     0.219 C 
BRANCH  12  13
ATOM     13  N   UNL A   1      28.979  28.235  23.170  1.00  0.00    -0.332 N 
ATOM     14  C   UNL A   1      30.248  28.761  22.670  1.00  0.00     0.147 C 
BRANCH  13  15
ATOM     15  C   UNL A   1      27.843  29.034  22.947  1.00  0.00     0.264 C 
ATOM     16  O   UNL A   1      26.737  28.609  23.289  1.00  0.00    -0.268 OA
BRANCH  15  17
ATOM     17  C   UNL A   1      27.992  30.367  22.373  1.00  0.00     0.092 A 
ATOM     18  C   UNL A   1      27.968  30.822  21.069  1.00  0.00     0.025 A 
ATOM     19  S   UNL A   1      28.213  31.684  23.464  1.00  0.00    -0.139 S 
ATOM     20  C   UNL A   1      28.239  32.220  20.964  1.00  0.00     0.012 A 
ATOM     21  C   UNL A   1      28.375  32.812  22.197  1.00  0.00     0.065 A 
ENDBRANCH  15  17
ENDBRANCH  13  15
ENDBRANCH  12  13
ENDBRANCH  10  12
ENDBRANCH   6  10
BRANCH   8  22
ATOM     22  O   UNL A   1      33.216  23.716  21.288  1.00  0.00    -0.391 OA
ATOM     23  H   UNL A   1      33.419  24.492  20.743  1.00  0.00     0.211 HD
ENDBRANCH   8  22
ENDBRANCH   3   5
ENDBRANCH   2   3
ENDBRANCH   1   2
BRANCH   1  24
ATOM     24  C   UNL A   1      32.047  28.380  27.200  1.00  0.00     0.202 C 
BRANCH  24  25
ATOM     25  O   UNL A   1      31.398  29.130  26.182  1.00  0.00    -0.374 OA
BRANCH  25  26
ATOM     26  C   UNL A   1      32.062  30.295  25.695  1.00  0.00     0.202 C 
BRANCH  26  27
ATOM     27  C   UNL A   1      31.774  31.613  26.422  1.00  0.00     0.261 C 
BRANCH  27  28
ATOM     28  O   UNL A   1      32.488  31.737  27.672  1.00  0.00    -0.460 OA
BRANCH  28  29
ATOM     29  C   UNL A   1      33.468  32.673  27.668  1.00  0.00     0.338 C 
ATOM     30  O   UNL A   1      33.338  33.877  27.504  1.00  0.00    -0.246 OA
BRANCH  29  31
ATOM     31  C   UNL A   1      34.779  32.083  27.990  1.00  0.00     0.060 A 
ATOM     32  C   UNL A   1      34.816  30.726  28.330  1.00  0.00     0.016 A 
ATOM     33  C   UNL A   1      35.919  32.877  28.135  1.00  0.00     0.016 A 
ATOM     34  C   UNL A   1      35.979  30.172  28.866  1.00  0.00     0.010 A 
ATOM     35  C   UNL A   1      37.082  32.322  28.677  1.00  0.00     0.010 A 
ATOM     36  C   UNL A   1      37.107  30.978  29.081  1.00  0.00    -0.014 A 
BRANCH  36  37
ATOM     37  C   UNL A   1      38.269  30.436  29.825  1.00  0.00     0.031 A 
ATOM     38  C   UNL A   1      38.513  30.867  31.244  1.00  0.00     0.074 A 
ATOM     39  C   UNL A   1      39.093  29.551  29.237  1.00  0.00     0.049 A 
ATOM     40  N   UNL A   1      39.454  30.492  32.076  1.00  0.00    -0.248 NA
ATOM     41  C   UNL A   1      37.575  31.852  31.804  1.00  0.00     0.031 C 
ATOM     42  C   UNL A   1      38.957  29.056  27.870  1.00  0.00     0.029 A 
ATOM     43  N   UNL A   1      40.212  28.920  29.717  1.00  0.00    -0.354 N 
ATOM     44  C   UNL A   1      39.218  31.187  33.253  1.00  0.00     0.074 A 
ATOM     45  C   UNL A   1      38.067  32.034  33.021  1.00  0.00     0.031 C 
ATOM     46  C   UNL A   1      39.960  28.200  27.615  1.00  0.00     0.029 A 
ATOM     47  C   UNL A   1      40.816  28.100  28.796  1.00  0.00     0.049 A 
ATOM     48  H   UNL A   1      40.549  29.042  30.634  1.00  0.00     0.167 HD
ATOM     49  C   UNL A   1      39.893  31.116  34.426  1.00  0.00     0.037 A 
ATOM     50  C   UNL A   1      41.937  27.360  28.895  1.00  0.00     0.037 A 
ATOM     51  C   UNL A   1      41.041  30.279  34.655  1.00  0.00     0.049 A 
ATOM     52  C   UNL A   1      42.695  27.332  30.196  1.00  0.00     0.074 A 
ATOM     53  C   UNL A   1      41.772  30.112  35.819  1.00  0.00     0.029 A 
ATOM     54  N   UNL A   1      41.633  29.473  33.694  1.00  0.00    -0.354 N 
ATOM     55  N   UNL A   1      42.428  27.946  31.321  1.00  0.00    -0.248 NA
ATOM     56  C   UNL A   1      43.905  26.497  30.240  1.00  0.00     0.031 C 
ATOM     57  C   UNL A   1      42.830  29.237  35.550  1.00  0.00     0.029 A 
ATOM     58  C   UNL A   1      42.733  28.826  34.231  1.00  0.00     0.049 A 
ATOM     59  H   UNL A   1      41.316  29.375  32.766  1.00  0.00     0.167 HD
ATOM     60  C   UNL A   1      43.415  27.553  32.214  1.00  0.00     0.074 A 
ATOM     61  C   UNL A   1      44.285  26.640  31.502  1.00  0.00     0.031 C 
ATOM     62  C   UNL A   1      43.583  27.913  33.511  1.00  0.00     0.037 A 
BRANCH  49  63
ATOM     63  C   UNL A   1      39.412  31.977  35.556  1.00  0.00     0.064 A 
ATOM     64  C   UNL A   1      39.809  33.317  35.676  1.00  0.00     0.173 A 
ATOM     65  C   UNL A   1      38.507  31.473  36.502  1.00  0.00     0.173 A 
ATOM     66  F   UNL A   1      40.679  33.844  34.801  1.00  0.00    -0.203 F 
ATOM     67  C   UNL A   1      39.333  34.116  36.713  1.00  0.00     0.198 A 
ATOM     68  C   UNL A   1      38.016  32.280  37.525  1.00  0.00     0.198 A 
ATOM     69  F   UNL A   1      38.091  30.200  36.428  1.00  0.00    -0.203 F 
ATOM     70  F   UNL A   1      39.752  35.384  36.827  1.00  0.00    -0.200 F 
ATOM     71  C   UNL A   1      38.433  33.599  37.632  1.00  0.00     0.200 A 
ATOM     72  F   UNL A   1      37.137  31.783  38.407  1.00  0.00    -0.200 F 
ATOM     73  F   UNL A   1      37.969  34.371  38.625  1.00  0.00    -0.200 F 
ENDBRANCH  49  63
BRANCH  50  74
ATOM     74  C   UNL A   1      42.401  26.573  27.726  1.00  0.00     0.064 A 
ATOM     75  C   UNL A   1      43.349  27.095  26.835  1.00  0.00     0.173 A 
ATOM     76  C   UNL A   1      41.911  25.282  27.480  1.00  0.00     0.173 A 
ATOM     77  F   UNL A   1      43.829  28.333  27.019  1.00  0.00    -0.203 F 
ATOM     78  C   UNL A   1      43.781  26.358  25.735  1.00  0.00     0.198 A 
ATOM     79  C   UNL A   1      42.362  24.537  26.393  1.00  0.00     0.198 A 
ATOM     80  F   UNL A   1      41.005  24.739  28.306  1.00  0.00    -0.203 F 
ATOM     81  F   UNL A   1      44.663  26.892  24.878  1.00  0.00    -0.200 F 
ATOM     82  C   UNL A   1      43.292  25.078  25.517  1.00  0.00     0.200 A 
ATOM     83  F   UNL A   1      41.896  23.297  26.194  1.00  0.00    -0.200 F 
ATOM     84  F   UNL A   1      43.713  24.367  24.463  1.00  0.00    -0.200 F 
ENDBRANCH  50  74
BRANCH  62  85
ATOM     85  C   UNL A   1      44.731  27.295  34.254  1.00  0.00     0.064 A 
ATOM     86  C   UNL A   1      44.603  26.062  34.908  1.00  0.00     0.173 A 
ATOM     87  C   UNL A   1      45.985  27.924  34.269  1.00  0.00     0.173 A 
ATOM     88  F   UNL A   1      43.420  25.431  34.933  1.00  0.00    -0.203 F 
ATOM     89  C   UNL A   1      45.687  25.488  35.567  1.00  0.00     0.198 A 
ATOM     90  C   UNL A   1      47.073  27.335  34.910  1.00  0.00     0.198 A 
ATOM     91  F   UNL A   1      46.159  29.102  33.653  1.00  0.00    -0.203 F 
ATOM     92  F   UNL A   1      45.535  24.326  36.218  1.00  0.00    -0.200 F 
ATOM     93  C   UNL A   1      46.922  26.121  35.561  1.00  0.00     0.200 A 
ATOM     94  F   UNL A   1      48.267  27.944  34.895  1.00  0.00    -0.200 F 
ATOM     95  F   UNL A   1      47.965  25.563  36.191  1.00  0.00    -0.200 F 
ENDBRANCH  62  85
ENDBRANCH  36  37
ENDBRANCH  29  31
ENDBRANCH  28  29
ENDBRANCH  27  28
ENDBRANCH  26  27
ENDBRANCH  25  26
ENDBRANCH  24  25
ENDBRANCH   1  24
TORSDOF 20
ENDMDL
MODEL 3
REMARK VINA RESULT:     -10.5      4.338      7.718
REMARK SMILES CN(CC(=O)N1C[C@@H](O)C[C@H]1C(=O)OCCOCCOC(=O)c1ccc(-c2c3nc(c(-c4c(F)c(F)c(F)c(F)c4F)c4ccc([nH]4)c(-c4c(F)c(F)c(F)c(F)c4F)c4nc(c(-c5c(F)c(F)c(F)c(F)c5F)c5ccc2[nH]5)C=C4)C=C3)cc1)C(=O)c1cccs1
REMARK SMILES IDX 15 1 14 2 12 3 13 4 11 5 6 6 7 7 8 8 10 9 4 10 5 11 3 12
REMARK SMILES IDX 2 13 1 14 86 15 87 16 88 17 89 18 92 19 90 20 91 21 9 22
REMARK SMILES IDX 16 24 17 25 18 26 19 27 20 28 21 29 22 30 23 31 24 32 85 33
REMARK SMILES IDX 25 34 84 35 26 36 27 37 28 38 78 39 29 40 83 41 77 42 79 43
REMARK SMILES IDX 30 44 82 45 76 46 75 47 31 49 63 50 43 51 62 52 44 53 47 54
REMARK SMILES IDX 61 55 80 56 45 57 46 58 60 60 81 61 48 62 32 63 33 64 41 65
REMARK SMILES IDX 34 66 35 67 39 68 42 69 36 70 37 71 40 72 38 73 64 74 65 75
REMARK SMILES IDX 73 76 66 77 67 78 71 79 74 80 68 81 69 82 72 83 70 84 49 85
REMARK SMILES IDX 50 86 58 87 51 88 52 89 56 90 59 91 53 92 54 93 57 94 55 95
REMARK H PARENT 9 23 79 48 47 59
REMARK Flexibility Score: inf
ROOT
ATOM      1  C   UNL A   1      32.111  28.589  22.793  1.00  0.00     0.261 C 
ENDROOT
BRANCH   1   2
ATOM      2  O   UNL A   1      32.108  27.149  22.716  1.00  0.00    -0.462 OA
BRANCH   2   3
ATOM      3  C   UNL A   1      32.882  26.532  23.657  1.00  0.00     0.329 C 
ATOM      4  O   UNL A   1      33.965  26.959  24.052  1.00  0.00    -0.250 OA
BRANCH   3   5
ATOM      5  C   UNL A   1      32.395  25.130  24.047  1.00  0.00     0.197 C 
ATOM      6  N   UNL A   1      33.028  24.354  25.137  1.00  0.00    -0.325 N 
ATOM      7  C   UNL A   1      32.130  24.296  26.273  1.00  0.00     0.152 C 
ATOM      8  C   UNL A   1      30.749  24.314  25.628  1.00  0.00     0.136 C 
ATOM      9  C   UNL A   1      30.929  25.305  24.490  1.00  0.00     0.070 C 
BRANCH   6  10
ATOM     10  C   UNL A   1      34.155  23.613  24.857  1.00  0.00     0.243 C 
ATOM     11  O   UNL A   1      35.261  24.063  25.188  1.00  0.00    -0.273 OA
BRANCH  10  12
ATOM     12  C   UNL A   1      34.149  22.342  23.959  1.00  0.00     0.219 C 
BRANCH  12  13
ATOM     13  N   UNL A   1      32.959  21.523  23.741  1.00  0.00    -0.332 N 
ATOM     14  C   UNL A   1      32.248  21.743  22.483  1.00  0.00     0.147 C 
BRANCH  13  15
ATOM     15  C   UNL A   1      32.601  20.371  24.465  1.00  0.00     0.264 C 
ATOM     16  O   UNL A   1      31.689  20.444  25.292  1.00  0.00    -0.268 OA
BRANCH  15  17
ATOM     17  C   UNL A   1      33.265  19.102  24.188  1.00  0.00     0.092 A 
ATOM     18  C   UNL A   1      34.424  18.535  24.684  1.00  0.00     0.025 A 
ATOM     19  S   UNL A   1      32.510  18.036  23.063  1.00  0.00    -0.139 S 
ATOM     20  C   UNL A   1      34.741  17.290  24.063  1.00  0.00     0.012 A 
ATOM     21  C   UNL A   1      33.772  16.896  23.172  1.00  0.00     0.065 A 
ENDBRANCH  15  17
ENDBRANCH  13  15
ENDBRANCH  12  13
ENDBRANCH  10  12
ENDBRANCH   6  10
BRANCH   8  22
ATOM     22  O   UNL A   1      29.720  24.706  26.515  1.00  0.00    -0.391 OA
ATOM     23  H   UNL A   1      29.969  25.535  26.953  1.00  0.00     0.211 HD
ENDBRANCH   8  22
ENDBRANCH   3   5
ENDBRANCH   2   3
ENDBRANCH   1   2
BRANCH   1  24
ATOM     24  C   UNL A   1      31.486  29.188  24.060  1.00  0.00     0.202 C 
BRANCH  24  25
ATOM     25  O   UNL A   1      32.355  29.762  25.026  1.00  0.00    -0.374 OA
BRANCH  25  26
ATOM     26  C   UNL A   1      31.773  30.234  26.240  1.00  0.00     0.202 C 
BRANCH  26  27
ATOM     27  C   UNL A   1      31.914  31.730  26.542  1.00  0.00     0.261 C 
BRANCH  27  28
ATOM     28  O   UNL A   1      32.578  31.995  27.797  1.00  0.00    -0.460 OA
BRANCH  28  29
ATOM     29  C   UNL A   1      33.592  32.889  27.717  1.00  0.00     0.338 C 
ATOM     30  O   UNL A   1      33.504  34.087  27.485  1.00  0.00    -0.246 OA
BRANCH  29  31
ATOM     31  C   UNL A   1      34.888  32.269  28.044  1.00  0.00     0.060 A 
ATOM     32  C   UNL A   1      34.894  30.906  28.366  1.00  0.00     0.016 A 
ATOM     33  C   UNL A   1      36.042  33.037  28.211  1.00  0.00     0.016 A 
ATOM     34  C   UNL A   1      36.040  30.322  28.906  1.00  0.00     0.010 A 
ATOM     35  C   UNL A   1      37.188  32.451  28.758  1.00  0.00     0.010 A 
ATOM     36  C   UNL A   1      37.181  31.102  29.144  1.00  0.00    -0.014 A 
BRANCH  36  37
ATOM     37  C   UNL A   1      38.324  30.526  29.892  1.00  0.00     0.031 A 
ATOM     38  C   UNL A   1      38.558  30.927  31.322  1.00  0.00     0.074 A 
ATOM     39  C   UNL A   1      39.140  29.638  29.298  1.00  0.00     0.049 A 
ATOM     40  N   UNL A   1      39.481  30.520  32.158  1.00  0.00    -0.248 NA
ATOM     41  C   UNL A   1      37.630  31.918  31.887  1.00  0.00     0.031 C 
ATOM     42  C   UNL A   1      39.013  29.169  27.920  1.00  0.00     0.029 A 
ATOM     43  N   UNL A   1      40.242  28.977  29.780  1.00  0.00    -0.354 N 
ATOM     44  C   UNL A   1      39.242  31.198  33.345  1.00  0.00     0.074 A 
ATOM     45  C   UNL A   1      38.109  32.069  33.114  1.00  0.00     0.031 C 
ATOM     46  C   UNL A   1      40.004  28.300  27.663  1.00  0.00     0.029 A 
ATOM     47  C   UNL A   1      40.843  28.164  28.852  1.00  0.00     0.049 A 
ATOM     48  H   UNL A   1      40.569  29.077  30.704  1.00  0.00     0.167 HD
ATOM     49  C   UNL A   1      39.901  31.094  34.524  1.00  0.00     0.037 A 
ATOM     50  C   UNL A   1      41.949  27.403  28.952  1.00  0.00     0.037 A 
ATOM     51  C   UNL A   1      41.031  30.232  34.753  1.00  0.00     0.049 A 
ATOM     52  C   UNL A   1      42.690  27.337  30.261  1.00  0.00     0.074 A 
ATOM     53  C   UNL A   1      41.744  30.032  35.922  1.00  0.00     0.029 A 
ATOM     54  N   UNL A   1      41.621  29.434  33.784  1.00  0.00    -0.354 N 
ATOM     55  N   UNL A   1      42.420  27.936  31.394  1.00  0.00    -0.248 NA
ATOM     56  C   UNL A   1      43.885  26.481  30.304  1.00  0.00     0.031 C 
ATOM     57  C   UNL A   1      42.790  29.143  35.650  1.00  0.00     0.029 A 
ATOM     58  C   UNL A   1      42.703  28.757  34.323  1.00  0.00     0.049 A 
ATOM     59  H   UNL A   1      41.315  29.358  32.850  1.00  0.00     0.167 HD
ATOM     60  C   UNL A   1      43.388  27.509  32.292  1.00  0.00     0.074 A 
ATOM     61  C   UNL A   1      44.251  26.595  31.573  1.00  0.00     0.031 C 
ATOM     62  C   UNL A   1      43.546  27.843  33.597  1.00  0.00     0.037 A 
BRANCH  49  63
ATOM     63  C   UNL A   1      39.421  31.943  35.664  1.00  0.00     0.064 A 
ATOM     64  C   UNL A   1      38.475  31.467  36.583  1.00  0.00     0.173 A 
ATOM     65  C   UNL A   1      39.949  33.226  35.869  1.00  0.00     0.173 A 
ATOM     66  F   UNL A   1      37.934  30.250  36.426  1.00  0.00    -0.203 F 
ATOM     67  C   UNL A   1      38.058  32.253  37.655  1.00  0.00     0.198 A 
ATOM     68  C   UNL A   1      39.547  34.002  36.955  1.00  0.00     0.198 A 
ATOM     69  F   UNL A   1      40.863  33.725  35.024  1.00  0.00    -0.203 F 
ATOM     70  F   UNL A   1      37.127  31.792  38.501  1.00  0.00    -0.200 F 
ATOM     71  C   UNL A   1      38.599  33.516  37.843  1.00  0.00     0.200 A 
ATOM     72  F   UNL A   1      40.080  35.217  37.142  1.00  0.00    -0.200 F 
ATOM     73  F   UNL A   1      38.204  34.269  38.880  1.00  0.00    -0.200 F 
ENDBRANCH  49  63
BRANCH  50  74
ATOM     74  C   UNL A   1      42.414  26.629  27.774  1.00  0.00     0.064 A 
ATOM     75  C   UNL A   1      43.367  27.158  26.893  1.00  0.00     0.173 A 
ATOM     76  C   UNL A   1      41.921  25.343  27.510  1.00  0.00     0.173 A 
ATOM     77  F   UNL A   1      43.851  28.393  27.094  1.00  0.00    -0.203 F 
ATOM     78  C   UNL A   1      43.800  26.434  25.785  1.00  0.00     0.198 A 
ATOM     79  C   UNL A   1      42.372  24.610  26.415  1.00  0.00     0.198 A 
ATOM     80  F   UNL A   1      41.010  24.792  28.326  1.00  0.00    -0.203 F 
ATOM     81  F   UNL A   1      44.687  26.976  24.938  1.00  0.00    -0.200 F 
ATOM     82  C   UNL A   1      43.307  25.159  25.549  1.00  0.00     0.200 A 
ATOM     83  F   UNL A   1      41.903  23.374  26.199  1.00  0.00    -0.200 F 
ATOM     84  F   UNL A   1      43.730  24.460  24.488  1.00  0.00    -0.200 F 
ENDBRANCH  50  74
BRANCH  62  85
ATOM     85  C   UNL A   1      44.673  27.192  34.342  1.00  0.00     0.064 A 
ATOM     86  C   UNL A   1      45.921  27.818  34.479  1.00  0.00     0.173 A 
ATOM     87  C   UNL A   1      44.485  25.950  34.968  1.00  0.00     0.173 A 
ATOM     88  F   UNL A   1      46.151  28.998  33.887  1.00  0.00    -0.203 F 
ATOM     89  C   UNL A   1      46.946  27.213  35.201  1.00  0.00     0.198 A 
ATOM     90  C   UNL A   1      45.506  25.360  35.708  1.00  0.00     0.198 A 
ATOM     91  F   UNL A   1      43.308  25.316  34.871  1.00  0.00    -0.203 F 
ATOM     92  F   UNL A   1      48.143  27.809  35.289  1.00  0.00    -0.200 F 
ATOM     93  C   UNL A   1      46.737  25.989  35.821  1.00  0.00     0.200 A 
ATOM     94  F   UNL A   1      45.298  24.183  36.314  1.00  0.00    -0.200 F 
ATOM     95  F   UNL A   1      47.723  25.413  36.520  1.00  0.00    -0.200 F 
ENDBRANCH  62  85
ENDBRANCH  36  37
ENDBRANCH  29  31
ENDBRANCH  28  29
ENDBRANCH  27  28
ENDBRANCH  26  27
ENDBRANCH  25  26
ENDBRANCH  24  25
ENDBRANCH   1  24
TORSDOF 20
ENDMDL
