MODEL 1
REMARK VINA RESULT:     -11.2      0.000      0.000
REMARK SMILES C[C@H](O)[C@@H](NC(=O)c1ccc(Cl)c(S(C)(=O)=O)c1)C(=O)OCCOCCOC(=O)c1ccc(-c2c3nc(c(-c4c(F)c(F)c(F)c(F)c4F)c4ccc([nH]4)c(-c4c(F)c(F)c(F)c(F)c4F)c4nc(c(-c5c(F)c(F)c(F)c(F)c5F)c5ccc2[nH]5)C=C4)C=C3)cc1
REMARK SMILES IDX 23 1 22 2 21 3 19 4 20 5 4 6 2 7 1 8 3 9 5 11 6 12 7 14 8 15
REMARK SMILES IDX 9 16 18 17 10 18 13 19 11 20 12 21 14 22 15 23 16 24 17 25
REMARK SMILES IDX 24 26 25 27 26 28 27 29 28 30 29 31 30 32 31 33 92 34 32 35
REMARK SMILES IDX 91 36 33 37 34 38 35 39 85 40 36 41 90 42 84 43 86 44 37 45
REMARK SMILES IDX 89 46 83 47 82 48 38 50 70 51 50 52 69 53 51 54 54 55 68 56
REMARK SMILES IDX 87 57 52 58 53 59 67 61 88 62 55 63 39 64 40 65 48 66 41 67
REMARK SMILES IDX 42 68 46 69 49 70 43 71 44 72 47 73 45 74 71 75 72 76 80 77
REMARK SMILES IDX 73 78 74 79 78 80 81 81 75 82 76 83 79 84 77 85 56 86 57 87
REMARK SMILES IDX 65 88 58 89 59 90 63 91 66 92 60 93 61 94 64 95 62 96
REMARK H PARENT 3 10 5 13 86 49 54 60
REMARK Flexibility Score: inf
ROOT
ATOM      1  C   UNL A   1      32.726  30.419  26.574  1.00  0.00     0.202 C 
ENDROOT
BRANCH   1   2
ATOM      2  C   UNL A   1      32.724  29.352  25.472  1.00  0.00     0.261 C 
BRANCH   2   3
ATOM      3  O   UNL A   1      32.948  27.972  25.794  1.00  0.00    -0.462 OA
BRANCH   3   4
ATOM      4  C   UNL A   1      31.806  27.235  25.880  1.00  0.00     0.331 C 
ATOM      5  O   UNL A   1      31.067  27.219  26.861  1.00  0.00    -0.250 OA
BRANCH   4   6
ATOM      6  C   UNL A   1      31.598  26.289  24.702  1.00  0.00     0.221 C 
BRANCH   6   7
ATOM      7  C   UNL A   1      30.208  26.400  24.027  1.00  0.00     0.145 C 
ATOM      8  C   UNL A   1      29.801  27.807  23.607  1.00  0.00     0.041 C 
BRANCH   7   9
ATOM      9  O   UNL A   1      29.230  25.930  24.978  1.00  0.00    -0.391 OA
ATOM     10  H   UNL A   1      28.541  26.604  25.092  1.00  0.00     0.211 HD
ENDBRANCH   7   9
ENDBRANCH   6   7
BRANCH   6  11
ATOM     11  N   UNL A   1      32.635  26.290  23.637  1.00  0.00    -0.336 N 
ATOM     12  C   UNL A   1      33.263  25.340  22.884  1.00  0.00     0.252 C 
ATOM     13  H   UNL A   1      32.945  27.200  23.421  1.00  0.00     0.164 HD
ATOM     14  O   UNL A   1      33.977  25.670  21.940  1.00  0.00    -0.269 OA
BRANCH  12  15
ATOM     15  C   UNL A   1      33.238  23.916  23.242  1.00  0.00     0.041 A 
ATOM     16  C   UNL A   1      32.304  23.042  22.695  1.00  0.00     0.015 A 
ATOM     17  C   UNL A   1      34.242  23.435  24.089  1.00  0.00     0.035 A 
ATOM     18  C   UNL A   1      32.327  21.692  23.066  1.00  0.00     0.023 A 
ATOM     19  C   UNL A   1      34.275  22.075  24.447  1.00  0.00     0.086 A 
ATOM     20  C   UNL A   1      33.309  21.198  23.941  1.00  0.00     0.059 A 
ATOM     21  Cl  UNL A   1      33.212  19.520  24.317  1.00  0.00    -0.083 Cl
BRANCH  19  22
ATOM     22  S   UNL A   1      35.523  21.588  25.615  1.00  0.00     0.177 S 
ATOM     23  C   UNL A   1      36.594  23.000  25.671  1.00  0.00     0.164 C 
ATOM     24  O   UNL A   1      34.869  21.477  26.911  1.00  0.00    -0.224 OA
ATOM     25  O   UNL A   1      36.252  20.451  25.104  1.00  0.00    -0.224 OA
ENDBRANCH  19  22
ENDBRANCH  12  15
ENDBRANCH   6  11
ENDBRANCH   4   6
ENDBRANCH   3   4
ENDBRANCH   2   3
ENDBRANCH   1   2
BRANCH   1  26
ATOM     26  O   UNL A   1      31.516  31.064  26.918  1.00  0.00    -0.374 OA
BRANCH  26  27
ATOM     27  C   UNL A   1      31.391  32.454  26.645  1.00  0.00     0.202 C 
BRANCH  27  28
ATOM     28  C   UNL A   1      32.535  33.380  27.076  1.00  0.00     0.261 C 
BRANCH  28  29
ATOM     29  O   UNL A   1      32.569  33.597  28.504  1.00  0.00    -0.460 OA
BRANCH  29  30
ATOM     30  C   UNL A   1      33.706  34.186  28.947  1.00  0.00     0.338 C 
ATOM     31  O   UNL A   1      33.800  35.259  29.521  1.00  0.00    -0.246 OA
BRANCH  30  32
ATOM     32  C   UNL A   1      34.873  33.298  28.808  1.00  0.00     0.060 A 
ATOM     33  C   UNL A   1      34.734  31.979  29.258  1.00  0.00     0.016 A 
ATOM     34  C   UNL A   1      36.132  33.811  28.492  1.00  0.00     0.016 A 
ATOM     35  C   UNL A   1      35.863  31.204  29.505  1.00  0.00     0.010 A 
ATOM     36  C   UNL A   1      37.268  33.030  28.745  1.00  0.00     0.010 A 
ATOM     37  C   UNL A   1      37.138  31.755  29.329  1.00  0.00    -0.014 A 
BRANCH  37  38
ATOM     38  C   UNL A   1      38.288  31.099  30.007  1.00  0.00     0.031 A 
ATOM     39  C   UNL A   1      38.538  31.402  31.466  1.00  0.00     0.074 A 
ATOM     40  C   UNL A   1      39.034  30.172  29.382  1.00  0.00     0.049 A 
ATOM     41  N   UNL A   1      39.446  30.921  32.278  1.00  0.00    -0.248 NA
ATOM     42  C   UNL A   1      37.636  32.381  32.096  1.00  0.00     0.031 C 
ATOM     43  C   UNL A   1      38.862  29.744  27.995  1.00  0.00     0.029 A 
ATOM     44  N   UNL A   1      40.081  29.414  29.844  1.00  0.00    -0.354 N 
ATOM     45  C   UNL A   1      39.229  31.542  33.503  1.00  0.00     0.074 A 
ATOM     46  C   UNL A   1      38.129  32.462  33.322  1.00  0.00     0.031 C 
ATOM     47  C   UNL A   1      39.775  28.797  27.719  1.00  0.00     0.029 A 
ATOM     48  C   UNL A   1      40.608  28.569  28.899  1.00  0.00     0.049 A 
ATOM     49  H   UNL A   1      40.422  29.471  30.767  1.00  0.00     0.167 HD
ATOM     50  C   UNL A   1      39.873  31.350  34.680  1.00  0.00     0.037 A 
ATOM     51  C   UNL A   1      41.650  27.719  28.978  1.00  0.00     0.037 A 
ATOM     52  C   UNL A   1      40.956  30.421  34.871  1.00  0.00     0.049 A 
ATOM     53  C   UNL A   1      42.385  27.563  30.286  1.00  0.00     0.074 A 
ATOM     54  C   UNL A   1      41.670  30.152  36.026  1.00  0.00     0.029 A 
ATOM     55  N   UNL A   1      41.481  29.609  33.878  1.00  0.00    -0.354 N 
ATOM     56  N   UNL A   1      42.164  28.144  31.440  1.00  0.00    -0.248 NA
ATOM     57  C   UNL A   1      43.508  26.615  30.302  1.00  0.00     0.031 C 
ATOM     58  C   UNL A   1      42.661  29.214  35.720  1.00  0.00     0.029 A 
ATOM     59  C   UNL A   1      42.522  28.849  34.390  1.00  0.00     0.049 A 
ATOM     60  H   UNL A   1      41.162  29.574  32.948  1.00  0.00     0.167 HD
ATOM     61  C   UNL A   1      43.090  27.603  32.326  1.00  0.00     0.074 A 
ATOM     62  C   UNL A   1      43.866  26.638  31.578  1.00  0.00     0.031 C 
ATOM     63  C   UNL A   1      43.278  27.878  33.641  1.00  0.00     0.037 A 
BRANCH  50  64
ATOM     64  C   UNL A   1      39.440  32.184  35.854  1.00  0.00     0.064 A 
ATOM     65  C   UNL A   1      39.984  33.453  36.103  1.00  0.00     0.173 A 
ATOM     66  C   UNL A   1      38.438  31.719  36.720  1.00  0.00     0.173 A 
ATOM     67  F   UNL A   1      40.954  33.939  35.315  1.00  0.00    -0.203 F 
ATOM     68  C   UNL A   1      39.557  34.214  37.189  1.00  0.00     0.198 A 
ATOM     69  C   UNL A   1      37.993  32.496  37.786  1.00  0.00     0.198 A 
ATOM     70  F   UNL A   1      37.882  30.514  36.525  1.00  0.00    -0.203 F 
ATOM     71  F   UNL A   1      40.124  35.404  37.436  1.00  0.00    -0.200 F 
ATOM     72  C   UNL A   1      38.557  33.739  38.024  1.00  0.00     0.200 A 
ATOM     73  F   UNL A   1      37.016  32.040  38.582  1.00  0.00    -0.200 F 
ATOM     74  F   UNL A   1      38.141  34.476  39.063  1.00  0.00    -0.200 F 
ENDBRANCH  50  64
BRANCH  51  75
ATOM     75  C   UNL A   1      42.066  26.940  27.782  1.00  0.00     0.064 A 
ATOM     76  C   UNL A   1      41.550  25.662  27.527  1.00  0.00     0.173 A 
ATOM     77  C   UNL A   1      43.021  27.448  26.887  1.00  0.00     0.173 A 
ATOM     78  F   UNL A   1      40.655  25.122  28.367  1.00  0.00    -0.203 F 
ATOM     79  C   UNL A   1      41.993  24.910  26.440  1.00  0.00     0.198 A 
ATOM     80  C   UNL A   1      43.438  26.709  25.783  1.00  0.00     0.198 A 
ATOM     81  F   UNL A   1      43.551  28.664  27.087  1.00  0.00    -0.203 F 
ATOM     82  F   UNL A   1      41.527  23.668  26.255  1.00  0.00    -0.200 F 
ATOM     83  C   UNL A   1      42.932  25.436  25.566  1.00  0.00     0.200 A 
ATOM     84  F   UNL A   1      44.337  27.225  24.934  1.00  0.00    -0.200 F 
ATOM     85  F   UNL A   1      43.358  24.712  24.522  1.00  0.00    -0.200 F 
ENDBRANCH  51  75
BRANCH  63  86
ATOM     86  C   UNL A   1      44.320  27.080  34.373  1.00  0.00     0.064 A 
ATOM     87  C   UNL A   1      45.642  27.529  34.509  1.00  0.00     0.173 A 
ATOM     88  C   UNL A   1      43.984  25.850  34.961  1.00  0.00     0.173 A 
ATOM     89  F   UNL A   1      46.020  28.693  33.959  1.00  0.00    -0.203 F 
ATOM     90  C   UNL A   1      46.598  26.757  35.166  1.00  0.00     0.198 A 
ATOM     91  C   UNL A   1      44.933  25.098  35.647  1.00  0.00     0.198 A 
ATOM     92  F   UNL A   1      42.732  25.377  34.872  1.00  0.00    -0.203 F 
ATOM     93  F   UNL A   1      47.869  27.176  35.225  1.00  0.00    -0.200 F 
ATOM     94  C   UNL A   1      46.241  25.545  35.738  1.00  0.00     0.200 A 
ATOM     95  F   UNL A   1      44.582  23.935  36.216  1.00  0.00    -0.200 F 
ATOM     96  F   UNL A   1      47.162  24.803  36.369  1.00  0.00    -0.200 F 
ENDBRANCH  63  86
ENDBRANCH  37  38
ENDBRANCH  30  32
ENDBRANCH  29  30
ENDBRANCH  28  29
ENDBRANCH  27  28
ENDBRANCH  26  27
ENDBRANCH   1  26
TORSDOF 19
ENDMDL
MODEL 2
REMARK VINA RESULT:     -11.0      0.947      7.259
REMARK SMILES C[C@H](O)[C@@H](NC(=O)c1ccc(Cl)c(S(C)(=O)=O)c1)C(=O)OCCOCCOC(=O)c1ccc(-c2c3nc(c(-c4c(F)c(F)c(F)c(F)c4F)c4ccc([nH]4)c(-c4c(F)c(F)c(F)c(F)c4F)c4nc(c(-c5c(F)c(F)c(F)c(F)c5F)c5ccc2[nH]5)C=C4)C=C3)cc1
REMARK SMILES IDX 23 1 22 2 21 3 19 4 20 5 4 6 2 7 1 8 3 9 5 11 6 12 7 14 8 15
REMARK SMILES IDX 9 16 18 17 10 18 13 19 11 20 12 21 14 22 15 23 16 24 17 25
REMARK SMILES IDX 24 26 25 27 26 28 27 29 28 30 29 31 30 32 31 33 92 34 32 35
REMARK SMILES IDX 91 36 33 37 34 38 35 39 85 40 36 41 90 42 84 43 86 44 37 45
REMARK SMILES IDX 89 46 83 47 82 48 38 50 70 51 50 52 69 53 51 54 54 55 68 56
REMARK SMILES IDX 87 57 52 58 53 59 67 61 88 62 55 63 39 64 40 65 48 66 41 67
REMARK SMILES IDX 42 68 46 69 49 70 43 71 44 72 47 73 45 74 71 75 72 76 80 77
REMARK SMILES IDX 73 78 74 79 78 80 81 81 75 82 76 83 79 84 77 85 56 86 57 87
REMARK SMILES IDX 65 88 58 89 59 90 63 91 66 92 60 93 61 94 64 95 62 96
REMARK H PARENT 3 10 5 13 86 49 54 60
REMARK Flexibility Score: inf
ROOT
ATOM      1  C   UNL A   1      32.344  29.774  26.646  1.00  0.00     0.202 C 
ENDROOT
BRANCH   1   2
ATOM      2  C   UNL A   1      33.581  29.036  26.118  1.00  0.00     0.261 C 
BRANCH   2   3
ATOM      3  O   UNL A   1      33.449  27.759  25.478  1.00  0.00    -0.462 OA
BRANCH   3   4
ATOM      4  C   UNL A   1      33.539  27.813  24.120  1.00  0.00     0.331 C 
ATOM      5  O   UNL A   1      34.287  28.569  23.507  1.00  0.00    -0.250 OA
BRANCH   4   6
ATOM      6  C   UNL A   1      32.500  26.955  23.404  1.00  0.00     0.221 C 
BRANCH   6   7
ATOM      7  C   UNL A   1      31.156  27.675  23.127  1.00  0.00     0.145 C 
ATOM      8  C   UNL A   1      29.916  26.952  23.638  1.00  0.00     0.041 C 
BRANCH   7   9
ATOM      9  O   UNL A   1      31.025  27.806  21.697  1.00  0.00    -0.391 OA
ATOM     10  H   UNL A   1      30.304  27.236  21.385  1.00  0.00     0.211 HD
ENDBRANCH   7   9
ENDBRANCH   6   7
BRANCH   6  11
ATOM     11  N   UNL A   1      32.926  26.267  22.157  1.00  0.00    -0.336 N 
ATOM     12  C   UNL A   1      33.013  24.971  21.738  1.00  0.00     0.252 C 
ATOM     13  H   UNL A   1      33.217  26.902  21.463  1.00  0.00     0.164 HD
ATOM     14  O   UNL A   1      33.253  24.715  20.561  1.00  0.00    -0.269 OA
BRANCH  12  15
ATOM     15  C   UNL A   1      32.972  23.841  22.675  1.00  0.00     0.041 A 
ATOM     16  C   UNL A   1      31.789  23.160  22.946  1.00  0.00     0.015 A 
ATOM     17  C   UNL A   1      34.179  23.406  23.232  1.00  0.00     0.035 A 
ATOM     18  C   UNL A   1      31.805  22.085  23.844  1.00  0.00     0.023 A 
ATOM     19  C   UNL A   1      34.197  22.316  24.120  1.00  0.00     0.086 A 
ATOM     20  C   UNL A   1      33.004  21.654  24.437  1.00  0.00     0.059 A 
ATOM     21  Cl  UNL A   1      32.875  20.328  25.527  1.00  0.00    -0.083 Cl
BRANCH  19  22
ATOM     22  S   UNL A   1      35.763  21.912  24.857  1.00  0.00     0.177 S 
ATOM     23  C   UNL A   1      36.928  22.717  23.789  1.00  0.00     0.164 C 
ATOM     24  O   UNL A   1      35.809  22.585  26.147  1.00  0.00    -0.224 OA
ATOM     25  O   UNL A   1      35.973  20.484  24.809  1.00  0.00    -0.224 OA
ENDBRANCH  19  22
ENDBRANCH  12  15
ENDBRANCH   6  11
ENDBRANCH   4   6
ENDBRANCH   3   4
ENDBRANCH   2   3
ENDBRANCH   1   2
BRANCH   1  26
ATOM     26  O   UNL A   1      31.739  30.773  25.850  1.00  0.00    -0.374 OA
BRANCH  26  27
ATOM     27  C   UNL A   1      31.102  31.863  26.504  1.00  0.00     0.202 C 
BRANCH  27  28
ATOM     28  C   UNL A   1      31.928  33.126  26.773  1.00  0.00     0.261 C 
BRANCH  28  29
ATOM     29  O   UNL A   1      32.670  33.053  28.011  1.00  0.00    -0.460 OA
BRANCH  29  30
ATOM     30  C   UNL A   1      33.795  33.808  28.027  1.00  0.00     0.338 C 
ATOM     31  O   UNL A   1      33.860  35.026  28.078  1.00  0.00    -0.246 OA
BRANCH  30  32
ATOM     32  C   UNL A   1      35.009  32.981  28.141  1.00  0.00     0.060 A 
ATOM     33  C   UNL A   1      34.840  31.640  28.508  1.00  0.00     0.016 A 
ATOM     34  C   UNL A   1      36.277  33.564  28.143  1.00  0.00     0.016 A 
ATOM     35  C   UNL A   1      35.922  30.909  28.991  1.00  0.00     0.010 A 
ATOM     36  C   UNL A   1      37.364  32.827  28.633  1.00  0.00     0.010 A 
ATOM     37  C   UNL A   1      37.170  31.525  29.134  1.00  0.00    -0.014 A 
BRANCH  37  38
ATOM     38  C   UNL A   1      38.166  30.896  30.044  1.00  0.00     0.031 A 
ATOM     39  C   UNL A   1      39.137  29.891  29.471  1.00  0.00     0.074 A 
ATOM     40  C   UNL A   1      38.285  31.281  31.326  1.00  0.00     0.049 A 
ATOM     41  N   UNL A   1      40.118  29.247  30.054  1.00  0.00    -0.248 NA
ATOM     42  C   UNL A   1      38.983  29.571  28.042  1.00  0.00     0.031 C 
ATOM     43  C   UNL A   1      37.451  32.283  31.988  1.00  0.00     0.029 A 
ATOM     44  N   UNL A   1      39.168  30.879  32.297  1.00  0.00    -0.354 N 
ATOM     45  C   UNL A   1      40.686  28.446  29.070  1.00  0.00     0.074 A 
ATOM     46  C   UNL A   1      39.921  28.654  27.861  1.00  0.00     0.031 C 
ATOM     47  C   UNL A   1      37.865  32.417  33.260  1.00  0.00     0.029 A 
ATOM     48  C   UNL A   1      38.974  31.497  33.507  1.00  0.00     0.049 A 
ATOM     49  H   UNL A   1      39.875  30.211  32.139  1.00  0.00     0.167 HD
ATOM     50  C   UNL A   1      41.761  27.625  29.156  1.00  0.00     0.037 A 
ATOM     51  C   UNL A   1      39.613  31.328  34.681  1.00  0.00     0.037 A 
ATOM     52  C   UNL A   1      42.539  27.430  30.352  1.00  0.00     0.049 A 
ATOM     53  C   UNL A   1      40.773  30.369  34.766  1.00  0.00     0.074 A 
ATOM     54  C   UNL A   1      43.648  26.623  30.538  1.00  0.00     0.029 A 
ATOM     55  N   UNL A   1      42.287  28.050  31.565  1.00  0.00    -0.354 N 
ATOM     56  N   UNL A   1      41.310  29.626  33.827  1.00  0.00    -0.248 NA
ATOM     57  C   UNL A   1      41.428  30.238  36.075  1.00  0.00     0.031 C 
ATOM     58  C   UNL A   1      44.037  26.715  31.879  1.00  0.00     0.029 A 
ATOM     59  C   UNL A   1      43.210  27.630  32.511  1.00  0.00     0.049 A 
ATOM     60  H   UNL A   1      41.562  28.693  31.732  1.00  0.00     0.167 HD
ATOM     61  C   UNL A   1      42.386  28.976  34.421  1.00  0.00     0.074 A 
ATOM     62  C   UNL A   1      42.433  29.421  35.797  1.00  0.00     0.031 C 
ATOM     63  C   UNL A   1      43.259  28.092  33.875  1.00  0.00     0.037 A 
BRANCH  50  64
ATOM     64  C   UNL A   1      42.147  26.852  27.926  1.00  0.00     0.064 A 
ATOM     65  C   UNL A   1      43.083  27.344  27.004  1.00  0.00     0.173 A 
ATOM     66  C   UNL A   1      41.599  25.583  27.688  1.00  0.00     0.173 A 
ATOM     67  F   UNL A   1      43.628  28.558  27.176  1.00  0.00    -0.203 F 
ATOM     68  C   UNL A   1      43.437  26.604  25.877  1.00  0.00     0.198 A 
ATOM     69  C   UNL A   1      41.978  24.833  26.578  1.00  0.00     0.198 A 
ATOM     70  F   UNL A   1      40.702  25.062  28.540  1.00  0.00    -0.203 F 
ATOM     71  F   UNL A   1      44.297  27.114  24.985  1.00  0.00    -0.200 F 
ATOM     72  C   UNL A   1      42.890  25.346  25.670  1.00  0.00     0.200 A 
ATOM     73  F   UNL A   1      41.459  23.611  26.388  1.00  0.00    -0.200 F 
ATOM     74  F   UNL A   1      43.238  24.632  24.591  1.00  0.00    -0.200 F 
ENDBRANCH  50  64
BRANCH  51  75
ATOM     75  C   UNL A   1      39.175  32.088  35.882  1.00  0.00     0.064 A 
ATOM     76  C   UNL A   1      39.663  33.374  36.150  1.00  0.00     0.173 A 
ATOM     77  C   UNL A   1      38.283  31.523  36.807  1.00  0.00     0.173 A 
ATOM     78  F   UNL A   1      40.539  33.947  35.311  1.00  0.00    -0.203 F 
ATOM     79  C   UNL A   1      39.299  34.055  37.311  1.00  0.00     0.198 A 
ATOM     80  C   UNL A   1      37.895  32.218  37.950  1.00  0.00     0.198 A 
ATOM     81  F   UNL A   1      37.790  30.293  36.602  1.00  0.00    -0.203 F 
ATOM     82  F   UNL A   1      39.829  35.258  37.572  1.00  0.00    -0.200 F 
ATOM     83  C   UNL A   1      38.411  33.479  38.207  1.00  0.00     0.200 A 
ATOM     84  F   UNL A   1      37.028  31.663  38.807  1.00  0.00    -0.200 F 
ATOM     85  F   UNL A   1      38.063  34.134  39.323  1.00  0.00    -0.200 F 
ENDBRANCH  51  75
BRANCH  63  86
ATOM     86  C   UNL A   1      44.379  27.597  34.747  1.00  0.00     0.064 A 
ATOM     87  C   UNL A   1      45.618  28.252  34.810  1.00  0.00     0.173 A 
ATOM     88  C   UNL A   1      44.201  26.455  35.545  1.00  0.00     0.173 A 
ATOM     89  F   UNL A   1      45.845  29.343  34.063  1.00  0.00    -0.203 F 
ATOM     90  C   UNL A   1      46.651  27.756  35.604  1.00  0.00     0.198 A 
ATOM     91  C   UNL A   1      45.223  25.984  36.363  1.00  0.00     0.198 A 
ATOM     92  F   UNL A   1      43.033  25.797  35.533  1.00  0.00    -0.203 F 
ATOM     93  F   UNL A   1      47.847  28.360  35.596  1.00  0.00    -0.200 F 
ATOM     94  C   UNL A   1      46.451  26.626  36.381  1.00  0.00     0.200 A 
ATOM     95  F   UNL A   1      45.022  24.901  37.129  1.00  0.00    -0.200 F 
ATOM     96  F   UNL A   1      47.446  26.150  37.143  1.00  0.00    -0.200 F 
ENDBRANCH  63  86
ENDBRANCH  37  38
ENDBRANCH  30  32
ENDBRANCH  29  30
ENDBRANCH  28  29
ENDBRANCH  27  28
ENDBRANCH  26  27
ENDBRANCH   1  26
TORSDOF 19
ENDMDL
MODEL 3
REMARK VINA RESULT:     -10.8      4.958      9.103
REMARK SMILES C[C@H](O)[C@@H](NC(=O)c1ccc(Cl)c(S(C)(=O)=O)c1)C(=O)OCCOCCOC(=O)c1ccc(-c2c3nc(c(-c4c(F)c(F)c(F)c(F)c4F)c4ccc([nH]4)c(-c4c(F)c(F)c(F)c(F)c4F)c4nc(c(-c5c(F)c(F)c(F)c(F)c5F)c5ccc2[nH]5)C=C4)C=C3)cc1
REMARK SMILES IDX 23 1 22 2 21 3 19 4 20 5 4 6 2 7 1 8 3 9 5 11 6 12 7 14 8 15
REMARK SMILES IDX 9 16 18 17 10 18 13 19 11 20 12 21 14 22 15 23 16 24 17 25
REMARK SMILES IDX 24 26 25 27 26 28 27 29 28 30 29 31 30 32 31 33 92 34 32 35
REMARK SMILES IDX 91 36 33 37 34 38 35 39 85 40 36 41 90 42 84 43 86 44 37 45
REMARK SMILES IDX 89 46 83 47 82 48 38 50 70 51 50 52 69 53 51 54 54 55 68 56
REMARK SMILES IDX 87 57 52 58 53 59 67 61 88 62 55 63 39 64 40 65 48 66 41 67
REMARK SMILES IDX 42 68 46 69 49 70 43 71 44 72 47 73 45 74 71 75 72 76 80 77
REMARK SMILES IDX 73 78 74 79 78 80 81 81 75 82 76 83 79 84 77 85 56 86 57 87
REMARK SMILES IDX 65 88 58 89 59 90 63 91 66 92 60 93 61 94 64 95 62 96
REMARK H PARENT 3 10 5 13 86 49 54 60
REMARK Flexibility Score: inf
ROOT
ATOM      1  C   UNL A   1      37.211  23.700  25.000  1.00  0.00     0.202 C 
ENDROOT
BRANCH   1   2
ATOM      2  C   UNL A   1      35.750  23.455  24.605  1.00  0.00     0.261 C 
BRANCH   2   3
ATOM      3  O   UNL A   1      35.172  22.148  24.726  1.00  0.00    -0.462 OA
BRANCH   3   4
ATOM      4  C   UNL A   1      33.946  22.032  24.143  1.00  0.00     0.331 C 
ATOM      5  O   UNL A   1      33.629  22.580  23.091  1.00  0.00    -0.250 OA
BRANCH   4   6
ATOM      6  C   UNL A   1      32.930  21.284  24.999  1.00  0.00     0.221 C 
BRANCH   6   7
ATOM      7  C   UNL A   1      33.352  19.844  25.383  1.00  0.00     0.145 C 
ATOM      8  C   UNL A   1      32.533  18.734  24.735  1.00  0.00     0.041 C 
BRANCH   7   9
ATOM      9  O   UNL A   1      33.202  19.718  26.811  1.00  0.00    -0.391 OA
ATOM     10  H   UNL A   1      33.787  20.352  27.255  1.00  0.00     0.211 HD
ENDBRANCH   7   9
ENDBRANCH   6   7
BRANCH   6  11
ATOM     11  N   UNL A   1      32.436  21.968  26.224  1.00  0.00    -0.336 N 
ATOM     12  C   UNL A   1      31.725  23.102  26.489  1.00  0.00     0.252 C 
ATOM     13  H   UNL A   1      32.683  21.483  27.045  1.00  0.00     0.164 HD
ATOM     14  O   UNL A   1      31.317  23.325  27.626  1.00  0.00    -0.269 OA
BRANCH  12  15
ATOM     15  C   UNL A   1      31.540  24.162  25.489  1.00  0.00     0.041 A 
ATOM     16  C   UNL A   1      30.660  24.012  24.422  1.00  0.00     0.015 A 
ATOM     17  C   UNL A   1      32.211  25.373  25.685  1.00  0.00     0.035 A 
ATOM     18  C   UNL A   1      30.516  25.055  23.498  1.00  0.00     0.023 A 
ATOM     19  C   UNL A   1      32.053  26.427  24.767  1.00  0.00     0.086 A 
ATOM     20  C   UNL A   1      31.208  26.268  23.662  1.00  0.00     0.059 A 
ATOM     21  Cl  UNL A   1      30.943  27.460  22.447  1.00  0.00    -0.083 Cl
BRANCH  19  22
ATOM     22  S   UNL A   1      33.034  27.882  25.046  1.00  0.00     0.177 S 
ATOM     23  C   UNL A   1      31.815  29.139  25.331  1.00  0.00     0.164 C 
ATOM     24  O   UNL A   1      33.754  27.673  26.294  1.00  0.00    -0.224 OA
ATOM     25  O   UNL A   1      33.785  28.201  23.854  1.00  0.00    -0.224 OA
ENDBRANCH  19  22
ENDBRANCH  12  15
ENDBRANCH   6  11
ENDBRANCH   4   6
ENDBRANCH   3   4
ENDBRANCH   2   3
ENDBRANCH   1   2
BRANCH   1  26
ATOM     26  O   UNL A   1      37.648  23.348  26.298  1.00  0.00    -0.374 OA
BRANCH  26  27
ATOM     27  C   UNL A   1      38.932  22.754  26.440  1.00  0.00     0.202 C 
BRANCH  27  28
ATOM     28  C   UNL A   1      39.146  21.350  25.862  1.00  0.00     0.261 C 
BRANCH  28  29
ATOM     29  O   UNL A   1      39.789  20.455  26.796  1.00  0.00    -0.460 OA
BRANCH  29  30
ATOM     30  C   UNL A   1      40.955  19.931  26.345  1.00  0.00     0.338 C 
ATOM     31  O   UNL A   1      41.104  18.875  25.752  1.00  0.00    -0.246 OA
BRANCH  30  32
ATOM     32  C   UNL A   1      42.076  20.874  26.503  1.00  0.00     0.060 A 
ATOM     33  C   UNL A   1      42.311  21.385  27.786  1.00  0.00     0.016 A 
ATOM     34  C   UNL A   1      42.706  21.432  25.390  1.00  0.00     0.016 A 
ATOM     35  C   UNL A   1      43.083  22.531  27.948  1.00  0.00     0.010 A 
ATOM     36  C   UNL A   1      43.481  22.589  25.555  1.00  0.00     0.010 A 
ATOM     37  C   UNL A   1      43.603  23.186  26.825  1.00  0.00    -0.014 A 
BRANCH  37  38
ATOM     38  C   UNL A   1      44.023  24.606  26.969  1.00  0.00     0.031 A 
ATOM     39  C   UNL A   1      43.020  25.608  27.491  1.00  0.00     0.074 A 
ATOM     40  C   UNL A   1      45.293  24.987  26.750  1.00  0.00     0.049 A 
ATOM     41  N   UNL A   1      43.165  26.886  27.742  1.00  0.00    -0.248 NA
ATOM     42  C   UNL A   1      41.667  25.098  27.770  1.00  0.00     0.031 C 
ATOM     43  C   UNL A   1      46.372  24.110  26.302  1.00  0.00     0.029 A 
ATOM     44  N   UNL A   1      45.888  26.216  26.888  1.00  0.00    -0.354 N 
ATOM     45  C   UNL A   1      41.928  27.327  28.198  1.00  0.00     0.074 A 
ATOM     46  C   UNL A   1      41.031  26.194  28.154  1.00  0.00     0.031 C 
ATOM     47  C   UNL A   1      47.502  24.831  26.202  1.00  0.00     0.029 A 
ATOM     48  C   UNL A   1      47.220  26.222  26.556  1.00  0.00     0.049 A 
ATOM     49  H   UNL A   1      45.406  27.017  27.197  1.00  0.00     0.167 HD
ATOM     50  C   UNL A   1      41.572  28.561  28.633  1.00  0.00     0.037 A 
ATOM     51  C   UNL A   1      48.105  27.238  26.532  1.00  0.00     0.037 A 
ATOM     52  C   UNL A   1      42.465  29.687  28.698  1.00  0.00     0.049 A 
ATOM     53  C   UNL A   1      47.671  28.613  26.970  1.00  0.00     0.074 A 
ATOM     54  C   UNL A   1      42.200  30.976  29.128  1.00  0.00     0.029 A 
ATOM     55  N   UNL A   1      43.799  29.658  28.320  1.00  0.00    -0.354 N 
ATOM     56  N   UNL A   1      46.503  29.018  27.411  1.00  0.00    -0.248 NA
ATOM     57  C   UNL A   1      48.689  29.673  26.923  1.00  0.00     0.031 C 
ATOM     58  C   UNL A   1      43.360  31.741  28.963  1.00  0.00     0.029 A 
ATOM     59  C   UNL A   1      44.365  30.912  28.491  1.00  0.00     0.049 A 
ATOM     60  H   UNL A   1      44.273  28.866  27.981  1.00  0.00     0.167 HD
ATOM     61  C   UNL A   1      46.658  30.362  27.731  1.00  0.00     0.074 A 
ATOM     62  C   UNL A   1      48.036  30.701  27.446  1.00  0.00     0.031 C 
ATOM     63  C   UNL A   1      45.743  31.235  28.220  1.00  0.00     0.037 A 
BRANCH  50  64
ATOM     64  C   UNL A   1      40.143  28.765  29.052  1.00  0.00     0.064 A 
ATOM     65  C   UNL A   1      39.731  28.609  30.384  1.00  0.00     0.173 A 
ATOM     66  C   UNL A   1      39.180  29.161  28.111  1.00  0.00     0.173 A 
ATOM     67  F   UNL A   1      40.607  28.218  31.321  1.00  0.00    -0.203 F 
ATOM     68  C   UNL A   1      38.403  28.817  30.752  1.00  0.00     0.198 A 
ATOM     69  C   UNL A   1      37.861  29.399  28.488  1.00  0.00     0.198 A 
ATOM     70  F   UNL A   1      39.522  29.329  26.824  1.00  0.00    -0.203 F 
ATOM     71  F   UNL A   1      38.021  28.615  32.021  1.00  0.00    -0.200 F 
ATOM     72  C   UNL A   1      37.472  29.220  29.806  1.00  0.00     0.200 A 
ATOM     73  F   UNL A   1      36.967  29.802  27.575  1.00  0.00    -0.200 F 
ATOM     74  F   UNL A   1      36.197  29.429  30.163  1.00  0.00    -0.200 F 
ENDBRANCH  50  64
BRANCH  51  75
ATOM     75  C   UNL A   1      49.500  26.998  26.076  1.00  0.00     0.064 A 
ATOM     76  C   UNL A   1      49.853  27.098  24.723  1.00  0.00     0.173 A 
ATOM     77  C   UNL A   1      50.503  26.625  26.985  1.00  0.00     0.173 A 
ATOM     78  F   UNL A   1      48.925  27.425  23.812  1.00  0.00    -0.203 F 
ATOM     79  C   UNL A   1      51.147  26.808  24.293  1.00  0.00     0.198 A 
ATOM     80  C   UNL A   1      51.803  26.368  26.558  1.00  0.00     0.198 A 
ATOM     81  F   UNL A   1      50.218  26.509  28.290  1.00  0.00    -0.203 F 
ATOM     82  F   UNL A   1      51.441  26.854  22.986  1.00  0.00    -0.200 F 
ATOM     83  C   UNL A   1      52.122  26.449  25.211  1.00  0.00     0.200 A 
ATOM     84  F   UNL A   1      52.745  26.032  27.449  1.00  0.00    -0.200 F 
ATOM     85  F   UNL A   1      53.365  26.169  24.796  1.00  0.00    -0.200 F 
ENDBRANCH  51  75
BRANCH  63  86
ATOM     86  C   UNL A   1      46.217  32.626  28.541  1.00  0.00     0.064 A 
ATOM     87  C   UNL A   1      46.728  32.966  29.803  1.00  0.00     0.173 A 
ATOM     88  C   UNL A   1      46.171  33.631  27.562  1.00  0.00     0.173 A 
ATOM     89  F   UNL A   1      46.787  32.046  30.778  1.00  0.00    -0.203 F 
ATOM     90  C   UNL A   1      47.133  34.269  30.084  1.00  0.00     0.198 A 
ATOM     91  C   UNL A   1      46.609  34.923  27.837  1.00  0.00     0.198 A 
ATOM     92  F   UNL A   1      45.702  33.359  26.335  1.00  0.00    -0.203 F 
ATOM     93  F   UNL A   1      47.554  34.585  31.317  1.00  0.00    -0.200 F 
ATOM     94  C   UNL A   1      47.077  35.244  29.101  1.00  0.00     0.200 A 
ATOM     95  F   UNL A   1      46.571  35.860  26.878  1.00  0.00    -0.200 F 
ATOM     96  F   UNL A   1      47.465  36.498  29.375  1.00  0.00    -0.200 F 
ENDBRANCH  63  86
ENDBRANCH  37  38
ENDBRANCH  30  32
ENDBRANCH  29  30
ENDBRANCH  28  29
ENDBRANCH  27  28
ENDBRANCH  26  27
ENDBRANCH   1  26
TORSDOF 19
ENDMDL
