MODEL 1
REMARK VINA RESULT:     -11.5      0.000      0.000
REMARK SMILES C[C@@H](C(=O)OCCOCCOC(=O)c1ccc(-c2c3nc(c(-c4c(F)c(F)c(F)c(F)c4F)c4ccc([nH]4)c(-c4c(F)c(F)c(F)c(F)c4F)c4nc(c(-c5c(F)c(F)c(F)c(F)c5F)c5ccc2[nH]5)C=C4)C=C3)cc1)c1ccccc1-c1ccn(C(F)F)c(=O)c1
REMARK SMILES IDX 7 1 6 2 5 3 3 4 4 5 2 6 1 7 77 8 78 9 82 10 79 11 81 12
REMARK SMILES IDX 80 13 83 14 84 15 92 16 85 17 90 18 86 19 91 20 87 21 88 22
REMARK SMILES IDX 89 23 8 24 9 25 10 26 11 27 12 28 13 29 14 30 15 31 76 32
REMARK SMILES IDX 16 33 75 34 17 35 18 36 19 37 69 38 20 39 74 40 68 41 70 42
REMARK SMILES IDX 21 43 73 44 67 45 66 46 22 48 54 49 34 50 53 51 35 52 38 53
REMARK SMILES IDX 52 54 71 55 36 56 37 57 51 59 72 60 39 61 23 62 24 63 32 64
REMARK SMILES IDX 25 65 26 66 30 67 33 68 27 69 28 70 31 71 29 72 55 73 56 74
REMARK SMILES IDX 64 75 57 76 58 77 62 78 65 79 59 80 60 81 63 82 61 83 40 84
REMARK SMILES IDX 41 85 49 86 42 87 43 88 47 89 50 90 44 91 45 92 48 93 46 94
REMARK H PARENT 70 47 38 58
REMARK Flexibility Score: inf
ROOT
ATOM      1  C   UNL A   1      32.091  28.737  24.160  1.00  0.00     0.202 C 
ENDROOT
BRANCH   1   2
ATOM      2  C   UNL A   1      32.321  27.877  22.914  1.00  0.00     0.261 C 
BRANCH   2   3
ATOM      3  O   UNL A   1      33.163  26.767  23.257  1.00  0.00    -0.463 OA
BRANCH   3   4
ATOM      4  C   UNL A   1      33.308  25.806  22.307  1.00  0.00     0.313 C 
ATOM      5  O   UNL A   1      33.254  26.022  21.101  1.00  0.00    -0.252 OA
BRANCH   4   6
ATOM      6  C   UNL A   1      33.630  24.433  22.915  1.00  0.00     0.127 C 
ATOM      7  C   UNL A   1      33.379  23.263  21.947  1.00  0.00     0.025 C 
BRANCH   6   8
ATOM      8  C   UNL A   1      32.984  24.201  24.297  1.00  0.00    -0.026 A 
ATOM      9  C   UNL A   1      31.607  24.448  24.491  1.00  0.00     0.005 A 
ATOM     10  C   UNL A   1      33.726  23.724  25.409  1.00  0.00    -0.014 A 
ATOM     11  C   UNL A   1      30.997  24.275  25.736  1.00  0.00     0.000 A 
ATOM     12  C   UNL A   1      33.099  23.575  26.663  1.00  0.00     0.009 A 
ATOM     13  C   UNL A   1      31.744  23.851  26.826  1.00  0.00     0.001 A 
BRANCH  10  14
ATOM     14  C   UNL A   1      35.135  23.286  25.296  1.00  0.00    -0.011 A 
ATOM     15  C   UNL A   1      35.542  22.023  24.714  1.00  0.00     0.027 A 
ATOM     16  C   UNL A   1      36.062  24.070  25.876  1.00  0.00     0.080 A 
ATOM     17  C   UNL A   1      36.792  21.575  24.887  1.00  0.00     0.095 A 
ATOM     18  C   UNL A   1      37.471  23.616  26.011  1.00  0.00     0.255 A 
ATOM     19  N   UNL A   1      37.735  22.335  25.556  1.00  0.00    -0.258 N 
ATOM     20  O   UNL A   1      38.278  24.368  26.547  1.00  0.00    -0.269 OA
BRANCH  19  21
ATOM     21  C   UNL A   1      39.054  21.817  25.804  1.00  0.00     0.451 C 
ATOM     22  F   UNL A   1      39.507  22.195  27.022  1.00  0.00    -0.185 F 
ATOM     23  F   UNL A   1      39.057  20.461  25.755  1.00  0.00    -0.185 F 
ENDBRANCH  19  21
ENDBRANCH  10  14
ENDBRANCH   6   8
ENDBRANCH   4   6
ENDBRANCH   3   4
ENDBRANCH   2   3
ENDBRANCH   1   2
BRANCH   1  24
ATOM     24  O   UNL A   1      31.632  28.035  25.319  1.00  0.00    -0.374 OA
BRANCH  24  25
ATOM     25  C   UNL A   1      31.873  28.633  26.594  1.00  0.00     0.202 C 
BRANCH  25  26
ATOM     26  C   UNL A   1      31.858  30.165  26.650  1.00  0.00     0.261 C 
BRANCH  26  27
ATOM     27  O   UNL A   1      33.146  30.740  26.359  1.00  0.00    -0.460 OA
BRANCH  27  28
ATOM     28  C   UNL A   1      33.628  31.560  27.322  1.00  0.00     0.338 C 
ATOM     29  O   UNL A   1      33.026  32.445  27.916  1.00  0.00    -0.246 OA
BRANCH  28  30
ATOM     30  C   UNL A   1      34.983  31.146  27.721  1.00  0.00     0.060 A 
ATOM     31  C   UNL A   1      35.209  29.776  27.906  1.00  0.00     0.016 A 
ATOM     32  C   UNL A   1      35.984  32.076  28.014  1.00  0.00     0.016 A 
ATOM     33  C   UNL A   1      36.419  29.332  28.432  1.00  0.00     0.010 A 
ATOM     34  C   UNL A   1      37.197  31.628  28.553  1.00  0.00     0.010 A 
ATOM     35  C   UNL A   1      37.404  30.257  28.798  1.00  0.00    -0.014 A 
BRANCH  35  36
ATOM     36  C   UNL A   1      38.579  29.793  29.577  1.00  0.00     0.031 A 
ATOM     37  C   UNL A   1      38.798  30.337  30.962  1.00  0.00     0.074 A 
ATOM     38  C   UNL A   1      39.411  28.863  29.079  1.00  0.00     0.049 A 
ATOM     39  N   UNL A   1      39.752  30.072  31.818  1.00  0.00    -0.248 NA
ATOM     40  C   UNL A   1      37.805  31.308  31.449  1.00  0.00     0.031 C 
ATOM     41  C   UNL A   1      39.279  28.228  27.769  1.00  0.00     0.029 A 
ATOM     42  N   UNL A   1      40.534  28.288  29.620  1.00  0.00    -0.354 N 
ATOM     43  C   UNL A   1      39.477  30.843  32.940  1.00  0.00     0.074 A 
ATOM     44  C   UNL A   1      38.284  31.607  32.648  1.00  0.00     0.031 C 
ATOM     45  C   UNL A   1      40.288  27.356  27.604  1.00  0.00     0.029 A 
ATOM     46  C   UNL A   1      41.150  27.391  28.785  1.00  0.00     0.049 A 
ATOM     47  H   UNL A   1      40.865  28.500  30.523  1.00  0.00     0.167 HD
ATOM     48  C   UNL A   1      40.153  30.901  34.112  1.00  0.00     0.037 A 
ATOM     49  C   UNL A   1      42.290  26.693  28.950  1.00  0.00     0.037 A 
ATOM     50  C   UNL A   1      41.338  30.138  34.405  1.00  0.00     0.049 A 
ATOM     51  C   UNL A   1      43.062  26.827  30.237  1.00  0.00     0.074 A 
ATOM     52  C   UNL A   1      42.083  30.114  35.571  1.00  0.00     0.029 A 
ATOM     53  N   UNL A   1      41.955  29.268  33.518  1.00  0.00    -0.354 N 
ATOM     54  N   UNL A   1      42.780  27.537  31.302  1.00  0.00    -0.248 NA
ATOM     55  C   UNL A   1      44.311  26.059  30.345  1.00  0.00     0.031 C 
ATOM     56  C   UNL A   1      43.176  29.264  35.374  1.00  0.00     0.029 A 
ATOM     57  C   UNL A   1      43.086  28.722  34.102  1.00  0.00     0.049 A 
ATOM     58  H   UNL A   1      41.635  29.069  32.609  1.00  0.00     0.167 HD
ATOM     59  C   UNL A   1      43.796  27.281  32.213  1.00  0.00     0.074 A 
ATOM     60  C   UNL A   1      44.697  26.341  31.581  1.00  0.00     0.031 C 
ATOM     61  C   UNL A   1      43.967  27.780  33.463  1.00  0.00     0.037 A 
BRANCH  48  62
ATOM     62  C   UNL A   1      39.641  31.841  35.162  1.00  0.00     0.064 A 
ATOM     63  C   UNL A   1      40.060  33.179  35.220  1.00  0.00     0.173 A 
ATOM     64  C   UNL A   1      38.689  31.409  36.097  1.00  0.00     0.173 A 
ATOM     65  F   UNL A   1      40.978  33.637  34.357  1.00  0.00    -0.203 F 
ATOM     66  C   UNL A   1      39.559  34.044  36.191  1.00  0.00     0.198 A 
ATOM     67  C   UNL A   1      38.172  32.283  37.050  1.00  0.00     0.198 A 
ATOM     68  F   UNL A   1      38.253  30.141  36.081  1.00  0.00    -0.203 F 
ATOM     69  F   UNL A   1      40.002  35.307  36.253  1.00  0.00    -0.200 F 
ATOM     70  C   UNL A   1      38.611  33.597  37.099  1.00  0.00     0.200 A 
ATOM     71  F   UNL A   1      37.248  31.853  37.920  1.00  0.00    -0.200 F 
ATOM     72  F   UNL A   1      38.125  34.433  38.027  1.00  0.00    -0.200 F 
ENDBRANCH  48  62
BRANCH  49  73
ATOM     73  C   UNL A   1      42.783  25.807  27.863  1.00  0.00     0.064 A 
ATOM     74  C   UNL A   1      43.636  26.293  26.863  1.00  0.00     0.173 A 
ATOM     75  C   UNL A   1      42.391  24.462  27.790  1.00  0.00     0.173 A 
ATOM     76  F   UNL A   1      44.018  27.579  26.875  1.00  0.00    -0.203 F 
ATOM     77  C   UNL A   1      44.065  25.472  25.822  1.00  0.00     0.198 A 
ATOM     78  C   UNL A   1      42.842  23.635  26.764  1.00  0.00     0.198 A 
ATOM     79  F   UNL A   1      41.572  23.950  28.721  1.00  0.00    -0.203 F 
ATOM     80  F   UNL A   1      44.844  25.973  24.853  1.00  0.00    -0.200 F 
ATOM     81  C   UNL A   1      43.672  24.142  25.777  1.00  0.00     0.200 A 
ATOM     82  F   UNL A   1      42.467  22.349  26.730  1.00  0.00    -0.200 F 
ATOM     83  F   UNL A   1      44.085  23.353  24.776  1.00  0.00    -0.200 F 
ENDBRANCH  49  73
BRANCH  61  84
ATOM     84  C   UNL A   1      45.154  27.293  34.243  1.00  0.00     0.064 A 
ATOM     85  C   UNL A   1      46.390  27.952  34.189  1.00  0.00     0.173 A 
ATOM     86  C   UNL A   1      45.037  26.181  35.090  1.00  0.00     0.173 A 
ATOM     87  F   UNL A   1      46.556  29.012  33.384  1.00  0.00    -0.203 F 
ATOM     88  C   UNL A   1      47.475  27.501  34.937  1.00  0.00     0.198 A 
ATOM     89  C   UNL A   1      46.116  25.748  35.857  1.00  0.00     0.198 A 
ATOM     90  F   UNL A   1      43.874  25.519  35.182  1.00  0.00    -0.203 F 
ATOM     91  F   UNL A   1      48.659  28.119  34.837  1.00  0.00    -0.200 F 
ATOM     92  C   UNL A   1      47.335  26.404  35.776  1.00  0.00     0.200 A 
ATOM     93  F   UNL A   1      45.974  24.696  36.676  1.00  0.00    -0.200 F 
ATOM     94  F   UNL A   1      48.377  25.975  36.500  1.00  0.00    -0.200 F 
ENDBRANCH  61  84
ENDBRANCH  35  36
ENDBRANCH  28  30
ENDBRANCH  27  28
ENDBRANCH  26  27
ENDBRANCH  25  26
ENDBRANCH  24  25
ENDBRANCH   1  24
TORSDOF 17
ENDMDL
MODEL 2
REMARK VINA RESULT:     -11.5      2.140      7.993
REMARK SMILES C[C@@H](C(=O)OCCOCCOC(=O)c1ccc(-c2c3nc(c(-c4c(F)c(F)c(F)c(F)c4F)c4ccc([nH]4)c(-c4c(F)c(F)c(F)c(F)c4F)c4nc(c(-c5c(F)c(F)c(F)c(F)c5F)c5ccc2[nH]5)C=C4)C=C3)cc1)c1ccccc1-c1ccn(C(F)F)c(=O)c1
REMARK SMILES IDX 7 1 6 2 5 3 3 4 4 5 2 6 1 7 77 8 78 9 82 10 79 11 81 12
REMARK SMILES IDX 80 13 83 14 84 15 92 16 85 17 90 18 86 19 91 20 87 21 88 22
REMARK SMILES IDX 89 23 8 24 9 25 10 26 11 27 12 28 13 29 14 30 15 31 76 32
REMARK SMILES IDX 16 33 75 34 17 35 18 36 19 37 69 38 20 39 74 40 68 41 70 42
REMARK SMILES IDX 21 43 73 44 67 45 66 46 22 48 54 49 34 50 53 51 35 52 38 53
REMARK SMILES IDX 52 54 71 55 36 56 37 57 51 59 72 60 39 61 23 62 24 63 32 64
REMARK SMILES IDX 25 65 26 66 30 67 33 68 27 69 28 70 31 71 29 72 55 73 56 74
REMARK SMILES IDX 64 75 57 76 58 77 62 78 65 79 59 80 60 81 63 82 61 83 40 84
REMARK SMILES IDX 41 85 49 86 42 87 43 88 47 89 50 90 44 91 45 92 48 93 46 94
REMARK H PARENT 70 47 38 58
REMARK Flexibility Score: inf
ROOT
ATOM      1  C   UNL A   1      33.355  30.498  26.757  1.00  0.00     0.202 C 
ENDROOT
BRANCH   1   2
ATOM      2  C   UNL A   1      34.021  29.248  27.338  1.00  0.00     0.261 C 
BRANCH   2   3
ATOM      3  O   UNL A   1      34.027  28.212  26.344  1.00  0.00    -0.463 OA
BRANCH   3   4
ATOM      4  C   UNL A   1      32.867  27.523  26.186  1.00  0.00     0.313 C 
ATOM      5  O   UNL A   1      32.069  27.307  27.093  1.00  0.00    -0.252 OA
BRANCH   4   6
ATOM      6  C   UNL A   1      32.628  27.118  24.724  1.00  0.00     0.127 C 
ATOM      7  C   UNL A   1      33.603  27.789  23.738  1.00  0.00     0.025 C 
BRANCH   6   8
ATOM      8  C   UNL A   1      31.158  27.250  24.276  1.00  0.00    -0.026 A 
ATOM      9  C   UNL A   1      30.653  28.496  23.843  1.00  0.00     0.005 A 
ATOM     10  C   UNL A   1      30.267  26.145  24.267  1.00  0.00    -0.014 A 
ATOM     11  C   UNL A   1      29.319  28.656  23.458  1.00  0.00     0.000 A 
ATOM     12  C   UNL A   1      28.920  26.329  23.895  1.00  0.00     0.009 A 
ATOM     13  C   UNL A   1      28.448  27.577  23.496  1.00  0.00     0.001 A 
BRANCH  10  14
ATOM     14  C   UNL A   1      30.712  24.763  24.552  1.00  0.00    -0.011 A 
ATOM     15  C   UNL A   1      30.877  24.229  25.889  1.00  0.00     0.027 A 
ATOM     16  C   UNL A   1      31.087  24.018  23.497  1.00  0.00     0.080 A 
ATOM     17  C   UNL A   1      31.534  23.076  26.076  1.00  0.00     0.095 A 
ATOM     18  C   UNL A   1      31.753  22.702  23.688  1.00  0.00     0.255 A 
ATOM     19  N   UNL A   1      32.000  22.340  25.002  1.00  0.00    -0.258 N 
ATOM     20  O   UNL A   1      32.076  22.061  22.694  1.00  0.00    -0.269 OA
BRANCH  19  21
ATOM     21  C   UNL A   1      32.769  21.142  25.211  1.00  0.00     0.451 C 
ATOM     22  F   UNL A   1      33.155  21.027  26.503  1.00  0.00    -0.185 F 
ATOM     23  F   UNL A   1      32.044  20.042  24.888  1.00  0.00    -0.185 F 
ENDBRANCH  19  21
ENDBRANCH  10  14
ENDBRANCH   6   8
ENDBRANCH   4   6
ENDBRANCH   3   4
ENDBRANCH   2   3
ENDBRANCH   1   2
BRANCH   1  24
ATOM     24  O   UNL A   1      31.972  30.670  27.081  1.00  0.00    -0.374 OA
BRANCH  24  25
ATOM     25  C   UNL A   1      31.361  31.915  26.742  1.00  0.00     0.202 C 
BRANCH  25  26
ATOM     26  C   UNL A   1      32.245  33.165  26.840  1.00  0.00     0.261 C 
BRANCH  26  27
ATOM     27  O   UNL A   1      32.230  33.749  28.155  1.00  0.00    -0.460 OA
BRANCH  27  28
ATOM     28  C   UNL A   1      33.280  34.559  28.425  1.00  0.00     0.338 C 
ATOM     29  O   UNL A   1      33.279  35.781  28.497  1.00  0.00    -0.246 OA
BRANCH  28  30
ATOM     30  C   UNL A   1      34.460  33.765  28.806  1.00  0.00     0.060 A 
ATOM     31  C   UNL A   1      34.235  32.583  29.524  1.00  0.00     0.016 A 
ATOM     32  C   UNL A   1      35.762  34.212  28.566  1.00  0.00     0.016 A 
ATOM     33  C   UNL A   1      35.309  31.869  30.049  1.00  0.00     0.010 A 
ATOM     34  C   UNL A   1      36.840  33.497  29.103  1.00  0.00     0.010 A 
ATOM     35  C   UNL A   1      36.615  32.344  29.878  1.00  0.00    -0.014 A 
BRANCH  35  36
ATOM     36  C   UNL A   1      37.719  31.713  30.642  1.00  0.00     0.031 A 
ATOM     37  C   UNL A   1      38.559  30.658  29.976  1.00  0.00     0.074 A 
ATOM     38  C   UNL A   1      38.004  32.110  31.894  1.00  0.00     0.049 A 
ATOM     39  N   UNL A   1      39.572  29.978  30.451  1.00  0.00    -0.248 NA
ATOM     40  C   UNL A   1      38.213  30.328  28.584  1.00  0.00     0.031 C 
ATOM     41  C   UNL A   1      37.292  33.152  32.631  1.00  0.00     0.029 A 
ATOM     42  N   UNL A   1      38.972  31.680  32.768  1.00  0.00    -0.354 N 
ATOM     43  C   UNL A   1      39.980  29.141  29.422  1.00  0.00     0.074 A 
ATOM     44  C   UNL A   1      39.091  29.376  28.305  1.00  0.00     0.031 C 
ATOM     45  C   UNL A   1      37.843  33.276  33.850  1.00  0.00     0.029 A 
ATOM     46  C   UNL A   1      38.928  32.305  33.989  1.00  0.00     0.049 A 
ATOM     47  H   UNL A   1      39.636  30.989  32.539  1.00  0.00     0.167 HD
ATOM     48  C   UNL A   1      41.011  28.262  29.406  1.00  0.00     0.037 A 
ATOM     49  C   UNL A   1      39.668  32.102  35.096  1.00  0.00     0.037 A 
ATOM     50  C   UNL A   1      41.899  28.031  30.515  1.00  0.00     0.049 A 
ATOM     51  C   UNL A   1      40.764  31.069  35.075  1.00  0.00     0.074 A 
ATOM     52  C   UNL A   1      42.983  27.174  30.588  1.00  0.00     0.029 A 
ATOM     53  N   UNL A   1      41.797  28.655  31.749  1.00  0.00    -0.354 N 
ATOM     54  N   UNL A   1      41.161  30.302  34.089  1.00  0.00    -0.248 NA
ATOM     55  C   UNL A   1      41.518  30.876  36.322  1.00  0.00     0.031 C 
ATOM     56  C   UNL A   1      43.512  27.248  31.881  1.00  0.00     0.029 A 
ATOM     57  C   UNL A   1      42.785  28.185  32.599  1.00  0.00     0.049 A 
ATOM     58  H   UNL A   1      41.124  29.333  31.985  1.00  0.00     0.167 HD
ATOM     59  C   UNL A   1      42.223  29.558  34.585  1.00  0.00     0.074 A 
ATOM     60  C   UNL A   1      42.419  29.974  35.958  1.00  0.00     0.031 C 
ATOM     61  C   UNL A   1      42.971  28.616  33.960  1.00  0.00     0.037 A 
BRANCH  48  62
ATOM     62  C   UNL A   1      41.222  27.464  28.154  1.00  0.00     0.064 A 
ATOM     63  C   UNL A   1      40.545  26.256  27.928  1.00  0.00     0.173 A 
ATOM     64  C   UNL A   1      42.082  27.933  27.149  1.00  0.00     0.173 A 
ATOM     65  F   UNL A   1      39.722  25.758  28.863  1.00  0.00    -0.203 F 
ATOM     66  C   UNL A   1      40.739  25.537  26.751  1.00  0.00     0.198 A 
ATOM     67  C   UNL A   1      42.253  27.224  25.964  1.00  0.00     0.198 A 
ATOM     68  F   UNL A   1      42.749  29.085  27.316  1.00  0.00    -0.203 F 
ATOM     69  F   UNL A   1      40.112  24.366  26.572  1.00  0.00    -0.200 F 
ATOM     70  C   UNL A   1      41.586  26.025  25.767  1.00  0.00     0.200 A 
ATOM     71  F   UNL A   1      43.064  27.704  25.010  1.00  0.00    -0.200 F 
ATOM     72  F   UNL A   1      41.765  25.336  24.632  1.00  0.00    -0.200 F 
ENDBRANCH  48  62
BRANCH  49  73
ATOM     73  C   UNL A   1      39.392  32.886  36.328  1.00  0.00     0.064 A 
ATOM     74  C   UNL A   1      38.490  32.423  37.295  1.00  0.00     0.173 A 
ATOM     75  C   UNL A   1      40.010  34.125  36.552  1.00  0.00     0.173 A 
ATOM     76  F   UNL A   1      37.854  31.255  37.113  1.00  0.00    -0.203 F 
ATOM     77  C   UNL A   1      38.202  33.177  38.430  1.00  0.00     0.198 A 
ATOM     78  C   UNL A   1      39.742  34.866  37.700  1.00  0.00     0.198 A 
ATOM     79  F   UNL A   1      40.879  34.614  35.654  1.00  0.00    -0.203 F 
ATOM     80  F   UNL A   1      37.301  32.734  39.317  1.00  0.00    -0.200 F 
ATOM     81  C   UNL A   1      38.833  34.396  38.635  1.00  0.00     0.200 A 
ATOM     82  F   UNL A   1      40.361  36.038  37.897  1.00  0.00    -0.200 F 
ATOM     83  F   UNL A   1      38.557  35.121  39.727  1.00  0.00    -0.200 F 
ENDBRANCH  49  73
BRANCH  61  84
ATOM     84  C   UNL A   1      44.093  27.994  34.741  1.00  0.00     0.064 A 
ATOM     85  C   UNL A   1      43.906  26.826  35.495  1.00  0.00     0.173 A 
ATOM     86  C   UNL A   1      45.380  28.550  34.698  1.00  0.00     0.173 A 
ATOM     87  F   UNL A   1      42.690  26.266  35.579  1.00  0.00    -0.203 F 
ATOM     88  C   UNL A   1      44.961  26.250  36.196  1.00  0.00     0.198 A 
ATOM     89  C   UNL A   1      46.440  27.956  35.378  1.00  0.00     0.198 A 
ATOM     90  F   UNL A   1      45.614  29.663  33.987  1.00  0.00    -0.203 F 
ATOM     91  F   UNL A   1      44.750  25.159  36.944  1.00  0.00    -0.200 F 
ATOM     92  C   UNL A   1      46.229  26.811  36.131  1.00  0.00     0.200 A 
ATOM     93  F   UNL A   1      47.666  28.493  35.304  1.00  0.00    -0.200 F 
ATOM     94  F   UNL A   1      47.245  26.251  36.801  1.00  0.00    -0.200 F 
ENDBRANCH  61  84
ENDBRANCH  35  36
ENDBRANCH  28  30
ENDBRANCH  27  28
ENDBRANCH  26  27
ENDBRANCH  25  26
ENDBRANCH  24  25
ENDBRANCH   1  24
TORSDOF 17
ENDMDL
MODEL 3
REMARK VINA RESULT:     -11.5      2.070      3.175
REMARK SMILES C[C@@H](C(=O)OCCOCCOC(=O)c1ccc(-c2c3nc(c(-c4c(F)c(F)c(F)c(F)c4F)c4ccc([nH]4)c(-c4c(F)c(F)c(F)c(F)c4F)c4nc(c(-c5c(F)c(F)c(F)c(F)c5F)c5ccc2[nH]5)C=C4)C=C3)cc1)c1ccccc1-c1ccn(C(F)F)c(=O)c1
REMARK SMILES IDX 7 1 6 2 5 3 3 4 4 5 2 6 1 7 77 8 78 9 82 10 79 11 81 12
REMARK SMILES IDX 80 13 83 14 84 15 92 16 85 17 90 18 86 19 91 20 87 21 88 22
REMARK SMILES IDX 89 23 8 24 9 25 10 26 11 27 12 28 13 29 14 30 15 31 76 32
REMARK SMILES IDX 16 33 75 34 17 35 18 36 19 37 69 38 20 39 74 40 68 41 70 42
REMARK SMILES IDX 21 43 73 44 67 45 66 46 22 48 54 49 34 50 53 51 35 52 38 53
REMARK SMILES IDX 52 54 71 55 36 56 37 57 51 59 72 60 39 61 23 62 24 63 32 64
REMARK SMILES IDX 25 65 26 66 30 67 33 68 27 69 28 70 31 71 29 72 55 73 56 74
REMARK SMILES IDX 64 75 57 76 58 77 62 78 65 79 59 80 60 81 63 82 61 83 40 84
REMARK SMILES IDX 41 85 49 86 42 87 43 88 47 89 50 90 44 91 45 92 48 93 46 94
REMARK H PARENT 70 47 38 58
REMARK Flexibility Score: inf
ROOT
ATOM      1  C   UNL A   1      33.336  30.455  26.707  1.00  0.00     0.202 C 
ENDROOT
BRANCH   1   2
ATOM      2  C   UNL A   1      33.946  29.200  27.337  1.00  0.00     0.261 C 
BRANCH   2   3
ATOM      3  O   UNL A   1      33.970  28.147  26.362  1.00  0.00    -0.463 OA
BRANCH   3   4
ATOM      4  C   UNL A   1      32.815  27.451  26.199  1.00  0.00     0.313 C 
ATOM      5  O   UNL A   1      32.017  27.228  27.104  1.00  0.00    -0.252 OA
BRANCH   4   6
ATOM      6  C   UNL A   1      32.582  27.047  24.736  1.00  0.00     0.127 C 
ATOM      7  C   UNL A   1      33.579  27.695  23.758  1.00  0.00     0.025 C 
BRANCH   6   8
ATOM      8  C   UNL A   1      31.119  27.206  24.275  1.00  0.00    -0.026 A 
ATOM      9  C   UNL A   1      30.641  28.462  23.840  1.00  0.00     0.005 A 
ATOM     10  C   UNL A   1      30.209  26.117  24.253  1.00  0.00    -0.014 A 
ATOM     11  C   UNL A   1      29.314  28.647  23.442  1.00  0.00     0.000 A 
ATOM     12  C   UNL A   1      28.869  26.326  23.868  1.00  0.00     0.009 A 
ATOM     13  C   UNL A   1      28.424  27.583  23.468  1.00  0.00     0.001 A 
BRANCH  10  14
ATOM     14  C   UNL A   1      30.626  24.727  24.539  1.00  0.00    -0.011 A 
ATOM     15  C   UNL A   1      30.718  24.170  25.873  1.00  0.00     0.027 A 
ATOM     16  C   UNL A   1      31.048  23.994  23.493  1.00  0.00     0.080 A 
ATOM     17  C   UNL A   1      31.354  23.009  26.076  1.00  0.00     0.095 A 
ATOM     18  C   UNL A   1      31.692  22.669  23.697  1.00  0.00     0.255 A 
ATOM     19  N   UNL A   1      31.868  22.285  25.015  1.00  0.00    -0.258 N 
ATOM     20  O   UNL A   1      32.059  22.040  22.710  1.00  0.00    -0.269 OA
BRANCH  19  21
ATOM     21  C   UNL A   1      32.615  21.076  25.244  1.00  0.00     0.451 C 
ATOM     22  F   UNL A   1      31.944  19.993  24.788  1.00  0.00    -0.185 F 
ATOM     23  F   UNL A   1      33.815  21.125  24.614  1.00  0.00    -0.185 F 
ENDBRANCH  19  21
ENDBRANCH  10  14
ENDBRANCH   6   8
ENDBRANCH   4   6
ENDBRANCH   3   4
ENDBRANCH   2   3
ENDBRANCH   1   2
BRANCH   1  24
ATOM     24  O   UNL A   1      31.942  30.656  26.955  1.00  0.00    -0.374 OA
BRANCH  24  25
ATOM     25  C   UNL A   1      31.388  31.932  26.633  1.00  0.00     0.202 C 
BRANCH  25  26
ATOM     26  C   UNL A   1      32.283  33.153  26.880  1.00  0.00     0.261 C 
BRANCH  26  27
ATOM     27  O   UNL A   1      32.222  33.614  28.242  1.00  0.00    -0.460 OA
BRANCH  27  28
ATOM     28  C   UNL A   1      33.235  34.435  28.606  1.00  0.00     0.338 C 
ATOM     29  O   UNL A   1      33.173  35.635  28.840  1.00  0.00    -0.246 OA
BRANCH  28  30
ATOM     30  C   UNL A   1      34.460  33.660  28.865  1.00  0.00     0.060 A 
ATOM     31  C   UNL A   1      34.303  32.342  29.313  1.00  0.00     0.016 A 
ATOM     32  C   UNL A   1      35.730  34.234  28.780  1.00  0.00     0.016 A 
ATOM     33  C   UNL A   1      35.412  31.607  29.724  1.00  0.00     0.010 A 
ATOM     34  C   UNL A   1      36.843  33.497  29.204  1.00  0.00     0.010 A 
ATOM     35  C   UNL A   1      36.683  32.194  29.712  1.00  0.00    -0.014 A 
BRANCH  35  36
ATOM     36  C   UNL A   1      37.809  31.493  30.377  1.00  0.00     0.031 A 
ATOM     37  C   UNL A   1      38.137  31.829  31.805  1.00  0.00     0.074 A 
ATOM     38  C   UNL A   1      38.499  30.534  29.734  1.00  0.00     0.049 A 
ATOM     39  N   UNL A   1      39.073  31.342  32.581  1.00  0.00    -0.248 NA
ATOM     40  C   UNL A   1      37.293  32.848  32.449  1.00  0.00     0.031 C 
ATOM     41  C   UNL A   1      38.248  30.089  28.365  1.00  0.00     0.029 A 
ATOM     42  N   UNL A   1      39.553  29.761  30.153  1.00  0.00    -0.354 N 
ATOM     43  C   UNL A   1      38.933  31.995  33.798  1.00  0.00     0.074 A 
ATOM     44  C   UNL A   1      37.841  32.933  33.652  1.00  0.00     0.031 C 
ATOM     45  C   UNL A   1      39.130  29.125  28.053  1.00  0.00     0.029 A 
ATOM     46  C   UNL A   1      40.023  28.904  29.190  1.00  0.00     0.049 A 
ATOM     47  H   UNL A   1      39.935  29.816  31.059  1.00  0.00     0.167 HD
ATOM     48  C   UNL A   1      39.644  31.822  34.937  1.00  0.00     0.037 A 
ATOM     49  C   UNL A   1      41.067  28.054  29.219  1.00  0.00     0.037 A 
ATOM     50  C   UNL A   1      40.728  30.886  35.084  1.00  0.00     0.049 A 
ATOM     51  C   UNL A   1      41.886  27.929  30.477  1.00  0.00     0.074 A 
ATOM     52  C   UNL A   1      41.496  30.624  36.205  1.00  0.00     0.029 A 
ATOM     53  N   UNL A   1      41.201  30.063  34.072  1.00  0.00    -0.354 N 
ATOM     54  N   UNL A   1      41.730  28.531  31.631  1.00  0.00    -0.248 NA
ATOM     55  C   UNL A   1      43.028  27.003  30.436  1.00  0.00     0.031 C 
ATOM     56  C   UNL A   1      42.464  29.674  35.859  1.00  0.00     0.029 A 
ATOM     57  C   UNL A   1      42.267  29.310  34.536  1.00  0.00     0.049 A 
ATOM     58  H   UNL A   1      40.832  30.020  33.161  1.00  0.00     0.167 HD
ATOM     59  C   UNL A   1      42.730  28.039  32.459  1.00  0.00     0.074 A 
ATOM     60  C   UNL A   1      43.483  27.079  31.679  1.00  0.00     0.031 C 
ATOM     61  C   UNL A   1      43.000  28.353  33.750  1.00  0.00     0.037 A 
BRANCH  48  62
ATOM     62  C   UNL A   1      39.289  32.681  36.114  1.00  0.00     0.064 A 
ATOM     63  C   UNL A   1      39.843  33.958  36.287  1.00  0.00     0.173 A 
ATOM     64  C   UNL A   1      38.352  32.237  37.059  1.00  0.00     0.173 A 
ATOM     65  F   UNL A   1      40.752  34.423  35.418  1.00  0.00    -0.203 F 
ATOM     66  C   UNL A   1      39.487  34.750  37.376  1.00  0.00     0.198 A 
ATOM     67  C   UNL A   1      37.980  33.042  38.132  1.00  0.00     0.198 A 
ATOM     68  F   UNL A   1      37.791  31.025  36.936  1.00  0.00    -0.203 F 
ATOM     69  F   UNL A   1      40.057  35.952  37.544  1.00  0.00    -0.200 F 
ATOM     70  C   UNL A   1      38.551  34.295  38.293  1.00  0.00     0.200 A 
ATOM     71  F   UNL A   1      37.067  32.604  39.011  1.00  0.00    -0.200 F 
ATOM     72  F   UNL A   1      38.204  35.062  39.336  1.00  0.00    -0.200 F 
ENDBRANCH  48  62
BRANCH  49  73
ATOM     73  C   UNL A   1      41.409  27.255  28.013  1.00  0.00     0.064 A 
ATOM     74  C   UNL A   1      42.314  27.737  27.057  1.00  0.00     0.173 A 
ATOM     75  C   UNL A   1      40.820  26.004  27.781  1.00  0.00     0.173 A 
ATOM     76  F   UNL A   1      42.883  28.941  27.222  1.00  0.00    -0.203 F 
ATOM     77  C   UNL A   1      42.603  27.006  25.907  1.00  0.00     0.198 A 
ATOM     78  C   UNL A   1      41.130  25.261  26.644  1.00  0.00     0.198 A 
ATOM     79  F   UNL A   1      39.944  25.500  28.664  1.00  0.00    -0.203 F 
ATOM     80  F   UNL A   1      43.437  27.509  24.987  1.00  0.00    -0.200 F 
ATOM     81  C   UNL A   1      42.015  25.766  25.705  1.00  0.00     0.200 A 
ATOM     82  F   UNL A   1      40.566  24.060  26.458  1.00  0.00    -0.200 F 
ATOM     83  F   UNL A   1      42.294  25.062  24.599  1.00  0.00    -0.200 F 
ENDBRANCH  49  73
BRANCH  61  84
ATOM     84  C   UNL A   1      44.136  27.627  34.413  1.00  0.00     0.064 A 
ATOM     85  C   UNL A   1      45.435  28.154  34.429  1.00  0.00     0.173 A 
ATOM     86  C   UNL A   1      43.909  26.414  35.080  1.00  0.00     0.173 A 
ATOM     87  F   UNL A   1      45.705  29.304  33.793  1.00  0.00    -0.203 F 
ATOM     88  C   UNL A   1      46.472  27.479  35.068  1.00  0.00     0.198 A 
ATOM     89  C   UNL A   1      44.942  25.756  35.741  1.00  0.00     0.198 A 
ATOM     90  F   UNL A   1      42.682  25.871  35.100  1.00  0.00    -0.203 F 
ATOM     91  F   UNL A   1      47.715  27.978  35.033  1.00  0.00    -0.200 F 
ATOM     92  C   UNL A   1      46.224  26.285  35.730  1.00  0.00     0.200 A 
ATOM     93  F   UNL A   1      44.697  24.609  36.390  1.00  0.00    -0.200 F 
ATOM     94  F   UNL A   1      47.222  25.641  36.350  1.00  0.00    -0.200 F 
ENDBRANCH  61  84
ENDBRANCH  35  36
ENDBRANCH  28  30
ENDBRANCH  27  28
ENDBRANCH  26  27
ENDBRANCH  25  26
ENDBRANCH  24  25
ENDBRANCH   1  24
TORSDOF 17
ENDMDL
