MODEL 1
REMARK VINA RESULT:     -13.2      0.000      0.000
REMARK SMILES COc1ccc(N2C(=O)/C(=C/c3c(C(=O)OCCOCCOC(=O)c4ccc(-c5c6nc(c(-c7c(F)c(F)c(F)c(F)c7F)c7ccc([nH]7)c(-c7c(F)c(F)c(F)c(F)c7F)c7nc(c(-c8c(F)c(F)c(F)c(F)c8F)c8ccc5[nH]8)C=C7)C=C6)cc4)[nH]c4cc(OC)ccc34)SC2=S)cc1
REMARK SMILES IDX 18 1 17 2 16 3 14 4 15 5 13 6 12 7 96 8 88 9 89 10 95 11
REMARK SMILES IDX 90 13 94 14 91 15 11 16 7 17 8 18 98 19 9 20 10 21 97 22
REMARK SMILES IDX 99 23 6 24 3 25 4 26 101 27 5 28 100 29 2 30 1 31 92 32
REMARK SMILES IDX 93 33 19 34 20 35 21 36 22 37 23 38 24 39 25 40 26 41 87 42
REMARK SMILES IDX 27 43 86 44 28 45 29 46 30 47 80 48 31 49 85 50 79 51 81 52
REMARK SMILES IDX 32 53 84 54 78 55 77 56 33 58 65 59 45 60 64 61 46 62 49 63
REMARK SMILES IDX 63 64 82 65 47 66 48 67 62 69 83 70 50 71 34 72 35 73 43 74
REMARK SMILES IDX 36 75 37 76 41 77 44 78 38 79 39 80 42 81 40 82 66 83 67 84
REMARK SMILES IDX 75 85 68 86 69 87 73 88 76 89 70 90 71 91 74 92 72 93 51 94
REMARK SMILES IDX 52 95 60 96 53 97 54 98 58 99 61 100 55 101 56 102 59 103
REMARK SMILES IDX 57 104
REMARK H PARENT 88 12 81 57 49 68
REMARK Flexibility Score: inf
ROOT
ATOM      1  C   UNL A   1      33.397  26.947  26.085  1.00  0.00     0.202 C 
ENDROOT
BRANCH   1   2
ATOM      2  C   UNL A   1      34.106  26.780  24.735  1.00  0.00     0.261 C 
BRANCH   2   3
ATOM      3  O   UNL A   1      34.289  28.017  24.033  1.00  0.00    -0.459 OA
BRANCH   3   4
ATOM      4  C   UNL A   1      33.667  28.077  22.820  1.00  0.00     0.355 C 
ATOM      5  O   UNL A   1      34.224  27.967  21.734  1.00  0.00    -0.244 OA
BRANCH   4   6
ATOM      6  C   UNL A   1      32.230  28.110  22.968  1.00  0.00     0.133 A 
ATOM      7  C   UNL A   1      31.199  27.178  22.855  1.00  0.00     0.016 A 
ATOM      8  C   UNL A   1      29.955  27.883  23.042  1.00  0.00     0.008 A 
ATOM      9  N   UNL A   1      31.641  29.322  23.229  1.00  0.00    -0.348 N 
ATOM     10  C   UNL A   1      30.281  29.233  23.165  1.00  0.00     0.050 A 
ATOM     11  C   UNL A   1      28.578  27.555  23.083  1.00  0.00     0.015 A 
ATOM     12  H   UNL A   1      32.136  30.148  23.436  1.00  0.00     0.167 HD
ATOM     13  C   UNL A   1      29.339  30.262  23.207  1.00  0.00     0.073 A 
ATOM     14  C   UNL A   1      27.609  28.582  23.193  1.00  0.00     0.047 A 
ATOM     15  C   UNL A   1      27.987  29.924  23.220  1.00  0.00     0.120 A 
BRANCH   7  16
ATOM     16  C   UNL A   1      31.416  25.810  22.455  1.00  0.00     0.032 C 
ATOM     17  N   UNL A   1      32.513  22.913  24.234  1.00  0.00    -0.261 N 
ATOM     18  C   UNL A   1      32.194  23.521  23.007  1.00  0.00     0.270 C 
ATOM     19  C   UNL A   1      31.869  23.453  25.347  1.00  0.00     0.152 C 
ATOM     20  O   UNL A   1      32.563  23.201  21.884  1.00  0.00    -0.268 OA
ATOM     21  C   UNL A   1      31.350  24.731  23.257  1.00  0.00     0.081 C 
ATOM     22  S   UNL A   1      30.673  24.639  24.829  1.00  0.00    -0.054 SA
ATOM     23  S   UNL A   1      32.166  23.268  26.985  1.00  0.00    -0.051 S 
BRANCH  17  24
ATOM     24  C   UNL A   1      33.552  21.918  24.320  1.00  0.00     0.051 A 
ATOM     25  C   UNL A   1      35.612  20.017  24.777  1.00  0.00     0.119 A 
ATOM     26  C   UNL A   1      35.894  21.363  24.612  1.00  0.00     0.048 A 
ATOM     27  C   UNL A   1      34.295  19.598  24.701  1.00  0.00     0.048 A 
ATOM     28  C   UNL A   1      34.894  22.304  24.351  1.00  0.00     0.030 A 
ATOM     29  C   UNL A   1      33.278  20.542  24.466  1.00  0.00     0.030 A 
BRANCH  25  30
ATOM     30  O   UNL A   1      36.692  19.232  25.052  1.00  0.00    -0.497 OA
ATOM     31  C   UNL A   1      37.955  19.875  24.961  1.00  0.00     0.278 C 
ENDBRANCH  25  30
ENDBRANCH  17  24
ENDBRANCH   7  16
BRANCH  15  32
ATOM     32  O   UNL A   1      27.155  31.009  23.203  1.00  0.00    -0.497 OA
ATOM     33  C   UNL A   1      27.765  32.290  23.146  1.00  0.00     0.278 C 
ENDBRANCH  15  32
ENDBRANCH   4   6
ENDBRANCH   3   4
ENDBRANCH   2   3
ENDBRANCH   1   2
BRANCH   1  34
ATOM     34  O   UNL A   1      32.119  27.573  26.086  1.00  0.00    -0.374 OA
BRANCH  34  35
ATOM     35  C   UNL A   1      31.723  28.308  27.242  1.00  0.00     0.202 C 
BRANCH  35  36
ATOM     36  C   UNL A   1      31.648  29.836  27.157  1.00  0.00     0.261 C 
BRANCH  36  37
ATOM     37  O   UNL A   1      32.781  30.458  26.521  1.00  0.00    -0.460 OA
BRANCH  37  38
ATOM     38  C   UNL A   1      33.301  31.502  27.215  1.00  0.00     0.338 C 
ATOM     39  O   UNL A   1      32.704  32.503  27.582  1.00  0.00    -0.246 OA
BRANCH  38  40
ATOM     40  C   UNL A   1      34.712  31.270  27.589  1.00  0.00     0.060 A 
ATOM     41  C   UNL A   1      35.094  29.949  27.834  1.00  0.00     0.016 A 
ATOM     42  C   UNL A   1      35.608  32.315  27.842  1.00  0.00     0.016 A 
ATOM     43  C   UNL A   1      36.352  29.677  28.366  1.00  0.00     0.010 A 
ATOM     44  C   UNL A   1      36.879  32.037  28.378  1.00  0.00     0.010 A 
ATOM     45  C   UNL A   1      37.258  30.716  28.654  1.00  0.00    -0.014 A 
BRANCH  45  46
ATOM     46  C   UNL A   1      38.529  30.351  29.344  1.00  0.00     0.031 A 
ATOM     47  C   UNL A   1      38.661  30.673  30.804  1.00  0.00     0.074 A 
ATOM     48  C   UNL A   1      39.496  29.639  28.732  1.00  0.00     0.049 A 
ATOM     49  N   UNL A   1      39.548  30.264  31.674  1.00  0.00    -0.248 NA
ATOM     50  C   UNL A   1      37.664  31.608  31.349  1.00  0.00     0.031 C 
ATOM     51  C   UNL A   1      39.529  29.308  27.315  1.00  0.00     0.029 A 
ATOM     52  N   UNL A   1      40.595  28.985  29.248  1.00  0.00    -0.354 N 
ATOM     53  C   UNL A   1      39.253  30.935  32.852  1.00  0.00     0.074 A 
ATOM     54  C   UNL A   1      38.068  31.731  32.603  1.00  0.00     0.031 C 
ATOM     55  C   UNL A   1      40.477  28.381  27.101  1.00  0.00     0.029 A 
ATOM     56  C   UNL A   1      41.161  28.095  28.358  1.00  0.00     0.049 A 
ATOM     57  H   UNL A   1      40.939  29.137  30.158  1.00  0.00     0.167 HD
ATOM     58  C   UNL A   1      39.946  30.938  34.015  1.00  0.00     0.037 A 
ATOM     59  C   UNL A   1      42.085  27.131  28.561  1.00  0.00     0.037 A 
ATOM     60  C   UNL A   1      41.140  30.172  34.249  1.00  0.00     0.049 A 
ATOM     61  C   UNL A   1      42.735  27.023  29.919  1.00  0.00     0.074 A 
ATOM     62  C   UNL A   1      41.973  30.176  35.354  1.00  0.00     0.029 A 
ATOM     63  N   UNL A   1      41.671  29.257  33.352  1.00  0.00    -0.354 N 
ATOM     64  N   UNL A   1      42.451  27.657  31.029  1.00  0.00    -0.248 NA
ATOM     65  C   UNL A   1      43.861  26.082  30.038  1.00  0.00     0.031 C 
ATOM     66  C   UNL A   1      43.028  29.288  35.110  1.00  0.00     0.029 A 
ATOM     67  C   UNL A   1      42.825  28.696  33.874  1.00  0.00     0.049 A 
ATOM     68  H   UNL A   1      41.285  29.040  32.472  1.00  0.00     0.167 HD
ATOM     69  C   UNL A   1      43.386  27.227  31.962  1.00  0.00     0.074 A 
ATOM     70  C   UNL A   1      44.179  26.201  31.319  1.00  0.00     0.031 C 
ATOM     71  C   UNL A   1      43.608  27.682  33.219  1.00  0.00     0.037 A 
BRANCH  58  72
ATOM     72  C   UNL A   1      39.486  31.901  35.067  1.00  0.00     0.064 A 
ATOM     73  C   UNL A   1      39.946  33.224  35.123  1.00  0.00     0.173 A 
ATOM     74  C   UNL A   1      38.601  31.467  36.067  1.00  0.00     0.173 A 
ATOM     75  F   UNL A   1      40.817  33.675  34.209  1.00  0.00    -0.203 F 
ATOM     76  C   UNL A   1      39.560  34.068  36.163  1.00  0.00     0.198 A 
ATOM     77  C   UNL A   1      38.197  32.320  37.087  1.00  0.00     0.198 A 
ATOM     78  F   UNL A   1      38.140  30.207  36.061  1.00  0.00    -0.203 F 
ATOM     79  F   UNL A   1      40.059  35.309  36.235  1.00  0.00    -0.200 F 
ATOM     80  C   UNL A   1      38.686  33.617  37.141  1.00  0.00     0.200 A 
ATOM     81  F   UNL A   1      37.351  31.883  38.029  1.00  0.00    -0.200 F 
ATOM     82  F   UNL A   1      38.325  34.426  38.146  1.00  0.00    -0.200 F 
ENDBRANCH  58  72
BRANCH  59  83
ATOM     83  C   UNL A   1      42.416  26.130  27.503  1.00  0.00     0.064 A 
ATOM     84  C   UNL A   1      41.680  24.934  27.416  1.00  0.00     0.173 A 
ATOM     85  C   UNL A   1      43.458  26.304  26.583  1.00  0.00     0.173 A 
ATOM     86  F   UNL A   1      40.680  24.700  28.279  1.00  0.00    -0.203 F 
ATOM     87  C   UNL A   1      41.970  23.963  26.461  1.00  0.00     0.198 A 
ATOM     88  C   UNL A   1      43.730  25.342  25.607  1.00  0.00     0.198 A 
ATOM     89  F   UNL A   1      44.215  27.409  26.625  1.00  0.00    -0.203 F 
ATOM     90  F   UNL A   1      41.263  22.824  26.431  1.00  0.00    -0.200 F 
ATOM     91  C   UNL A   1      42.991  24.171  25.551  1.00  0.00     0.200 A 
ATOM     92  F   UNL A   1      44.713  25.552  24.721  1.00  0.00    -0.200 F 
ATOM     93  F   UNL A   1      43.265  23.241  24.625  1.00  0.00    -0.200 F 
ENDBRANCH  59  83
BRANCH  71  94
ATOM     94  C   UNL A   1      44.790  27.117  33.953  1.00  0.00     0.064 A 
ATOM     95  C   UNL A   1      46.059  27.707  33.842  1.00  0.00     0.173 A 
ATOM     96  C   UNL A   1      44.653  26.007  34.797  1.00  0.00     0.173 A 
ATOM     97  F   UNL A   1      46.243  28.767  33.039  1.00  0.00    -0.203 F 
ATOM     98  C   UNL A   1      47.154  27.186  34.524  1.00  0.00     0.198 A 
ATOM     99  C   UNL A   1      45.746  25.506  35.500  1.00  0.00     0.198 A 
ATOM    100  F   UNL A   1      43.461  25.410  34.944  1.00  0.00    -0.203 F 
ATOM    101  F   UNL A   1      48.365  27.738  34.363  1.00  0.00    -0.200 F 
ATOM    102  C   UNL A   1      46.996  26.090  35.357  1.00  0.00     0.200 A 
ATOM    103  F   UNL A   1      45.592  24.452  36.314  1.00  0.00    -0.200 F 
ATOM    104  F   UNL A   1      48.051  25.591  36.016  1.00  0.00    -0.200 F 
ENDBRANCH  71  94
ENDBRANCH  45  46
ENDBRANCH  38  40
ENDBRANCH  37  38
ENDBRANCH  36  37
ENDBRANCH  35  36
ENDBRANCH  34  35
ENDBRANCH   1  34
TORSDOF 18
ENDMDL
MODEL 2
REMARK VINA RESULT:     -12.5      2.867      8.063
REMARK SMILES COc1ccc(N2C(=O)/C(=C/c3c(C(=O)OCCOCCOC(=O)c4ccc(-c5c6nc(c(-c7c(F)c(F)c(F)c(F)c7F)c7ccc([nH]7)c(-c7c(F)c(F)c(F)c(F)c7F)c7nc(c(-c8c(F)c(F)c(F)c(F)c8F)c8ccc5[nH]8)C=C7)C=C6)cc4)[nH]c4cc(OC)ccc34)SC2=S)cc1
REMARK SMILES IDX 18 1 17 2 16 3 14 4 15 5 13 6 12 7 96 8 88 9 89 10 95 11
REMARK SMILES IDX 90 13 94 14 91 15 11 16 7 17 8 18 98 19 9 20 10 21 97 22
REMARK SMILES IDX 99 23 6 24 3 25 4 26 101 27 5 28 100 29 2 30 1 31 92 32
REMARK SMILES IDX 93 33 19 34 20 35 21 36 22 37 23 38 24 39 25 40 26 41 87 42
REMARK SMILES IDX 27 43 86 44 28 45 29 46 30 47 80 48 31 49 85 50 79 51 81 52
REMARK SMILES IDX 32 53 84 54 78 55 77 56 33 58 65 59 45 60 64 61 46 62 49 63
REMARK SMILES IDX 63 64 82 65 47 66 48 67 62 69 83 70 50 71 34 72 35 73 43 74
REMARK SMILES IDX 36 75 37 76 41 77 44 78 38 79 39 80 42 81 40 82 66 83 67 84
REMARK SMILES IDX 75 85 68 86 69 87 73 88 76 89 70 90 71 91 74 92 72 93 51 94
REMARK SMILES IDX 52 95 60 96 53 97 54 98 58 99 61 100 55 101 56 102 59 103
REMARK SMILES IDX 57 104
REMARK H PARENT 88 12 81 57 49 68
REMARK Flexibility Score: inf
ROOT
ATOM      1  C   UNL A   1      34.258  32.654  28.809  1.00  0.00     0.202 C 
ENDROOT
BRANCH   1   2
ATOM      2  C   UNL A   1      34.721  31.408  28.043  1.00  0.00     0.261 C 
BRANCH   2   3
ATOM      3  O   UNL A   1      33.654  30.725  27.372  1.00  0.00    -0.459 OA
BRANCH   3   4
ATOM      4  C   UNL A   1      34.032  29.587  26.719  1.00  0.00     0.355 C 
ATOM      5  O   UNL A   1      35.126  29.047  26.817  1.00  0.00    -0.244 OA
BRANCH   4   6
ATOM      6  C   UNL A   1      32.916  28.986  26.026  1.00  0.00     0.133 A 
ATOM      7  C   UNL A   1      32.499  27.681  25.761  1.00  0.00     0.016 A 
ATOM      8  C   UNL A   1      31.326  27.763  24.926  1.00  0.00     0.008 A 
ATOM      9  N   UNL A   1      32.028  29.821  25.396  1.00  0.00    -0.348 N 
ATOM     10  C   UNL A   1      31.138  29.115  24.640  1.00  0.00     0.050 A 
ATOM     11  C   UNL A   1      30.413  26.856  24.335  1.00  0.00     0.015 A 
ATOM     12  H   UNL A   1      32.032  30.802  25.479  1.00  0.00     0.167 HD
ATOM     13  C   UNL A   1      30.193  29.596  23.732  1.00  0.00     0.073 A 
ATOM     14  C   UNL A   1      29.405  27.333  23.462  1.00  0.00     0.047 A 
ATOM     15  C   UNL A   1      29.321  28.687  23.139  1.00  0.00     0.120 A 
BRANCH   7  16
ATOM     16  C   UNL A   1      33.257  26.518  26.150  1.00  0.00     0.032 C 
ATOM     17  N   UNL A   1      33.822  23.360  24.578  1.00  0.00    -0.261 N 
ATOM     18  C   UNL A   1      33.952  24.178  25.715  1.00  0.00     0.270 C 
ATOM     19  C   UNL A   1      33.744  24.042  23.364  1.00  0.00     0.152 C 
ATOM     20  O   UNL A   1      34.105  23.836  26.880  1.00  0.00    -0.268 OA
ATOM     21  C   UNL A   1      33.799  25.612  25.315  1.00  0.00     0.081 C 
ATOM     22  S   UNL A   1      34.037  25.761  23.624  1.00  0.00    -0.054 SA
ATOM     23  S   UNL A   1      33.285  23.524  21.839  1.00  0.00    -0.051 S 
BRANCH  17  24
ATOM     24  C   UNL A   1      33.623  21.939  24.707  1.00  0.00     0.051 A 
ATOM     25  C   UNL A   1      33.206  19.129  24.668  1.00  0.00     0.119 A 
ATOM     26  C   UNL A   1      32.145  20.019  24.610  1.00  0.00     0.048 A 
ATOM     27  C   UNL A   1      34.492  19.632  24.760  1.00  0.00     0.048 A 
ATOM     28  C   UNL A   1      32.334  21.403  24.665  1.00  0.00     0.030 A 
ATOM     29  C   UNL A   1      34.694  21.025  24.788  1.00  0.00     0.030 A 
BRANCH  25  30
ATOM     30  O   UNL A   1      32.860  17.814  24.576  1.00  0.00    -0.497 OA
ATOM     31  C   UNL A   1      33.606  17.049  23.641  1.00  0.00     0.278 C 
ENDBRANCH  25  30
ENDBRANCH  17  24
ENDBRANCH   7  16
BRANCH  15  32
ATOM     32  O   UNL A   1      28.479  29.258  22.225  1.00  0.00    -0.497 OA
ATOM     33  C   UNL A   1      28.897  30.482  21.639  1.00  0.00     0.278 C 
ENDBRANCH  15  32
ENDBRANCH   4   6
ENDBRANCH   3   4
ENDBRANCH   2   3
ENDBRANCH   1   2
BRANCH   1  34
ATOM     34  O   UNL A   1      33.680  33.715  28.057  1.00  0.00    -0.374 OA
BRANCH  34  35
ATOM     35  C   UNL A   1      34.105  35.049  28.325  1.00  0.00     0.202 C 
BRANCH  35  36
ATOM     36  C   UNL A   1      33.248  35.927  29.242  1.00  0.00     0.261 C 
BRANCH  36  37
ATOM     37  O   UNL A   1      32.635  35.228  30.342  1.00  0.00    -0.460 OA
BRANCH  37  38
ATOM     38  C   UNL A   1      32.840  35.809  31.551  1.00  0.00     0.338 C 
ATOM     39  O   UNL A   1      32.262  36.788  31.997  1.00  0.00    -0.246 OA
BRANCH  38  40
ATOM     40  C   UNL A   1      33.818  35.059  32.367  1.00  0.00     0.060 A 
ATOM     41  C   UNL A   1      35.113  35.577  32.440  1.00  0.00     0.016 A 
ATOM     42  C   UNL A   1      33.533  33.809  32.929  1.00  0.00     0.016 A 
ATOM     43  C   UNL A   1      36.128  34.831  33.035  1.00  0.00     0.010 A 
ATOM     44  C   UNL A   1      34.559  33.058  33.531  1.00  0.00     0.010 A 
ATOM     45  C   UNL A   1      35.868  33.558  33.580  1.00  0.00    -0.014 A 
BRANCH  45  46
ATOM     46  C   UNL A   1      37.032  32.771  34.079  1.00  0.00     0.031 A 
ATOM     47  C   UNL A   1      37.785  31.920  33.098  1.00  0.00     0.074 A 
ATOM     48  C   UNL A   1      37.495  32.898  35.339  1.00  0.00     0.049 A 
ATOM     49  N   UNL A   1      38.946  31.332  33.220  1.00  0.00    -0.248 NA
ATOM     50  C   UNL A   1      37.117  31.680  31.810  1.00  0.00     0.031 C 
ATOM     51  C   UNL A   1      36.838  33.639  36.407  1.00  0.00     0.029 A 
ATOM     52  N   UNL A   1      38.680  32.482  35.907  1.00  0.00    -0.354 N 
ATOM     53  C   UNL A   1      39.123  30.607  32.050  1.00  0.00     0.074 A 
ATOM     54  C   UNL A   1      37.978  30.877  31.206  1.00  0.00     0.031 C 
ATOM     55  C   UNL A   1      37.691  33.778  37.435  1.00  0.00     0.029 A 
ATOM     56  C   UNL A   1      38.937  33.084  37.123  1.00  0.00     0.049 A 
ATOM     57  H   UNL A   1      39.282  31.824  35.489  1.00  0.00     0.167 HD
ATOM     58  C   UNL A   1      40.118  29.743  31.738  1.00  0.00     0.037 A 
ATOM     59  C   UNL A   1      40.068  33.108  37.861  1.00  0.00     0.037 A 
ATOM     60  C   UNL A   1      41.237  29.451  32.592  1.00  0.00     0.049 A 
ATOM     61  C   UNL A   1      41.244  32.275  37.413  1.00  0.00     0.074 A 
ATOM     62  C   UNL A   1      42.247  28.523  32.415  1.00  0.00     0.029 A 
ATOM     63  N   UNL A   1      41.492  30.095  33.794  1.00  0.00    -0.354 N 
ATOM     64  N   UNL A   1      41.407  31.594  36.305  1.00  0.00    -0.248 NA
ATOM     65  C   UNL A   1      42.383  32.190  38.341  1.00  0.00     0.031 C 
ATOM     66  C   UNL A   1      43.095  28.581  33.528  1.00  0.00     0.029 A 
ATOM     67  C   UNL A   1      42.639  29.579  34.374  1.00  0.00     0.049 A 
ATOM     68  H   UNL A   1      40.938  30.813  34.179  1.00  0.00     0.167 HD
ATOM     69  C   UNL A   1      42.641  30.968  36.423  1.00  0.00     0.074 A 
ATOM     70  C   UNL A   1      43.231  31.432  37.661  1.00  0.00     0.031 C 
ATOM     71  C   UNL A   1      43.210  30.045  35.610  1.00  0.00     0.037 A 
BRANCH  58  72
ATOM     72  C   UNL A   1      39.955  28.964  30.468  1.00  0.00     0.064 A 
ATOM     73  C   UNL A   1      39.358  27.696  30.439  1.00  0.00     0.173 A 
ATOM     74  C   UNL A   1      40.454  29.487  29.264  1.00  0.00     0.173 A 
ATOM     75  F   UNL A   1      38.895  27.142  31.569  1.00  0.00    -0.203 F 
ATOM     76  C   UNL A   1      39.296  26.966  29.253  1.00  0.00     0.198 A 
ATOM     77  C   UNL A   1      40.366  28.766  28.078  1.00  0.00     0.198 A 
ATOM     78  F   UNL A   1      41.041  30.693  29.243  1.00  0.00    -0.203 F 
ATOM     79  F   UNL A   1      38.778  25.730  29.258  1.00  0.00    -0.200 F 
ATOM     80  C   UNL A   1      39.797  27.501  28.076  1.00  0.00     0.200 A 
ATOM     81  F   UNL A   1      40.848  29.287  26.942  1.00  0.00    -0.200 F 
ATOM     82  F   UNL A   1      39.747  26.792  26.940  1.00  0.00    -0.200 F 
ENDBRANCH  58  72
BRANCH  59  83
ATOM     83  C   UNL A   1      40.204  33.995  39.055  1.00  0.00     0.064 A 
ATOM     84  C   UNL A   1      40.680  35.310  38.900  1.00  0.00     0.173 A 
ATOM     85  C   UNL A   1      39.901  33.578  40.357  1.00  0.00     0.173 A 
ATOM     86  F   UNL A   1      41.004  35.764  37.680  1.00  0.00    -0.203 F 
ATOM     87  C   UNL A   1      40.846  36.163  39.988  1.00  0.00     0.198 A 
ATOM     88  C   UNL A   1      40.040  34.442  41.446  1.00  0.00     0.198 A 
ATOM     89  F   UNL A   1      39.465  32.330  40.579  1.00  0.00    -0.203 F 
ATOM     90  F   UNL A   1      41.330  37.398  39.801  1.00  0.00    -0.200 F 
ATOM     91  C   UNL A   1      40.518  35.731  41.261  1.00  0.00     0.200 A 
ATOM     92  F   UNL A   1      39.712  34.024  42.676  1.00  0.00    -0.200 F 
ATOM     93  F   UNL A   1      40.668  36.553  42.309  1.00  0.00    -0.200 F 
ENDBRANCH  59  83
BRANCH  71  94
ATOM     94  C   UNL A   1      44.503  29.435  36.066  1.00  0.00     0.064 A 
ATOM     95  C   UNL A   1      45.731  30.062  35.800  1.00  0.00     0.173 A 
ATOM     96  C   UNL A   1      44.521  28.243  36.802  1.00  0.00     0.173 A 
ATOM     97  F   UNL A   1      45.768  31.201  35.091  1.00  0.00    -0.203 F 
ATOM     98  C   UNL A   1      46.931  29.501  36.226  1.00  0.00     0.198 A 
ATOM     99  C   UNL A   1      45.722  27.699  37.251  1.00  0.00     0.198 A 
ATOM    100  F   UNL A   1      43.376  27.608  37.090  1.00  0.00    -0.203 F 
ATOM    101  F   UNL A   1      48.093  30.093  35.917  1.00  0.00    -0.200 F 
ATOM    102  C   UNL A   1      46.925  28.323  36.956  1.00  0.00     0.200 A 
ATOM    103  F   UNL A   1      45.717  26.565  37.967  1.00  0.00    -0.200 F 
ATOM    104  F   UNL A   1      48.081  27.784  37.369  1.00  0.00    -0.200 F 
ENDBRANCH  71  94
ENDBRANCH  45  46
ENDBRANCH  38  40
ENDBRANCH  37  38
ENDBRANCH  36  37
ENDBRANCH  35  36
ENDBRANCH  34  35
ENDBRANCH   1  34
TORSDOF 18
ENDMDL
MODEL 3
REMARK VINA RESULT:     -12.4      5.056      9.828
REMARK SMILES COc1ccc(N2C(=O)/C(=C/c3c(C(=O)OCCOCCOC(=O)c4ccc(-c5c6nc(c(-c7c(F)c(F)c(F)c(F)c7F)c7ccc([nH]7)c(-c7c(F)c(F)c(F)c(F)c7F)c7nc(c(-c8c(F)c(F)c(F)c(F)c8F)c8ccc5[nH]8)C=C7)C=C6)cc4)[nH]c4cc(OC)ccc34)SC2=S)cc1
REMARK SMILES IDX 18 1 17 2 16 3 14 4 15 5 13 6 12 7 96 8 88 9 89 10 95 11
REMARK SMILES IDX 90 13 94 14 91 15 11 16 7 17 8 18 98 19 9 20 10 21 97 22
REMARK SMILES IDX 99 23 6 24 3 25 4 26 101 27 5 28 100 29 2 30 1 31 92 32
REMARK SMILES IDX 93 33 19 34 20 35 21 36 22 37 23 38 24 39 25 40 26 41 87 42
REMARK SMILES IDX 27 43 86 44 28 45 29 46 30 47 80 48 31 49 85 50 79 51 81 52
REMARK SMILES IDX 32 53 84 54 78 55 77 56 33 58 65 59 45 60 64 61 46 62 49 63
REMARK SMILES IDX 63 64 82 65 47 66 48 67 62 69 83 70 50 71 34 72 35 73 43 74
REMARK SMILES IDX 36 75 37 76 41 77 44 78 38 79 39 80 42 81 40 82 66 83 67 84
REMARK SMILES IDX 75 85 68 86 69 87 73 88 76 89 70 90 71 91 74 92 72 93 51 94
REMARK SMILES IDX 52 95 60 96 53 97 54 98 58 99 61 100 55 101 56 102 59 103
REMARK SMILES IDX 57 104
REMARK H PARENT 88 12 81 57 49 68
REMARK Flexibility Score: inf
ROOT
ATOM      1  C   UNL A   1      39.877  22.249  26.651  1.00  0.00     0.202 C 
ENDROOT
BRANCH   1   2
ATOM      2  C   UNL A   1      38.587  22.907  26.145  1.00  0.00     0.261 C 
BRANCH   2   3
ATOM      3  O   UNL A   1      37.576  21.961  25.771  1.00  0.00    -0.459 OA
BRANCH   3   4
ATOM      4  C   UNL A   1      36.305  22.458  25.780  1.00  0.00     0.355 C 
ATOM      5  O   UNL A   1      36.008  23.637  25.922  1.00  0.00    -0.244 OA
BRANCH   4   6
ATOM      6  C   UNL A   1      35.343  21.442  25.420  1.00  0.00     0.133 A 
ATOM      7  C   UNL A   1      33.952  21.341  25.439  1.00  0.00     0.016 A 
ATOM      8  C   UNL A   1      33.609  20.002  25.028  1.00  0.00     0.008 A 
ATOM      9  N   UNL A   1      35.822  20.226  25.001  1.00  0.00    -0.348 N 
ATOM     10  C   UNL A   1      34.813  19.317  24.870  1.00  0.00     0.050 A 
ATOM     11  C   UNL A   1      32.422  19.262  24.805  1.00  0.00     0.015 A 
ATOM     12  H   UNL A   1      36.771  20.035  24.817  1.00  0.00     0.167 HD
ATOM     13  C   UNL A   1      34.904  17.945  24.625  1.00  0.00     0.073 A 
ATOM     14  C   UNL A   1      32.497  17.882  24.490  1.00  0.00     0.047 A 
ATOM     15  C   UNL A   1      33.726  17.226  24.435  1.00  0.00     0.120 A 
BRANCH   7  16
ATOM     16  C   UNL A   1      33.094  22.381  25.951  1.00  0.00     0.032 C 
ATOM     17  N   UNL A   1      32.615  25.798  25.025  1.00  0.00    -0.261 N 
ATOM     18  C   UNL A   1      32.363  24.750  25.929  1.00  0.00     0.270 C 
ATOM     19  C   UNL A   1      32.894  25.398  23.718  1.00  0.00     0.152 C 
ATOM     20  O   UNL A   1      32.032  24.828  27.105  1.00  0.00    -0.268 OA
ATOM     21  C   UNL A   1      32.635  23.440  25.259  1.00  0.00     0.081 C 
ATOM     22  S   UNL A   1      32.645  23.660  23.559  1.00  0.00    -0.054 SA
ATOM     23  S   UNL A   1      33.540  26.242  22.424  1.00  0.00    -0.051 S 
BRANCH  17  24
ATOM     24  C   UNL A   1      32.730  27.160  25.483  1.00  0.00     0.051 A 
ATOM     25  C   UNL A   1      32.816  29.757  26.628  1.00  0.00     0.119 A 
ATOM     26  C   UNL A   1      31.689  29.295  25.969  1.00  0.00     0.048 A 
ATOM     27  C   UNL A   1      33.924  28.932  26.712  1.00  0.00     0.048 A 
ATOM     28  C   UNL A   1      31.646  28.032  25.370  1.00  0.00     0.030 A 
ATOM     29  C   UNL A   1      33.880  27.649  26.135  1.00  0.00     0.030 A 
BRANCH  25  30
ATOM     30  O   UNL A   1      32.691  30.997  27.182  1.00  0.00    -0.497 OA
ATOM     31  C   UNL A   1      33.884  31.551  27.718  1.00  0.00     0.278 C 
ENDBRANCH  25  30
ENDBRANCH  17  24
ENDBRANCH   7  16
BRANCH  15  32
ATOM     32  O   UNL A   1      33.930  15.885  24.262  1.00  0.00    -0.497 OA
ATOM     33  C   UNL A   1      33.263  15.009  25.159  1.00  0.00     0.278 C 
ENDBRANCH  15  32
ENDBRANCH   4   6
ENDBRANCH   3   4
ENDBRANCH   2   3
ENDBRANCH   1   2
BRANCH   1  34
ATOM     34  O   UNL A   1      40.496  21.279  25.814  1.00  0.00    -0.374 OA
BRANCH  34  35
ATOM     35  C   UNL A   1      40.792  19.997  26.362  1.00  0.00     0.202 C 
BRANCH  35  36
ATOM     36  C   UNL A   1      42.236  19.488  26.315  1.00  0.00     0.261 C 
BRANCH  36  37
ATOM     37  O   UNL A   1      42.781  19.351  24.988  1.00  0.00    -0.460 OA
BRANCH  37  38
ATOM     38  C   UNL A   1      44.134  19.439  24.934  1.00  0.00     0.338 C 
ATOM     39  O   UNL A   1      44.921  18.512  24.819  1.00  0.00    -0.246 OA
BRANCH  38  40
ATOM     40  C   UNL A   1      44.598  20.843  24.935  1.00  0.00     0.060 A 
ATOM     41  C   UNL A   1      45.335  21.265  26.044  1.00  0.00     0.016 A 
ATOM     42  C   UNL A   1      44.208  21.768  23.961  1.00  0.00     0.016 A 
ATOM     43  C   UNL A   1      45.645  22.615  26.198  1.00  0.00     0.010 A 
ATOM     44  C   UNL A   1      44.523  23.130  24.118  1.00  0.00     0.010 A 
ATOM     45  C   UNL A   1      45.237  23.567  25.244  1.00  0.00    -0.014 A 
BRANCH  45  46
ATOM     46  C   UNL A   1      45.494  25.004  25.550  1.00  0.00     0.031 A 
ATOM     47  C   UNL A   1      44.467  25.753  26.349  1.00  0.00     0.074 A 
ATOM     48  C   UNL A   1      46.661  25.603  25.241  1.00  0.00     0.049 A 
ATOM     49  N   UNL A   1      44.551  26.919  26.935  1.00  0.00    -0.248 NA
ATOM     50  C   UNL A   1      43.154  25.102  26.480  1.00  0.00     0.031 C 
ATOM     51  C   UNL A   1      47.717  25.021  24.425  1.00  0.00     0.029 A 
ATOM     52  N   UNL A   1      47.192  26.805  25.658  1.00  0.00    -0.354 N 
ATOM     53  C   UNL A   1      43.289  27.168  27.454  1.00  0.00     0.074 A 
ATOM     54  C   UNL A   1      42.474  26.006  27.167  1.00  0.00     0.031 C 
ATOM     55  C   UNL A   1      48.826  25.769  24.540  1.00  0.00     0.029 A 
ATOM     56  C   UNL A   1      48.542  26.920  25.393  1.00  0.00     0.049 A 
ATOM     57  H   UNL A   1      46.664  27.508  26.101  1.00  0.00     0.167 HD
ATOM     58  C   UNL A   1      42.834  28.292  28.057  1.00  0.00     0.037 A 
ATOM     59  C   UNL A   1      49.442  27.824  25.836  1.00  0.00     0.037 A 
ATOM     60  C   UNL A   1      43.637  29.457  28.312  1.00  0.00     0.049 A 
ATOM     61  C   UNL A   1      48.954  28.990  26.660  1.00  0.00     0.074 A 
ATOM     62  C   UNL A   1      43.252  30.682  28.827  1.00  0.00     0.029 A 
ATOM     63  N   UNL A   1      45.000  29.537  28.067  1.00  0.00    -0.354 N 
ATOM     64  N   UNL A   1      47.761  29.220  27.151  1.00  0.00    -0.248 NA
ATOM     65  C   UNL A   1      49.938  30.042  26.964  1.00  0.00     0.031 C 
ATOM     66  C   UNL A   1      44.377  31.516  28.862  1.00  0.00     0.029 A 
ATOM     67  C   UNL A   1      45.471  30.792  28.414  1.00  0.00     0.049 A 
ATOM     68  H   UNL A   1      45.551  28.808  27.700  1.00  0.00     0.167 HD
ATOM     69  C   UNL A   1      47.841  30.456  27.780  1.00  0.00     0.074 A 
ATOM     70  C   UNL A   1      49.222  30.879  27.701  1.00  0.00     0.031 C 
ATOM     71  C   UNL A   1      46.847  31.202  28.322  1.00  0.00     0.037 A 
BRANCH  58  72
ATOM     72  C   UNL A   1      41.368  28.344  28.359  1.00  0.00     0.064 A 
ATOM     73  C   UNL A   1      40.436  28.880  27.458  1.00  0.00     0.173 A 
ATOM     74  C   UNL A   1      40.897  27.887  29.600  1.00  0.00     0.173 A 
ATOM     75  F   UNL A   1      40.842  29.358  26.273  1.00  0.00    -0.203 F 
ATOM     76  C   UNL A   1      39.091  28.986  27.805  1.00  0.00     0.198 A 
ATOM     77  C   UNL A   1      39.549  27.970  29.932  1.00  0.00     0.198 A 
ATOM     78  F   UNL A   1      41.751  27.373  30.499  1.00  0.00    -0.203 F 
ATOM     79  F   UNL A   1      38.226  29.559  26.957  1.00  0.00    -0.200 F 
ATOM     80  C   UNL A   1      38.649  28.530  29.038  1.00  0.00     0.200 A 
ATOM     81  F   UNL A   1      39.126  27.526  31.122  1.00  0.00    -0.200 F 
ATOM     82  F   UNL A   1      37.357  28.645  29.374  1.00  0.00    -0.200 F 
ENDBRANCH  58  72
BRANCH  59  83
ATOM     83  C   UNL A   1      50.906  27.653  25.595  1.00  0.00     0.064 A 
ATOM     84  C   UNL A   1      51.717  27.078  26.591  1.00  0.00     0.173 A 
ATOM     85  C   UNL A   1      51.542  28.063  24.416  1.00  0.00     0.173 A 
ATOM     86  F   UNL A   1      51.171  26.680  27.751  1.00  0.00    -0.203 F 
ATOM     87  C   UNL A   1      53.090  26.922  26.419  1.00  0.00     0.198 A 
ATOM     88  C   UNL A   1      52.914  27.879  24.232  1.00  0.00     0.198 A 
ATOM     89  F   UNL A   1      50.833  28.640  23.436  1.00  0.00    -0.203 F 
ATOM     90  F   UNL A   1      53.831  26.396  27.405  1.00  0.00    -0.200 F 
ATOM     91  C   UNL A   1      53.688  27.316  25.235  1.00  0.00     0.200 A 
ATOM     92  F   UNL A   1      53.488  28.253  23.080  1.00  0.00    -0.200 F 
ATOM     93  F   UNL A   1      55.007  27.157  25.064  1.00  0.00    -0.200 F 
ENDBRANCH  59  83
BRANCH  71  94
ATOM     94  C   UNL A   1      47.212  32.573  28.812  1.00  0.00     0.064 A 
ATOM     95  C   UNL A   1      47.600  32.784  30.146  1.00  0.00     0.173 A 
ATOM     96  C   UNL A   1      47.211  33.675  27.947  1.00  0.00     0.173 A 
ATOM     97  F   UNL A   1      47.608  31.762  31.016  1.00  0.00    -0.203 F 
ATOM     98  C   UNL A   1      47.942  34.053  30.600  1.00  0.00     0.198 A 
ATOM     99  C   UNL A   1      47.582  34.939  28.400  1.00  0.00     0.198 A 
ATOM    100  F   UNL A   1      46.856  33.527  26.662  1.00  0.00    -0.203 F 
ATOM    101  F   UNL A   1      48.261  34.237  31.890  1.00  0.00    -0.200 F 
ATOM    102  C   UNL A   1      47.938  35.129  29.726  1.00  0.00     0.200 A 
ATOM    103  F   UNL A   1      47.589  35.978  27.552  1.00  0.00    -0.200 F 
ATOM    104  F   UNL A   1      48.271  36.351  30.165  1.00  0.00    -0.200 F 
ENDBRANCH  71  94
ENDBRANCH  45  46
ENDBRANCH  38  40
ENDBRANCH  37  38
ENDBRANCH  36  37
ENDBRANCH  35  36
ENDBRANCH  34  35
ENDBRANCH   1  34
TORSDOF 18
ENDMDL
