MODEL 1
REMARK VINA RESULT:     -11.1      0.000      0.000
REMARK SMILES CC(=O)[C@H]1CCC[N@@H+](CC(C)(C)C(=O)OCCOCCOC(=O)c2ccc(-c3c4nc(c(-c5c(F)c(F)c(F)c(F)c5F)c5ccc([nH]5)c(-c5c(F)c(F)c(F)c(F)c5F)c5nc(c(-c6c(F)c(F)c(F)c(F)c6F)c6ccc3[nH]6)C=C5)C=C4)cc2)C1
REMARK SMILES IDX 17 1 16 2 15 3 13 4 14 5 10 6 11 7 12 8 9 9 8 10 4 11 5 12
REMARK SMILES IDX 87 13 6 14 7 15 2 17 1 18 3 19 18 20 19 21 20 22 21 23 22 24
REMARK SMILES IDX 23 25 24 26 25 27 86 28 26 29 85 30 27 31 28 32 29 33 79 34
REMARK SMILES IDX 30 35 84 36 78 37 80 38 31 39 83 40 77 41 76 42 32 44 64 45
REMARK SMILES IDX 44 46 63 47 45 48 48 49 62 50 81 51 46 52 47 53 61 55 82 56
REMARK SMILES IDX 49 57 33 58 34 59 42 60 35 61 36 62 40 63 43 64 37 65 38 66
REMARK SMILES IDX 41 67 39 68 65 69 66 70 74 71 67 72 68 73 72 74 75 75 69 76
REMARK SMILES IDX 70 77 73 78 71 79 50 80 51 81 59 82 52 83 53 84 57 85 60 86
REMARK SMILES IDX 54 87 55 88 58 89 56 90
REMARK H PARENT 8 16 80 43 48 54
REMARK Flexibility Score: inf
ROOT
ATOM      1  C   UNL A   1      41.510  21.166  26.909  1.00  0.00     0.202 C 
ENDROOT
BRANCH   1   2
ATOM      2  C   UNL A   1      40.002  21.460  26.939  1.00  0.00     0.261 C 
BRANCH   2   3
ATOM      3  O   UNL A   1      39.481  21.882  25.671  1.00  0.00    -0.463 OA
BRANCH   3   4
ATOM      4  C   UNL A   1      38.282  21.346  25.317  1.00  0.00     0.317 C 
ATOM      5  O   UNL A   1      38.134  20.170  24.999  1.00  0.00    -0.251 OA
BRANCH   4   6
ATOM      6  C   UNL A   1      37.135  22.367  25.337  1.00  0.00     0.111 C 
ATOM      7  C   UNL A   1      36.921  22.810  23.873  1.00  0.00     0.029 C 
ATOM      8  C   UNL A   1      37.493  23.665  26.105  1.00  0.00     0.029 C 
BRANCH   6   9
ATOM      9  C   UNL A   1      35.844  21.776  26.021  1.00  0.00     0.280 C 
BRANCH   9  10
ATOM     10  N   UNL A   1      34.545  22.471  26.124  1.00  0.00    -0.333 N 
ATOM     11  C   UNL A   1      32.383  23.073  24.973  1.00  0.00     0.111 C 
ATOM     12  C   UNL A   1      31.615  22.558  26.187  1.00  0.00     0.023 C 
ATOM     13  C   UNL A   1      33.754  22.403  24.899  1.00  0.00     0.273 C 
ATOM     14  C   UNL A   1      32.433  22.831  27.443  1.00  0.00     0.062 C 
ATOM     15  C   UNL A   1      33.816  22.173  27.362  1.00  0.00     0.262 C 
ATOM     16  H   UNL A   1      34.764  23.463  26.212  1.00  0.00     0.348 HD
BRANCH  11  17
ATOM     17  C   UNL A   1      31.693  22.818  23.639  1.00  0.00     0.138 C 
ATOM     18  C   UNL A   1      32.133  21.648  22.796  1.00  0.00     0.088 C 
ATOM     19  O   UNL A   1      30.841  23.604  23.215  1.00  0.00    -0.299 OA
ENDBRANCH  11  17
ENDBRANCH   9  10
ENDBRANCH   6   9
ENDBRANCH   4   6
ENDBRANCH   3   4
ENDBRANCH   2   3
ENDBRANCH   1   2
BRANCH   1  20
ATOM     20  O   UNL A   1      42.159  21.039  25.651  1.00  0.00    -0.374 OA
BRANCH  20  21
ATOM     21  C   UNL A   1      43.567  21.257  25.585  1.00  0.00     0.202 C 
BRANCH  21  22
ATOM     22  C   UNL A   1      44.129  22.297  24.603  1.00  0.00     0.261 C 
BRANCH  22  23
ATOM     23  O   UNL A   1      43.367  23.519  24.572  1.00  0.00    -0.460 OA
BRANCH  23  24
ATOM     24  C   UNL A   1      44.053  24.617  24.978  1.00  0.00     0.338 C 
ATOM     25  O   UNL A   1      45.144  24.996  24.592  1.00  0.00    -0.246 OA
BRANCH  24  26
ATOM     26  C   UNL A   1      43.201  25.456  25.838  1.00  0.00     0.060 A 
ATOM     27  C   UNL A   1      43.614  26.777  26.058  1.00  0.00     0.016 A 
ATOM     28  C   UNL A   1      42.103  24.929  26.516  1.00  0.00     0.016 A 
ATOM     29  C   UNL A   1      42.958  27.563  26.998  1.00  0.00     0.010 A 
ATOM     30  C   UNL A   1      41.452  25.716  27.472  1.00  0.00     0.010 A 
ATOM     31  C   UNL A   1      41.906  27.020  27.746  1.00  0.00    -0.014 A 
BRANCH  31  32
ATOM     32  C   UNL A   1      41.430  27.759  28.939  1.00  0.00     0.031 A 
ATOM     33  C   UNL A   1      42.195  27.619  30.228  1.00  0.00     0.074 A 
ATOM     34  C   UNL A   1      40.384  28.597  28.857  1.00  0.00     0.049 A 
ATOM     35  N   UNL A   1      41.976  28.177  31.391  1.00  0.00    -0.248 NA
ATOM     36  C   UNL A   1      43.368  26.730  30.198  1.00  0.00     0.031 C 
ATOM     37  C   UNL A   1      39.602  28.851  27.649  1.00  0.00     0.029 A 
ATOM     38  N   UNL A   1      39.804  29.395  29.810  1.00  0.00    -0.354 N 
ATOM     39  C   UNL A   1      42.980  27.707  32.228  1.00  0.00     0.074 A 
ATOM     40  C   UNL A   1      43.785  26.789  31.452  1.00  0.00     0.031 C 
ATOM     41  C   UNL A   1      38.637  29.741  27.936  1.00  0.00     0.029 A 
ATOM     42  C   UNL A   1      38.717  30.095  29.352  1.00  0.00     0.049 A 
ATOM     43  H   UNL A   1      40.136  29.458  30.734  1.00  0.00     0.167 HD
ATOM     44  C   UNL A   1      43.215  28.022  33.524  1.00  0.00     0.037 A 
ATOM     45  C   UNL A   1      37.873  30.913  30.010  1.00  0.00     0.037 A 
ATOM     46  C   UNL A   1      42.407  28.934  34.290  1.00  0.00     0.049 A 
ATOM     47  C   UNL A   1      38.115  31.193  31.472  1.00  0.00     0.074 A 
ATOM     48  C   UNL A   1      42.558  29.323  35.610  1.00  0.00     0.029 A 
ATOM     49  N   UNL A   1      41.289  29.597  33.803  1.00  0.00    -0.354 N 
ATOM     50  N   UNL A   1      39.073  30.756  32.254  1.00  0.00    -0.248 NA
ATOM     51  C   UNL A   1      37.162  32.090  32.139  1.00  0.00     0.031 C 
ATOM     52  C   UNL A   1      41.500  30.179  35.937  1.00  0.00     0.029 A 
ATOM     53  C   UNL A   1      40.727  30.374  34.803  1.00  0.00     0.049 A 
ATOM     54  H   UNL A   1      40.946  29.524  32.884  1.00  0.00     0.167 HD
ATOM     55  C   UNL A   1      38.857  31.348  33.492  1.00  0.00     0.074 A 
ATOM     56  C   UNL A   1      37.686  32.188  33.351  1.00  0.00     0.031 C 
ATOM     57  C   UNL A   1      39.563  31.210  34.642  1.00  0.00     0.037 A 
BRANCH  44  58
ATOM     58  C   UNL A   1      44.375  27.351  34.201  1.00  0.00     0.064 A 
ATOM     59  C   UNL A   1      44.245  26.104  34.833  1.00  0.00     0.173 A 
ATOM     60  C   UNL A   1      45.643  27.953  34.200  1.00  0.00     0.173 A 
ATOM     61  F   UNL A   1      43.052  25.491  34.878  1.00  0.00    -0.203 F 
ATOM     62  C   UNL A   1      45.332  25.500  35.461  1.00  0.00     0.198 A 
ATOM     63  C   UNL A   1      46.734  27.332  34.802  1.00  0.00     0.198 A 
ATOM     64  F   UNL A   1      45.825  29.144  33.610  1.00  0.00    -0.203 F 
ATOM     65  F   UNL A   1      45.171  24.334  36.102  1.00  0.00    -0.200 F 
ATOM     66  C   UNL A   1      46.577  26.112  35.438  1.00  0.00     0.200 A 
ATOM     67  F   UNL A   1      47.939  27.919  34.768  1.00  0.00    -0.200 F 
ATOM     68  F   UNL A   1      47.623  25.527  36.037  1.00  0.00    -0.200 F 
ENDBRANCH  44  58
BRANCH  45  69
ATOM     69  C   UNL A   1      36.717  31.520  29.298  1.00  0.00     0.064 A 
ATOM     70  C   UNL A   1      36.684  32.888  28.999  1.00  0.00     0.173 A 
ATOM     71  C   UNL A   1      35.612  30.743  28.920  1.00  0.00     0.173 A 
ATOM     72  F   UNL A   1      37.706  33.679  29.361  1.00  0.00    -0.203 F 
ATOM     73  C   UNL A   1      35.581  33.462  28.370  1.00  0.00     0.198 A 
ATOM     74  C   UNL A   1      34.523  31.312  28.263  1.00  0.00     0.198 A 
ATOM     75  F   UNL A   1      35.593  29.428  29.183  1.00  0.00    -0.203 F 
ATOM     76  F   UNL A   1      35.553  34.782  28.142  1.00  0.00    -0.200 F 
ATOM     77  C   UNL A   1      34.504  32.671  27.997  1.00  0.00     0.200 A 
ATOM     78  F   UNL A   1      33.491  30.541  27.892  1.00  0.00    -0.200 F 
ATOM     79  F   UNL A   1      33.444  33.222  27.389  1.00  0.00    -0.200 F 
ENDBRANCH  45  69
BRANCH  57  80
ATOM     80  C   UNL A   1      39.116  32.022  35.825  1.00  0.00     0.064 A 
ATOM     81  C   UNL A   1      39.526  33.350  36.010  1.00  0.00     0.173 A 
ATOM     82  C   UNL A   1      38.244  31.467  36.775  1.00  0.00     0.173 A 
ATOM     83  F   UNL A   1      40.369  33.925  35.138  1.00  0.00    -0.203 F 
ATOM     84  C   UNL A   1      39.112  34.079  37.123  1.00  0.00     0.198 A 
ATOM     85  C   UNL A   1      37.803  32.210  37.866  1.00  0.00     0.198 A 
ATOM     86  F   UNL A   1      37.811  30.204  36.640  1.00  0.00    -0.203 F 
ATOM     87  F   UNL A   1      39.567  35.326  37.312  1.00  0.00    -0.200 F 
ATOM     88  C   UNL A   1      38.246  33.511  38.046  1.00  0.00     0.200 A 
ATOM     89  F   UNL A   1      36.953  31.665  38.747  1.00  0.00    -0.200 F 
ATOM     90  F   UNL A   1      37.847  34.215  39.114  1.00  0.00    -0.200 F 
ENDBRANCH  57  80
ENDBRANCH  31  32
ENDBRANCH  24  26
ENDBRANCH  23  24
ENDBRANCH  22  23
ENDBRANCH  21  22
ENDBRANCH  20  21
ENDBRANCH   1  20
TORSDOF 17
ENDMDL
MODEL 2
REMARK VINA RESULT:     -10.9      4.698      7.239
REMARK SMILES CC(=O)[C@H]1CCC[N@@H+](CC(C)(C)C(=O)OCCOCCOC(=O)c2ccc(-c3c4nc(c(-c5c(F)c(F)c(F)c(F)c5F)c5ccc([nH]5)c(-c5c(F)c(F)c(F)c(F)c5F)c5nc(c(-c6c(F)c(F)c(F)c(F)c6F)c6ccc3[nH]6)C=C5)C=C4)cc2)C1
REMARK SMILES IDX 17 1 16 2 15 3 13 4 14 5 10 6 11 7 12 8 9 9 8 10 4 11 5 12
REMARK SMILES IDX 87 13 6 14 7 15 2 17 1 18 3 19 18 20 19 21 20 22 21 23 22 24
REMARK SMILES IDX 23 25 24 26 25 27 86 28 26 29 85 30 27 31 28 32 29 33 79 34
REMARK SMILES IDX 30 35 84 36 78 37 80 38 31 39 83 40 77 41 76 42 32 44 64 45
REMARK SMILES IDX 44 46 63 47 45 48 48 49 62 50 81 51 46 52 47 53 61 55 82 56
REMARK SMILES IDX 49 57 33 58 34 59 42 60 35 61 36 62 40 63 43 64 37 65 38 66
REMARK SMILES IDX 41 67 39 68 65 69 66 70 74 71 67 72 68 73 72 74 75 75 69 76
REMARK SMILES IDX 70 77 73 78 71 79 50 80 51 81 59 82 52 83 53 84 57 85 60 86
REMARK SMILES IDX 54 87 55 88 58 89 56 90
REMARK H PARENT 8 16 80 43 48 54
REMARK Flexibility Score: inf
ROOT
ATOM      1  C   UNL A   1      37.339  22.235  24.449  1.00  0.00     0.202 C 
ENDROOT
BRANCH   1   2
ATOM      2  C   UNL A   1      36.116  23.136  24.221  1.00  0.00     0.261 C 
BRANCH   2   3
ATOM      3  O   UNL A   1      35.090  22.961  25.208  1.00  0.00    -0.463 OA
BRANCH   3   4
ATOM      4  C   UNL A   1      33.923  22.426  24.758  1.00  0.00     0.317 C 
ATOM      5  O   UNL A   1      33.581  22.442  23.580  1.00  0.00    -0.251 OA
BRANCH   4   6
ATOM      6  C   UNL A   1      33.067  21.816  25.878  1.00  0.00     0.111 C 
ATOM      7  C   UNL A   1      32.094  22.925  26.336  1.00  0.00     0.029 C 
ATOM      8  C   UNL A   1      33.891  21.454  27.141  1.00  0.00     0.029 C 
BRANCH   6   9
ATOM      9  C   UNL A   1      32.352  20.492  25.408  1.00  0.00     0.280 C 
BRANCH   9  10
ATOM     10  N   UNL A   1      32.937  19.493  24.491  1.00  0.00    -0.333 N 
ATOM     11  C   UNL A   1      33.834  17.150  24.226  1.00  0.00     0.111 C 
ATOM     12  C   UNL A   1      32.919  16.958  23.020  1.00  0.00     0.023 C 
ATOM     13  C   UNL A   1      33.265  18.230  25.146  1.00  0.00     0.273 C 
ATOM     14  C   UNL A   1      32.776  18.287  22.290  1.00  0.00     0.062 C 
ATOM     15  C   UNL A   1      32.220  19.375  23.217  1.00  0.00     0.262 C 
ATOM     16  H   UNL A   1      33.847  19.863  24.217  1.00  0.00     0.348 HD
BRANCH  11  17
ATOM     17  C   UNL A   1      34.026  15.901  25.076  1.00  0.00     0.138 C 
ATOM     18  C   UNL A   1      32.824  15.266  25.729  1.00  0.00     0.088 C 
ATOM     19  O   UNL A   1      35.157  15.460  25.294  1.00  0.00    -0.299 OA
ENDBRANCH  11  17
ENDBRANCH   9  10
ENDBRANCH   6   9
ENDBRANCH   4   6
ENDBRANCH   3   4
ENDBRANCH   2   3
ENDBRANCH   1   2
BRANCH   1  20
ATOM     20  O   UNL A   1      37.238  21.164  25.378  1.00  0.00    -0.374 OA
BRANCH  20  21
ATOM     21  C   UNL A   1      37.722  19.879  24.993  1.00  0.00     0.202 C 
BRANCH  21  22
ATOM     22  C   UNL A   1      39.147  19.457  25.382  1.00  0.00     0.261 C 
BRANCH  22  23
ATOM     23  O   UNL A   1      39.611  20.075  26.597  1.00  0.00    -0.460 OA
BRANCH  23  24
ATOM     24  C   UNL A   1      40.913  20.458  26.569  1.00  0.00     0.338 C 
ATOM     25  O   UNL A   1      41.840  19.897  26.013  1.00  0.00    -0.246 OA
BRANCH  24  26
ATOM     26  C   UNL A   1      41.057  21.804  27.148  1.00  0.00     0.060 A 
ATOM     27  C   UNL A   1      40.390  22.855  26.504  1.00  0.00     0.016 A 
ATOM     28  C   UNL A   1      41.926  22.054  28.210  1.00  0.00     0.016 A 
ATOM     29  C   UNL A   1      40.628  24.170  26.889  1.00  0.00     0.010 A 
ATOM     30  C   UNL A   1      42.176  23.378  28.587  1.00  0.00     0.010 A 
ATOM     31  C   UNL A   1      41.560  24.440  27.898  1.00  0.00    -0.014 A 
BRANCH  31  32
ATOM     32  C   UNL A   1      42.022  25.836  28.079  1.00  0.00     0.031 A 
ATOM     33  C   UNL A   1      43.360  26.233  27.516  1.00  0.00     0.074 A 
ATOM     34  C   UNL A   1      41.233  26.752  28.666  1.00  0.00     0.049 A 
ATOM     35  N   UNL A   1      43.964  27.394  27.539  1.00  0.00    -0.248 NA
ATOM     36  C   UNL A   1      44.119  25.175  26.830  1.00  0.00     0.031 C 
ATOM     37  C   UNL A   1      39.898  26.493  29.201  1.00  0.00     0.029 A 
ATOM     38  N   UNL A   1      41.441  28.086  28.903  1.00  0.00    -0.354 N 
ATOM     39  C   UNL A   1      45.169  27.205  26.875  1.00  0.00     0.074 A 
ATOM     40  C   UNL A   1      45.230  25.811  26.494  1.00  0.00     0.031 C 
ATOM     41  C   UNL A   1      39.407  27.635  29.712  1.00  0.00     0.029 A 
ATOM     42  C   UNL A   1      40.404  28.693  29.565  1.00  0.00     0.049 A 
ATOM     43  H   UNL A   1      42.256  28.563  28.625  1.00  0.00     0.167 HD
ATOM     44  C   UNL A   1      46.131  28.116  26.598  1.00  0.00     0.037 A 
ATOM     45  C   UNL A   1      40.286  29.958  30.016  1.00  0.00     0.037 A 
ATOM     46  C   UNL A   1      46.064  29.501  26.983  1.00  0.00     0.049 A 
ATOM     47  C   UNL A   1      41.404  30.935  29.757  1.00  0.00     0.074 A 
ATOM     48  C   UNL A   1      46.985  30.509  26.752  1.00  0.00     0.029 A 
ATOM     49  N   UNL A   1      45.014  30.074  27.687  1.00  0.00    -0.354 N 
ATOM     50  N   UNL A   1      42.535  30.754  29.118  1.00  0.00    -0.248 NA
ATOM     51  C   UNL A   1      41.222  32.298  30.274  1.00  0.00     0.031 C 
ATOM     52  C   UNL A   1      46.517  31.677  27.364  1.00  0.00     0.029 A 
ATOM     53  C   UNL A   1      45.275  31.415  27.919  1.00  0.00     0.049 A 
ATOM     54  H   UNL A   1      44.204  29.596  27.979  1.00  0.00     0.167 HD
ATOM     55  C   UNL A   1      43.182  31.983  29.128  1.00  0.00     0.074 A 
ATOM     56  C   UNL A   1      42.309  32.906  29.823  1.00  0.00     0.031 C 
ATOM     57  C   UNL A   1      44.390  32.320  28.609  1.00  0.00     0.037 A 
BRANCH  44  58
ATOM     58  C   UNL A   1      47.353  27.634  25.869  1.00  0.00     0.064 A 
ATOM     59  C   UNL A   1      47.415  27.602  24.468  1.00  0.00     0.173 A 
ATOM     60  C   UNL A   1      48.486  27.216  26.584  1.00  0.00     0.173 A 
ATOM     61  F   UNL A   1      46.355  27.974  23.736  1.00  0.00    -0.203 F 
ATOM     62  C   UNL A   1      48.556  27.146  23.810  1.00  0.00     0.198 A 
ATOM     63  C   UNL A   1      49.636  26.791  25.923  1.00  0.00     0.198 A 
ATOM     64  F   UNL A   1      48.483  27.227  27.925  1.00  0.00    -0.203 F 
ATOM     65  F   UNL A   1      48.573  27.076  22.471  1.00  0.00    -0.200 F 
ATOM     66  C   UNL A   1      49.667  26.748  24.538  1.00  0.00     0.200 A 
ATOM     67  F   UNL A   1      50.713  26.418  26.628  1.00  0.00    -0.200 F 
ATOM     68  F   UNL A   1      50.765  26.315  23.904  1.00  0.00    -0.200 F 
ENDBRANCH  44  58
BRANCH  45  69
ATOM     69  C   UNL A   1      39.070  30.370  30.766  1.00  0.00     0.064 A 
ATOM     70  C   UNL A   1      38.980  30.202  32.154  1.00  0.00     0.173 A 
ATOM     71  C   UNL A   1      37.965  30.923  30.104  1.00  0.00     0.173 A 
ATOM     72  F   UNL A   1      40.002  29.656  32.831  1.00  0.00    -0.203 F 
ATOM     73  C   UNL A   1      37.823  30.550  32.849  1.00  0.00     0.198 A 
ATOM     74  C   UNL A   1      36.820  31.299  30.803  1.00  0.00     0.198 A 
ATOM     75  F   UNL A   1      37.999  31.104  28.775  1.00  0.00    -0.203 F 
ATOM     76  F   UNL A   1      37.744  30.331  34.168  1.00  0.00    -0.200 F 
ATOM     77  C   UNL A   1      36.746  31.103  32.172  1.00  0.00     0.200 A 
ATOM     78  F   UNL A   1      35.787  31.847  30.147  1.00  0.00    -0.200 F 
ATOM     79  F   UNL A   1      35.634  31.440  32.840  1.00  0.00    -0.200 F 
ENDBRANCH  45  69
BRANCH  57  80
ATOM     80  C   UNL A   1      44.815  33.756  28.733  1.00  0.00     0.064 A 
ATOM     81  C   UNL A   1      45.587  34.210  29.812  1.00  0.00     0.173 A 
ATOM     82  C   UNL A   1      44.462  34.687  27.742  1.00  0.00     0.173 A 
ATOM     83  F   UNL A   1      45.941  33.364  30.792  1.00  0.00    -0.203 F 
ATOM     84  C   UNL A   1      45.957  35.549  29.915  1.00  0.00     0.198 A 
ATOM     85  C   UNL A   1      44.864  36.016  27.830  1.00  0.00     0.198 A 
ATOM     86  F   UNL A   1      43.734  34.304  26.683  1.00  0.00    -0.203 F 
ATOM     87  F   UNL A   1      46.641  35.972  30.988  1.00  0.00    -0.200 F 
ATOM     88  C   UNL A   1      45.600  36.449  28.922  1.00  0.00     0.200 A 
ATOM     89  F   UNL A   1      44.533  36.880  26.861  1.00  0.00    -0.200 F 
ATOM     90  F   UNL A   1      45.959  37.736  29.023  1.00  0.00    -0.200 F 
ENDBRANCH  57  80
ENDBRANCH  31  32
ENDBRANCH  24  26
ENDBRANCH  23  24
ENDBRANCH  22  23
ENDBRANCH  21  22
ENDBRANCH  20  21
ENDBRANCH   1  20
TORSDOF 17
ENDMDL
MODEL 3
REMARK VINA RESULT:     -10.8      3.314      8.612
REMARK SMILES CC(=O)[C@H]1CCC[N@@H+](CC(C)(C)C(=O)OCCOCCOC(=O)c2ccc(-c3c4nc(c(-c5c(F)c(F)c(F)c(F)c5F)c5ccc([nH]5)c(-c5c(F)c(F)c(F)c(F)c5F)c5nc(c(-c6c(F)c(F)c(F)c(F)c6F)c6ccc3[nH]6)C=C5)C=C4)cc2)C1
REMARK SMILES IDX 17 1 16 2 15 3 13 4 14 5 10 6 11 7 12 8 9 9 8 10 4 11 5 12
REMARK SMILES IDX 87 13 6 14 7 15 2 17 1 18 3 19 18 20 19 21 20 22 21 23 22 24
REMARK SMILES IDX 23 25 24 26 25 27 86 28 26 29 85 30 27 31 28 32 29 33 79 34
REMARK SMILES IDX 30 35 84 36 78 37 80 38 31 39 83 40 77 41 76 42 32 44 64 45
REMARK SMILES IDX 44 46 63 47 45 48 48 49 62 50 81 51 46 52 47 53 61 55 82 56
REMARK SMILES IDX 49 57 33 58 34 59 42 60 35 61 36 62 40 63 43 64 37 65 38 66
REMARK SMILES IDX 41 67 39 68 65 69 66 70 74 71 67 72 68 73 72 74 75 75 69 76
REMARK SMILES IDX 70 77 73 78 71 79 50 80 51 81 59 82 52 83 53 84 57 85 60 86
REMARK SMILES IDX 54 87 55 88 58 89 56 90
REMARK H PARENT 8 16 80 43 48 54
REMARK Flexibility Score: inf
ROOT
ATOM      1  C   UNL A   1      32.781  27.575  24.393  1.00  0.00     0.202 C 
ENDROOT
BRANCH   1   2
ATOM      2  C   UNL A   1      33.518  26.964  25.595  1.00  0.00     0.261 C 
BRANCH   2   3
ATOM      3  O   UNL A   1      33.245  25.568  25.779  1.00  0.00    -0.463 OA
BRANCH   3   4
ATOM      4  C   UNL A   1      31.946  25.248  26.024  1.00  0.00     0.317 C 
ATOM      5  O   UNL A   1      31.267  25.791  26.890  1.00  0.00    -0.251 OA
BRANCH   4   6
ATOM      6  C   UNL A   1      31.420  24.123  25.121  1.00  0.00     0.111 C 
ATOM      7  C   UNL A   1      30.414  24.779  24.149  1.00  0.00     0.029 C 
ATOM      8  C   UNL A   1      30.599  23.058  25.895  1.00  0.00     0.029 C 
BRANCH   6   9
ATOM      9  C   UNL A   1      32.595  23.356  24.404  1.00  0.00     0.280 C 
BRANCH   9  10
ATOM     10  N   UNL A   1      33.426  22.305  25.026  1.00  0.00    -0.333 N 
ATOM     11  C   UNL A   1      33.850  19.832  25.281  1.00  0.00     0.111 C 
ATOM     12  C   UNL A   1      35.320  20.069  24.946  1.00  0.00     0.023 C 
ATOM     13  C   UNL A   1      32.993  20.952  24.693  1.00  0.00     0.273 C 
ATOM     14  C   UNL A   1      35.739  21.430  25.488  1.00  0.00     0.062 C 
ATOM     15  C   UNL A   1      34.868  22.552  24.911  1.00  0.00     0.262 C 
ATOM     16  H   UNL A   1      33.256  22.371  26.030  1.00  0.00     0.348 HD
BRANCH  11  17
ATOM     17  C   UNL A   1      33.288  18.519  24.752  1.00  0.00     0.138 C 
ATOM     18  C   UNL A   1      34.147  17.660  23.859  1.00  0.00     0.088 C 
ATOM     19  O   UNL A   1      32.119  18.201  24.983  1.00  0.00    -0.299 OA
ENDBRANCH  11  17
ENDBRANCH   9  10
ENDBRANCH   6   9
ENDBRANCH   4   6
ENDBRANCH   3   4
ENDBRANCH   2   3
ENDBRANCH   1   2
BRANCH   1  20
ATOM     20  O   UNL A   1      31.794  28.571  24.627  1.00  0.00    -0.374 OA
BRANCH  20  21
ATOM     21  C   UNL A   1      31.740  29.186  25.912  1.00  0.00     0.202 C 
BRANCH  21  22
ATOM     22  C   UNL A   1      32.372  30.572  26.118  1.00  0.00     0.261 C 
BRANCH  22  23
ATOM     23  O   UNL A   1      32.779  30.816  27.477  1.00  0.00    -0.460 OA
BRANCH  23  24
ATOM     24  C   UNL A   1      33.607  31.880  27.632  1.00  0.00     0.338 C 
ATOM     25  O   UNL A   1      33.299  33.055  27.710  1.00  0.00    -0.246 OA
BRANCH  24  26
ATOM     26  C   UNL A   1      34.977  31.418  27.911  1.00  0.00     0.060 A 
ATOM     27  C   UNL A   1      35.156  30.050  28.157  1.00  0.00     0.016 A 
ATOM     28  C   UNL A   1      36.035  32.314  28.058  1.00  0.00     0.016 A 
ATOM     29  C   UNL A   1      36.386  29.578  28.603  1.00  0.00     0.010 A 
ATOM     30  C   UNL A   1      37.268  31.841  28.520  1.00  0.00     0.010 A 
ATOM     31  C   UNL A   1      37.433  30.479  28.835  1.00  0.00    -0.014 A 
BRANCH  31  32
ATOM     32  C   UNL A   1      38.617  30.008  29.591  1.00  0.00     0.031 A 
ATOM     33  C   UNL A   1      38.819  30.502  30.998  1.00  0.00     0.074 A 
ATOM     34  C   UNL A   1      39.454  29.100  29.062  1.00  0.00     0.049 A 
ATOM     35  N   UNL A   1      39.769  30.218  31.853  1.00  0.00    -0.248 NA
ATOM     36  C   UNL A   1      37.809  31.442  31.511  1.00  0.00     0.031 C 
ATOM     37  C   UNL A   1      39.327  28.513  27.730  1.00  0.00     0.029 A 
ATOM     38  N   UNL A   1      40.575  28.509  29.588  1.00  0.00    -0.354 N 
ATOM     39  C   UNL A   1      39.471  30.944  32.999  1.00  0.00     0.074 A 
ATOM     40  C   UNL A   1      38.277  31.710  32.720  1.00  0.00     0.031 C 
ATOM     41  C   UNL A   1      40.337  27.648  27.539  1.00  0.00     0.029 A 
ATOM     42  C   UNL A   1      41.195  27.643  28.722  1.00  0.00     0.049 A 
ATOM     43  H   UNL A   1      40.902  28.688  30.498  1.00  0.00     0.167 HD
ATOM     44  C   UNL A   1      40.130  30.960  34.182  1.00  0.00     0.037 A 
ATOM     45  C   UNL A   1      42.337  26.943  28.868  1.00  0.00     0.037 A 
ATOM     46  C   UNL A   1      41.321  30.197  34.452  1.00  0.00     0.049 A 
ATOM     47  C   UNL A   1      43.091  27.033  30.170  1.00  0.00     0.074 A 
ATOM     48  C   UNL A   1      42.067  30.140  35.616  1.00  0.00     0.029 A 
ATOM     49  N   UNL A   1      41.943  29.359  33.537  1.00  0.00    -0.354 N 
ATOM     50  N   UNL A   1      42.798  27.710  31.254  1.00  0.00    -0.248 NA
ATOM     51  C   UNL A   1      44.330  26.250  30.271  1.00  0.00     0.031 C 
ATOM     52  C   UNL A   1      43.170  29.311  35.388  1.00  0.00     0.029 A 
ATOM     53  C   UNL A   1      43.077  28.799  34.104  1.00  0.00     0.049 A 
ATOM     54  H   UNL A   1      41.626  29.188  32.621  1.00  0.00     0.167 HD
ATOM     55  C   UNL A   1      43.795  27.411  32.174  1.00  0.00     0.074 A 
ATOM     56  C   UNL A   1      44.692  26.479  31.525  1.00  0.00     0.031 C 
ATOM     57  C   UNL A   1      43.955  27.866  33.442  1.00  0.00     0.037 A 
BRANCH  44  58
ATOM     58  C   UNL A   1      39.593  31.854  35.262  1.00  0.00     0.064 A 
ATOM     59  C   UNL A   1      38.683  31.389  36.224  1.00  0.00     0.173 A 
ATOM     60  C   UNL A   1      40.011  33.191  35.350  1.00  0.00     0.173 A 
ATOM     61  F   UNL A   1      38.237  30.125  36.177  1.00  0.00    -0.203 F 
ATOM     62  C   UNL A   1      38.191  32.236  37.216  1.00  0.00     0.198 A 
ATOM     63  C   UNL A   1      39.542  34.026  36.362  1.00  0.00     0.198 A 
ATOM     64  F   UNL A   1      40.881  33.687  34.458  1.00  0.00    -0.203 F 
ATOM     65  F   UNL A   1      37.283  31.784  38.092  1.00  0.00    -0.200 F 
ATOM     66  C   UNL A   1      38.627  33.551  37.287  1.00  0.00     0.200 A 
ATOM     67  F   UNL A   1      39.974  35.292  36.436  1.00  0.00    -0.200 F 
ATOM     68  F   UNL A   1      38.158  34.362  38.245  1.00  0.00    -0.200 F 
ENDBRANCH  44  58
BRANCH  45  69
ATOM     69  C   UNL A   1      42.843  26.104  27.750  1.00  0.00     0.064 A 
ATOM     70  C   UNL A   1      43.771  26.603  26.827  1.00  0.00     0.173 A 
ATOM     71  C   UNL A   1      42.390  24.788  27.571  1.00  0.00     0.173 A 
ATOM     72  F   UNL A   1      44.217  27.864  26.941  1.00  0.00    -0.203 F 
ATOM     73  C   UNL A   1      44.210  25.828  25.755  1.00  0.00     0.198 A 
ATOM     74  C   UNL A   1      42.854  24.003  26.518  1.00  0.00     0.198 A 
ATOM     75  F   UNL A   1      41.501  24.261  28.426  1.00  0.00    -0.203 F 
ATOM     76  F   UNL A   1      45.059  26.349  24.858  1.00  0.00    -0.200 F 
ATOM     77  C   UNL A   1      43.756  24.527  25.605  1.00  0.00     0.200 A 
ATOM     78  F   UNL A   1      42.422  22.741  26.385  1.00  0.00    -0.200 F 
ATOM     79  F   UNL A   1      44.181  23.781  24.577  1.00  0.00    -0.200 F 
ENDBRANCH  45  69
BRANCH  57  80
ATOM     80  C   UNL A   1      45.118  27.325  34.225  1.00  0.00     0.064 A 
ATOM     81  C   UNL A   1      45.019  26.148  34.982  1.00  0.00     0.173 A 
ATOM     82  C   UNL A   1      46.359  27.983  34.197  1.00  0.00     0.173 A 
ATOM     83  F   UNL A   1      43.853  25.487  35.053  1.00  0.00    -0.203 F 
ATOM     84  C   UNL A   1      46.105  25.673  35.714  1.00  0.00     0.198 A 
ATOM     85  C   UNL A   1      47.452  27.485  34.899  1.00  0.00     0.198 A 
ATOM     86  F   UNL A   1      46.512  29.106  33.479  1.00  0.00    -0.203 F 
ATOM     87  F   UNL A   1      45.968  24.582  36.480  1.00  0.00    -0.200 F 
ATOM     88  C   UNL A   1      47.322  26.338  35.667  1.00  0.00     0.200 A 
ATOM     89  F   UNL A   1      48.631  28.119  34.839  1.00  0.00    -0.200 F 
ATOM     90  F   UNL A   1      48.366  25.877  36.369  1.00  0.00    -0.200 F 
ENDBRANCH  57  80
ENDBRANCH  31  32
ENDBRANCH  24  26
ENDBRANCH  23  24
ENDBRANCH  22  23
ENDBRANCH  21  22
ENDBRANCH  20  21
ENDBRANCH   1  20
TORSDOF 17
ENDMDL
