MODEL 1
REMARK VINA RESULT:     -10.4      0.000      0.000
REMARK SMILES O=C(CCCC(=O)OCCOCCOC(=O)c1ccc(-c2c3nc(c(-c4c(F)c(F)c(F)c(F)c4F)c4ccc([nH]4)c(-c4c(F)c(F)c(F)c(F)c4F)c4nc(c(-c5c(F)c(F)c(F)c(F)c5F)c5ccc2[nH]5)C=C4)C=C3)cc1)Nc1ccccc1F
REMARK SMILES IDX 10 1 9 2 8 3 6 4 7 5 5 6 4 7 3 8 2 9 1 10 80 11 81 13 82 14
REMARK SMILES IDX 86 15 83 16 85 17 87 18 84 19 11 20 12 21 13 22 14 23 15 24
REMARK SMILES IDX 16 25 17 26 18 27 79 28 19 29 78 30 20 31 21 32 22 33 72 34
REMARK SMILES IDX 23 35 77 36 71 37 73 38 24 39 76 40 70 41 69 42 25 44 57 45
REMARK SMILES IDX 37 46 56 47 38 48 41 49 55 50 74 51 39 52 40 53 54 55 75 56
REMARK SMILES IDX 42 57 26 58 27 59 35 60 28 61 29 62 33 63 36 64 30 65 31 66
REMARK SMILES IDX 34 67 32 68 58 69 59 70 67 71 60 72 61 73 65 74 68 75 62 76
REMARK SMILES IDX 63 77 66 78 64 79 43 80 44 81 52 82 45 83 46 84 50 85 53 86
REMARK SMILES IDX 47 87 48 88 51 89 49 90
REMARK H PARENT 80 12 73 43 41 54
REMARK Flexibility Score: inf
ROOT
ATOM      1  C   UNL A   1      33.274  28.804  23.889  1.00  0.00     0.202 C 
ENDROOT
BRANCH   1   2
ATOM      2  C   UNL A   1      33.352  28.560  22.377  1.00  0.00     0.261 C 
BRANCH   2   3
ATOM      3  O   UNL A   1      33.468  27.147  22.097  1.00  0.00    -0.463 OA
BRANCH   3   4
ATOM      4  C   UNL A   1      32.316  26.440  21.984  1.00  0.00     0.305 C 
ATOM      5  O   UNL A   1      31.245  26.903  21.622  1.00  0.00    -0.252 OA
BRANCH   4   6
ATOM      6  C   UNL A   1      32.485  25.004  22.448  1.00  0.00     0.123 C 
BRANCH   6   7
ATOM      7  C   UNL A   1      33.678  24.650  23.353  1.00  0.00     0.022 C 
BRANCH   7   8
ATOM      8  C   UNL A   1      34.316  23.255  23.260  1.00  0.00     0.101 C 
BRANCH   8   9
ATOM      9  C   UNL A   1      35.791  23.221  23.619  1.00  0.00     0.224 C 
ATOM     10  O   UNL A   1      36.652  23.243  22.747  1.00  0.00    -0.275 OA
ATOM     11  N   UNL A   1      36.006  23.073  24.975  1.00  0.00    -0.324 N 
ATOM     12  H   UNL A   1      35.219  23.089  25.567  1.00  0.00     0.170 HD
BRANCH  11  13
ATOM     13  C   UNL A   1      37.266  22.897  25.572  1.00  0.00     0.077 A 
ATOM     14  C   UNL A   1      37.831  24.007  26.211  1.00  0.00     0.029 A 
ATOM     15  C   UNL A   1      37.979  21.696  25.531  1.00  0.00     0.146 A 
ATOM     16  C   UNL A   1      39.069  23.897  26.847  1.00  0.00     0.002 A 
ATOM     17  C   UNL A   1      39.231  21.597  26.131  1.00  0.00     0.041 A 
ATOM     18  F   UNL A   1      37.532  20.653  24.817  1.00  0.00    -0.205 F 
ATOM     19  C   UNL A   1      39.772  22.693  26.803  1.00  0.00     0.003 A 
ENDBRANCH  11  13
ENDBRANCH   8   9
ENDBRANCH   7   8
ENDBRANCH   6   7
ENDBRANCH   4   6
ENDBRANCH   3   4
ENDBRANCH   2   3
ENDBRANCH   1   2
BRANCH   1  20
ATOM     20  O   UNL A   1      31.996  29.225  24.367  1.00  0.00    -0.374 OA
BRANCH  20  21
ATOM     21  C   UNL A   1      31.860  29.387  25.776  1.00  0.00     0.202 C 
BRANCH  21  22
ATOM     22  C   UNL A   1      32.071  30.810  26.303  1.00  0.00     0.261 C 
BRANCH  22  23
ATOM     23  O   UNL A   1      32.848  30.815  27.515  1.00  0.00    -0.460 OA
BRANCH  23  24
ATOM     24  C   UNL A   1      33.692  31.866  27.629  1.00  0.00     0.338 C 
ATOM     25  O   UNL A   1      33.406  33.055  27.562  1.00  0.00    -0.246 OA
BRANCH  24  26
ATOM     26  C   UNL A   1      35.040  31.411  28.014  1.00  0.00     0.060 A 
ATOM     27  C   UNL A   1      35.193  30.050  28.306  1.00  0.00     0.016 A 
ATOM     28  C   UNL A   1      36.113  32.293  28.168  1.00  0.00     0.016 A 
ATOM     29  C   UNL A   1      36.397  29.576  28.817  1.00  0.00     0.010 A 
ATOM     30  C   UNL A   1      37.324  31.814  28.684  1.00  0.00     0.010 A 
ATOM     31  C   UNL A   1      37.457  30.461  29.050  1.00  0.00    -0.014 A 
BRANCH  31  32
ATOM     32  C   UNL A   1      38.641  29.988  29.810  1.00  0.00     0.031 A 
ATOM     33  C   UNL A   1      38.840  30.461  31.224  1.00  0.00     0.074 A 
ATOM     34  C   UNL A   1      39.497  29.106  29.268  1.00  0.00     0.049 A 
ATOM     35  N   UNL A   1      39.792  30.166  32.073  1.00  0.00    -0.248 NA
ATOM     36  C   UNL A   1      37.829  31.390  31.754  1.00  0.00     0.031 C 
ATOM     37  C   UNL A   1      39.393  28.546  27.923  1.00  0.00     0.029 A 
ATOM     38  N   UNL A   1      40.627  28.526  29.790  1.00  0.00    -0.354 N 
ATOM     39  C   UNL A   1      39.501  30.878  33.230  1.00  0.00     0.074 A 
ATOM     40  C   UNL A   1      38.297  31.638  32.969  1.00  0.00     0.031 C 
ATOM     41  C   UNL A   1      40.419  27.703  27.722  1.00  0.00     0.029 A 
ATOM     42  C   UNL A   1      41.268  27.687  28.912  1.00  0.00     0.049 A 
ATOM     43  H   UNL A   1      40.947  28.695  30.705  1.00  0.00     0.167 HD
ATOM     44  C   UNL A   1      40.171  30.888  34.407  1.00  0.00     0.037 A 
ATOM     45  C   UNL A   1      42.416  26.996  29.052  1.00  0.00     0.037 A 
ATOM     46  C   UNL A   1      41.361  30.123  34.672  1.00  0.00     0.049 A 
ATOM     47  C   UNL A   1      43.174  27.071  30.352  1.00  0.00     0.074 A 
ATOM     48  C   UNL A   1      42.091  30.042  35.845  1.00  0.00     0.029 A 
ATOM     49  N   UNL A   1      42.001  29.314  33.745  1.00  0.00    -0.354 N 
ATOM     50  N   UNL A   1      42.872  27.718  31.451  1.00  0.00    -0.248 NA
ATOM     51  C   UNL A   1      44.432  26.313  30.429  1.00  0.00     0.031 C 
ATOM     52  C   UNL A   1      43.201  29.223  35.613  1.00  0.00     0.029 A 
ATOM     53  C   UNL A   1      43.134  28.751  34.312  1.00  0.00     0.049 A 
ATOM     54  H   UNL A   1      41.696  29.160  32.822  1.00  0.00     0.167 HD
ATOM     55  C   UNL A   1      43.885  27.426  32.357  1.00  0.00     0.074 A 
ATOM     56  C   UNL A   1      44.803  26.532  31.682  1.00  0.00     0.031 C 
ATOM     57  C   UNL A   1      44.037  27.859  33.633  1.00  0.00     0.037 A 
BRANCH  44  58
ATOM     58  C   UNL A   1      39.647  31.775  35.497  1.00  0.00     0.064 A 
ATOM     59  C   UNL A   1      40.111  33.087  35.669  1.00  0.00     0.173 A 
ATOM     60  C   UNL A   1      38.634  31.319  36.354  1.00  0.00     0.173 A 
ATOM     61  F   UNL A   1      41.088  33.566  34.885  1.00  0.00    -0.203 F 
ATOM     62  C   UNL A   1      39.595  33.903  36.673  1.00  0.00     0.198 A 
ATOM     63  C   UNL A   1      38.100  32.146  37.338  1.00  0.00     0.198 A 
ATOM     64  F   UNL A   1      38.152  30.073  36.227  1.00  0.00    -0.203 F 
ATOM     65  F   UNL A   1      40.080  35.140  36.845  1.00  0.00    -0.200 F 
ATOM     66  C   UNL A   1      38.585  33.435  37.500  1.00  0.00     0.200 A 
ATOM     67  F   UNL A   1      37.117  31.696  38.130  1.00  0.00    -0.200 F 
ATOM     68  F   UNL A   1      38.082  34.225  38.460  1.00  0.00    -0.200 F 
ENDBRANCH  44  58
BRANCH  45  69
ATOM     69  C   UNL A   1      42.925  26.174  27.924  1.00  0.00     0.064 A 
ATOM     70  C   UNL A   1      42.648  24.802  27.847  1.00  0.00     0.173 A 
ATOM     71  C   UNL A   1      43.707  26.741  26.907  1.00  0.00     0.173 A 
ATOM     72  F   UNL A   1      41.928  24.209  28.810  1.00  0.00    -0.203 F 
ATOM     73  C   UNL A   1      43.147  24.026  26.802  1.00  0.00     0.198 A 
ATOM     74  C   UNL A   1      44.182  25.970  25.849  1.00  0.00     0.198 A 
ATOM     75  F   UNL A   1      44.003  28.048  26.939  1.00  0.00    -0.203 F 
ATOM     76  F   UNL A   1      42.903  22.709  26.774  1.00  0.00    -0.200 F 
ATOM     77  C   UNL A   1      43.907  24.612  25.800  1.00  0.00     0.200 A 
ATOM     78  F   UNL A   1      44.908  26.541  24.878  1.00  0.00    -0.200 F 
ATOM     79  F   UNL A   1      44.380  23.866  24.794  1.00  0.00    -0.200 F 
ENDBRANCH  45  69
BRANCH  57  80
ATOM     80  C   UNL A   1      45.223  27.347  34.400  1.00  0.00     0.064 A 
ATOM     81  C   UNL A   1      45.167  26.151  35.130  1.00  0.00     0.173 A 
ATOM     82  C   UNL A   1      46.441  28.041  34.368  1.00  0.00     0.173 A 
ATOM     83  F   UNL A   1      44.021  25.458  35.203  1.00  0.00    -0.203 F 
ATOM     84  C   UNL A   1      46.282  25.680  35.819  1.00  0.00     0.198 A 
ATOM     85  C   UNL A   1      47.563  27.552  35.033  1.00  0.00     0.198 A 
ATOM     86  F   UNL A   1      46.551  29.187  33.678  1.00  0.00    -0.203 F 
ATOM     87  F   UNL A   1      46.194  24.558  36.546  1.00  0.00    -0.200 F 
ATOM     88  C   UNL A   1      47.480  26.377  35.764  1.00  0.00     0.200 A 
ATOM     89  F   UNL A   1      48.723  28.220  34.968  1.00  0.00    -0.200 F 
ATOM     90  F   UNL A   1      48.554  25.918  36.421  1.00  0.00    -0.200 F 
ENDBRANCH  57  80
ENDBRANCH  31  32
ENDBRANCH  24  26
ENDBRANCH  23  24
ENDBRANCH  22  23
ENDBRANCH  21  22
ENDBRANCH  20  21
ENDBRANCH   1  20
TORSDOF 18
ENDMDL
MODEL 2
REMARK VINA RESULT:     -10.4      4.345      9.798
REMARK SMILES O=C(CCCC(=O)OCCOCCOC(=O)c1ccc(-c2c3nc(c(-c4c(F)c(F)c(F)c(F)c4F)c4ccc([nH]4)c(-c4c(F)c(F)c(F)c(F)c4F)c4nc(c(-c5c(F)c(F)c(F)c(F)c5F)c5ccc2[nH]5)C=C4)C=C3)cc1)Nc1ccccc1F
REMARK SMILES IDX 10 1 9 2 8 3 6 4 7 5 5 6 4 7 3 8 2 9 1 10 80 11 81 13 82 14
REMARK SMILES IDX 86 15 83 16 85 17 87 18 84 19 11 20 12 21 13 22 14 23 15 24
REMARK SMILES IDX 16 25 17 26 18 27 79 28 19 29 78 30 20 31 21 32 22 33 72 34
REMARK SMILES IDX 23 35 77 36 71 37 73 38 24 39 76 40 70 41 69 42 25 44 57 45
REMARK SMILES IDX 37 46 56 47 38 48 41 49 55 50 74 51 39 52 40 53 54 55 75 56
REMARK SMILES IDX 42 57 26 58 27 59 35 60 28 61 29 62 33 63 36 64 30 65 31 66
REMARK SMILES IDX 34 67 32 68 58 69 59 70 67 71 60 72 61 73 65 74 68 75 62 76
REMARK SMILES IDX 63 77 66 78 64 79 43 80 44 81 52 82 45 83 46 84 50 85 53 86
REMARK SMILES IDX 47 87 48 88 51 89 49 90
REMARK H PARENT 80 12 73 43 41 54
REMARK Flexibility Score: inf
ROOT
ATOM      1  C   UNL A   1      35.250  22.429  25.795  1.00  0.00     0.202 C 
ENDROOT
BRANCH   1   2
ATOM      2  C   UNL A   1      34.299  23.026  26.839  1.00  0.00     0.261 C 
BRANCH   2   3
ATOM      3  O   UNL A   1      33.123  23.570  26.201  1.00  0.00    -0.463 OA
BRANCH   3   4
ATOM      4  C   UNL A   1      31.920  23.086  26.599  1.00  0.00     0.305 C 
ATOM      5  O   UNL A   1      31.385  23.337  27.669  1.00  0.00    -0.252 OA
BRANCH   4   6
ATOM      6  C   UNL A   1      31.339  22.111  25.590  1.00  0.00     0.123 C 
BRANCH   6   7
ATOM      7  C   UNL A   1      32.137  21.799  24.312  1.00  0.00     0.022 C 
BRANCH   7   8
ATOM      8  C   UNL A   1      31.762  22.491  22.993  1.00  0.00     0.101 C 
BRANCH   8   9
ATOM      9  C   UNL A   1      31.761  24.008  23.067  1.00  0.00     0.224 C 
ATOM     10  O   UNL A   1      30.736  24.648  22.864  1.00  0.00    -0.275 OA
ATOM     11  N   UNL A   1      33.020  24.532  23.284  1.00  0.00    -0.324 N 
ATOM     12  H   UNL A   1      33.756  23.899  23.450  1.00  0.00     0.170 HD
BRANCH  11  13
ATOM     13  C   UNL A   1      33.329  25.903  23.283  1.00  0.00     0.077 A 
ATOM     14  C   UNL A   1      33.492  26.523  24.527  1.00  0.00     0.029 A 
ATOM     15  C   UNL A   1      33.448  26.666  22.118  1.00  0.00     0.146 A 
ATOM     16  C   UNL A   1      33.825  27.878  24.598  1.00  0.00     0.002 A 
ATOM     17  C   UNL A   1      33.741  28.025  22.190  1.00  0.00     0.041 A 
ATOM     18  F   UNL A   1      33.169  26.139  20.916  1.00  0.00    -0.205 F 
ATOM     19  C   UNL A   1      33.944  28.630  23.430  1.00  0.00     0.003 A 
ENDBRANCH  11  13
ENDBRANCH   8   9
ENDBRANCH   7   8
ENDBRANCH   6   7
ENDBRANCH   4   6
ENDBRANCH   3   4
ENDBRANCH   2   3
ENDBRANCH   1   2
BRANCH   1  20
ATOM     20  O   UNL A   1      35.773  21.141  26.122  1.00  0.00    -0.374 OA
BRANCH  20  21
ATOM     21  C   UNL A   1      36.264  20.355  25.039  1.00  0.00     0.202 C 
BRANCH  21  22
ATOM     22  C   UNL A   1      37.776  20.112  25.029  1.00  0.00     0.261 C 
BRANCH  22  23
ATOM     23  O   UNL A   1      38.505  21.306  25.367  1.00  0.00    -0.460 OA
BRANCH  23  24
ATOM     24  C   UNL A   1      39.555  21.101  26.195  1.00  0.00     0.338 C 
ATOM     25  O   UNL A   1      40.201  20.070  26.329  1.00  0.00    -0.246 OA
BRANCH  24  26
ATOM     26  C   UNL A   1      39.956  22.361  26.847  1.00  0.00     0.060 A 
ATOM     27  C   UNL A   1      39.285  23.524  26.452  1.00  0.00     0.016 A 
ATOM     28  C   UNL A   1      41.013  22.429  27.760  1.00  0.00     0.016 A 
ATOM     29  C   UNL A   1      39.708  24.767  26.913  1.00  0.00     0.010 A 
ATOM     30  C   UNL A   1      41.439  23.682  28.221  1.00  0.00     0.010 A 
ATOM     31  C   UNL A   1      40.815  24.858  27.767  1.00  0.00    -0.014 A 
BRANCH  31  32
ATOM     32  C   UNL A   1      41.396  26.192  28.058  1.00  0.00     0.031 A 
ATOM     33  C   UNL A   1      42.780  26.511  27.563  1.00  0.00     0.074 A 
ATOM     34  C   UNL A   1      40.680  27.128  28.705  1.00  0.00     0.049 A 
ATOM     35  N   UNL A   1      43.476  27.614  27.691  1.00  0.00    -0.248 NA
ATOM     36  C   UNL A   1      43.475  25.446  26.823  1.00  0.00     0.031 C 
ATOM     37  C   UNL A   1      39.317  26.952  29.201  1.00  0.00     0.029 A 
ATOM     38  N   UNL A   1      41.005  28.414  29.054  1.00  0.00    -0.354 N 
ATOM     39  C   UNL A   1      44.688  27.372  27.058  1.00  0.00     0.074 A 
ATOM     40  C   UNL A   1      44.646  26.011  26.567  1.00  0.00     0.031 C 
ATOM     41  C   UNL A   1      38.921  28.091  29.794  1.00  0.00     0.029 A 
ATOM     42  C   UNL A   1      40.012  29.062  29.746  1.00  0.00     0.049 A 
ATOM     43  H   UNL A   1      41.868  28.833  28.831  1.00  0.00     0.167 HD
ATOM     44  C   UNL A   1      45.737  28.212  26.893  1.00  0.00     0.037 A 
ATOM     45  C   UNL A   1      39.993  30.295  30.289  1.00  0.00     0.037 A 
ATOM     46  C   UNL A   1      45.776  29.569  27.370  1.00  0.00     0.049 A 
ATOM     47  C   UNL A   1      41.197  31.190  30.141  1.00  0.00     0.074 A 
ATOM     48  C   UNL A   1      46.781  30.508  27.221  1.00  0.00     0.029 A 
ATOM     49  N   UNL A   1      44.765  30.177  28.100  1.00  0.00    -0.354 N 
ATOM     50  N   UNL A   1      42.324  30.965  29.511  1.00  0.00    -0.248 NA
ATOM     51  C   UNL A   1      41.121  32.512  30.778  1.00  0.00     0.031 C 
ATOM     52  C   UNL A   1      46.401  31.669  27.903  1.00  0.00     0.029 A 
ATOM     53  C   UNL A   1      45.135  31.471  28.432  1.00  0.00     0.049 A 
ATOM     54  H   UNL A   1      43.910  29.755  28.345  1.00  0.00     0.167 HD
ATOM     55  C   UNL A   1      43.079  32.123  29.653  1.00  0.00     0.074 A 
ATOM     56  C   UNL A   1      42.276  33.054  30.417  1.00  0.00     0.031 C 
ATOM     57  C   UNL A   1      44.324  32.390  29.188  1.00  0.00     0.037 A 
BRANCH  44  58
ATOM     58  C   UNL A   1      46.947  27.680  26.184  1.00  0.00     0.064 A 
ATOM     59  C   UNL A   1      47.051  27.699  24.785  1.00  0.00     0.173 A 
ATOM     60  C   UNL A   1      48.036  27.185  26.917  1.00  0.00     0.173 A 
ATOM     61  F   UNL A   1      46.033  28.150  24.038  1.00  0.00    -0.203 F 
ATOM     62  C   UNL A   1      48.193  27.222  24.146  1.00  0.00     0.198 A 
ATOM     63  C   UNL A   1      49.187  26.735  26.276  1.00  0.00     0.198 A 
ATOM     64  F   UNL A   1      47.988  27.150  28.257  1.00  0.00    -0.203 F 
ATOM     65  F   UNL A   1      48.256  27.212  22.808  1.00  0.00    -0.200 F 
ATOM     66  C   UNL A   1      49.262  26.748  24.892  1.00  0.00     0.200 A 
ATOM     67  F   UNL A   1      50.223  26.287  26.999  1.00  0.00    -0.200 F 
ATOM     68  F   UNL A   1      50.364  26.298  24.276  1.00  0.00    -0.200 F 
ENDBRANCH  44  58
BRANCH  45  69
ATOM     69  C   UNL A   1      38.792  30.759  31.030  1.00  0.00     0.064 A 
ATOM     70  C   UNL A   1      37.719  31.364  30.362  1.00  0.00     0.173 A 
ATOM     71  C   UNL A   1      38.698  30.614  32.422  1.00  0.00     0.173 A 
ATOM     72  F   UNL A   1      37.775  31.550  29.035  1.00  0.00    -0.203 F 
ATOM     73  C   UNL A   1      36.603  31.820  31.061  1.00  0.00     0.198 A 
ATOM     74  C   UNL A   1      37.570  31.045  33.116  1.00  0.00     0.198 A 
ATOM     75  F   UNL A   1      39.700  30.044  33.107  1.00  0.00    -0.203 F 
ATOM     76  F   UNL A   1      35.610  32.434  30.404  1.00  0.00    -0.200 F 
ATOM     77  C   UNL A   1      36.526  31.654  32.436  1.00  0.00     0.200 A 
ATOM     78  F   UNL A   1      37.494  30.874  34.443  1.00  0.00    -0.200 F 
ATOM     79  F   UNL A   1      35.450  32.088  33.105  1.00  0.00    -0.200 F 
ENDBRANCH  45  69
BRANCH  57  80
ATOM     80  C   UNL A   1      44.887  33.756  29.463  1.00  0.00     0.064 A 
ATOM     81  C   UNL A   1      45.676  34.014  30.594  1.00  0.00     0.173 A 
ATOM     82  C   UNL A   1      44.670  34.806  28.559  1.00  0.00     0.173 A 
ATOM     83  F   UNL A   1      45.900  33.046  31.495  1.00  0.00    -0.203 F 
ATOM     84  C   UNL A   1      46.207  35.281  30.822  1.00  0.00     0.198 A 
ATOM     85  C   UNL A   1      45.228  36.064  28.775  1.00  0.00     0.198 A 
ATOM     86  F   UNL A   1      43.930  34.611  27.457  1.00  0.00    -0.203 F 
ATOM     87  F   UNL A   1      46.921  35.517  31.931  1.00  0.00    -0.200 F 
ATOM     88  C   UNL A   1      45.989  36.302  29.909  1.00  0.00     0.200 A 
ATOM     89  F   UNL A   1      45.027  37.046  27.885  1.00  0.00    -0.200 F 
ATOM     90  F   UNL A   1      46.508  37.519  30.126  1.00  0.00    -0.200 F 
ENDBRANCH  57  80
ENDBRANCH  31  32
ENDBRANCH  24  26
ENDBRANCH  23  24
ENDBRANCH  22  23
ENDBRANCH  21  22
ENDBRANCH  20  21
ENDBRANCH   1  20
TORSDOF 18
ENDMDL
MODEL 3
REMARK VINA RESULT:     -10.3      4.848     10.230
REMARK SMILES O=C(CCCC(=O)OCCOCCOC(=O)c1ccc(-c2c3nc(c(-c4c(F)c(F)c(F)c(F)c4F)c4ccc([nH]4)c(-c4c(F)c(F)c(F)c(F)c4F)c4nc(c(-c5c(F)c(F)c(F)c(F)c5F)c5ccc2[nH]5)C=C4)C=C3)cc1)Nc1ccccc1F
REMARK SMILES IDX 10 1 9 2 8 3 6 4 7 5 5 6 4 7 3 8 2 9 1 10 80 11 81 13 82 14
REMARK SMILES IDX 86 15 83 16 85 17 87 18 84 19 11 20 12 21 13 22 14 23 15 24
REMARK SMILES IDX 16 25 17 26 18 27 79 28 19 29 78 30 20 31 21 32 22 33 72 34
REMARK SMILES IDX 23 35 77 36 71 37 73 38 24 39 76 40 70 41 69 42 25 44 57 45
REMARK SMILES IDX 37 46 56 47 38 48 41 49 55 50 74 51 39 52 40 53 54 55 75 56
REMARK SMILES IDX 42 57 26 58 27 59 35 60 28 61 29 62 33 63 36 64 30 65 31 66
REMARK SMILES IDX 34 67 32 68 58 69 59 70 67 71 60 72 61 73 65 74 68 75 62 76
REMARK SMILES IDX 63 77 66 78 64 79 43 80 44 81 52 82 45 83 46 84 50 85 53 86
REMARK SMILES IDX 47 87 48 88 51 89 49 90
REMARK H PARENT 80 12 73 43 41 54
REMARK Flexibility Score: inf
ROOT
ATOM      1  C   UNL A   1      37.953  23.207  25.854  1.00  0.00     0.202 C 
ENDROOT
BRANCH   1   2
ATOM      2  C   UNL A   1      36.980  23.201  24.668  1.00  0.00     0.261 C 
BRANCH   2   3
ATOM      3  O   UNL A   1      35.879  24.103  24.911  1.00  0.00    -0.463 OA
BRANCH   3   4
ATOM      4  C   UNL A   1      34.808  24.013  24.083  1.00  0.00     0.305 C 
ATOM      5  O   UNL A   1      34.871  23.918  22.866  1.00  0.00    -0.252 OA
BRANCH   4   6
ATOM      6  C   UNL A   1      33.496  24.132  24.839  1.00  0.00     0.123 C 
BRANCH   6   7
ATOM      7  C   UNL A   1      33.483  23.870  26.355  1.00  0.00     0.022 C 
BRANCH   7   8
ATOM      8  C   UNL A   1      32.852  22.579  26.899  1.00  0.00     0.101 C 
BRANCH   8   9
ATOM      9  C   UNL A   1      33.384  21.310  26.255  1.00  0.00     0.224 C 
ATOM     10  O   UNL A   1      34.589  21.117  26.144  1.00  0.00    -0.275 OA
ATOM     11  N   UNL A   1      32.379  20.504  25.758  1.00  0.00    -0.324 N 
ATOM     12  H   UNL A   1      31.448  20.772  25.936  1.00  0.00     0.170 HD
BRANCH  11  13
ATOM     13  C   UNL A   1      32.587  19.330  25.015  1.00  0.00     0.077 A 
ATOM     14  C   UNL A   1      32.899  18.168  25.729  1.00  0.00     0.029 A 
ATOM     15  C   UNL A   1      32.528  19.279  23.620  1.00  0.00     0.146 A 
ATOM     16  C   UNL A   1      33.094  16.960  25.055  1.00  0.00     0.002 A 
ATOM     17  C   UNL A   1      32.760  18.084  22.945  1.00  0.00     0.041 A 
ATOM     18  F   UNL A   1      32.364  20.396  22.895  1.00  0.00    -0.205 F 
ATOM     19  C   UNL A   1      33.030  16.919  23.663  1.00  0.00     0.003 A 
ENDBRANCH  11  13
ENDBRANCH   8   9
ENDBRANCH   7   8
ENDBRANCH   6   7
ENDBRANCH   4   6
ENDBRANCH   3   4
ENDBRANCH   2   3
ENDBRANCH   1   2
BRANCH   1  20
ATOM     20  O   UNL A   1      38.665  21.986  26.055  1.00  0.00    -0.374 OA
BRANCH  20  21
ATOM     21  C   UNL A   1      38.245  20.864  25.282  1.00  0.00     0.202 C 
BRANCH  21  22
ATOM     22  C   UNL A   1      39.136  19.622  25.379  1.00  0.00     0.261 C 
BRANCH  22  23
ATOM     23  O   UNL A   1      40.006  19.684  26.525  1.00  0.00    -0.460 OA
BRANCH  23  24
ATOM     24  C   UNL A   1      41.322  19.575  26.230  1.00  0.00     0.338 C 
ATOM     25  O   UNL A   1      41.895  18.604  25.755  1.00  0.00    -0.246 OA
BRANCH  24  26
ATOM     26  C   UNL A   1      42.003  20.870  26.411  1.00  0.00     0.060 A 
ATOM     27  C   UNL A   1      42.283  21.265  27.725  1.00  0.00     0.016 A 
ATOM     28  C   UNL A   1      42.292  21.720  25.340  1.00  0.00     0.016 A 
ATOM     29  C   UNL A   1      42.789  22.535  27.980  1.00  0.00     0.010 A 
ATOM     30  C   UNL A   1      42.799  23.000  25.599  1.00  0.00     0.010 A 
ATOM     31  C   UNL A   1      43.011  23.427  26.923  1.00  0.00    -0.014 A 
BRANCH  31  32
ATOM     32  C   UNL A   1      43.321  24.846  27.227  1.00  0.00     0.031 A 
ATOM     33  C   UNL A   1      44.685  25.385  26.895  1.00  0.00     0.074 A 
ATOM     34  C   UNL A   1      42.383  25.659  27.742  1.00  0.00     0.049 A 
ATOM     35  N   UNL A   1      45.166  26.592  27.062  1.00  0.00    -0.248 NA
ATOM     36  C   UNL A   1      45.636  24.438  26.291  1.00  0.00     0.031 C 
ATOM     37  C   UNL A   1      41.016  25.266  28.073  1.00  0.00     0.029 A 
ATOM     38  N   UNL A   1      42.443  26.989  28.076  1.00  0.00    -0.354 N 
ATOM     39  C   UNL A   1      46.473  26.546  26.593  1.00  0.00     0.074 A 
ATOM     40  C   UNL A   1      46.720  25.189  26.157  1.00  0.00     0.031 C 
ATOM     41  C   UNL A   1      40.364  26.332  28.566  1.00  0.00     0.029 A 
ATOM     42  C   UNL A   1      41.276  27.474  28.612  1.00  0.00     0.049 A 
ATOM     43  H   UNL A   1      43.246  27.544  27.943  1.00  0.00     0.167 HD
ATOM     44  C   UNL A   1      47.381  27.548  26.524  1.00  0.00     0.037 A 
ATOM     45  C   UNL A   1      40.984  28.696  29.097  1.00  0.00     0.037 A 
ATOM     46  C   UNL A   1      47.133  28.902  26.946  1.00  0.00     0.049 A 
ATOM     47  C   UNL A   1      42.032  29.779  29.062  1.00  0.00     0.074 A 
ATOM     48  C   UNL A   1      47.980  29.994  26.883  1.00  0.00     0.029 A 
ATOM     49  N   UNL A   1      45.951  29.344  27.519  1.00  0.00    -0.354 N 
ATOM     50  N   UNL A   1      43.252  29.735  28.586  1.00  0.00    -0.248 NA
ATOM     51  C   UNL A   1      41.657  31.081  29.630  1.00  0.00     0.031 C 
ATOM     52  C   UNL A   1      47.328  31.087  27.464  1.00  0.00     0.029 A 
ATOM     53  C   UNL A   1      46.056  30.689  27.841  1.00  0.00     0.049 A 
ATOM     54  H   UNL A   1      45.153  28.788  27.675  1.00  0.00     0.167 HD
ATOM     55  C   UNL A   1      43.781  31.007  28.771  1.00  0.00     0.074 A 
ATOM     56  C   UNL A   1      42.743  31.803  29.392  1.00  0.00     0.031 C 
ATOM     57  C   UNL A   1      45.014  31.472  28.454  1.00  0.00     0.037 A 
BRANCH  44  58
ATOM     58  C   UNL A   1      48.743  27.215  25.992  1.00  0.00     0.064 A 
ATOM     59  C   UNL A   1      49.781  26.787  26.833  1.00  0.00     0.173 A 
ATOM     60  C   UNL A   1      49.001  27.284  24.614  1.00  0.00     0.173 A 
ATOM     61  F   UNL A   1      49.590  26.717  28.159  1.00  0.00    -0.203 F 
ATOM     62  C   UNL A   1      51.033  26.460  26.317  1.00  0.00     0.198 A 
ATOM     63  C   UNL A   1      50.244  26.930  24.099  1.00  0.00     0.198 A 
ATOM     64  F   UNL A   1      48.041  27.683  23.767  1.00  0.00    -0.203 F 
ATOM     65  F   UNL A   1      52.021  26.091  27.143  1.00  0.00    -0.200 F 
ATOM     66  C   UNL A   1      51.260  26.525  24.950  1.00  0.00     0.200 A 
ATOM     67  F   UNL A   1      50.460  26.982  22.777  1.00  0.00    -0.200 F 
ATOM     68  F   UNL A   1      52.463  26.201  24.453  1.00  0.00    -0.200 F 
ENDBRANCH  44  58
BRANCH  45  69
ATOM     69  C   UNL A   1      39.638  28.964  29.665  1.00  0.00     0.064 A 
ATOM     70  C   UNL A   1      38.598  29.451  28.862  1.00  0.00     0.173 A 
ATOM     71  C   UNL A   1      39.367  28.747  31.024  1.00  0.00     0.173 A 
ATOM     72  F   UNL A   1      38.816  29.700  27.562  1.00  0.00    -0.203 F 
ATOM     73  C   UNL A   1      37.342  29.725  29.401  1.00  0.00     0.198 A 
ATOM     74  C   UNL A   1      38.104  28.995  31.555  1.00  0.00     0.198 A 
ATOM     75  F   UNL A   1      40.330  28.286  31.835  1.00  0.00    -0.203 F 
ATOM     76  F   UNL A   1      36.377  30.230  28.619  1.00  0.00    -0.200 F 
ATOM     77  C   UNL A   1      37.094  29.490  30.745  1.00  0.00     0.200 A 
ATOM     78  F   UNL A   1      37.865  28.758  32.853  1.00  0.00    -0.200 F 
ATOM     79  F   UNL A   1      35.884  29.749  31.259  1.00  0.00    -0.200 F 
ENDBRANCH  45  69
BRANCH  57  80
ATOM     80  C   UNL A   1      45.303  32.918  28.739  1.00  0.00     0.064 A 
ATOM     81  C   UNL A   1      45.928  33.324  29.927  1.00  0.00     0.173 A 
ATOM     82  C   UNL A   1      44.989  33.904  27.791  1.00  0.00     0.173 A 
ATOM     83  F   UNL A   1      46.235  32.421  30.870  1.00  0.00    -0.203 F 
ATOM     84  C   UNL A   1      46.208  34.667  30.166  1.00  0.00     0.198 A 
ATOM     85  C   UNL A   1      45.298  35.242  28.020  1.00  0.00     0.198 A 
ATOM     86  F   UNL A   1      44.398  33.568  26.635  1.00  0.00    -0.203 F 
ATOM     87  F   UNL A   1      46.766  35.038  31.326  1.00  0.00    -0.200 F 
ATOM     88  C   UNL A   1      45.899  35.623  29.209  1.00  0.00     0.200 A 
ATOM     89  F   UNL A   1      45.010  36.163  27.089  1.00  0.00    -0.200 F 
ATOM     90  F   UNL A   1      46.177  36.915  29.438  1.00  0.00    -0.200 F 
ENDBRANCH  57  80
ENDBRANCH  31  32
ENDBRANCH  24  26
ENDBRANCH  23  24
ENDBRANCH  22  23
ENDBRANCH  21  22
ENDBRANCH  20  21
ENDBRANCH   1  20
TORSDOF 18
ENDMDL
