MODEL 1
REMARK VINA RESULT:     -11.6      0.000      0.000
REMARK SMILES CC(C)Cn1c([C@@H](O)[C@@H](O)C(=O)OCCOCCOC(=O)c2ccc(-c3c4nc(c(-c5c(F)c(F)c(F)c(F)c5F)c5ccc([nH]5)c(-c5c(F)c(F)c(F)c(F)c5F)c5nc(c(-c6c(F)c(F)c(F)c(F)c6F)c6ccc3[nH]6)C=C5)C=C4)cc2)nc2cc(Cl)ccc21
REMARK SMILES IDX 15 1 14 2 13 3 11 4 12 5 9 6 7 7 6 8 5 9 92 10 85 11 86 12
REMARK SMILES IDX 91 13 87 14 90 15 88 16 89 17 4 18 2 19 1 20 3 21 8 22 10 24
REMARK SMILES IDX 16 26 17 27 18 28 19 29 20 30 21 31 22 32 23 33 84 34 24 35
REMARK SMILES IDX 83 36 25 37 26 38 27 39 77 40 28 41 82 42 76 43 78 44 29 45
REMARK SMILES IDX 81 46 75 47 74 48 30 50 62 51 42 52 61 53 43 54 46 55 60 56
REMARK SMILES IDX 79 57 44 58 45 59 59 61 80 62 47 63 31 64 32 65 40 66 33 67
REMARK SMILES IDX 34 68 38 69 41 70 35 71 36 72 39 73 37 74 63 75 64 76 72 77
REMARK SMILES IDX 65 78 66 79 70 80 73 81 67 82 68 83 71 84 69 85 48 86 49 87
REMARK SMILES IDX 57 88 50 89 51 90 55 91 58 92 52 93 53 94 56 95 54 96
REMARK H PARENT 8 23 10 25 78 49 46 60
REMARK Flexibility Score: inf
ROOT
ATOM      1  C   UNL A   1      41.054  19.937  26.456  1.00  0.00     0.202 C 
ENDROOT
BRANCH   1   2
ATOM      2  C   UNL A   1      40.583  21.357  26.109  1.00  0.00     0.261 C 
BRANCH   2   3
ATOM      3  O   UNL A   1      39.249  21.668  26.531  1.00  0.00    -0.461 OA
BRANCH   3   4
ATOM      4  C   UNL A   1      38.300  21.443  25.579  1.00  0.00     0.338 C 
ATOM      5  O   UNL A   1      38.122  20.364  25.019  1.00  0.00    -0.249 OA
BRANCH   4   6
ATOM      6  C   UNL A   1      37.502  22.681  25.197  1.00  0.00     0.260 C 
BRANCH   6   7
ATOM      7  C   UNL A   1      36.393  22.518  24.137  1.00  0.00     0.220 C 
BRANCH   7   8
ATOM      8  C   UNL A   1      35.176  23.245  24.641  1.00  0.00     0.142 A 
ATOM      9  N   UNL A   1      34.028  22.663  25.129  1.00  0.00    -0.325 N 
ATOM     10  C   UNL A   1      33.199  23.679  25.562  1.00  0.00     0.068 A 
ATOM     11  N   UNL A   1      35.112  24.562  24.714  1.00  0.00    -0.230 NA
ATOM     12  C   UNL A   1      33.926  24.844  25.326  1.00  0.00     0.090 A 
ATOM     13  C   UNL A   1      31.923  23.707  26.137  1.00  0.00     0.030 A 
ATOM     14  C   UNL A   1      33.415  26.090  25.709  1.00  0.00     0.051 A 
ATOM     15  C   UNL A   1      31.415  24.962  26.502  1.00  0.00     0.023 A 
ATOM     16  C   UNL A   1      32.156  26.128  26.304  1.00  0.00     0.043 A 
ATOM     17  Cl  UNL A   1      31.506  27.643  26.803  1.00  0.00    -0.084 Cl
BRANCH   9  18
ATOM     18  C   UNL A   1      33.734  21.240  25.170  1.00  0.00     0.127 C 
BRANCH  18  19
ATOM     19  C   UNL A   1      32.490  20.803  24.372  1.00  0.00     0.003 C 
ATOM     20  C   UNL A   1      32.427  21.446  22.988  1.00  0.00     0.009 C 
ATOM     21  C   UNL A   1      32.446  19.279  24.256  1.00  0.00     0.009 C 
ENDBRANCH  18  19
ENDBRANCH   9  18
ENDBRANCH   7   8
BRANCH   7  22
ATOM     22  O   UNL A   1      36.717  23.154  22.894  1.00  0.00    -0.382 OA
ATOM     23  H   UNL A   1      37.561  22.808  22.564  1.00  0.00     0.211 HD
ENDBRANCH   7  22
ENDBRANCH   6   7
BRANCH   6  24
ATOM     24  O   UNL A   1      36.952  23.205  26.422  1.00  0.00    -0.379 OA
ATOM     25  H   UNL A   1      36.324  22.565  26.795  1.00  0.00     0.211 HD
ENDBRANCH   6  24
ENDBRANCH   4   6
ENDBRANCH   3   4
ENDBRANCH   2   3
ENDBRANCH   1   2
BRANCH   1  26
ATOM     26  O   UNL A   1      41.830  19.188  25.529  1.00  0.00    -0.374 OA
BRANCH  26  27
ATOM     27  C   UNL A   1      43.100  18.692  25.962  1.00  0.00     0.202 C 
BRANCH  27  28
ATOM     28  C   UNL A   1      44.295  18.755  24.994  1.00  0.00     0.261 C 
BRANCH  28  29
ATOM     29  O   UNL A   1      45.090  19.931  25.208  1.00  0.00    -0.460 OA
BRANCH  29  30
ATOM     30  C   UNL A   1      44.841  20.932  24.324  1.00  0.00     0.338 C 
ATOM     31  O   UNL A   1      44.710  20.850  23.116  1.00  0.00    -0.246 OA
BRANCH  30  32
ATOM     32  C   UNL A   1      44.335  22.044  25.146  1.00  0.00     0.060 A 
ATOM     33  C   UNL A   1      43.415  22.955  24.626  1.00  0.00     0.016 A 
ATOM     34  C   UNL A   1      45.049  22.317  26.325  1.00  0.00     0.016 A 
ATOM     35  C   UNL A   1      43.248  24.173  25.274  1.00  0.00     0.010 A 
ATOM     36  C   UNL A   1      44.901  23.549  26.952  1.00  0.00     0.010 A 
ATOM     37  C   UNL A   1      44.012  24.482  26.418  1.00  0.00    -0.014 A 
BRANCH  37  38
ATOM     38  C   UNL A   1      43.640  25.685  27.165  1.00  0.00     0.031 A 
ATOM     39  C   UNL A   1      44.533  26.833  26.858  1.00  0.00     0.074 A 
ATOM     40  C   UNL A   1      42.541  25.880  27.925  1.00  0.00     0.049 A 
ATOM     41  N   UNL A   1      45.306  27.475  27.668  1.00  0.00    -0.248 NA
ATOM     42  C   UNL A   1      44.658  27.242  25.449  1.00  0.00     0.031 C 
ATOM     43  C   UNL A   1      41.373  25.009  28.048  1.00  0.00     0.029 A 
ATOM     44  N   UNL A   1      42.195  26.975  28.676  1.00  0.00    -0.354 N 
ATOM     45  C   UNL A   1      45.891  28.483  26.907  1.00  0.00     0.074 A 
ATOM     46  C   UNL A   1      45.572  28.209  25.532  1.00  0.00     0.031 C 
ATOM     47  C   UNL A   1      40.367  25.698  28.638  1.00  0.00     0.029 A 
ATOM     48  C   UNL A   1      40.861  27.000  29.061  1.00  0.00     0.049 A 
ATOM     49  H   UNL A   1      42.837  27.681  28.921  1.00  0.00     0.167 HD
ATOM     50  C   UNL A   1      46.379  29.608  27.493  1.00  0.00     0.037 A 
ATOM     51  C   UNL A   1      40.200  28.035  29.636  1.00  0.00     0.037 A 
ATOM     52  C   UNL A   1      46.523  29.455  28.912  1.00  0.00     0.049 A 
ATOM     53  C   UNL A   1      41.183  28.916  30.310  1.00  0.00     0.074 A 
ATOM     54  C   UNL A   1      47.466  28.976  29.793  1.00  0.00     0.029 A 
ATOM     55  N   UNL A   1      45.352  29.584  29.601  1.00  0.00    -0.354 N 
ATOM     56  N   UNL A   1      41.882  28.567  31.352  1.00  0.00    -0.248 NA
ATOM     57  C   UNL A   1      41.584  30.171  29.676  1.00  0.00     0.031 C 
ATOM     58  C   UNL A   1      46.786  28.731  31.025  1.00  0.00     0.029 A 
ATOM     59  C   UNL A   1      45.448  29.076  30.868  1.00  0.00     0.049 A 
ATOM     60  H   UNL A   1      44.537  29.992  29.231  1.00  0.00     0.167 HD
ATOM     61  C   UNL A   1      43.035  29.312  31.246  1.00  0.00     0.074 A 
ATOM     62  C   UNL A   1      42.722  30.401  30.334  1.00  0.00     0.031 C 
ATOM     63  C   UNL A   1      44.238  28.783  31.598  1.00  0.00     0.037 A 
BRANCH  50  64
ATOM     64  C   UNL A   1      46.288  30.984  26.877  1.00  0.00     0.064 A 
ATOM     65  C   UNL A   1      47.426  31.813  26.862  1.00  0.00     0.173 A 
ATOM     66  C   UNL A   1      45.062  31.623  26.594  1.00  0.00     0.173 A 
ATOM     67  F   UNL A   1      48.636  31.317  27.161  1.00  0.00    -0.203 F 
ATOM     68  C   UNL A   1      47.334  33.186  26.615  1.00  0.00     0.198 A 
ATOM     69  C   UNL A   1      44.980  32.981  26.295  1.00  0.00     0.198 A 
ATOM     70  F   UNL A   1      43.889  30.987  26.713  1.00  0.00    -0.203 F 
ATOM     71  F   UNL A   1      48.427  33.956  26.714  1.00  0.00    -0.200 F 
ATOM     72  C   UNL A   1      46.113  33.769  26.329  1.00  0.00     0.200 A 
ATOM     73  F   UNL A   1      43.783  33.533  26.051  1.00  0.00    -0.200 F 
ATOM     74  F   UNL A   1      46.016  35.091  26.136  1.00  0.00    -0.200 F 
ENDBRANCH  50  64
BRANCH  51  75
ATOM     75  C   UNL A   1      38.796  28.481  29.439  1.00  0.00     0.064 A 
ATOM     76  C   UNL A   1      37.949  28.684  30.544  1.00  0.00     0.173 A 
ATOM     77  C   UNL A   1      38.372  29.031  28.217  1.00  0.00     0.173 A 
ATOM     78  F   UNL A   1      38.290  28.216  31.754  1.00  0.00    -0.203 F 
ATOM     79  C   UNL A   1      36.787  29.455  30.448  1.00  0.00     0.198 A 
ATOM     80  C   UNL A   1      37.204  29.791  28.119  1.00  0.00     0.198 A 
ATOM     81  F   UNL A   1      39.135  28.936  27.118  1.00  0.00    -0.203 F 
ATOM     82  F   UNL A   1      36.058  29.708  31.545  1.00  0.00    -0.200 F 
ATOM     83  C   UNL A   1      36.426  30.024  29.238  1.00  0.00     0.200 A 
ATOM     84  F   UNL A   1      36.881  30.362  26.950  1.00  0.00    -0.200 F 
ATOM     85  F   UNL A   1      35.360  30.832  29.161  1.00  0.00    -0.200 F 
ENDBRANCH  51  75
BRANCH  63  86
ATOM     86  C   UNL A   1      44.252  27.717  32.641  1.00  0.00     0.064 A 
ATOM     87  C   UNL A   1      44.225  27.959  34.023  1.00  0.00     0.173 A 
ATOM     88  C   UNL A   1      44.248  26.384  32.211  1.00  0.00     0.173 A 
ATOM     89  F   UNL A   1      44.154  29.207  34.504  1.00  0.00    -0.203 F 
ATOM     90  C   UNL A   1      44.234  26.903  34.933  1.00  0.00     0.198 A 
ATOM     91  C   UNL A   1      44.221  25.333  33.120  1.00  0.00     0.198 A 
ATOM     92  F   UNL A   1      44.243  26.100  30.899  1.00  0.00    -0.203 F 
ATOM     93  F   UNL A   1      44.229  27.152  36.251  1.00  0.00    -0.200 F 
ATOM     94  C   UNL A   1      44.225  25.592  34.481  1.00  0.00     0.200 A 
ATOM     95  F   UNL A   1      44.174  24.069  32.676  1.00  0.00    -0.200 F 
ATOM     96  F   UNL A   1      44.199  24.577  35.356  1.00  0.00    -0.200 F 
ENDBRANCH  63  86
ENDBRANCH  37  38
ENDBRANCH  30  32
ENDBRANCH  29  30
ENDBRANCH  28  29
ENDBRANCH  27  28
ENDBRANCH  26  27
ENDBRANCH   1  26
TORSDOF 20
ENDMDL
MODEL 2
REMARK VINA RESULT:     -11.5      1.473      2.459
REMARK SMILES CC(C)Cn1c([C@@H](O)[C@@H](O)C(=O)OCCOCCOC(=O)c2ccc(-c3c4nc(c(-c5c(F)c(F)c(F)c(F)c5F)c5ccc([nH]5)c(-c5c(F)c(F)c(F)c(F)c5F)c5nc(c(-c6c(F)c(F)c(F)c(F)c6F)c6ccc3[nH]6)C=C5)C=C4)cc2)nc2cc(Cl)ccc21
REMARK SMILES IDX 15 1 14 2 13 3 11 4 12 5 9 6 7 7 6 8 5 9 92 10 85 11 86 12
REMARK SMILES IDX 91 13 87 14 90 15 88 16 89 17 4 18 2 19 1 20 3 21 8 22 10 24
REMARK SMILES IDX 16 26 17 27 18 28 19 29 20 30 21 31 22 32 23 33 84 34 24 35
REMARK SMILES IDX 83 36 25 37 26 38 27 39 77 40 28 41 82 42 76 43 78 44 29 45
REMARK SMILES IDX 81 46 75 47 74 48 30 50 62 51 42 52 61 53 43 54 46 55 60 56
REMARK SMILES IDX 79 57 44 58 45 59 59 61 80 62 47 63 31 64 32 65 40 66 33 67
REMARK SMILES IDX 34 68 38 69 41 70 35 71 36 72 39 73 37 74 63 75 64 76 72 77
REMARK SMILES IDX 65 78 66 79 70 80 73 81 67 82 68 83 71 84 69 85 48 86 49 87
REMARK SMILES IDX 57 88 50 89 51 90 55 91 58 92 52 93 53 94 56 95 54 96
REMARK H PARENT 8 23 10 25 78 49 46 60
REMARK Flexibility Score: inf
ROOT
ATOM      1  C   UNL A   1      41.099  20.388  26.582  1.00  0.00     0.202 C 
ENDROOT
BRANCH   1   2
ATOM      2  C   UNL A   1      40.401  21.733  26.332  1.00  0.00     0.261 C 
BRANCH   2   3
ATOM      3  O   UNL A   1      38.974  21.661  26.226  1.00  0.00    -0.461 OA
BRANCH   3   4
ATOM      4  C   UNL A   1      38.380  22.850  25.924  1.00  0.00     0.338 C 
ATOM      5  O   UNL A   1      38.694  23.928  26.424  1.00  0.00    -0.249 OA
BRANCH   4   6
ATOM      6  C   UNL A   1      37.218  22.731  24.949  1.00  0.00     0.260 C 
BRANCH   6   7
ATOM      7  C   UNL A   1      35.793  22.921  25.507  1.00  0.00     0.220 C 
BRANCH   7   8
ATOM      8  C   UNL A   1      35.013  21.675  25.191  1.00  0.00     0.142 A 
ATOM      9  N   UNL A   1      33.696  21.622  24.795  1.00  0.00    -0.325 N 
ATOM     10  C   UNL A   1      33.397  20.300  24.524  1.00  0.00     0.068 A 
ATOM     11  N   UNL A   1      35.555  20.470  25.211  1.00  0.00    -0.230 NA
ATOM     12  C   UNL A   1      34.590  19.621  24.755  1.00  0.00     0.090 A 
ATOM     13  C   UNL A   1      32.239  19.639  24.096  1.00  0.00     0.030 A 
ATOM     14  C   UNL A   1      34.682  18.244  24.514  1.00  0.00     0.051 A 
ATOM     15  C   UNL A   1      32.338  18.258  23.873  1.00  0.00     0.023 A 
ATOM     16  C   UNL A   1      33.543  17.580  24.065  1.00  0.00     0.043 A 
ATOM     17  Cl  UNL A   1      33.627  15.890  23.742  1.00  0.00    -0.084 Cl
BRANCH   9  18
ATOM     18  C   UNL A   1      32.781  22.747  24.692  1.00  0.00     0.127 C 
BRANCH  18  19
ATOM     19  C   UNL A   1      32.189  23.235  26.028  1.00  0.00     0.003 C 
ATOM     20  C   UNL A   1      32.281  24.752  26.190  1.00  0.00     0.009 C 
ATOM     21  C   UNL A   1      30.738  22.772  26.164  1.00  0.00     0.009 C 
ENDBRANCH  18  19
ENDBRANCH   9  18
ENDBRANCH   7   8
BRANCH   7  22
ATOM     22  O   UNL A   1      35.767  23.022  26.937  1.00  0.00    -0.382 OA
ATOM     23  H   UNL A   1      36.537  23.527  27.240  1.00  0.00     0.211 HD
ENDBRANCH   7  22
ENDBRANCH   6   7
BRANCH   6  24
ATOM     24  O   UNL A   1      37.474  23.678  23.893  1.00  0.00    -0.379 OA
ATOM     25  H   UNL A   1      38.257  24.208  24.116  1.00  0.00     0.211 HD
ENDBRANCH   6  24
ENDBRANCH   4   6
ENDBRANCH   3   4
ENDBRANCH   2   3
ENDBRANCH   1   2
BRANCH   1  26
ATOM     26  O   UNL A   1      41.792  19.729  25.530  1.00  0.00    -0.374 OA
BRANCH  26  27
ATOM     27  C   UNL A   1      42.817  18.795  25.883  1.00  0.00     0.202 C 
BRANCH  27  28
ATOM     28  C   UNL A   1      44.152  18.828  25.116  1.00  0.00     0.261 C 
BRANCH  28  29
ATOM     29  O   UNL A   1      44.884  20.034  25.377  1.00  0.00    -0.460 OA
BRANCH  29  30
ATOM     30  C   UNL A   1      44.855  20.927  24.353  1.00  0.00     0.338 C 
ATOM     31  O   UNL A   1      44.667  20.705  23.170  1.00  0.00    -0.246 OA
BRANCH  30  32
ATOM     32  C   UNL A   1      44.662  22.236  24.999  1.00  0.00     0.060 A 
ATOM     33  C   UNL A   1      45.343  22.560  26.173  1.00  0.00     0.016 A 
ATOM     34  C   UNL A   1      43.553  22.983  24.567  1.00  0.00     0.016 A 
ATOM     35  C   UNL A   1      44.873  23.617  26.943  1.00  0.00     0.010 A 
ATOM     36  C   UNL A   1      43.068  24.018  25.357  1.00  0.00     0.010 A 
ATOM     37  C   UNL A   1      43.719  24.326  26.551  1.00  0.00    -0.014 A 
BRANCH  37  38
ATOM     38  C   UNL A   1      43.403  25.549  27.291  1.00  0.00     0.031 A 
ATOM     39  C   UNL A   1      44.338  26.658  26.965  1.00  0.00     0.074 A 
ATOM     40  C   UNL A   1      42.320  25.794  28.059  1.00  0.00     0.049 A 
ATOM     41  N   UNL A   1      45.144  27.276  27.762  1.00  0.00    -0.248 NA
ATOM     42  C   UNL A   1      44.466  27.050  25.552  1.00  0.00     0.031 C 
ATOM     43  C   UNL A   1      41.120  24.971  28.202  1.00  0.00     0.029 A 
ATOM     44  N   UNL A   1      42.026  26.909  28.804  1.00  0.00    -0.354 N 
ATOM     45  C   UNL A   1      45.761  28.253  26.986  1.00  0.00     0.074 A 
ATOM     46  C   UNL A   1      45.418  27.980  25.617  1.00  0.00     0.031 C 
ATOM     47  C   UNL A   1      40.148  25.705  28.794  1.00  0.00     0.029 A 
ATOM     48  C   UNL A   1      40.698  26.990  29.201  1.00  0.00     0.049 A 
ATOM     49  H   UNL A   1      42.697  27.591  29.037  1.00  0.00     0.167 HD
ATOM     50  C   UNL A   1      46.299  29.363  27.557  1.00  0.00     0.037 A 
ATOM     51  C   UNL A   1      40.084  28.056  29.773  1.00  0.00     0.037 A 
ATOM     52  C   UNL A   1      46.451  29.217  28.977  1.00  0.00     0.049 A 
ATOM     53  C   UNL A   1      41.107  28.903  30.429  1.00  0.00     0.074 A 
ATOM     54  C   UNL A   1      47.382  28.708  29.853  1.00  0.00     0.029 A 
ATOM     55  N   UNL A   1      45.293  29.398  29.675  1.00  0.00    -0.354 N 
ATOM     56  N   UNL A   1      41.802  28.536  31.468  1.00  0.00    -0.248 NA
ATOM     57  C   UNL A   1      41.552  30.135  29.780  1.00  0.00     0.031 C 
ATOM     58  C   UNL A   1      46.705  28.501  31.093  1.00  0.00     0.029 A 
ATOM     59  C   UNL A   1      45.381  28.897  30.946  1.00  0.00     0.049 A 
ATOM     60  H   UNL A   1      44.491  29.835  29.309  1.00  0.00     0.167 HD
ATOM     61  C   UNL A   1      42.983  29.233  31.344  1.00  0.00     0.074 A 
ATOM     62  C   UNL A   1      42.705  30.325  30.426  1.00  0.00     0.031 C 
ATOM     63  C   UNL A   1      44.168  28.659  31.689  1.00  0.00     0.037 A 
BRANCH  50  64
ATOM     64  C   UNL A   1      46.256  30.736  26.930  1.00  0.00     0.064 A 
ATOM     65  C   UNL A   1      47.434  31.507  26.869  1.00  0.00     0.173 A 
ATOM     66  C   UNL A   1      45.055  31.433  26.679  1.00  0.00     0.173 A 
ATOM     67  F   UNL A   1      48.626  30.953  27.134  1.00  0.00    -0.203 F 
ATOM     68  C   UNL A   1      47.402  32.880  26.610  1.00  0.00     0.198 A 
ATOM     69  C   UNL A   1      45.032  32.791  26.368  1.00  0.00     0.198 A 
ATOM     70  F   UNL A   1      43.857  30.858  26.843  1.00  0.00    -0.203 F 
ATOM     71  F   UNL A   1      48.535  33.595  26.665  1.00  0.00    -0.200 F 
ATOM     72  C   UNL A   1      46.203  33.521  26.357  1.00  0.00     0.200 A 
ATOM     73  F   UNL A   1      43.857  33.400  26.157  1.00  0.00    -0.200 F 
ATOM     74  F   UNL A   1      46.166  34.844  26.153  1.00  0.00    -0.200 F 
ENDBRANCH  50  64
BRANCH  51  75
ATOM     75  C   UNL A   1      38.697  28.556  29.585  1.00  0.00     0.064 A 
ATOM     76  C   UNL A   1      37.868  28.799  30.696  1.00  0.00     0.173 A 
ATOM     77  C   UNL A   1      38.284  29.115  28.363  1.00  0.00     0.173 A 
ATOM     78  F   UNL A   1      38.201  28.323  31.905  1.00  0.00    -0.203 F 
ATOM     79  C   UNL A   1      36.736  29.614  30.605  1.00  0.00     0.198 A 
ATOM     80  C   UNL A   1      37.146  29.920  28.271  1.00  0.00     0.198 A 
ATOM     81  F   UNL A   1      39.033  28.984  27.259  1.00  0.00    -0.203 F 
ATOM     82  F   UNL A   1      36.028  29.901  31.707  1.00  0.00    -0.200 F 
ATOM     83  C   UNL A   1      36.387  30.190  29.395  1.00  0.00     0.200 A 
ATOM     84  F   UNL A   1      36.836  30.497  27.101  1.00  0.00    -0.200 F 
ATOM     85  F   UNL A   1      35.354  31.038  29.323  1.00  0.00    -0.200 F 
ENDBRANCH  51  75
BRANCH  63  86
ATOM     86  C   UNL A   1      44.149  27.603  32.742  1.00  0.00     0.064 A 
ATOM     87  C   UNL A   1      44.098  27.858  34.121  1.00  0.00     0.173 A 
ATOM     88  C   UNL A   1      44.140  26.266  32.324  1.00  0.00     0.173 A 
ATOM     89  F   UNL A   1      44.031  29.111  34.590  1.00  0.00    -0.203 F 
ATOM     90  C   UNL A   1      44.077  26.810  35.041  1.00  0.00     0.198 A 
ATOM     91  C   UNL A   1      44.084  25.224  33.242  1.00  0.00     0.198 A 
ATOM     92  F   UNL A   1      44.157  25.971  31.015  1.00  0.00    -0.203 F 
ATOM     93  F   UNL A   1      44.048  27.071  36.356  1.00  0.00    -0.200 F 
ATOM     94  C   UNL A   1      44.063  25.496  34.600  1.00  0.00     0.200 A 
ATOM     95  F   UNL A   1      44.032  23.957  32.808  1.00  0.00    -0.200 F 
ATOM     96  F   UNL A   1      44.009  24.489  35.483  1.00  0.00    -0.200 F 
ENDBRANCH  63  86
ENDBRANCH  37  38
ENDBRANCH  30  32
ENDBRANCH  29  30
ENDBRANCH  28  29
ENDBRANCH  27  28
ENDBRANCH  26  27
ENDBRANCH   1  26
TORSDOF 20
ENDMDL
MODEL 3
REMARK VINA RESULT:     -11.4      3.692      8.991
REMARK SMILES CC(C)Cn1c([C@@H](O)[C@@H](O)C(=O)OCCOCCOC(=O)c2ccc(-c3c4nc(c(-c5c(F)c(F)c(F)c(F)c5F)c5ccc([nH]5)c(-c5c(F)c(F)c(F)c(F)c5F)c5nc(c(-c6c(F)c(F)c(F)c(F)c6F)c6ccc3[nH]6)C=C5)C=C4)cc2)nc2cc(Cl)ccc21
REMARK SMILES IDX 15 1 14 2 13 3 11 4 12 5 9 6 7 7 6 8 5 9 92 10 85 11 86 12
REMARK SMILES IDX 91 13 87 14 90 15 88 16 89 17 4 18 2 19 1 20 3 21 8 22 10 24
REMARK SMILES IDX 16 26 17 27 18 28 19 29 20 30 21 31 22 32 23 33 84 34 24 35
REMARK SMILES IDX 83 36 25 37 26 38 27 39 77 40 28 41 82 42 76 43 78 44 29 45
REMARK SMILES IDX 81 46 75 47 74 48 30 50 62 51 42 52 61 53 43 54 46 55 60 56
REMARK SMILES IDX 79 57 44 58 45 59 59 61 80 62 47 63 31 64 32 65 40 66 33 67
REMARK SMILES IDX 34 68 38 69 41 70 35 71 36 72 39 73 37 74 63 75 64 76 72 77
REMARK SMILES IDX 65 78 66 79 70 80 73 81 67 82 68 83 71 84 69 85 48 86 49 87
REMARK SMILES IDX 57 88 50 89 51 90 55 91 58 92 52 93 53 94 56 95 54 96
REMARK H PARENT 8 23 10 25 78 49 46 60
REMARK Flexibility Score: inf
ROOT
ATOM      1  C   UNL A   1      31.413  27.425  26.454  1.00  0.00     0.202 C 
ENDROOT
BRANCH   1   2
ATOM      2  C   UNL A   1      31.940  25.983  26.516  1.00  0.00     0.261 C 
BRANCH   2   3
ATOM      3  O   UNL A   1      31.237  25.049  25.687  1.00  0.00    -0.461 OA
BRANCH   3   4
ATOM      4  C   UNL A   1      30.663  24.022  26.375  1.00  0.00     0.338 C 
ATOM      5  O   UNL A   1      29.724  24.150  27.157  1.00  0.00    -0.249 OA
BRANCH   4   6
ATOM      6  C   UNL A   1      31.338  22.676  26.152  1.00  0.00     0.260 C 
BRANCH   6   7
ATOM      7  C   UNL A   1      32.460  22.604  25.097  1.00  0.00     0.220 C 
BRANCH   7   8
ATOM      8  C   UNL A   1      32.855  21.160  24.955  1.00  0.00     0.142 A 
ATOM      9  N   UNL A   1      34.113  20.690  24.651  1.00  0.00    -0.325 N 
ATOM     10  C   UNL A   1      34.064  19.310  24.703  1.00  0.00     0.068 A 
ATOM     11  N   UNL A   1      32.012  20.166  25.169  1.00  0.00    -0.230 NA
ATOM     12  C   UNL A   1      32.751  19.024  25.069  1.00  0.00     0.090 A 
ATOM     13  C   UNL A   1      35.010  18.301  24.488  1.00  0.00     0.030 A 
ATOM     14  C   UNL A   1      32.347  17.700  25.286  1.00  0.00     0.051 A 
ATOM     15  C   UNL A   1      34.590  16.978  24.693  1.00  0.00     0.023 A 
ATOM     16  C   UNL A   1      33.286  16.689  25.099  1.00  0.00     0.043 A 
ATOM     17  Cl  UNL A   1      32.826  15.052  25.374  1.00  0.00    -0.084 Cl
BRANCH   9  18
ATOM     18  C   UNL A   1      35.277  21.495  24.322  1.00  0.00     0.127 C 
BRANCH  18  19
ATOM     19  C   UNL A   1      36.336  21.604  25.436  1.00  0.00     0.003 C 
ATOM     20  C   UNL A   1      37.659  20.943  25.053  1.00  0.00     0.009 C 
ATOM     21  C   UNL A   1      36.561  23.070  25.809  1.00  0.00     0.009 C 
ENDBRANCH  18  19
ENDBRANCH   9  18
ENDBRANCH   7   8
BRANCH   7  22
ATOM     22  O   UNL A   1      32.019  22.998  23.791  1.00  0.00    -0.382 OA
ATOM     23  H   UNL A   1      32.770  23.350  23.289  1.00  0.00     0.211 HD
ENDBRANCH   7  22
ENDBRANCH   6   7
BRANCH   6  24
ATOM     24  O   UNL A   1      31.830  22.250  27.438  1.00  0.00    -0.379 OA
ATOM     25  H   UNL A   1      31.422  21.401  27.676  1.00  0.00     0.211 HD
ENDBRANCH   6  24
ENDBRANCH   4   6
ENDBRANCH   3   4
ENDBRANCH   2   3
ENDBRANCH   1   2
BRANCH   1  26
ATOM     26  O   UNL A   1      32.011  28.446  27.244  1.00  0.00    -0.374 OA
BRANCH  26  27
ATOM     27  C   UNL A   1      32.930  29.337  26.606  1.00  0.00     0.202 C 
BRANCH  27  28
ATOM     28  C   UNL A   1      33.262  30.678  27.284  1.00  0.00     0.261 C 
BRANCH  28  29
ATOM     29  O   UNL A   1      34.677  30.897  27.362  1.00  0.00    -0.460 OA
BRANCH  29  30
ATOM     30  C   UNL A   1      35.078  31.511  28.506  1.00  0.00     0.338 C 
ATOM     31  O   UNL A   1      34.401  32.161  29.284  1.00  0.00    -0.246 OA
BRANCH  30  32
ATOM     32  C   UNL A   1      36.365  30.882  28.841  1.00  0.00     0.060 A 
ATOM     33  C   UNL A   1      37.453  31.656  29.248  1.00  0.00     0.016 A 
ATOM     34  C   UNL A   1      36.529  29.548  28.432  1.00  0.00     0.016 A 
ATOM     35  C   UNL A   1      38.723  31.095  29.196  1.00  0.00     0.010 A 
ATOM     36  C   UNL A   1      37.805  29.002  28.351  1.00  0.00     0.010 A 
ATOM     37  C   UNL A   1      38.903  29.780  28.719  1.00  0.00    -0.014 A 
BRANCH  37  38
ATOM     38  C   UNL A   1      40.229  29.184  28.885  1.00  0.00     0.031 A 
ATOM     39  C   UNL A   1      40.587  29.005  30.317  1.00  0.00     0.074 A 
ATOM     40  C   UNL A   1      41.029  28.666  27.929  1.00  0.00     0.049 A 
ATOM     41  N   UNL A   1      41.569  29.540  30.963  1.00  0.00    -0.248 NA
ATOM     42  C   UNL A   1      39.670  28.216  31.157  1.00  0.00     0.031 C 
ATOM     43  C   UNL A   1      40.699  28.416  26.526  1.00  0.00     0.029 A 
ATOM     44  N   UNL A   1      42.296  28.151  28.050  1.00  0.00    -0.354 N 
ATOM     45  C   UNL A   1      41.496  29.022  32.253  1.00  0.00     0.074 A 
ATOM     46  C   UNL A   1      40.239  28.332  32.357  1.00  0.00     0.031 C 
ATOM     47  C   UNL A   1      41.641  27.605  25.989  1.00  0.00     0.029 A 
ATOM     48  C   UNL A   1      42.707  27.398  26.958  1.00  0.00     0.049 A 
ATOM     49  H   UNL A   1      42.863  28.302  28.840  1.00  0.00     0.167 HD
ATOM     50  C   UNL A   1      42.592  28.986  33.055  1.00  0.00     0.037 A 
ATOM     51  C   UNL A   1      43.815  26.620  26.878  1.00  0.00     0.037 A 
ATOM     52  C   UNL A   1      43.649  29.819  32.558  1.00  0.00     0.049 A 
ATOM     53  C   UNL A   1      44.811  27.101  27.865  1.00  0.00     0.074 A 
ATOM     54  C   UNL A   1      44.029  31.139  32.642  1.00  0.00     0.029 A 
ATOM     55  N   UNL A   1      44.358  29.258  31.535  1.00  0.00    -0.354 N 
ATOM     56  N   UNL A   1      45.413  28.254  27.791  1.00  0.00    -0.248 NA
ATOM     57  C   UNL A   1      44.995  26.376  29.120  1.00  0.00     0.031 C 
ATOM     58  C   UNL A   1      44.932  31.374  31.561  1.00  0.00     0.029 A 
ATOM     59  C   UNL A   1      45.088  30.190  30.850  1.00  0.00     0.049 A 
ATOM     60  H   UNL A   1      44.344  28.298  31.317  1.00  0.00     0.167 HD
ATOM     61  C   UNL A   1      45.684  28.574  29.102  1.00  0.00     0.074 A 
ATOM     62  C   UNL A   1      45.592  27.326  29.843  1.00  0.00     0.031 C 
ATOM     63  C   UNL A   1      45.589  29.859  29.538  1.00  0.00     0.037 A 
BRANCH  50  64
ATOM     64  C   UNL A   1      42.892  27.862  34.017  1.00  0.00     0.064 A 
ATOM     65  C   UNL A   1      43.403  26.645  33.524  1.00  0.00     0.173 A 
ATOM     66  C   UNL A   1      42.405  27.828  35.342  1.00  0.00     0.173 A 
ATOM     67  F   UNL A   1      43.851  26.555  32.263  1.00  0.00    -0.203 F 
ATOM     68  C   UNL A   1      43.393  25.478  34.291  1.00  0.00     0.198 A 
ATOM     69  C   UNL A   1      42.446  26.675  36.122  1.00  0.00     0.198 A 
ATOM     70  F   UNL A   1      41.764  28.871  35.886  1.00  0.00    -0.203 F 
ATOM     71  F   UNL A   1      43.792  24.319  33.747  1.00  0.00    -0.200 F 
ATOM     72  C   UNL A   1      42.918  25.493  35.590  1.00  0.00     0.200 A 
ATOM     73  F   UNL A   1      41.952  26.703  37.368  1.00  0.00    -0.200 F 
ATOM     74  F   UNL A   1      42.866  24.366  36.312  1.00  0.00    -0.200 F 
ENDBRANCH  50  64
BRANCH  51  75
ATOM     75  C   UNL A   1      44.000  25.314  26.193  1.00  0.00     0.064 A 
ATOM     76  C   UNL A   1      45.041  25.137  25.261  1.00  0.00     0.173 A 
ATOM     77  C   UNL A   1      43.390  24.144  26.678  1.00  0.00     0.173 A 
ATOM     78  F   UNL A   1      45.695  26.200  24.767  1.00  0.00    -0.203 F 
ATOM     79  C   UNL A   1      45.492  23.866  24.896  1.00  0.00     0.198 A 
ATOM     80  C   UNL A   1      43.835  22.874  26.302  1.00  0.00     0.198 A 
ATOM     81  F   UNL A   1      42.426  24.206  27.607  1.00  0.00    -0.203 F 
ATOM     82  F   UNL A   1      46.550  23.741  24.082  1.00  0.00    -0.200 F 
ATOM     83  C   UNL A   1      44.901  22.735  25.432  1.00  0.00     0.200 A 
ATOM     84  F   UNL A   1      43.274  21.787  26.851  1.00  0.00    -0.200 F 
ATOM     85  F   UNL A   1      45.385  21.519  25.149  1.00  0.00    -0.200 F 
ENDBRANCH  51  75
BRANCH  63  86
ATOM     86  C   UNL A   1      45.821  30.949  28.547  1.00  0.00     0.064 A 
ATOM     87  C   UNL A   1      47.086  31.429  28.176  1.00  0.00     0.173 A 
ATOM     88  C   UNL A   1      44.701  31.502  27.911  1.00  0.00     0.173 A 
ATOM     89  F   UNL A   1      48.203  30.897  28.688  1.00  0.00    -0.203 F 
ATOM     90  C   UNL A   1      47.215  32.449  27.234  1.00  0.00     0.198 A 
ATOM     91  C   UNL A   1      44.834  32.493  26.947  1.00  0.00     0.198 A 
ATOM     92  F   UNL A   1      43.470  31.055  28.209  1.00  0.00    -0.203 F 
ATOM     93  F   UNL A   1      48.431  32.911  26.906  1.00  0.00    -0.200 F 
ATOM     94  C   UNL A   1      46.091  32.975  26.616  1.00  0.00     0.200 A 
ATOM     95  F   UNL A   1      43.746  32.970  26.327  1.00  0.00    -0.200 F 
ATOM     96  F   UNL A   1      46.217  33.932  25.686  1.00  0.00    -0.200 F 
ENDBRANCH  63  86
ENDBRANCH  37  38
ENDBRANCH  30  32
ENDBRANCH  29  30
ENDBRANCH  28  29
ENDBRANCH  27  28
ENDBRANCH  26  27
ENDBRANCH   1  26
TORSDOF 20
ENDMDL
