MODEL 1
REMARK VINA RESULT:     -13.8      0.000      0.000
REMARK SMILES C[C@H](C(=O)Nc1ccc(C(F)(F)F)cc1)n1nc(C(=O)OCCOCCOC(=O)c2ccc(-c3c4nc(c(-c5c(F)c(F)c(F)c(F)c5F)c5ccc([nH]5)c(-c5c(F)c(F)c(F)c(F)c5F)c5nc(c(-c6c(F)c(F)c(F)c(F)c6F)c6ccc3[nH]6)C=C5)C=C4)cc2)c2ccccc2c1=O
REMARK SMILES IDX 23 1 22 2 21 3 19 4 20 5 18 6 16 7 17 8 99 9 98 10 100 11
REMARK SMILES IDX 93 12 97 13 94 14 96 15 95 16 2 17 1 18 3 19 4 20 5 21 6 23
REMARK SMILES IDX 7 24 15 25 8 26 14 27 9 28 10 29 11 30 12 31 13 32 24 33
REMARK SMILES IDX 25 34 26 35 27 36 28 37 29 38 30 39 31 40 92 41 32 42 91 43
REMARK SMILES IDX 33 44 34 45 35 46 85 47 36 48 90 49 84 50 86 51 37 52 89 53
REMARK SMILES IDX 83 54 82 55 38 57 70 58 50 59 69 60 51 61 54 62 68 63 87 64
REMARK SMILES IDX 52 65 53 66 67 68 88 69 55 70 39 71 40 72 48 73 41 74 42 75
REMARK SMILES IDX 46 76 49 77 43 78 44 79 47 80 45 81 71 82 72 83 80 84 73 85
REMARK SMILES IDX 74 86 78 87 81 88 75 89 76 90 79 91 77 92 56 93 57 94 65 95
REMARK SMILES IDX 58 96 59 97 63 98 66 99 60 100 61 101 64 102 62 103
REMARK H PARENT 5 22 86 56 54 67
REMARK Flexibility Score: inf
ROOT
ATOM      1  C   UNL A   1      39.657  21.475  26.516  1.00  0.00     0.202 C 
ENDROOT
BRANCH   1   2
ATOM      2  C   UNL A   1      38.588  21.895  25.505  1.00  0.00     0.261 C 
BRANCH   2   3
ATOM      3  O   UNL A   1      37.356  21.181  25.669  1.00  0.00    -0.458 OA
BRANCH   3   4
ATOM      4  C   UNL A   1      36.389  21.585  24.836  1.00  0.00     0.359 C 
ATOM      5  O   UNL A   1      36.530  22.139  23.756  1.00  0.00    -0.244 OA
BRANCH   4   6
ATOM      6  C   UNL A   1      34.993  21.442  25.408  1.00  0.00     0.176 A 
ATOM      7  N   UNL A   1      33.165  22.813  25.306  1.00  0.00    -0.216 N 
ATOM      8  N   UNL A   1      34.441  22.548  25.823  1.00  0.00    -0.161 NA
ATOM      9  C   UNL A   1      32.696  22.018  24.264  1.00  0.00     0.275 A 
ATOM     10  C   UNL A   1      33.084  20.614  24.276  1.00  0.00     0.051 A 
ATOM     11  O   UNL A   1      32.001  22.367  23.329  1.00  0.00    -0.267 OA
ATOM     12  C   UNL A   1      34.238  20.270  24.942  1.00  0.00     0.022 A 
ATOM     13  C   UNL A   1      32.391  19.688  23.496  1.00  0.00     0.014 A 
ATOM     14  C   UNL A   1      34.703  18.954  24.893  1.00  0.00     0.011 A 
ATOM     15  C   UNL A   1      32.861  18.386  23.408  1.00  0.00     0.001 A 
ATOM     16  C   UNL A   1      34.005  18.014  24.119  1.00  0.00     0.001 A 
BRANCH   7  17
ATOM     17  C   UNL A   1      32.748  24.234  25.434  1.00  0.00     0.197 C 
ATOM     18  C   UNL A   1      33.969  25.035  25.947  1.00  0.00     0.044 C 
BRANCH  17  19
ATOM     19  C   UNL A   1      31.576  24.588  26.397  1.00  0.00     0.249 C 
ATOM     20  O   UNL A   1      31.152  23.758  27.215  1.00  0.00    -0.272 OA
ATOM     21  N   UNL A   1      30.948  25.824  26.401  1.00  0.00    -0.324 N 
ATOM     22  H   UNL A   1      30.701  26.202  27.276  1.00  0.00     0.170 HD
BRANCH  21  23
ATOM     23  C   UNL A   1      30.634  26.582  25.255  1.00  0.00     0.041 A 
ATOM     24  C   UNL A   1      29.574  26.274  24.411  1.00  0.00     0.027 A 
ATOM     25  C   UNL A   1      31.375  27.752  25.036  1.00  0.00     0.027 A 
ATOM     26  C   UNL A   1      29.143  27.222  23.473  1.00  0.00     0.015 A 
ATOM     27  C   UNL A   1      30.893  28.732  24.167  1.00  0.00     0.015 A 
ATOM     28  C   UNL A   1      29.734  28.497  23.417  1.00  0.00     0.056 A 
BRANCH  28  29
ATOM     29  C   UNL A   1      29.080  29.636  22.671  1.00  0.00     0.416 C 
ATOM     30  F   UNL A   1      29.828  30.095  21.631  1.00  0.00    -0.166 F 
ATOM     31  F   UNL A   1      27.864  29.310  22.145  1.00  0.00    -0.166 F 
ATOM     32  F   UNL A   1      28.857  30.716  23.474  1.00  0.00    -0.166 F 
ENDBRANCH  28  29
ENDBRANCH  21  23
ENDBRANCH  17  19
ENDBRANCH   7  17
ENDBRANCH   4   6
ENDBRANCH   3   4
ENDBRANCH   2   3
ENDBRANCH   1   2
BRANCH   1  33
ATOM     33  O   UNL A   1      40.829  20.819  26.045  1.00  0.00    -0.374 OA
BRANCH  33  34
ATOM     34  C   UNL A   1      42.103  21.173  26.565  1.00  0.00     0.202 C 
BRANCH  34  35
ATOM     35  C   UNL A   1      43.173  21.746  25.624  1.00  0.00     0.261 C 
BRANCH  35  36
ATOM     36  O   UNL A   1      42.729  22.863  24.836  1.00  0.00    -0.460 OA
BRANCH  36  37
ATOM     37  C   UNL A   1      43.459  23.991  25.001  1.00  0.00     0.338 C 
ATOM     38  O   UNL A   1      44.554  24.241  24.510  1.00  0.00    -0.246 OA
BRANCH  37  39
ATOM     39  C   UNL A   1      42.706  25.017  25.740  1.00  0.00     0.060 A 
ATOM     40  C   UNL A   1      43.374  26.210  26.042  1.00  0.00     0.016 A 
ATOM     41  C   UNL A   1      41.453  24.746  26.293  1.00  0.00     0.016 A 
ATOM     42  C   UNL A   1      42.821  27.113  26.944  1.00  0.00     0.010 A 
ATOM     43  C   UNL A   1      40.906  25.645  27.218  1.00  0.00     0.010 A 
ATOM     44  C   UNL A   1      41.612  26.806  27.582  1.00  0.00    -0.014 A 
BRANCH  44  45
ATOM     45  C   UNL A   1      41.218  27.607  28.766  1.00  0.00     0.031 A 
ATOM     46  C   UNL A   1      42.059  27.519  30.011  1.00  0.00     0.074 A 
ATOM     47  C   UNL A   1      40.186  28.465  28.708  1.00  0.00     0.049 A 
ATOM     48  N   UNL A   1      41.941  28.167  31.142  1.00  0.00    -0.248 NA
ATOM     49  C   UNL A   1      43.195  26.583  29.970  1.00  0.00     0.031 C 
ATOM     50  C   UNL A   1      39.335  28.684  27.540  1.00  0.00     0.029 A 
ATOM     51  N   UNL A   1      39.689  29.325  29.656  1.00  0.00    -0.354 N 
ATOM     52  C   UNL A   1      42.989  27.727  31.940  1.00  0.00     0.074 A 
ATOM     53  C   UNL A   1      43.718  26.737  31.177  1.00  0.00     0.031 C 
ATOM     54  C   UNL A   1      38.417  29.618  27.842  1.00  0.00     0.029 A 
ATOM     55  C   UNL A   1      38.604  30.047  29.228  1.00  0.00     0.049 A 
ATOM     56  H   UNL A   1      40.075  29.413  30.557  1.00  0.00     0.167 HD
ATOM     57  C   UNL A   1      43.322  28.120  33.192  1.00  0.00     0.037 A 
ATOM     58  C   UNL A   1      37.845  30.944  29.887  1.00  0.00     0.037 A 
ATOM     59  C   UNL A   1      42.594  29.095  33.959  1.00  0.00     0.049 A 
ATOM     60  C   UNL A   1      38.183  31.297  31.312  1.00  0.00     0.074 A 
ATOM     61  C   UNL A   1      42.849  29.554  35.239  1.00  0.00     0.029 A 
ATOM     62  N   UNL A   1      41.460  29.757  33.513  1.00  0.00    -0.354 N 
ATOM     63  N   UNL A   1      39.181  30.884  32.053  1.00  0.00    -0.248 NA
ATOM     64  C   UNL A   1      37.284  32.243  31.990  1.00  0.00     0.031 C 
ATOM     65  C   UNL A   1      41.846  30.467  35.583  1.00  0.00     0.029 A 
ATOM     66  C   UNL A   1      40.989  30.604  34.501  1.00  0.00     0.049 A 
ATOM     67  H   UNL A   1      41.051  29.642  32.625  1.00  0.00     0.167 HD
ATOM     68  C   UNL A   1      39.046  31.534  33.273  1.00  0.00     0.074 A 
ATOM     69  C   UNL A   1      37.874  32.377  33.170  1.00  0.00     0.031 C 
ATOM     70  C   UNL A   1      39.824  31.441  34.380  1.00  0.00     0.037 A 
BRANCH  57  71
ATOM     71  C   UNL A   1      44.519  27.476  33.820  1.00  0.00     0.064 A 
ATOM     72  C   UNL A   1      45.784  28.081  33.776  1.00  0.00     0.173 A 
ATOM     73  C   UNL A   1      44.396  26.256  34.500  1.00  0.00     0.173 A 
ATOM     74  F   UNL A   1      45.955  29.241  33.125  1.00  0.00    -0.203 F 
ATOM     75  C   UNL A   1      46.886  27.478  34.377  1.00  0.00     0.198 A 
ATOM     76  C   UNL A   1      45.495  25.665  35.116  1.00  0.00     0.198 A 
ATOM     77  F   UNL A   1      43.207  25.638  34.569  1.00  0.00    -0.203 F 
ATOM     78  F   UNL A   1      48.092  28.056  34.295  1.00  0.00    -0.200 F 
ATOM     79  C   UNL A   1      46.740  26.275  35.051  1.00  0.00     0.200 A 
ATOM     80  F   UNL A   1      45.352  24.506  35.773  1.00  0.00    -0.200 F 
ATOM     81  F   UNL A   1      47.801  25.697  35.632  1.00  0.00    -0.200 F 
ENDBRANCH  57  71
BRANCH  58  82
ATOM     82  C   UNL A   1      36.682  31.568  29.208  1.00  0.00     0.064 A 
ATOM     83  C   UNL A   1      36.684  32.928  28.871  1.00  0.00     0.173 A 
ATOM     84  C   UNL A   1      35.538  30.817  28.896  1.00  0.00     0.173 A 
ATOM     85  F   UNL A   1      37.744  33.690  29.174  1.00  0.00    -0.203 F 
ATOM     86  C   UNL A   1      35.582  33.517  28.257  1.00  0.00     0.198 A 
ATOM     87  C   UNL A   1      34.446  31.403  28.261  1.00  0.00     0.198 A 
ATOM     88  F   UNL A   1      35.487  29.514  29.203  1.00  0.00    -0.203 F 
ATOM     89  F   UNL A   1      35.594  34.828  27.977  1.00  0.00    -0.200 F 
ATOM     90  C   UNL A   1      34.466  32.753  27.947  1.00  0.00     0.200 A 
ATOM     91  F   UNL A   1      33.373  30.659  27.956  1.00  0.00    -0.200 F 
ATOM     92  F   UNL A   1      33.407  33.321  27.353  1.00  0.00    -0.200 F 
ENDBRANCH  58  82
BRANCH  70  93
ATOM     93  C   UNL A   1      39.449  32.287  35.559  1.00  0.00     0.064 A 
ATOM     94  C   UNL A   1      38.524  31.842  36.513  1.00  0.00     0.173 A 
ATOM     95  C   UNL A   1      40.059  33.534  35.761  1.00  0.00     0.173 A 
ATOM     96  F   UNL A   1      37.904  30.663  36.354  1.00  0.00    -0.203 F 
ATOM     97  C   UNL A   1      38.208  32.625  37.621  1.00  0.00     0.198 A 
ATOM     98  C   UNL A   1      39.757  34.304  36.881  1.00  0.00     0.198 A 
ATOM     99  F   UNL A   1      40.955  34.000  34.879  1.00  0.00    -0.203 F 
ATOM    100  F   UNL A   1      37.295  32.197  38.503  1.00  0.00    -0.200 F 
ATOM    101  C   UNL A   1      38.830  33.851  37.807  1.00  0.00     0.200 A 
ATOM    102  F   UNL A   1      40.366  35.483  37.066  1.00  0.00    -0.200 F 
ATOM    103  F   UNL A   1      38.530  34.600  38.877  1.00  0.00    -0.200 F 
ENDBRANCH  70  93
ENDBRANCH  44  45
ENDBRANCH  37  39
ENDBRANCH  36  37
ENDBRANCH  35  36
ENDBRANCH  34  35
ENDBRANCH  33  34
ENDBRANCH   1  33
TORSDOF 18
ENDMDL
MODEL 2
REMARK VINA RESULT:     -13.5      0.649      6.988
REMARK SMILES C[C@H](C(=O)Nc1ccc(C(F)(F)F)cc1)n1nc(C(=O)OCCOCCOC(=O)c2ccc(-c3c4nc(c(-c5c(F)c(F)c(F)c(F)c5F)c5ccc([nH]5)c(-c5c(F)c(F)c(F)c(F)c5F)c5nc(c(-c6c(F)c(F)c(F)c(F)c6F)c6ccc3[nH]6)C=C5)C=C4)cc2)c2ccccc2c1=O
REMARK SMILES IDX 23 1 22 2 21 3 19 4 20 5 18 6 16 7 17 8 99 9 98 10 100 11
REMARK SMILES IDX 93 12 97 13 94 14 96 15 95 16 2 17 1 18 3 19 4 20 5 21 6 23
REMARK SMILES IDX 7 24 15 25 8 26 14 27 9 28 10 29 11 30 12 31 13 32 24 33
REMARK SMILES IDX 25 34 26 35 27 36 28 37 29 38 30 39 31 40 92 41 32 42 91 43
REMARK SMILES IDX 33 44 34 45 35 46 85 47 36 48 90 49 84 50 86 51 37 52 89 53
REMARK SMILES IDX 83 54 82 55 38 57 70 58 50 59 69 60 51 61 54 62 68 63 87 64
REMARK SMILES IDX 52 65 53 66 67 68 88 69 55 70 39 71 40 72 48 73 41 74 42 75
REMARK SMILES IDX 46 76 49 77 43 78 44 79 47 80 45 81 71 82 72 83 80 84 73 85
REMARK SMILES IDX 74 86 78 87 81 88 75 89 76 90 79 91 77 92 56 93 57 94 65 95
REMARK SMILES IDX 58 96 59 97 63 98 66 99 60 100 61 101 64 102 62 103
REMARK H PARENT 5 22 86 56 54 67
REMARK Flexibility Score: inf
ROOT
ATOM      1  C   UNL A   1      39.882  21.396  26.175  1.00  0.00     0.202 C 
ENDROOT
BRANCH   1   2
ATOM      2  C   UNL A   1      38.627  21.046  25.374  1.00  0.00     0.261 C 
BRANCH   2   3
ATOM      3  O   UNL A   1      37.473  21.783  25.798  1.00  0.00    -0.458 OA
BRANCH   3   4
ATOM      4  C   UNL A   1      36.511  21.851  24.870  1.00  0.00     0.359 C 
ATOM      5  O   UNL A   1      36.648  22.109  23.684  1.00  0.00    -0.244 OA
BRANCH   4   6
ATOM      6  C   UNL A   1      35.109  21.724  25.434  1.00  0.00     0.176 A 
ATOM      7  N   UNL A   1      33.280  23.087  25.269  1.00  0.00    -0.216 N 
ATOM      8  N   UNL A   1      34.552  22.842  25.807  1.00  0.00    -0.161 NA
ATOM      9  C   UNL A   1      32.821  22.256  24.251  1.00  0.00     0.275 A 
ATOM     10  C   UNL A   1      33.212  20.853  24.313  1.00  0.00     0.051 A 
ATOM     11  O   UNL A   1      32.135  22.572  23.299  1.00  0.00    -0.267 OA
ATOM     12  C   UNL A   1      34.361  20.535  25.001  1.00  0.00     0.022 A 
ATOM     13  C   UNL A   1      32.528  19.900  23.558  1.00  0.00     0.014 A 
ATOM     14  C   UNL A   1      34.829  19.219  25.000  1.00  0.00     0.011 A 
ATOM     15  C   UNL A   1      33.001  18.597  23.518  1.00  0.00     0.001 A 
ATOM     16  C   UNL A   1      34.140  18.252  24.251  1.00  0.00     0.001 A 
BRANCH   7  17
ATOM     17  C   UNL A   1      32.859  24.510  25.346  1.00  0.00     0.197 C 
ATOM     18  C   UNL A   1      34.119  25.354  25.653  1.00  0.00     0.044 C 
BRANCH  17  19
ATOM     19  C   UNL A   1      31.804  24.924  26.415  1.00  0.00     0.249 C 
ATOM     20  O   UNL A   1      31.390  24.107  27.251  1.00  0.00    -0.272 OA
ATOM     21  N   UNL A   1      31.273  26.201  26.498  1.00  0.00    -0.324 N 
ATOM     22  H   UNL A   1      31.131  26.574  27.398  1.00  0.00     0.170 HD
BRANCH  21  23
ATOM     23  C   UNL A   1      30.919  27.010  25.398  1.00  0.00     0.041 A 
ATOM     24  C   UNL A   1      29.998  26.616  24.435  1.00  0.00     0.027 A 
ATOM     25  C   UNL A   1      31.457  28.304  25.353  1.00  0.00     0.027 A 
ATOM     26  C   UNL A   1      29.480  27.569  23.548  1.00  0.00     0.015 A 
ATOM     27  C   UNL A   1      30.878  29.273  24.532  1.00  0.00     0.015 A 
ATOM     28  C   UNL A   1      29.840  28.924  23.660  1.00  0.00     0.056 A 
BRANCH  28  29
ATOM     29  C   UNL A   1      29.054  30.007  22.958  1.00  0.00     0.416 C 
ATOM     30  F   UNL A   1      29.329  31.256  23.423  1.00  0.00    -0.166 F 
ATOM     31  F   UNL A   1      29.275  30.051  21.613  1.00  0.00    -0.166 F 
ATOM     32  F   UNL A   1      27.708  29.843  23.106  1.00  0.00    -0.166 F 
ENDBRANCH  28  29
ENDBRANCH  21  23
ENDBRANCH  17  19
ENDBRANCH   7  17
ENDBRANCH   4   6
ENDBRANCH   3   4
ENDBRANCH   2   3
ENDBRANCH   1   2
BRANCH   1  33
ATOM     33  O   UNL A   1      41.127  20.825  25.787  1.00  0.00    -0.374 OA
BRANCH  33  34
ATOM     34  C   UNL A   1      42.343  21.339  26.313  1.00  0.00     0.202 C 
BRANCH  34  35
ATOM     35  C   UNL A   1      43.277  22.153  25.406  1.00  0.00     0.261 C 
BRANCH  35  36
ATOM     36  O   UNL A   1      42.687  23.351  24.874  1.00  0.00    -0.460 OA
BRANCH  36  37
ATOM     37  C   UNL A   1      43.401  24.478  25.104  1.00  0.00     0.338 C 
ATOM     38  O   UNL A   1      44.489  24.774  24.625  1.00  0.00    -0.246 OA
BRANCH  37  39
ATOM     39  C   UNL A   1      42.636  25.445  25.909  1.00  0.00     0.060 A 
ATOM     40  C   UNL A   1      43.218  26.701  26.126  1.00  0.00     0.016 A 
ATOM     41  C   UNL A   1      41.479  25.071  26.594  1.00  0.00     0.016 A 
ATOM     42  C   UNL A   1      42.680  27.567  27.071  1.00  0.00     0.010 A 
ATOM     43  C   UNL A   1      40.950  25.935  27.563  1.00  0.00     0.010 A 
ATOM     44  C   UNL A   1      41.579  27.163  27.837  1.00  0.00    -0.014 A 
BRANCH  44  45
ATOM     45  C   UNL A   1      41.237  27.949  29.048  1.00  0.00     0.031 A 
ATOM     46  C   UNL A   1      40.020  28.833  29.017  1.00  0.00     0.074 A 
ATOM     47  C   UNL A   1      41.942  27.810  30.183  1.00  0.00     0.049 A 
ATOM     48  N   UNL A   1      39.497  29.563  29.969  1.00  0.00    -0.248 NA
ATOM     49  C   UNL A   1      39.284  28.890  27.742  1.00  0.00     0.031 C 
ATOM     50  C   UNL A   1      43.103  26.940  30.355  1.00  0.00     0.029 A 
ATOM     51  N   UNL A   1      41.771  28.395  31.413  1.00  0.00    -0.354 N 
ATOM     52  C   UNL A   1      38.370  30.155  29.415  1.00  0.00     0.074 A 
ATOM     53  C   UNL A   1      38.297  29.724  28.035  1.00  0.00     0.031 C 
ATOM     54  C   UNL A   1      43.543  27.050  31.621  1.00  0.00     0.029 A 
ATOM     55  C   UNL A   1      42.707  28.011  32.339  1.00  0.00     0.049 A 
ATOM     56  H   UNL A   1      41.045  29.031  31.611  1.00  0.00     0.167 HD
ATOM     57  C   UNL A   1      37.470  30.977  30.004  1.00  0.00     0.037 A 
ATOM     58  C   UNL A   1      42.873  28.401  33.618  1.00  0.00     0.037 A 
ATOM     59  C   UNL A   1      37.544  31.418  31.370  1.00  0.00     0.049 A 
ATOM     60  C   UNL A   1      41.909  29.387  34.224  1.00  0.00     0.074 A 
ATOM     61  C   UNL A   1      36.684  32.257  32.057  1.00  0.00     0.029 A 
ATOM     62  N   UNL A   1      38.546  31.058  32.258  1.00  0.00    -0.354 N 
ATOM     63  N   UNL A   1      40.841  29.933  33.695  1.00  0.00    -0.248 NA
ATOM     64  C   UNL A   1      42.176  29.811  35.607  1.00  0.00     0.031 C 
ATOM     65  C   UNL A   1      37.187  32.434  33.350  1.00  0.00     0.029 A 
ATOM     66  C   UNL A   1      38.339  31.675  33.480  1.00  0.00     0.049 A 
ATOM     67  H   UNL A   1      39.294  30.452  32.051  1.00  0.00     0.167 HD
ATOM     68  C   UNL A   1      40.297  30.744  34.683  1.00  0.00     0.074 A 
ATOM     69  C   UNL A   1      41.147  30.612  35.848  1.00  0.00     0.031 C 
ATOM     70  C   UNL A   1      39.192  31.528  34.630  1.00  0.00     0.037 A 
BRANCH  57  71
ATOM     71  C   UNL A   1      36.334  31.471  29.161  1.00  0.00     0.064 A 
ATOM     72  C   UNL A   1      35.285  30.623  28.778  1.00  0.00     0.173 A 
ATOM     73  C   UNL A   1      36.277  32.812  28.758  1.00  0.00     0.173 A 
ATOM     74  F   UNL A   1      35.301  29.328  29.127  1.00  0.00    -0.203 F 
ATOM     75  C   UNL A   1      34.227  31.098  28.008  1.00  0.00     0.198 A 
ATOM     76  C   UNL A   1      35.209  33.289  28.004  1.00  0.00     0.198 A 
ATOM     77  F   UNL A   1      37.258  33.662  29.100  1.00  0.00    -0.203 F 
ATOM     78  F   UNL A   1      33.250  30.264  27.624  1.00  0.00    -0.200 F 
ATOM     79  C   UNL A   1      34.187  32.431  27.626  1.00  0.00     0.200 A 
ATOM     80  F   UNL A   1      35.168  34.579  27.642  1.00  0.00    -0.200 F 
ATOM     81  F   UNL A   1      33.166  32.888  26.887  1.00  0.00    -0.200 F 
ENDBRANCH  57  71
BRANCH  58  82
ATOM     82  C   UNL A   1      44.004  27.863  34.414  1.00  0.00     0.064 A 
ATOM     83  C   UNL A   1      43.892  26.648  35.102  1.00  0.00     0.173 A 
ATOM     84  C   UNL A   1      45.216  28.562  34.512  1.00  0.00     0.173 A 
ATOM     85  F   UNL A   1      42.744  25.958  35.059  1.00  0.00    -0.203 F 
ATOM     86  C   UNL A   1      44.947  26.157  35.869  1.00  0.00     0.198 A 
ATOM     87  C   UNL A   1      46.277  28.059  35.261  1.00  0.00     0.198 A 
ATOM     88  F   UNL A   1      45.370  29.733  33.876  1.00  0.00    -0.203 F 
ATOM     89  F   UNL A   1      44.802  25.010  36.547  1.00  0.00    -0.200 F 
ATOM     90  C   UNL A   1      46.141  26.861  35.943  1.00  0.00     0.200 A 
ATOM     91  F   UNL A   1      47.432  28.738  35.323  1.00  0.00    -0.200 F 
ATOM     92  F   UNL A   1      47.155  26.386  36.679  1.00  0.00    -0.200 F 
ENDBRANCH  58  82
BRANCH  70  93
ATOM     93  C   UNL A   1      38.824  32.284  35.871  1.00  0.00     0.064 A 
ATOM     94  C   UNL A   1      38.152  31.664  36.933  1.00  0.00     0.173 A 
ATOM     95  C   UNL A   1      39.190  33.630  36.017  1.00  0.00     0.173 A 
ATOM     96  F   UNL A   1      37.769  30.382  36.833  1.00  0.00    -0.203 F 
ATOM     97  C   UNL A   1      37.845  32.370  38.093  1.00  0.00     0.198 A 
ATOM     98  C   UNL A   1      38.900  34.327  37.187  1.00  0.00     0.198 A 
ATOM     99  F   UNL A   1      39.839  34.266  35.030  1.00  0.00    -0.203 F 
ATOM    100  F   UNL A   1      37.171  31.768  39.083  1.00  0.00    -0.200 F 
ATOM    101  C   UNL A   1      38.224  33.698  38.221  1.00  0.00     0.200 A 
ATOM    102  F   UNL A   1      39.277  35.607  37.314  1.00  0.00    -0.200 F 
ATOM    103  F   UNL A   1      37.933  34.374  39.341  1.00  0.00    -0.200 F 
ENDBRANCH  70  93
ENDBRANCH  44  45
ENDBRANCH  37  39
ENDBRANCH  36  37
ENDBRANCH  35  36
ENDBRANCH  34  35
ENDBRANCH  33  34
ENDBRANCH   1  33
TORSDOF 18
ENDMDL
MODEL 3
REMARK VINA RESULT:     -13.4      3.410      8.186
REMARK SMILES C[C@H](C(=O)Nc1ccc(C(F)(F)F)cc1)n1nc(C(=O)OCCOCCOC(=O)c2ccc(-c3c4nc(c(-c5c(F)c(F)c(F)c(F)c5F)c5ccc([nH]5)c(-c5c(F)c(F)c(F)c(F)c5F)c5nc(c(-c6c(F)c(F)c(F)c(F)c6F)c6ccc3[nH]6)C=C5)C=C4)cc2)c2ccccc2c1=O
REMARK SMILES IDX 23 1 22 2 21 3 19 4 20 5 18 6 16 7 17 8 99 9 98 10 100 11
REMARK SMILES IDX 93 12 97 13 94 14 96 15 95 16 2 17 1 18 3 19 4 20 5 21 6 23
REMARK SMILES IDX 7 24 15 25 8 26 14 27 9 28 10 29 11 30 12 31 13 32 24 33
REMARK SMILES IDX 25 34 26 35 27 36 28 37 29 38 30 39 31 40 92 41 32 42 91 43
REMARK SMILES IDX 33 44 34 45 35 46 85 47 36 48 90 49 84 50 86 51 37 52 89 53
REMARK SMILES IDX 83 54 82 55 38 57 70 58 50 59 69 60 51 61 54 62 68 63 87 64
REMARK SMILES IDX 52 65 53 66 67 68 88 69 55 70 39 71 40 72 48 73 41 74 42 75
REMARK SMILES IDX 46 76 49 77 43 78 44 79 47 80 45 81 71 82 72 83 80 84 73 85
REMARK SMILES IDX 74 86 78 87 81 88 75 89 76 90 79 91 77 92 56 93 57 94 65 95
REMARK SMILES IDX 58 96 59 97 63 98 66 99 60 100 61 101 64 102 62 103
REMARK H PARENT 5 22 86 56 54 67
REMARK Flexibility Score: inf
ROOT
ATOM      1  C   UNL A   1      33.585  28.445  23.360  1.00  0.00     0.202 C 
ENDROOT
BRANCH   1   2
ATOM      2  C   UNL A   1      33.616  28.094  21.871  1.00  0.00     0.261 C 
BRANCH   2   3
ATOM      3  O   UNL A   1      33.997  26.733  21.629  1.00  0.00    -0.458 OA
BRANCH   3   4
ATOM      4  C   UNL A   1      32.961  25.887  21.593  1.00  0.00     0.359 C 
ATOM      5  O   UNL A   1      31.972  25.962  20.879  1.00  0.00    -0.244 OA
BRANCH   4   6
ATOM      6  C   UNL A   1      33.007  24.821  22.670  1.00  0.00     0.176 A 
ATOM      7  N   UNL A   1      34.660  24.210  24.127  1.00  0.00    -0.216 N 
ATOM      8  N   UNL A   1      34.155  24.223  22.819  1.00  0.00    -0.161 NA
ATOM      9  C   UNL A   1      34.025  24.992  25.089  1.00  0.00     0.275 A 
ATOM     10  C   UNL A   1      32.579  25.133  24.979  1.00  0.00     0.051 A 
ATOM     11  O   UNL A   1      34.547  25.587  26.012  1.00  0.00    -0.267 OA
ATOM     12  C   UNL A   1      32.007  24.963  23.739  1.00  0.00     0.022 A 
ATOM     13  C   UNL A   1      31.835  25.588  26.068  1.00  0.00     0.014 A 
ATOM     14  C   UNL A   1      30.640  25.190  23.568  1.00  0.00     0.011 A 
ATOM     15  C   UNL A   1      30.483  25.853  25.904  1.00  0.00     0.001 A 
ATOM     16  C   UNL A   1      29.882  25.638  24.661  1.00  0.00     0.001 A 
BRANCH   7  17
ATOM     17  C   UNL A   1      36.117  23.928  24.208  1.00  0.00     0.197 C 
ATOM     18  C   UNL A   1      36.430  22.799  23.197  1.00  0.00     0.044 C 
BRANCH  17  19
ATOM     19  C   UNL A   1      36.716  23.456  25.566  1.00  0.00     0.249 C 
ATOM     20  O   UNL A   1      37.851  23.809  25.918  1.00  0.00    -0.272 OA
ATOM     21  N   UNL A   1      36.036  22.628  26.445  1.00  0.00    -0.324 N 
ATOM     22  H   UNL A   1      36.123  22.821  27.406  1.00  0.00     0.170 HD
BRANCH  21  23
ATOM     23  C   UNL A   1      35.229  21.532  26.075  1.00  0.00     0.041 A 
ATOM     24  C   UNL A   1      33.855  21.501  26.278  1.00  0.00     0.027 A 
ATOM     25  C   UNL A   1      35.850  20.484  25.381  1.00  0.00     0.027 A 
ATOM     26  C   UNL A   1      33.086  20.526  25.630  1.00  0.00     0.015 A 
ATOM     27  C   UNL A   1      35.079  19.568  24.664  1.00  0.00     0.015 A 
ATOM     28  C   UNL A   1      33.682  19.617  24.737  1.00  0.00     0.056 A 
BRANCH  28  29
ATOM     29  C   UNL A   1      32.851  18.796  23.780  1.00  0.00     0.416 C 
ATOM     30  F   UNL A   1      31.848  18.109  24.393  1.00  0.00    -0.166 F 
ATOM     31  F   UNL A   1      32.255  19.539  22.804  1.00  0.00    -0.166 F 
ATOM     32  F   UNL A   1      33.596  17.859  23.125  1.00  0.00    -0.166 F 
ENDBRANCH  28  29
ENDBRANCH  21  23
ENDBRANCH  17  19
ENDBRANCH   7  17
ENDBRANCH   4   6
ENDBRANCH   3   4
ENDBRANCH   2   3
ENDBRANCH   1   2
BRANCH   1  33
ATOM     33  O   UNL A   1      32.384  28.965  23.919  1.00  0.00    -0.374 OA
BRANCH  33  34
ATOM     34  C   UNL A   1      32.251  29.096  25.328  1.00  0.00     0.202 C 
BRANCH  34  35
ATOM     35  C   UNL A   1      31.919  30.468  25.934  1.00  0.00     0.261 C 
BRANCH  35  36
ATOM     36  O   UNL A   1      32.422  30.661  27.267  1.00  0.00    -0.460 OA
BRANCH  36  37
ATOM     37  C   UNL A   1      33.234  31.735  27.409  1.00  0.00     0.338 C 
ATOM     38  O   UNL A   1      32.905  32.916  27.406  1.00  0.00    -0.246 OA
BRANCH  37  39
ATOM     39  C   UNL A   1      34.608  31.331  27.746  1.00  0.00     0.060 A 
ATOM     40  C   UNL A   1      34.829  29.974  28.016  1.00  0.00     0.016 A 
ATOM     41  C   UNL A   1      35.610  32.274  27.984  1.00  0.00     0.016 A 
ATOM     42  C   UNL A   1      36.031  29.560  28.580  1.00  0.00     0.010 A 
ATOM     43  C   UNL A   1      36.812  31.859  28.573  1.00  0.00     0.010 A 
ATOM     44  C   UNL A   1      37.005  30.509  28.916  1.00  0.00    -0.014 A 
BRANCH  44  45
ATOM     45  C   UNL A   1      38.115  30.093  29.807  1.00  0.00     0.031 A 
ATOM     46  C   UNL A   1      39.153  29.142  29.273  1.00  0.00     0.074 A 
ATOM     47  C   UNL A   1      38.251  30.620  31.035  1.00  0.00     0.049 A 
ATOM     48  N   UNL A   1      40.237  28.686  29.847  1.00  0.00    -0.248 NA
ATOM     49  C   UNL A   1      38.945  28.648  27.902  1.00  0.00     0.031 C 
ATOM     50  C   UNL A   1      37.346  31.594  31.640  1.00  0.00     0.029 A 
ATOM     51  N   UNL A   1      39.215  30.414  31.990  1.00  0.00    -0.354 N 
ATOM     52  C   UNL A   1      40.846  27.866  28.907  1.00  0.00     0.074 A 
ATOM     53  C   UNL A   1      39.998  27.861  27.734  1.00  0.00     0.031 C 
ATOM     54  C   UNL A   1      37.798  31.902  32.868  1.00  0.00     0.029 A 
ATOM     55  C   UNL A   1      39.011  31.132  33.141  1.00  0.00     0.049 A 
ATOM     56  H   UNL A   1      39.981  29.809  31.860  1.00  0.00     0.167 HD
ATOM     57  C   UNL A   1      42.012  27.185  29.007  1.00  0.00     0.037 A 
ATOM     58  C   UNL A   1      39.720  31.154  34.286  1.00  0.00     0.037 A 
ATOM     59  C   UNL A   1      42.852  27.177  30.173  1.00  0.00     0.049 A 
ATOM     60  C   UNL A   1      40.966  30.316  34.404  1.00  0.00     0.074 A 
ATOM     61  C   UNL A   1      44.048  26.512  30.373  1.00  0.00     0.029 A 
ATOM     62  N   UNL A   1      42.575  27.866  31.343  1.00  0.00    -0.354 N 
ATOM     63  N   UNL A   1      41.538  29.552  33.506  1.00  0.00    -0.248 NA
ATOM     64  C   UNL A   1      41.664  30.346  35.698  1.00  0.00     0.031 C 
ATOM     65  C   UNL A   1      44.478  26.768  31.679  1.00  0.00     0.029 A 
ATOM     66  C   UNL A   1      43.568  27.625  32.279  1.00  0.00     0.049 A 
ATOM     67  H   UNL A   1      41.791  28.442  31.489  1.00  0.00     0.167 HD
ATOM     68  C   UNL A   1      42.671  29.029  34.115  1.00  0.00     0.074 A 
ATOM     69  C   UNL A   1      42.713  29.571  35.457  1.00  0.00     0.031 C 
ATOM     70  C   UNL A   1      43.595  28.177  33.608  1.00  0.00     0.037 A 
BRANCH  57  71
ATOM     71  C   UNL A   1      42.437  26.371  27.822  1.00  0.00     0.064 A 
ATOM     72  C   UNL A   1      43.350  26.869  26.882  1.00  0.00     0.173 A 
ATOM     73  C   UNL A   1      41.949  25.069  27.642  1.00  0.00     0.173 A 
ATOM     74  F   UNL A   1      43.833  28.114  27.004  1.00  0.00    -0.203 F 
ATOM     75  C   UNL A   1      43.748  26.097  25.794  1.00  0.00     0.198 A 
ATOM     76  C   UNL A   1      42.363  24.292  26.563  1.00  0.00     0.198 A 
ATOM     77  F   UNL A   1      41.072  24.549  28.514  1.00  0.00    -0.203 F 
ATOM     78  F   UNL A   1      44.597  26.603  24.889  1.00  0.00    -0.200 F 
ATOM     79  C   UNL A   1      43.260  24.808  25.639  1.00  0.00     0.200 A 
ATOM     80  F   UNL A   1      41.895  23.045  26.418  1.00  0.00    -0.200 F 
ATOM     81  F   UNL A   1      43.647  24.064  24.593  1.00  0.00    -0.200 F 
ENDBRANCH  57  71
BRANCH  58  82
ATOM     82  C   UNL A   1      39.264  31.996  35.421  1.00  0.00     0.064 A 
ATOM     83  C   UNL A   1      39.629  33.346  35.514  1.00  0.00     0.173 A 
ATOM     84  C   UNL A   1      38.465  31.462  36.442  1.00  0.00     0.173 A 
ATOM     85  F   UNL A   1      40.414  33.893  34.575  1.00  0.00    -0.203 F 
ATOM     86  C   UNL A   1      39.221  34.127  36.593  1.00  0.00     0.198 A 
ATOM     87  C   UNL A   1      38.039  32.250  37.508  1.00  0.00     0.198 A 
ATOM     88  F   UNL A   1      38.094  30.174  36.400  1.00  0.00    -0.203 F 
ATOM     89  F   UNL A   1      39.613  35.406  36.677  1.00  0.00    -0.200 F 
ATOM     90  C   UNL A   1      38.421  33.580  37.586  1.00  0.00     0.200 A 
ATOM     91  F   UNL A   1      37.260  31.720  38.461  1.00  0.00    -0.200 F 
ATOM     92  F   UNL A   1      38.027  34.334  38.621  1.00  0.00    -0.200 F 
ENDBRANCH  58  82
BRANCH  70  93
ATOM     93  C   UNL A   1      44.741  27.795  34.496  1.00  0.00     0.064 A 
ATOM     94  C   UNL A   1      45.910  28.567  34.554  1.00  0.00     0.173 A 
ATOM     95  C   UNL A   1      44.649  26.673  35.332  1.00  0.00     0.173 A 
ATOM     96  F   UNL A   1      46.049  29.640  33.762  1.00  0.00    -0.203 F 
ATOM     97  C   UNL A   1      46.954  28.219  35.407  1.00  0.00     0.198 A 
ATOM     98  C   UNL A   1      45.686  26.340  36.200  1.00  0.00     0.198 A 
ATOM     99  F   UNL A   1      43.549  25.906  35.317  1.00  0.00    -0.203 F 
ATOM    100  F   UNL A   1      48.077  28.950  35.422  1.00  0.00    -0.200 F 
ATOM    101  C   UNL A   1      46.838  27.110  36.233  1.00  0.00     0.200 A 
ATOM    102  F   UNL A   1      45.569  25.275  37.005  1.00  0.00    -0.200 F 
ATOM    103  F   UNL A   1      47.842  26.780  37.058  1.00  0.00    -0.200 F 
ENDBRANCH  70  93
ENDBRANCH  44  45
ENDBRANCH  37  39
ENDBRANCH  36  37
ENDBRANCH  35  36
ENDBRANCH  34  35
ENDBRANCH  33  34
ENDBRANCH   1  33
TORSDOF 18
ENDMDL
