MODEL 1
REMARK VINA RESULT:     -12.3      0.000      0.000
REMARK SMILES CC[C@H](C)[C@H](NC(=O)[C@H](C)Oc1ccc2c(C)c(C)c(=O)oc2c1C)C(=O)OCCOCCOC(=O)c1ccc(-c2c3nc(c(-c4c(F)c(F)c(F)c(F)c4F)c4ccc([nH]4)c(-c4c(F)c(F)c(F)c(F)c4F)c4nc(c(-c5c(F)c(F)c(F)c(F)c5F)c5ccc2[nH]5)C=C4)C=C3)cc1
REMARK SMILES IDX 30 1 29 2 28 3 26 4 27 5 5 6 3 7 4 8 2 9 1 10 6 11 7 12 8 14
REMARK SMILES IDX 9 15 10 16 11 17 12 18 13 19 24 20 14 21 23 22 25 23 15 24
REMARK SMILES IDX 22 25 16 26 20 27 17 28 18 29 21 30 19 31 31 32 32 33 33 34
REMARK SMILES IDX 34 35 35 36 36 37 37 38 38 39 99 40 39 41 98 42 40 43 41 44
REMARK SMILES IDX 42 45 92 46 43 47 97 48 91 49 93 50 44 51 96 52 90 53 89 54
REMARK SMILES IDX 45 56 77 57 57 58 76 59 58 60 61 61 75 62 94 63 59 64 60 65
REMARK SMILES IDX 74 67 95 68 62 69 46 70 47 71 55 72 48 73 49 74 53 75 56 76
REMARK SMILES IDX 50 77 51 78 54 79 52 80 78 81 79 82 87 83 80 84 81 85 85 86
REMARK SMILES IDX 88 87 82 88 83 89 86 90 84 91 63 92 64 93 72 94 65 95 66 96
REMARK SMILES IDX 70 97 73 98 67 99 68 100 71 101 69 102
REMARK H PARENT 6 13 93 55 61 66
REMARK Flexibility Score: inf
ROOT
ATOM      1  C   UNL A   1      40.690  21.257  26.882  1.00  0.00     0.202 C 
ENDROOT
BRANCH   1   2
ATOM      2  C   UNL A   1      39.690  21.502  25.742  1.00  0.00     0.261 C 
BRANCH   2   3
ATOM      3  O   UNL A   1      38.321  21.687  26.128  1.00  0.00    -0.462 OA
BRANCH   3   4
ATOM      4  C   UNL A   1      37.469  20.961  25.353  1.00  0.00     0.328 C 
ATOM      5  O   UNL A   1      37.779  19.914  24.792  1.00  0.00    -0.250 OA
BRANCH   4   6
ATOM      6  C   UNL A   1      36.106  21.631  25.143  1.00  0.00     0.195 C 
BRANCH   6   7
ATOM      7  C   UNL A   1      36.252  23.027  24.466  1.00  0.00     0.019 C 
ATOM      8  C   UNL A   1      36.756  22.981  23.012  1.00  0.00     0.010 C 
BRANCH   7   9
ATOM      9  C   UNL A   1      34.958  23.880  24.466  1.00  0.00     0.002 C 
ATOM     10  C   UNL A   1      34.840  24.934  25.549  1.00  0.00     0.004 C 
ENDBRANCH   7   9
ENDBRANCH   6   7
BRANCH   6  11
ATOM     11  N   UNL A   1      35.275  21.670  26.350  1.00  0.00    -0.339 N 
ATOM     12  C   UNL A   1      34.042  21.174  26.636  1.00  0.00     0.261 C 
ATOM     13  H   UNL A   1      35.693  22.151  27.100  1.00  0.00     0.164 HD
ATOM     14  O   UNL A   1      33.600  21.474  27.754  1.00  0.00    -0.271 OA
BRANCH  12  15
ATOM     15  C   UNL A   1      33.209  20.225  25.711  1.00  0.00     0.258 C 
ATOM     16  C   UNL A   1      34.082  19.326  24.838  1.00  0.00     0.064 C 
BRANCH  15  17
ATOM     17  O   UNL A   1      31.984  20.572  25.074  1.00  0.00    -0.480 OA
BRANCH  17  18
ATOM     18  C   UNL A   1      31.940  21.744  24.391  1.00  0.00     0.127 A 
ATOM     19  C   UNL A   1      32.388  21.800  23.073  1.00  0.00     0.047 A 
ATOM     20  C   UNL A   1      31.310  22.852  24.956  1.00  0.00     0.035 A 
ATOM     21  C   UNL A   1      32.344  23.004  22.356  1.00  0.00     0.016 A 
ATOM     22  C   UNL A   1      31.306  24.054  24.222  1.00  0.00     0.145 A 
ATOM     23  C   UNL A   1      30.615  22.777  26.287  1.00  0.00     0.052 C 
ATOM     24  C   UNL A   1      31.842  24.175  22.936  1.00  0.00     0.021 A 
ATOM     25  O   UNL A   1      30.765  25.177  24.876  1.00  0.00    -0.422 OA
ATOM     26  C   UNL A   1      31.930  25.519  22.320  1.00  0.00    -0.030 A 
ATOM     27  C   UNL A   1      30.928  26.458  24.388  1.00  0.00     0.339 A 
ATOM     28  C   UNL A   1      32.521  25.709  20.941  1.00  0.00     0.045 C 
ATOM     29  C   UNL A   1      31.580  26.595  23.061  1.00  0.00     0.038 A 
ATOM     30  O   UNL A   1      30.540  27.429  25.027  1.00  0.00    -0.246 OA
ATOM     31  C   UNL A   1      31.835  28.013  22.620  1.00  0.00     0.052 C 
ENDBRANCH  17  18
ENDBRANCH  15  17
ENDBRANCH  12  15
ENDBRANCH   6  11
ENDBRANCH   4   6
ENDBRANCH   3   4
ENDBRANCH   2   3
ENDBRANCH   1   2
BRANCH   1  32
ATOM     32  O   UNL A   1      41.988  20.764  26.596  1.00  0.00    -0.374 OA
BRANCH  32  33
ATOM     33  C   UNL A   1      43.074  21.676  26.469  1.00  0.00     0.202 C 
BRANCH  33  34
ATOM     34  C   UNL A   1      43.504  22.165  25.084  1.00  0.00     0.261 C 
BRANCH  34  35
ATOM     35  O   UNL A   1      42.891  23.413  24.720  1.00  0.00    -0.460 OA
BRANCH  35  36
ATOM     36  C   UNL A   1      43.613  24.506  25.049  1.00  0.00     0.338 C 
ATOM     37  O   UNL A   1      44.743  24.803  24.673  1.00  0.00    -0.246 OA
BRANCH  36  38
ATOM     38  C   UNL A   1      42.785  25.440  25.814  1.00  0.00     0.060 A 
ATOM     39  C   UNL A   1      43.237  26.759  25.958  1.00  0.00     0.016 A 
ATOM     40  C   UNL A   1      41.673  24.978  26.518  1.00  0.00     0.016 A 
ATOM     41  C   UNL A   1      42.599  27.615  26.844  1.00  0.00     0.010 A 
ATOM     42  C   UNL A   1      41.053  25.828  27.433  1.00  0.00     0.010 A 
ATOM     43  C   UNL A   1      41.547  27.130  27.628  1.00  0.00    -0.014 A 
BRANCH  43  44
ATOM     44  C   UNL A   1      41.132  27.913  28.809  1.00  0.00     0.031 A 
ATOM     45  C   UNL A   1      41.948  27.788  30.064  1.00  0.00     0.074 A 
ATOM     46  C   UNL A   1      40.094  28.759  28.736  1.00  0.00     0.049 A 
ATOM     47  N   UNL A   1      41.784  28.372  31.221  1.00  0.00    -0.248 NA
ATOM     48  C   UNL A   1      43.117  26.891  30.002  1.00  0.00     0.031 C 
ATOM     49  C   UNL A   1      39.287  29.003  27.543  1.00  0.00     0.029 A 
ATOM     50  N   UNL A   1      39.545  29.573  29.691  1.00  0.00    -0.354 N 
ATOM     51  C   UNL A   1      42.830  27.925  32.018  1.00  0.00     0.074 A 
ATOM     52  C   UNL A   1      43.608  26.999  31.228  1.00  0.00     0.031 C 
ATOM     53  C   UNL A   1      38.335  29.903  27.841  1.00  0.00     0.029 A 
ATOM     54  C   UNL A   1      38.450  30.272  29.251  1.00  0.00     0.049 A 
ATOM     55  H   UNL A   1      39.902  29.649  30.606  1.00  0.00     0.167 HD
ATOM     56  C   UNL A   1      43.116  28.269  33.294  1.00  0.00     0.037 A 
ATOM     57  C   UNL A   1      37.628  31.100  29.923  1.00  0.00     0.037 A 
ATOM     58  C   UNL A   1      42.322  29.177  34.076  1.00  0.00     0.049 A 
ATOM     59  C   UNL A   1      37.904  31.376  31.379  1.00  0.00     0.074 A 
ATOM     60  C   UNL A   1      42.512  29.584  35.383  1.00  0.00     0.029 A 
ATOM     61  N   UNL A   1      41.176  29.812  33.618  1.00  0.00    -0.354 N 
ATOM     62  N   UNL A   1      38.895  30.956  32.127  1.00  0.00    -0.248 NA
ATOM     63  C   UNL A   1      36.946  32.239  32.082  1.00  0.00     0.031 C 
ATOM     64  C   UNL A   1      41.454  30.428  35.733  1.00  0.00     0.029 A 
ATOM     65  C   UNL A   1      40.634  30.589  34.627  1.00  0.00     0.049 A 
ATOM     66  H   UNL A   1      40.805  29.724  32.711  1.00  0.00     0.167 HD
ATOM     67  C   UNL A   1      38.695  31.520  33.380  1.00  0.00     0.074 A 
ATOM     68  C   UNL A   1      37.494  32.324  33.287  1.00  0.00     0.031 C 
ATOM     69  C   UNL A   1      39.439  31.385  34.506  1.00  0.00     0.037 A 
BRANCH  56  70
ATOM     70  C   UNL A   1      44.324  27.650  33.929  1.00  0.00     0.064 A 
ATOM     71  C   UNL A   1      45.611  28.157  33.701  1.00  0.00     0.173 A 
ATOM     72  C   UNL A   1      44.187  26.574  34.820  1.00  0.00     0.173 A 
ATOM     73  F   UNL A   1      45.796  29.173  32.846  1.00  0.00    -0.203 F 
ATOM     74  C   UNL A   1      46.721  27.602  34.335  1.00  0.00     0.198 A 
ATOM     75  C   UNL A   1      45.295  26.039  35.469  1.00  0.00     0.198 A 
ATOM     76  F   UNL A   1      42.977  26.052  35.069  1.00  0.00    -0.203 F 
ATOM     77  F   UNL A   1      47.946  28.083  34.081  1.00  0.00    -0.200 F 
ATOM     78  C   UNL A   1      46.561  26.551  35.225  1.00  0.00     0.200 A 
ATOM     79  F   UNL A   1      45.139  25.028  36.337  1.00  0.00    -0.200 F 
ATOM     80  F   UNL A   1      47.628  26.029  35.847  1.00  0.00    -0.200 F 
ENDBRANCH  56  70
BRANCH  57  81
ATOM     81  C   UNL A   1      36.472  31.718  29.228  1.00  0.00     0.064 A 
ATOM     82  C   UNL A   1      35.364  30.950  28.849  1.00  0.00     0.173 A 
ATOM     83  C   UNL A   1      36.445  33.090  28.936  1.00  0.00     0.173 A 
ATOM     84  F   UNL A   1      35.351  29.630  29.086  1.00  0.00    -0.203 F 
ATOM     85  C   UNL A   1      34.275  31.528  28.198  1.00  0.00     0.198 A 
ATOM     86  C   UNL A   1      35.346  33.673  28.308  1.00  0.00     0.198 A 
ATOM     87  F   UNL A   1      37.483  33.870  29.278  1.00  0.00    -0.203 F 
ATOM     88  F   UNL A   1      33.242  30.765  27.817  1.00  0.00    -0.200 F 
ATOM     89  C   UNL A   1      34.264  32.891  27.935  1.00  0.00     0.200 A 
ATOM     90  F   UNL A   1      35.335  34.991  28.069  1.00  0.00    -0.200 F 
ATOM     91  F   UNL A   1      33.213  33.448  27.319  1.00  0.00    -0.200 F 
ENDBRANCH  57  81
BRANCH  69  92
ATOM     92  C   UNL A   1      38.991  32.133  35.727  1.00  0.00     0.064 A 
ATOM     93  C   UNL A   1      38.265  31.501  36.747  1.00  0.00     0.173 A 
ATOM     94  C   UNL A   1      39.365  33.473  35.916  1.00  0.00     0.173 A 
ATOM     95  F   UNL A   1      37.875  30.226  36.607  1.00  0.00    -0.203 F 
ATOM     96  C   UNL A   1      37.921  32.188  37.907  1.00  0.00     0.198 A 
ATOM     97  C   UNL A   1      39.045  34.146  37.090  1.00  0.00     0.198 A 
ATOM     98  F   UNL A   1      40.069  34.117  34.973  1.00  0.00    -0.203 F 
ATOM     99  F   UNL A   1      37.201  31.574  38.857  1.00  0.00    -0.200 F 
ATOM    100  C   UNL A   1      38.321  33.505  38.083  1.00  0.00     0.200 A 
ATOM    101  F   UNL A   1      39.448  35.413  37.265  1.00  0.00    -0.200 F 
ATOM    102  F   UNL A   1      38.005  34.157  39.210  1.00  0.00    -0.200 F 
ENDBRANCH  69  92
ENDBRANCH  43  44
ENDBRANCH  36  38
ENDBRANCH  35  36
ENDBRANCH  34  35
ENDBRANCH  33  34
ENDBRANCH  32  33
ENDBRANCH   1  32
TORSDOF 20
ENDMDL
MODEL 2
REMARK VINA RESULT:     -11.9      1.007      2.064
REMARK SMILES CC[C@H](C)[C@H](NC(=O)[C@H](C)Oc1ccc2c(C)c(C)c(=O)oc2c1C)C(=O)OCCOCCOC(=O)c1ccc(-c2c3nc(c(-c4c(F)c(F)c(F)c(F)c4F)c4ccc([nH]4)c(-c4c(F)c(F)c(F)c(F)c4F)c4nc(c(-c5c(F)c(F)c(F)c(F)c5F)c5ccc2[nH]5)C=C4)C=C3)cc1
REMARK SMILES IDX 30 1 29 2 28 3 26 4 27 5 5 6 3 7 4 8 2 9 1 10 6 11 7 12 8 14
REMARK SMILES IDX 9 15 10 16 11 17 12 18 13 19 24 20 14 21 23 22 25 23 15 24
REMARK SMILES IDX 22 25 16 26 20 27 17 28 18 29 21 30 19 31 31 32 32 33 33 34
REMARK SMILES IDX 34 35 35 36 36 37 37 38 38 39 99 40 39 41 98 42 40 43 41 44
REMARK SMILES IDX 42 45 92 46 43 47 97 48 91 49 93 50 44 51 96 52 90 53 89 54
REMARK SMILES IDX 45 56 77 57 57 58 76 59 58 60 61 61 75 62 94 63 59 64 60 65
REMARK SMILES IDX 74 67 95 68 62 69 46 70 47 71 55 72 48 73 49 74 53 75 56 76
REMARK SMILES IDX 50 77 51 78 54 79 52 80 78 81 79 82 87 83 80 84 81 85 85 86
REMARK SMILES IDX 88 87 82 88 83 89 86 90 84 91 63 92 64 93 72 94 65 95 66 96
REMARK SMILES IDX 70 97 73 98 67 99 68 100 71 101 69 102
REMARK H PARENT 6 13 93 55 61 66
REMARK Flexibility Score: inf
ROOT
ATOM      1  C   UNL A   1      40.004  21.186  26.509  1.00  0.00     0.202 C 
ENDROOT
BRANCH   1   2
ATOM      2  C   UNL A   1      38.818  21.874  25.816  1.00  0.00     0.261 C 
BRANCH   2   3
ATOM      3  O   UNL A   1      37.523  21.313  26.070  1.00  0.00    -0.462 OA
BRANCH   3   4
ATOM      4  C   UNL A   1      36.702  21.412  24.988  1.00  0.00     0.328 C 
ATOM      5  O   UNL A   1      37.094  21.363  23.826  1.00  0.00    -0.250 OA
BRANCH   4   6
ATOM      6  C   UNL A   1      35.242  21.711  25.348  1.00  0.00     0.195 C 
BRANCH   6   7
ATOM      7  C   UNL A   1      35.132  22.874  26.380  1.00  0.00     0.019 C 
ATOM      8  C   UNL A   1      35.757  24.202  25.913  1.00  0.00     0.010 C 
BRANCH   7   9
ATOM      9  C   UNL A   1      33.687  23.193  26.838  1.00  0.00     0.002 C 
ATOM     10  C   UNL A   1      33.160  24.576  26.507  1.00  0.00     0.004 C 
ENDBRANCH   7   9
ENDBRANCH   6   7
BRANCH   6  11
ATOM     11  N   UNL A   1      34.478  20.525  25.747  1.00  0.00    -0.339 N 
ATOM     12  C   UNL A   1      33.373  19.925  25.231  1.00  0.00     0.261 C 
ATOM     13  H   UNL A   1      34.836  20.076  26.546  1.00  0.00     0.164 HD
ATOM     14  O   UNL A   1      32.939  18.967  25.886  1.00  0.00    -0.271 OA
BRANCH  12  15
ATOM     15  C   UNL A   1      32.686  20.301  23.876  1.00  0.00     0.258 C 
ATOM     16  C   UNL A   1      32.147  19.087  23.122  1.00  0.00     0.064 C 
BRANCH  15  17
ATOM     17  O   UNL A   1      33.122  21.332  22.996  1.00  0.00    -0.480 OA
BRANCH  17  18
ATOM     18  C   UNL A   1      32.554  22.558  23.132  1.00  0.00     0.127 A 
ATOM     19  C   UNL A   1      31.277  22.677  23.676  1.00  0.00     0.047 A 
ATOM     20  C   UNL A   1      33.305  23.703  22.869  1.00  0.00     0.035 A 
ATOM     21  C   UNL A   1      30.680  23.937  23.825  1.00  0.00     0.016 A 
ATOM     22  C   UNL A   1      32.669  24.953  23.002  1.00  0.00     0.145 A 
ATOM     23  C   UNL A   1      34.758  23.631  22.494  1.00  0.00     0.052 C 
ATOM     24  C   UNL A   1      31.351  25.106  23.445  1.00  0.00     0.021 A 
ATOM     25  O   UNL A   1      33.424  26.076  22.615  1.00  0.00    -0.422 OA
ATOM     26  C   UNL A   1      30.731  26.450  23.395  1.00  0.00    -0.030 A 
ATOM     27  C   UNL A   1      32.853  27.321  22.447  1.00  0.00     0.339 A 
ATOM     28  C   UNL A   1      29.302  26.666  23.841  1.00  0.00     0.045 C 
ATOM     29  C   UNL A   1      31.425  27.464  22.831  1.00  0.00     0.038 A 
ATOM     30  O   UNL A   1      33.507  28.260  22.008  1.00  0.00    -0.246 OA
ATOM     31  C   UNL A   1      30.816  28.808  22.529  1.00  0.00     0.052 C 
ENDBRANCH  17  18
ENDBRANCH  15  17
ENDBRANCH  12  15
ENDBRANCH   6  11
ENDBRANCH   4   6
ENDBRANCH   3   4
ENDBRANCH   2   3
ENDBRANCH   1   2
BRANCH   1  32
ATOM     32  O   UNL A   1      41.171  20.865  25.771  1.00  0.00    -0.374 OA
BRANCH  32  33
ATOM     33  C   UNL A   1      42.449  21.220  26.288  1.00  0.00     0.202 C 
BRANCH  33  34
ATOM     34  C   UNL A   1      43.466  21.932  25.392  1.00  0.00     0.261 C 
BRANCH  34  35
ATOM     35  O   UNL A   1      42.935  23.121  24.784  1.00  0.00    -0.460 OA
BRANCH  35  36
ATOM     36  C   UNL A   1      43.640  24.242  25.042  1.00  0.00     0.338 C 
ATOM     37  O   UNL A   1      44.751  24.547  24.618  1.00  0.00    -0.246 OA
BRANCH  36  38
ATOM     38  C   UNL A   1      42.815  25.191  25.791  1.00  0.00     0.060 A 
ATOM     39  C   UNL A   1      43.263  26.515  25.900  1.00  0.00     0.016 A 
ATOM     40  C   UNL A   1      41.709  24.742  26.514  1.00  0.00     0.016 A 
ATOM     41  C   UNL A   1      42.629  27.389  26.771  1.00  0.00     0.010 A 
ATOM     42  C   UNL A   1      41.094  25.611  27.413  1.00  0.00     0.010 A 
ATOM     43  C   UNL A   1      41.584  26.919  27.574  1.00  0.00    -0.014 A 
BRANCH  43  44
ATOM     44  C   UNL A   1      41.175  27.728  28.739  1.00  0.00     0.031 A 
ATOM     45  C   UNL A   1      42.004  27.640  29.989  1.00  0.00     0.074 A 
ATOM     46  C   UNL A   1      40.130  28.565  28.656  1.00  0.00     0.049 A 
ATOM     47  N   UNL A   1      41.847  28.252  31.133  1.00  0.00    -0.248 NA
ATOM     48  C   UNL A   1      43.179  26.751  29.938  1.00  0.00     0.031 C 
ATOM     49  C   UNL A   1      39.310  28.773  27.465  1.00  0.00     0.029 A 
ATOM     50  N   UNL A   1      39.584  29.398  29.596  1.00  0.00    -0.354 N 
ATOM     51  C   UNL A   1      42.904  27.833  31.930  1.00  0.00     0.074 A 
ATOM     52  C   UNL A   1      43.682  26.892  31.155  1.00  0.00     0.031 C 
ATOM     53  C   UNL A   1      38.354  29.673  27.750  1.00  0.00     0.029 A 
ATOM     54  C   UNL A   1      38.480  30.078  29.150  1.00  0.00     0.049 A 
ATOM     55  H   UNL A   1      39.950  29.500  30.505  1.00  0.00     0.167 HD
ATOM     56  C   UNL A   1      43.200  28.210  33.194  1.00  0.00     0.037 A 
ATOM     57  C   UNL A   1      37.659  30.916  29.809  1.00  0.00     0.037 A 
ATOM     58  C   UNL A   1      42.408  29.131  33.961  1.00  0.00     0.049 A 
ATOM     59  C   UNL A   1      37.947  31.231  31.255  1.00  0.00     0.074 A 
ATOM     60  C   UNL A   1      42.608  29.572  35.256  1.00  0.00     0.029 A 
ATOM     61  N   UNL A   1      41.252  29.747  33.499  1.00  0.00    -0.354 N 
ATOM     62  N   UNL A   1      38.949  30.836  32.004  1.00  0.00    -0.248 NA
ATOM     63  C   UNL A   1      36.990  32.105  31.947  1.00  0.00     0.031 C 
ATOM     64  C   UNL A   1      41.547  30.417  35.595  1.00  0.00     0.029 A 
ATOM     65  C   UNL A   1      40.715  30.545  34.494  1.00  0.00     0.049 A 
ATOM     66  H   UNL A   1      40.873  29.633  32.598  1.00  0.00     0.167 HD
ATOM     67  C   UNL A   1      38.757  31.430  33.244  1.00  0.00     0.074 A 
ATOM     68  C   UNL A   1      37.549  32.223  33.143  1.00  0.00     0.031 C 
ATOM     69  C   UNL A   1      39.512  31.328  34.365  1.00  0.00     0.037 A 
BRANCH  56  70
ATOM     70  C   UNL A   1      44.419  27.616  33.832  1.00  0.00     0.064 A 
ATOM     71  C   UNL A   1      44.365  26.394  34.518  1.00  0.00     0.173 A 
ATOM     72  C   UNL A   1      45.667  28.247  33.708  1.00  0.00     0.173 A 
ATOM     73  F   UNL A   1      43.194  25.761  34.678  1.00  0.00    -0.203 F 
ATOM     74  C   UNL A   1      45.514  25.829  35.065  1.00  0.00     0.198 A 
ATOM     75  C   UNL A   1      46.817  27.667  34.235  1.00  0.00     0.198 A 
ATOM     76  F   UNL A   1      45.771  29.419  33.063  1.00  0.00    -0.203 F 
ATOM     77  F   UNL A   1      45.435  24.675  35.741  1.00  0.00    -0.200 F 
ATOM     78  C   UNL A   1      46.740  26.461  34.915  1.00  0.00     0.200 A 
ATOM     79  F   UNL A   1      48.002  28.274  34.081  1.00  0.00    -0.200 F 
ATOM     80  F   UNL A   1      47.848  25.907  35.428  1.00  0.00    -0.200 F 
ENDBRANCH  56  70
BRANCH  57  81
ATOM     81  C   UNL A   1      36.491  31.509  29.111  1.00  0.00     0.064 A 
ATOM     82  C   UNL A   1      36.472  32.865  28.761  1.00  0.00     0.173 A 
ATOM     83  C   UNL A   1      35.374  30.730  28.770  1.00  0.00     0.173 A 
ATOM     84  F   UNL A   1      37.507  33.654  29.084  1.00  0.00    -0.203 F 
ATOM     85  C   UNL A   1      35.377  33.423  28.103  1.00  0.00     0.198 A 
ATOM     86  C   UNL A   1      34.291  31.283  28.089  1.00  0.00     0.198 A 
ATOM     87  F   UNL A   1      35.343  29.426  29.084  1.00  0.00    -0.203 F 
ATOM     88  F   UNL A   1      35.370  34.730  27.808  1.00  0.00    -0.200 F 
ATOM     89  C   UNL A   1      34.291  32.630  27.760  1.00  0.00     0.200 A 
ATOM     90  F   UNL A   1      33.251  30.510  27.749  1.00  0.00    -0.200 F 
ATOM     91  F   UNL A   1      33.244  33.165  27.119  1.00  0.00    -0.200 F 
ENDBRANCH  57  81
BRANCH  69  92
ATOM     92  C   UNL A   1      39.072  32.104  35.572  1.00  0.00     0.064 A 
ATOM     93  C   UNL A   1      38.354  31.494  36.611  1.00  0.00     0.173 A 
ATOM     94  C   UNL A   1      39.444  33.448  35.728  1.00  0.00     0.173 A 
ATOM     95  F   UNL A   1      37.965  30.215  36.503  1.00  0.00    -0.203 F 
ATOM     96  C   UNL A   1      38.016  32.207  37.757  1.00  0.00     0.198 A 
ATOM     97  C   UNL A   1      39.130  34.147  36.888  1.00  0.00     0.198 A 
ATOM     98  F   UNL A   1      40.141  34.071  34.766  1.00  0.00    -0.203 F 
ATOM     99  F   UNL A   1      37.303  31.613  38.726  1.00  0.00    -0.200 F 
ATOM    100  C   UNL A   1      38.414  33.527  37.900  1.00  0.00     0.200 A 
ATOM    101  F   UNL A   1      39.531  35.419  37.032  1.00  0.00    -0.200 F 
ATOM    102  F   UNL A   1      38.104  34.205  39.015  1.00  0.00    -0.200 F 
ENDBRANCH  69  92
ENDBRANCH  43  44
ENDBRANCH  36  38
ENDBRANCH  35  36
ENDBRANCH  34  35
ENDBRANCH  33  34
ENDBRANCH  32  33
ENDBRANCH   1  32
TORSDOF 20
ENDMDL
MODEL 3
REMARK VINA RESULT:     -11.2      2.713      8.800
REMARK SMILES CC[C@H](C)[C@H](NC(=O)[C@H](C)Oc1ccc2c(C)c(C)c(=O)oc2c1C)C(=O)OCCOCCOC(=O)c1ccc(-c2c3nc(c(-c4c(F)c(F)c(F)c(F)c4F)c4ccc([nH]4)c(-c4c(F)c(F)c(F)c(F)c4F)c4nc(c(-c5c(F)c(F)c(F)c(F)c5F)c5ccc2[nH]5)C=C4)C=C3)cc1
REMARK SMILES IDX 30 1 29 2 28 3 26 4 27 5 5 6 3 7 4 8 2 9 1 10 6 11 7 12 8 14
REMARK SMILES IDX 9 15 10 16 11 17 12 18 13 19 24 20 14 21 23 22 25 23 15 24
REMARK SMILES IDX 22 25 16 26 20 27 17 28 18 29 21 30 19 31 31 32 32 33 33 34
REMARK SMILES IDX 34 35 35 36 36 37 37 38 38 39 99 40 39 41 98 42 40 43 41 44
REMARK SMILES IDX 42 45 92 46 43 47 97 48 91 49 93 50 44 51 96 52 90 53 89 54
REMARK SMILES IDX 45 56 77 57 57 58 76 59 58 60 61 61 75 62 94 63 59 64 60 65
REMARK SMILES IDX 74 67 95 68 62 69 46 70 47 71 55 72 48 73 49 74 53 75 56 76
REMARK SMILES IDX 50 77 51 78 54 79 52 80 78 81 79 82 87 83 80 84 81 85 85 86
REMARK SMILES IDX 88 87 82 88 83 89 86 90 84 91 63 92 64 93 72 94 65 95 66 96
REMARK SMILES IDX 70 97 73 98 67 99 68 100 71 101 69 102
REMARK H PARENT 6 13 93 55 61 66
REMARK Flexibility Score: inf
ROOT
ATOM      1  C   UNL A   1      31.920  29.921  26.664  1.00  0.00     0.202 C 
ENDROOT
BRANCH   1   2
ATOM      2  C   UNL A   1      32.480  28.568  27.126  1.00  0.00     0.261 C 
BRANCH   2   3
ATOM      3  O   UNL A   1      32.778  27.618  26.093  1.00  0.00    -0.462 OA
BRANCH   3   4
ATOM      4  C   UNL A   1      31.655  27.010  25.619  1.00  0.00     0.328 C 
ATOM      5  O   UNL A   1      30.726  26.640  26.331  1.00  0.00    -0.250 OA
BRANCH   4   6
ATOM      6  C   UNL A   1      31.703  26.717  24.115  1.00  0.00     0.195 C 
BRANCH   6   7
ATOM      7  C   UNL A   1      31.417  27.997  23.272  1.00  0.00     0.019 C 
ATOM      8  C   UNL A   1      30.295  28.891  23.830  1.00  0.00     0.010 C 
BRANCH   7   9
ATOM      9  C   UNL A   1      32.650  28.909  23.050  1.00  0.00     0.002 C 
ATOM     10  C   UNL A   1      33.920  28.229  22.575  1.00  0.00     0.004 C 
ENDBRANCH   7   9
ENDBRANCH   6   7
BRANCH   6  11
ATOM     11  N   UNL A   1      30.878  25.576  23.710  1.00  0.00    -0.339 N 
ATOM     12  C   UNL A   1      31.180  24.292  23.379  1.00  0.00     0.261 C 
ATOM     13  H   UNL A   1      29.916  25.780  23.668  1.00  0.00     0.164 HD
ATOM     14  O   UNL A   1      30.220  23.607  22.997  1.00  0.00    -0.271 OA
BRANCH  12  15
ATOM     15  C   UNL A   1      32.590  23.627  23.518  1.00  0.00     0.258 C 
ATOM     16  C   UNL A   1      33.253  23.348  22.171  1.00  0.00     0.064 C 
BRANCH  15  17
ATOM     17  O   UNL A   1      32.947  22.666  24.506  1.00  0.00    -0.480 OA
BRANCH  17  18
ATOM     18  C   UNL A   1      34.235  22.655  24.936  1.00  0.00     0.127 A 
ATOM     19  C   UNL A   1      34.796  23.806  25.485  1.00  0.00     0.047 A 
ATOM     20  C   UNL A   1      34.944  21.455  24.968  1.00  0.00     0.035 A 
ATOM     21  C   UNL A   1      36.123  23.807  25.936  1.00  0.00     0.016 A 
ATOM     22  C   UNL A   1      36.284  21.493  25.401  1.00  0.00     0.145 A 
ATOM     23  C   UNL A   1      34.307  20.146  24.596  1.00  0.00     0.052 C 
ATOM     24  C   UNL A   1      36.915  22.654  25.860  1.00  0.00     0.021 A 
ATOM     25  O   UNL A   1      37.000  20.284  25.308  1.00  0.00    -0.422 OA
ATOM     26  C   UNL A   1      38.369  22.616  26.139  1.00  0.00    -0.030 A 
ATOM     27  C   UNL A   1      38.372  20.232  25.448  1.00  0.00     0.339 A 
ATOM     28  C   UNL A   1      39.104  23.849  26.615  1.00  0.00     0.045 C 
ATOM     29  C   UNL A   1      39.056  21.489  25.847  1.00  0.00     0.038 A 
ATOM     30  O   UNL A   1      38.985  19.188  25.258  1.00  0.00    -0.246 OA
ATOM     31  C   UNL A   1      40.560  21.411  25.881  1.00  0.00     0.052 C 
ENDBRANCH  17  18
ENDBRANCH  15  17
ENDBRANCH  12  15
ENDBRANCH   6  11
ENDBRANCH   4   6
ENDBRANCH   3   4
ENDBRANCH   2   3
ENDBRANCH   1   2
BRANCH   1  32
ATOM     32  O   UNL A   1      32.433  31.126  27.205  1.00  0.00    -0.374 OA
BRANCH  32  33
ATOM     33  C   UNL A   1      31.816  32.366  26.872  1.00  0.00     0.202 C 
BRANCH  33  34
ATOM     34  C   UNL A   1      32.361  33.672  27.452  1.00  0.00     0.261 C 
BRANCH  34  35
ATOM     35  O   UNL A   1      33.385  33.459  28.438  1.00  0.00    -0.460 OA
BRANCH  35  36
ATOM     36  C   UNL A   1      34.503  34.191  28.249  1.00  0.00     0.338 C 
ATOM     37  O   UNL A   1      34.590  35.405  28.087  1.00  0.00    -0.246 OA
BRANCH  36  38
ATOM     38  C   UNL A   1      35.688  33.353  28.439  1.00  0.00     0.060 A 
ATOM     39  C   UNL A   1      35.498  31.991  28.712  1.00  0.00     0.016 A 
ATOM     40  C   UNL A   1      36.954  33.934  28.515  1.00  0.00     0.016 A 
ATOM     41  C   UNL A   1      36.573  31.209  29.107  1.00  0.00     0.010 A 
ATOM     42  C   UNL A   1      38.028  33.155  28.943  1.00  0.00     0.010 A 
ATOM     43  C   UNL A   1      37.826  31.805  29.284  1.00  0.00    -0.014 A 
BRANCH  43  44
ATOM     44  C   UNL A   1      38.852  31.070  30.048  1.00  0.00     0.031 A 
ATOM     45  C   UNL A   1      38.981  31.355  31.517  1.00  0.00     0.074 A 
ATOM     46  C   UNL A   1      39.602  30.128  29.454  1.00  0.00     0.049 A 
ATOM     47  N   UNL A   1      39.802  30.839  32.393  1.00  0.00    -0.248 NA
ATOM     48  C   UNL A   1      38.049  32.349  32.079  1.00  0.00     0.031 C 
ATOM     49  C   UNL A   1      39.500  29.730  28.052  1.00  0.00     0.029 A 
ATOM     50  N   UNL A   1      40.595  29.334  29.963  1.00  0.00    -0.354 N 
ATOM     51  C   UNL A   1      39.478  31.433  33.606  1.00  0.00     0.074 A 
ATOM     52  C   UNL A   1      38.408  32.371  33.353  1.00  0.00     0.031 C 
ATOM     53  C   UNL A   1      40.407  28.769  27.809  1.00  0.00     0.029 A 
ATOM     54  C   UNL A   1      41.168  28.509  29.030  1.00  0.00     0.049 A 
ATOM     55  H   UNL A   1      40.871  29.354  30.909  1.00  0.00     0.167 HD
ATOM     56  C   UNL A   1      40.024  31.205  34.822  1.00  0.00     0.037 A 
ATOM     57  C   UNL A   1      42.203  27.657  29.152  1.00  0.00     0.037 A 
ATOM     58  C   UNL A   1      41.101  30.284  35.056  1.00  0.00     0.049 A 
ATOM     59  C   UNL A   1      42.869  27.507  30.496  1.00  0.00     0.074 A 
ATOM     60  C   UNL A   1      41.739  29.986  36.246  1.00  0.00     0.029 A 
ATOM     61  N   UNL A   1      41.705  29.515  34.071  1.00  0.00    -0.354 N 
ATOM     62  N   UNL A   1      42.557  28.067  31.640  1.00  0.00    -0.248 NA
ATOM     63  C   UNL A   1      44.029  26.609  30.564  1.00  0.00     0.031 C 
ATOM     64  C   UNL A   1      42.762  29.074  35.973  1.00  0.00     0.029 A 
ATOM     65  C   UNL A   1      42.728  28.762  34.622  1.00  0.00     0.049 A 
ATOM     66  H   UNL A   1      41.445  29.507  33.122  1.00  0.00     0.167 HD
ATOM     67  C   UNL A   1      43.465  27.574  32.567  1.00  0.00     0.074 A 
ATOM     68  C   UNL A   1      44.332  26.658  31.855  1.00  0.00     0.031 C 
ATOM     69  C   UNL A   1      43.572  27.854  33.890  1.00  0.00     0.037 A 
BRANCH  56  70
ATOM     70  C   UNL A   1      39.478  31.975  35.986  1.00  0.00     0.064 A 
ATOM     71  C   UNL A   1      38.425  31.475  36.766  1.00  0.00     0.173 A 
ATOM     72  C   UNL A   1      40.051  33.200  36.361  1.00  0.00     0.173 A 
ATOM     73  F   UNL A   1      37.832  30.317  36.438  1.00  0.00    -0.203 F 
ATOM     74  C   UNL A   1      37.959  32.178  37.874  1.00  0.00     0.198 A 
ATOM     75  C   UNL A   1      39.598  33.887  37.483  1.00  0.00     0.198 A 
ATOM     76  F   UNL A   1      41.059  33.721  35.646  1.00  0.00    -0.203 F 
ATOM     77  F   UNL A   1      36.932  31.696  38.588  1.00  0.00    -0.200 F 
ATOM     78  C   UNL A   1      38.552  33.378  38.237  1.00  0.00     0.200 A 
ATOM     79  F   UNL A   1      40.179  35.042  37.839  1.00  0.00    -0.200 F 
ATOM     80  F   UNL A   1      38.113  34.045  39.313  1.00  0.00    -0.200 F 
ENDBRANCH  56  70
BRANCH  57  81
ATOM     81  C   UNL A   1      42.671  26.888  27.971  1.00  0.00     0.064 A 
ATOM     82  C   UNL A   1      43.506  27.477  27.013  1.00  0.00     0.173 A 
ATOM     83  C   UNL A   1      42.302  25.548  27.782  1.00  0.00     0.173 A 
ATOM     84  F   UNL A   1      43.868  28.762  27.139  1.00  0.00    -0.203 F 
ATOM     85  C   UNL A   1      43.948  26.757  25.904  1.00  0.00     0.198 A 
ATOM     86  C   UNL A   1      42.765  24.821  26.687  1.00  0.00     0.198 A 
ATOM     87  F   UNL A   1      41.503  24.938  28.671  1.00  0.00    -0.203 F 
ATOM     88  F   UNL A   1      44.719  27.353  24.985  1.00  0.00    -0.200 F 
ATOM     89  C   UNL A   1      43.584  25.427  25.747  1.00  0.00     0.200 A 
ATOM     90  F   UNL A   1      42.422  23.534  26.546  1.00  0.00    -0.200 F 
ATOM     91  F   UNL A   1      44.019  24.733  24.687  1.00  0.00    -0.200 F 
ENDBRANCH  57  81
BRANCH  69  92
ATOM     92  C   UNL A   1      44.650  27.152  34.663  1.00  0.00     0.064 A 
ATOM     93  C   UNL A   1      44.449  25.873  35.202  1.00  0.00     0.173 A 
ATOM     94  C   UNL A   1      45.923  27.730  34.792  1.00  0.00     0.173 A 
ATOM     95  F   UNL A   1      43.248  25.285  35.114  1.00  0.00    -0.203 F 
ATOM     96  C   UNL A   1      45.481  25.204  35.852  1.00  0.00     0.198 A 
ATOM     97  C   UNL A   1      46.960  27.045  35.417  1.00  0.00     0.198 A 
ATOM     98  F   UNL A   1      46.166  28.947  34.284  1.00  0.00    -0.203 F 
ATOM     99  F   UNL A   1      45.260  23.995  36.387  1.00  0.00    -0.200 F 
ATOM    100  C   UNL A   1      46.737  25.785  35.949  1.00  0.00     0.200 A 
ATOM    101  F   UNL A   1      48.177  27.601  35.494  1.00  0.00    -0.200 F 
ATOM    102  F   UNL A   1      47.735  25.129  36.559  1.00  0.00    -0.200 F 
ENDBRANCH  69  92
ENDBRANCH  43  44
ENDBRANCH  36  38
ENDBRANCH  35  36
ENDBRANCH  34  35
ENDBRANCH  33  34
ENDBRANCH  32  33
ENDBRANCH   1  32
TORSDOF 20
ENDMDL
