MODEL 1
REMARK VINA RESULT:      -9.6      0.000      0.000
REMARK SMILES CS(=O)(=O)c1ccc(C2=NN(c3ccc(C(=O)OCCOCCOC(=O)c4ccc(-c5c6nc(c(-c7c(F)c(F)c(F)c(F)c7F)c7ccc([nH]7)c(-c7c(F)c(F)c(F)c(F)c7F)c7nc(c(-c8c(F)c(F)c(F)c(F)c8F)c8ccc5[nH]8)C=C7)C=C6)cc4)cc3)[C@H](c3ccc(F)cc3)C2)cc1
REMARK SMILES IDX 20 1 19 2 18 3 16 4 17 5 15 6 12 7 13 8 91 9 14 10 90 11
REMARK SMILES IDX 11 12 9 13 10 14 100 15 92 16 8 17 5 18 6 19 102 20 7 21
REMARK SMILES IDX 101 22 2 23 1 24 3 25 4 26 93 27 94 28 99 29 95 30 98 31
REMARK SMILES IDX 96 32 97 33 21 34 22 35 23 36 24 37 25 38 26 39 27 40 28 41
REMARK SMILES IDX 89 42 29 43 88 44 30 45 31 46 32 47 82 48 33 49 87 50 81 51
REMARK SMILES IDX 83 52 34 53 86 54 80 55 79 56 35 58 67 59 47 60 66 61 48 62
REMARK SMILES IDX 51 63 65 64 84 65 49 66 50 67 64 69 85 70 52 71 36 72 37 73
REMARK SMILES IDX 45 74 38 75 39 76 43 77 46 78 40 79 41 80 44 81 42 82 68 83
REMARK SMILES IDX 69 84 77 85 70 86 71 87 75 88 78 89 72 90 73 91 76 92 74 93
REMARK SMILES IDX 53 94 54 95 62 96 55 97 56 98 60 99 63 100 57 101 58 102
REMARK SMILES IDX 61 103 59 104
REMARK H PARENT 83 57 51 68
REMARK Flexibility Score: inf
ROOT
ATOM      1  C   UNL A   1      34.829  32.546  31.486  1.00  0.00     0.202 C 
ENDROOT
BRANCH   1   2
ATOM      2  C   UNL A   1      35.617  32.971  32.728  1.00  0.00     0.261 C 
BRANCH   2   3
ATOM      3  O   UNL A   1      37.022  33.037  32.434  1.00  0.00    -0.460 OA
BRANCH   3   4
ATOM      4  C   UNL A   1      37.641  34.181  32.809  1.00  0.00     0.338 C 
ATOM      5  O   UNL A   1      37.387  34.856  33.797  1.00  0.00    -0.246 OA
BRANCH   4   6
ATOM      6  C   UNL A   1      38.788  34.468  31.912  1.00  0.00     0.060 A 
ATOM      7  C   UNL A   1      40.889  34.860  30.088  1.00  0.00     0.060 A 
ATOM      8  C   UNL A   1      39.562  34.844  29.646  1.00  0.00     0.029 A 
ATOM      9  C   UNL A   1      41.142  34.779  31.465  1.00  0.00     0.029 A 
ATOM     10  C   UNL A   1      38.518  34.639  30.548  1.00  0.00     0.018 A 
ATOM     11  C   UNL A   1      40.102  34.578  32.378  1.00  0.00     0.018 A 
BRANCH   7  12
ATOM     12  N   UNL A   1      41.957  34.815  29.182  1.00  0.00    -0.257 N 
ATOM     13  C   UNL A   1      43.680  33.709  28.561  1.00  0.00     0.071 C 
ATOM     14  N   UNL A   1      42.403  33.599  28.757  1.00  0.00    -0.176 NA
ATOM     15  C   UNL A   1      44.294  35.025  28.944  1.00  0.00     0.091 C 
ATOM     16  C   UNL A   1      43.045  35.792  29.391  1.00  0.00     0.144 C 
BRANCH  13  17
ATOM     17  C   UNL A   1      44.490  32.627  27.975  1.00  0.00    -0.002 A 
ATOM     18  C   UNL A   1      45.913  30.508  26.857  1.00  0.00     0.067 A 
ATOM     19  C   UNL A   1      44.892  30.244  27.773  1.00  0.00     0.021 A 
ATOM     20  C   UNL A   1      46.234  31.826  26.507  1.00  0.00     0.021 A 
ATOM     21  C   UNL A   1      44.191  31.309  28.342  1.00  0.00     0.011 A 
ATOM     22  C   UNL A   1      45.512  32.889  27.058  1.00  0.00     0.011 A 
BRANCH  18  23
ATOM     23  S   UNL A   1      46.827  29.176  26.111  1.00  0.00     0.175 S 
ATOM     24  C   UNL A   1      46.293  27.693  26.921  1.00  0.00     0.163 C 
ATOM     25  O   UNL A   1      48.221  29.374  26.462  1.00  0.00    -0.224 OA
ATOM     26  O   UNL A   1      46.402  29.118  24.727  1.00  0.00    -0.224 OA
ENDBRANCH  18  23
ENDBRANCH  13  17
BRANCH  16  27
ATOM     27  C   UNL A   1      42.716  37.106  28.694  1.00  0.00    -0.023 A 
ATOM     28  C   UNL A   1      43.040  38.367  29.218  1.00  0.00     0.009 A 
ATOM     29  C   UNL A   1      42.132  37.052  27.409  1.00  0.00     0.009 A 
ATOM     30  C   UNL A   1      42.784  39.531  28.483  1.00  0.00     0.039 A 
ATOM     31  C   UNL A   1      41.913  38.210  26.662  1.00  0.00     0.039 A 
ATOM     32  C   UNL A   1      42.239  39.441  27.209  1.00  0.00     0.123 A 
ATOM     33  F   UNL A   1      42.037  40.555  26.495  1.00  0.00    -0.207 F 
ENDBRANCH  16  27
ENDBRANCH   7  12
ENDBRANCH   4   6
ENDBRANCH   3   4
ENDBRANCH   2   3
ENDBRANCH   1   2
BRANCH   1  34
ATOM     34  O   UNL A   1      34.060  33.570  30.854  1.00  0.00    -0.374 OA
BRANCH  34  35
ATOM     35  C   UNL A   1      34.311  33.820  29.471  1.00  0.00     0.202 C 
BRANCH  35  36
ATOM     36  C   UNL A   1      35.537  33.126  28.870  1.00  0.00     0.261 C 
BRANCH  36  37
ATOM     37  O   UNL A   1      35.199  32.327  27.722  1.00  0.00    -0.460 OA
BRANCH  37  38
ATOM     38  C   UNL A   1      34.880  31.046  28.011  1.00  0.00     0.338 C 
ATOM     39  O   UNL A   1      33.767  30.539  28.003  1.00  0.00    -0.246 OA
BRANCH  38  40
ATOM     40  C   UNL A   1      36.097  30.237  28.215  1.00  0.00     0.060 A 
ATOM     41  C   UNL A   1      36.260  29.648  29.475  1.00  0.00     0.016 A 
ATOM     42  C   UNL A   1      37.105  30.146  27.253  1.00  0.00     0.016 A 
ATOM     43  C   UNL A   1      37.469  29.045  29.810  1.00  0.00     0.010 A 
ATOM     44  C   UNL A   1      38.322  29.539  27.591  1.00  0.00     0.010 A 
ATOM     45  C   UNL A   1      38.526  29.038  28.890  1.00  0.00    -0.014 A 
BRANCH  45  46
ATOM     46  C   UNL A   1      39.884  28.693  29.379  1.00  0.00     0.031 A 
ATOM     47  C   UNL A   1      40.509  27.397  28.929  1.00  0.00     0.074 A 
ATOM     48  C   UNL A   1      40.590  29.557  30.128  1.00  0.00     0.049 A 
ATOM     49  N   UNL A   1      41.702  26.919  29.175  1.00  0.00    -0.248 NA
ATOM     50  C   UNL A   1      39.677  26.527  28.082  1.00  0.00     0.031 C 
ATOM     51  C   UNL A   1      40.110  30.854  30.600  1.00  0.00     0.029 A 
ATOM     52  N   UNL A   1      41.871  29.472  30.617  1.00  0.00    -0.354 N 
ATOM     53  C   UNL A   1      41.766  25.702  28.507  1.00  0.00     0.074 A 
ATOM     54  C   UNL A   1      40.478  25.491  27.884  1.00  0.00     0.031 C 
ATOM     55  C   UNL A   1      41.084  31.445  31.315  1.00  0.00     0.029 A 
ATOM     56  C   UNL A   1      42.248  30.561  31.363  1.00  0.00     0.049 A 
ATOM     57  H   UNL A   1      42.463  28.704  30.447  1.00  0.00     0.167 HD
ATOM     58  C   UNL A   1      42.812  24.848  28.400  1.00  0.00     0.037 A 
ATOM     59  C   UNL A   1      43.400  30.808  32.016  1.00  0.00     0.037 A 
ATOM     60  C   UNL A   1      44.093  25.052  29.020  1.00  0.00     0.049 A 
ATOM     61  C   UNL A   1      44.529  29.813  31.927  1.00  0.00     0.074 A 
ATOM     62  C   UNL A   1      45.211  24.237  28.983  1.00  0.00     0.029 A 
ATOM     63  N   UNL A   1      44.429  26.156  29.789  1.00  0.00    -0.354 N 
ATOM     64  N   UNL A   1      44.586  28.677  31.276  1.00  0.00    -0.248 NA
ATOM     65  C   UNL A   1      45.762  30.145  32.655  1.00  0.00     0.031 C 
ATOM     66  C   UNL A   1      46.212  24.831  29.760  1.00  0.00     0.029 A 
ATOM     67  C   UNL A   1      45.732  26.037  30.243  1.00  0.00     0.049 A 
ATOM     68  H   UNL A   1      43.829  26.912  29.984  1.00  0.00     0.167 HD
ATOM     69  C   UNL A   1      45.862  28.173  31.494  1.00  0.00     0.074 A 
ATOM     70  C   UNL A   1      46.556  29.138  32.318  1.00  0.00     0.031 C 
ATOM     71  C   UNL A   1      46.410  27.013  31.056  1.00  0.00     0.037 A 
BRANCH  58  72
ATOM     72  C   UNL A   1      42.609  23.607  27.583  1.00  0.00     0.064 A 
ATOM     73  C   UNL A   1      43.046  23.530  26.251  1.00  0.00     0.173 A 
ATOM     74  C   UNL A   1      42.013  22.469  28.145  1.00  0.00     0.173 A 
ATOM     75  F   UNL A   1      43.608  24.596  25.663  1.00  0.00    -0.203 F 
ATOM     76  C   UNL A   1      42.875  22.364  25.508  1.00  0.00     0.198 A 
ATOM     77  C   UNL A   1      41.867  21.298  27.408  1.00  0.00     0.198 A 
ATOM     78  F   UNL A   1      41.580  22.491  29.416  1.00  0.00    -0.203 F 
ATOM     79  F   UNL A   1      43.265  22.326  24.227  1.00  0.00    -0.200 F 
ATOM     80  C   UNL A   1      42.293  21.247  26.090  1.00  0.00     0.200 A 
ATOM     81  F   UNL A   1      41.314  20.216  27.974  1.00  0.00    -0.200 F 
ATOM     82  F   UNL A   1      42.139  20.123  25.376  1.00  0.00    -0.200 F 
ENDBRANCH  58  72
BRANCH  59  83
ATOM     83  C   UNL A   1      43.550  32.046  32.825  1.00  0.00     0.064 A 
ATOM     84  C   UNL A   1      42.875  32.210  34.043  1.00  0.00     0.173 A 
ATOM     85  C   UNL A   1      44.338  33.113  32.369  1.00  0.00     0.173 A 
ATOM     86  F   UNL A   1      42.087  31.228  34.508  1.00  0.00    -0.203 F 
ATOM     87  C   UNL A   1      42.956  33.404  34.756  1.00  0.00     0.198 A 
ATOM     88  C   UNL A   1      44.443  34.295  33.099  1.00  0.00     0.198 A 
ATOM     89  F   UNL A   1      45.004  33.009  31.209  1.00  0.00    -0.203 F 
ATOM     90  F   UNL A   1      42.252  33.556  35.886  1.00  0.00    -0.200 F 
ATOM     91  C   UNL A   1      43.743  34.444  34.286  1.00  0.00     0.200 A 
ATOM     92  F   UNL A   1      45.213  35.293  32.645  1.00  0.00    -0.200 F 
ATOM     93  F   UNL A   1      43.816  35.594  34.969  1.00  0.00    -0.200 F 
ENDBRANCH  59  83
BRANCH  71  94
ATOM     94  C   UNL A   1      47.837  26.741  31.436  1.00  0.00     0.064 A 
ATOM     95  C   UNL A   1      48.164  25.994  32.578  1.00  0.00     0.173 A 
ATOM     96  C   UNL A   1      48.889  27.213  30.636  1.00  0.00     0.173 A 
ATOM     97  F   UNL A   1      47.195  25.532  33.382  1.00  0.00    -0.203 F 
ATOM     98  C   UNL A   1      49.492  25.760  32.924  1.00  0.00     0.198 A 
ATOM     99  C   UNL A   1      50.215  26.951  30.969  1.00  0.00     0.198 A 
ATOM    100  F   UNL A   1      48.629  27.924  29.529  1.00  0.00    -0.203 F 
ATOM    101  F   UNL A   1      49.782  25.092  34.049  1.00  0.00    -0.200 F 
ATOM    102  C   UNL A   1      50.516  26.234  32.117  1.00  0.00     0.200 A 
ATOM    103  F   UNL A   1      51.203  27.398  30.181  1.00  0.00    -0.200 F 
ATOM    104  F   UNL A   1      51.793  26.008  32.451  1.00  0.00    -0.200 F 
ENDBRANCH  71  94
ENDBRANCH  45  46
ENDBRANCH  38  40
ENDBRANCH  37  38
ENDBRANCH  36  37
ENDBRANCH  35  36
ENDBRANCH  34  35
ENDBRANCH   1  34
TORSDOF 18
ENDMDL
MODEL 2
REMARK VINA RESULT:      -9.5      0.871      6.954
REMARK SMILES CS(=O)(=O)c1ccc(C2=NN(c3ccc(C(=O)OCCOCCOC(=O)c4ccc(-c5c6nc(c(-c7c(F)c(F)c(F)c(F)c7F)c7ccc([nH]7)c(-c7c(F)c(F)c(F)c(F)c7F)c7nc(c(-c8c(F)c(F)c(F)c(F)c8F)c8ccc5[nH]8)C=C7)C=C6)cc4)cc3)[C@H](c3ccc(F)cc3)C2)cc1
REMARK SMILES IDX 20 1 19 2 18 3 16 4 17 5 15 6 12 7 13 8 91 9 14 10 90 11
REMARK SMILES IDX 11 12 9 13 10 14 100 15 92 16 8 17 5 18 6 19 102 20 7 21
REMARK SMILES IDX 101 22 2 23 1 24 3 25 4 26 93 27 94 28 99 29 95 30 98 31
REMARK SMILES IDX 96 32 97 33 21 34 22 35 23 36 24 37 25 38 26 39 27 40 28 41
REMARK SMILES IDX 89 42 29 43 88 44 30 45 31 46 32 47 82 48 33 49 87 50 81 51
REMARK SMILES IDX 83 52 34 53 86 54 80 55 79 56 35 58 67 59 47 60 66 61 48 62
REMARK SMILES IDX 51 63 65 64 84 65 49 66 50 67 64 69 85 70 52 71 36 72 37 73
REMARK SMILES IDX 45 74 38 75 39 76 43 77 46 78 40 79 41 80 44 81 42 82 68 83
REMARK SMILES IDX 69 84 77 85 70 86 71 87 75 88 78 89 72 90 73 91 76 92 74 93
REMARK SMILES IDX 53 94 54 95 62 96 55 97 56 98 60 99 63 100 57 101 58 102
REMARK SMILES IDX 61 103 59 104
REMARK H PARENT 83 57 51 68
REMARK Flexibility Score: inf
ROOT
ATOM      1  C   UNL A   1      34.781  32.596  31.453  1.00  0.00     0.202 C 
ENDROOT
BRANCH   1   2
ATOM      2  C   UNL A   1      35.503  32.878  32.774  1.00  0.00     0.261 C 
BRANCH   2   3
ATOM      3  O   UNL A   1      36.922  32.956  32.565  1.00  0.00    -0.460 OA
BRANCH   3   4
ATOM      4  C   UNL A   1      37.485  34.158  32.829  1.00  0.00     0.338 C 
ATOM      5  O   UNL A   1      37.136  34.951  33.693  1.00  0.00    -0.246 OA
BRANCH   4   6
ATOM      6  C   UNL A   1      38.697  34.358  31.996  1.00  0.00     0.060 A 
ATOM      7  C   UNL A   1      40.925  34.581  30.299  1.00  0.00     0.060 A 
ATOM      8  C   UNL A   1      39.630  34.573  29.770  1.00  0.00     0.029 A 
ATOM      9  C   UNL A   1      41.084  34.578  31.693  1.00  0.00     0.029 A 
ATOM     10  C   UNL A   1      38.524  34.451  30.609  1.00  0.00     0.018 A 
ATOM     11  C   UNL A   1      39.980  34.462  32.543  1.00  0.00     0.018 A 
BRANCH   7  12
ATOM     12  N   UNL A   1      42.049  34.451  29.472  1.00  0.00    -0.257 N 
ATOM     13  C   UNL A   1      43.752  33.241  29.012  1.00  0.00     0.071 C 
ATOM     14  N   UNL A   1      42.461  33.200  29.121  1.00  0.00    -0.176 NA
ATOM     15  C   UNL A   1      44.405  34.540  29.391  1.00  0.00     0.091 C 
ATOM     16  C   UNL A   1      43.167  35.382  29.723  1.00  0.00     0.144 C 
BRANCH  13  17
ATOM     17  C   UNL A   1      44.546  32.101  28.520  1.00  0.00    -0.002 A 
ATOM     18  C   UNL A   1      45.946  29.865  27.625  1.00  0.00     0.067 A 
ATOM     19  C   UNL A   1      45.174  29.774  28.784  1.00  0.00     0.021 A 
ATOM     20  C   UNL A   1      46.032  31.072  26.917  1.00  0.00     0.021 A 
ATOM     21  C   UNL A   1      44.485  30.900  29.238  1.00  0.00     0.011 A 
ATOM     22  C   UNL A   1      45.319  32.190  27.360  1.00  0.00     0.011 A 
BRANCH  18  23
ATOM     23  S   UNL A   1      46.837  28.449  27.016  1.00  0.00     0.175 S 
ATOM     24  C   UNL A   1      45.716  27.080  27.112  1.00  0.00     0.163 C 
ATOM     25  O   UNL A   1      47.908  28.189  27.959  1.00  0.00    -0.224 OA
ATOM     26  O   UNL A   1      47.114  28.715  25.618  1.00  0.00    -0.224 OA
ENDBRANCH  18  23
ENDBRANCH  13  17
BRANCH  16  27
ATOM     27  C   UNL A   1      42.954  36.683  28.961  1.00  0.00    -0.023 A 
ATOM     28  C   UNL A   1      43.662  37.866  29.225  1.00  0.00     0.009 A 
ATOM     29  C   UNL A   1      42.056  36.679  27.871  1.00  0.00     0.009 A 
ATOM     30  C   UNL A   1      43.476  39.002  28.429  1.00  0.00     0.039 A 
ATOM     31  C   UNL A   1      41.899  37.799  27.055  1.00  0.00     0.039 A 
ATOM     32  C   UNL A   1      42.609  38.953  27.344  1.00  0.00     0.123 A 
ATOM     33  F   UNL A   1      42.468  40.030  26.561  1.00  0.00    -0.207 F 
ENDBRANCH  16  27
ENDBRANCH   7  12
ENDBRANCH   4   6
ENDBRANCH   3   4
ENDBRANCH   2   3
ENDBRANCH   1   2
BRANCH   1  34
ATOM     34  O   UNL A   1      34.083  33.700  30.875  1.00  0.00    -0.374 OA
BRANCH  34  35
ATOM     35  C   UNL A   1      34.388  34.032  29.521  1.00  0.00     0.202 C 
BRANCH  35  36
ATOM     36  C   UNL A   1      35.622  33.353  28.919  1.00  0.00     0.261 C 
BRANCH  36  37
ATOM     37  O   UNL A   1      35.301  32.595  27.739  1.00  0.00    -0.460 OA
BRANCH  37  38
ATOM     38  C   UNL A   1      34.912  31.324  27.984  1.00  0.00     0.338 C 
ATOM     39  O   UNL A   1      33.769  30.887  27.991  1.00  0.00    -0.246 OA
BRANCH  38  40
ATOM     40  C   UNL A   1      36.081  30.433  28.111  1.00  0.00     0.060 A 
ATOM     41  C   UNL A   1      36.187  29.696  29.296  1.00  0.00     0.016 A 
ATOM     42  C   UNL A   1      37.103  30.399  27.159  1.00  0.00     0.016 A 
ATOM     43  C   UNL A   1      37.356  28.996  29.578  1.00  0.00     0.010 A 
ATOM     44  C   UNL A   1      38.280  29.694  27.444  1.00  0.00     0.010 A 
ATOM     45  C   UNL A   1      38.430  29.037  28.679  1.00  0.00    -0.014 A 
BRANCH  45  46
ATOM     46  C   UNL A   1      39.759  28.567  29.145  1.00  0.00     0.031 A 
ATOM     47  C   UNL A   1      40.480  29.364  30.201  1.00  0.00     0.074 A 
ATOM     48  C   UNL A   1      40.272  27.402  28.712  1.00  0.00     0.049 A 
ATOM     49  N   UNL A   1      41.616  29.114  30.802  1.00  0.00    -0.248 NA
ATOM     50  C   UNL A   1      39.829  30.609  30.642  1.00  0.00     0.031 C 
ATOM     51  C   UNL A   1      39.657  26.525  27.718  1.00  0.00     0.029 A 
ATOM     52  N   UNL A   1      41.431  26.754  29.063  1.00  0.00    -0.354 N 
ATOM     53  C   UNL A   1      41.807  30.161  31.696  1.00  0.00     0.074 A 
ATOM     54  C   UNL A   1      40.698  31.073  31.527  1.00  0.00     0.031 C 
ATOM     55  C   UNL A   1      40.446  25.452  27.536  1.00  0.00     0.029 A 
ATOM     56  C   UNL A   1      41.628  25.575  28.389  1.00  0.00     0.049 A 
ATOM     57  H   UNL A   1      42.060  27.102  29.737  1.00  0.00     0.167 HD
ATOM     58  C   UNL A   1      42.805  30.335  32.596  1.00  0.00     0.037 A 
ATOM     59  C   UNL A   1      42.652  24.703  28.448  1.00  0.00     0.037 A 
ATOM     60  C   UNL A   1      43.911  29.432  32.766  1.00  0.00     0.049 A 
ATOM     61  C   UNL A   1      43.779  24.950  29.419  1.00  0.00     0.074 A 
ATOM     62  C   UNL A   1      44.980  29.529  33.640  1.00  0.00     0.029 A 
ATOM     63  N   UNL A   1      44.089  28.261  32.046  1.00  0.00    -0.354 N 
ATOM     64  N   UNL A   1      43.940  25.930  30.274  1.00  0.00    -0.248 NA
ATOM     65  C   UNL A   1      44.862  23.956  29.443  1.00  0.00     0.031 C 
ATOM     66  C   UNL A   1      45.824  28.434  33.424  1.00  0.00     0.029 A 
ATOM     67  C   UNL A   1      45.256  27.632  32.447  1.00  0.00     0.049 A 
ATOM     68  H   UNL A   1      43.476  27.926  31.352  1.00  0.00     0.167 HD
ATOM     69  C   UNL A   1      45.123  25.660  30.951  1.00  0.00     0.074 A 
ATOM     70  C   UNL A   1      45.627  24.410  30.425  1.00  0.00     0.031 C 
ATOM     71  C   UNL A   1      45.739  26.383  31.918  1.00  0.00     0.037 A 
BRANCH  58  72
ATOM     72  C   UNL A   1      42.746  31.555  33.465  1.00  0.00     0.064 A 
ATOM     73  C   UNL A   1      41.924  31.603  34.602  1.00  0.00     0.173 A 
ATOM     74  C   UNL A   1      43.547  32.672  33.187  1.00  0.00     0.173 A 
ATOM     75  F   UNL A   1      41.127  30.567  34.903  1.00  0.00    -0.203 F 
ATOM     76  C   UNL A   1      41.895  32.732  35.417  1.00  0.00     0.198 A 
ATOM     77  C   UNL A   1      43.535  33.788  34.017  1.00  0.00     0.198 A 
ATOM     78  F   UNL A   1      44.352  32.675  32.112  1.00  0.00    -0.203 F 
ATOM     79  F   UNL A   1      41.075  32.771  36.476  1.00  0.00    -0.200 F 
ATOM     80  C   UNL A   1      42.706  33.820  35.128  1.00  0.00     0.200 A 
ATOM     81  F   UNL A   1      44.326  34.835  33.743  1.00  0.00    -0.200 F 
ATOM     82  F   UNL A   1      42.683  34.902  35.920  1.00  0.00    -0.200 F 
ENDBRANCH  58  72
BRANCH  59  83
ATOM     83  C   UNL A   1      42.674  23.513  27.557  1.00  0.00     0.064 A 
ATOM     84  C   UNL A   1      43.196  23.583  26.258  1.00  0.00     0.173 A 
ATOM     85  C   UNL A   1      42.126  22.291  27.974  1.00  0.00     0.173 A 
ATOM     86  F   UNL A   1      43.707  24.737  25.804  1.00  0.00    -0.203 F 
ATOM     87  C   UNL A   1      43.141  22.486  25.400  1.00  0.00     0.198 A 
ATOM     88  C   UNL A   1      42.099  21.186  27.126  1.00  0.00     0.198 A 
ATOM     89  F   UNL A   1      41.611  22.171  29.207  1.00  0.00    -0.203 F 
ATOM     90  F   UNL A   1      43.592  22.599  24.143  1.00  0.00    -0.200 F 
ATOM     91  C   UNL A   1      42.596  21.288  25.835  1.00  0.00     0.200 A 
ATOM     92  F   UNL A   1      41.581  20.028  27.555  1.00  0.00    -0.200 F 
ATOM     93  F   UNL A   1      42.537  20.236  25.008  1.00  0.00    -0.200 F 
ENDBRANCH  59  83
BRANCH  71  94
ATOM     94  C   UNL A   1      47.011  25.824  32.488  1.00  0.00     0.064 A 
ATOM     95  C   UNL A   1      47.011  25.024  33.640  1.00  0.00     0.173 A 
ATOM     96  C   UNL A   1      48.242  26.074  31.861  1.00  0.00     0.173 A 
ATOM     97  F   UNL A   1      45.862  24.767  34.283  1.00  0.00    -0.203 F 
ATOM     98  C   UNL A   1      48.199  24.523  34.164  1.00  0.00     0.198 A 
ATOM     99  C   UNL A   1      49.425  25.545  32.371  1.00  0.00     0.198 A 
ATOM    100  F   UNL A   1      48.295  26.825  30.752  1.00  0.00    -0.203 F 
ATOM    101  F   UNL A   1      48.181  23.806  35.296  1.00  0.00    -0.200 F 
ATOM    102  C   UNL A   1      49.404  24.779  33.526  1.00  0.00     0.200 A 
ATOM    103  F   UNL A   1      50.587  25.783  31.746  1.00  0.00    -0.200 F 
ATOM    104  F   UNL A   1      50.547  24.296  34.031  1.00  0.00    -0.200 F 
ENDBRANCH  71  94
ENDBRANCH  45  46
ENDBRANCH  38  40
ENDBRANCH  37  38
ENDBRANCH  36  37
ENDBRANCH  35  36
ENDBRANCH  34  35
ENDBRANCH   1  34
TORSDOF 18
ENDMDL
MODEL 3
REMARK VINA RESULT:      -9.3      0.950      6.910
REMARK SMILES CS(=O)(=O)c1ccc(C2=NN(c3ccc(C(=O)OCCOCCOC(=O)c4ccc(-c5c6nc(c(-c7c(F)c(F)c(F)c(F)c7F)c7ccc([nH]7)c(-c7c(F)c(F)c(F)c(F)c7F)c7nc(c(-c8c(F)c(F)c(F)c(F)c8F)c8ccc5[nH]8)C=C7)C=C6)cc4)cc3)[C@H](c3ccc(F)cc3)C2)cc1
REMARK SMILES IDX 20 1 19 2 18 3 16 4 17 5 15 6 12 7 13 8 91 9 14 10 90 11
REMARK SMILES IDX 11 12 9 13 10 14 100 15 92 16 8 17 5 18 6 19 102 20 7 21
REMARK SMILES IDX 101 22 2 23 1 24 3 25 4 26 93 27 94 28 99 29 95 30 98 31
REMARK SMILES IDX 96 32 97 33 21 34 22 35 23 36 24 37 25 38 26 39 27 40 28 41
REMARK SMILES IDX 89 42 29 43 88 44 30 45 31 46 32 47 82 48 33 49 87 50 81 51
REMARK SMILES IDX 83 52 34 53 86 54 80 55 79 56 35 58 67 59 47 60 66 61 48 62
REMARK SMILES IDX 51 63 65 64 84 65 49 66 50 67 64 69 85 70 52 71 36 72 37 73
REMARK SMILES IDX 45 74 38 75 39 76 43 77 46 78 40 79 41 80 44 81 42 82 68 83
REMARK SMILES IDX 69 84 77 85 70 86 71 87 75 88 78 89 72 90 73 91 76 92 74 93
REMARK SMILES IDX 53 94 54 95 62 96 55 97 56 98 60 99 63 100 57 101 58 102
REMARK SMILES IDX 61 103 59 104
REMARK H PARENT 83 57 51 68
REMARK Flexibility Score: inf
ROOT
ATOM      1  C   UNL A   1      34.703  32.727  31.623  1.00  0.00     0.202 C 
ENDROOT
BRANCH   1   2
ATOM      2  C   UNL A   1      35.618  33.194  32.758  1.00  0.00     0.261 C 
BRANCH   2   3
ATOM      3  O   UNL A   1      36.990  33.192  32.332  1.00  0.00    -0.460 OA
BRANCH   3   4
ATOM      4  C   UNL A   1      37.748  34.208  32.805  1.00  0.00     0.338 C 
ATOM      5  O   UNL A   1      37.572  34.824  33.848  1.00  0.00    -0.246 OA
BRANCH   4   6
ATOM      6  C   UNL A   1      38.935  34.418  31.939  1.00  0.00     0.060 A 
ATOM      7  C   UNL A   1      41.113  34.657  30.180  1.00  0.00     0.060 A 
ATOM      8  C   UNL A   1      39.805  34.634  29.687  1.00  0.00     0.029 A 
ATOM      9  C   UNL A   1      41.310  34.660  31.569  1.00  0.00     0.029 A 
ATOM     10  C   UNL A   1      38.722  34.505  30.557  1.00  0.00     0.018 A 
ATOM     11  C   UNL A   1      40.232  34.535  32.450  1.00  0.00     0.018 A 
BRANCH   7  12
ATOM     12  N   UNL A   1      42.215  34.535  29.323  1.00  0.00    -0.257 N 
ATOM     13  C   UNL A   1      43.950  33.374  28.857  1.00  0.00     0.071 C 
ATOM     14  N   UNL A   1      42.666  33.287  29.010  1.00  0.00    -0.176 NA
ATOM     15  C   UNL A   1      44.562  34.712  29.161  1.00  0.00     0.091 C 
ATOM     16  C   UNL A   1      43.302  35.519  29.498  1.00  0.00     0.144 C 
BRANCH  13  17
ATOM     17  C   UNL A   1      44.773  32.245  28.387  1.00  0.00    -0.002 A 
ATOM     18  C   UNL A   1      46.382  30.104  27.619  1.00  0.00     0.067 A 
ATOM     19  C   UNL A   1      46.898  31.082  28.472  1.00  0.00     0.021 A 
ATOM     20  C   UNL A   1      45.069  30.199  27.138  1.00  0.00     0.021 A 
ATOM     21  C   UNL A   1      46.094  32.161  28.843  1.00  0.00     0.011 A 
ATOM     22  C   UNL A   1      44.258  31.266  27.534  1.00  0.00     0.011 A 
BRANCH  18  23
ATOM     23  S   UNL A   1      47.377  28.714  27.126  1.00  0.00     0.175 S 
ATOM     24  C   UNL A   1      48.900  28.852  28.023  1.00  0.00     0.163 C 
ATOM     25  O   UNL A   1      47.692  28.899  25.722  1.00  0.00    -0.224 OA
ATOM     26  O   UNL A   1      46.680  27.531  27.590  1.00  0.00    -0.224 OA
ENDBRANCH  18  23
ENDBRANCH  13  17
BRANCH  16  27
ATOM     27  C   UNL A   1      43.013  36.777  28.690  1.00  0.00    -0.023 A 
ATOM     28  C   UNL A   1      42.460  36.765  27.401  1.00  0.00     0.009 A 
ATOM     29  C   UNL A   1      43.233  38.030  29.305  1.00  0.00     0.009 A 
ATOM     30  C   UNL A   1      42.141  37.962  26.750  1.00  0.00     0.039 A 
ATOM     31  C   UNL A   1      42.879  39.222  28.671  1.00  0.00     0.039 A 
ATOM     32  C   UNL A   1      42.339  39.176  27.395  1.00  0.00     0.123 A 
ATOM     33  F   UNL A   1      41.992  40.315  26.784  1.00  0.00    -0.207 F 
ENDBRANCH  16  27
ENDBRANCH   7  12
ENDBRANCH   4   6
ENDBRANCH   3   4
ENDBRANCH   2   3
ENDBRANCH   1   2
BRANCH   1  34
ATOM     34  O   UNL A   1      33.942  33.747  30.974  1.00  0.00    -0.374 OA
BRANCH  34  35
ATOM     35  C   UNL A   1      34.271  34.046  29.617  1.00  0.00     0.202 C 
BRANCH  35  36
ATOM     36  C   UNL A   1      35.533  33.379  29.063  1.00  0.00     0.261 C 
BRANCH  36  37
ATOM     37  O   UNL A   1      35.266  32.623  27.868  1.00  0.00    -0.460 OA
BRANCH  37  38
ATOM     38  C   UNL A   1      34.870  31.350  28.093  1.00  0.00     0.338 C 
ATOM     39  O   UNL A   1      33.726  30.917  28.082  1.00  0.00    -0.246 OA
BRANCH  38  40
ATOM     40  C   UNL A   1      36.035  30.454  28.222  1.00  0.00     0.060 A 
ATOM     41  C   UNL A   1      36.166  29.758  29.429  1.00  0.00     0.016 A 
ATOM     42  C   UNL A   1      37.032  30.379  27.246  1.00  0.00     0.016 A 
ATOM     43  C   UNL A   1      37.336  29.057  29.705  1.00  0.00     0.010 A 
ATOM     44  C   UNL A   1      38.210  29.673  27.525  1.00  0.00     0.010 A 
ATOM     45  C   UNL A   1      38.387  29.058  28.778  1.00  0.00    -0.014 A 
BRANCH  45  46
ATOM     46  C   UNL A   1      39.723  28.593  29.226  1.00  0.00     0.031 A 
ATOM     47  C   UNL A   1      40.452  29.388  30.279  1.00  0.00     0.074 A 
ATOM     48  C   UNL A   1      40.238  27.434  28.781  1.00  0.00     0.049 A 
ATOM     49  N   UNL A   1      41.596  29.142  30.866  1.00  0.00    -0.248 NA
ATOM     50  C   UNL A   1      39.799  30.626  30.735  1.00  0.00     0.031 C 
ATOM     51  C   UNL A   1      39.617  26.560  27.789  1.00  0.00     0.029 A 
ATOM     52  N   UNL A   1      41.405  26.791  29.115  1.00  0.00    -0.354 N 
ATOM     53  C   UNL A   1      41.791  30.183  31.764  1.00  0.00     0.074 A 
ATOM     54  C   UNL A   1      40.675  31.090  31.613  1.00  0.00     0.031 C 
ATOM     55  C   UNL A   1      40.411  25.492  27.591  1.00  0.00     0.029 A 
ATOM     56  C   UNL A   1      41.602  25.617  28.431  1.00  0.00     0.049 A 
ATOM     57  H   UNL A   1      42.040  27.138  29.783  1.00  0.00     0.167 HD
ATOM     58  C   UNL A   1      42.798  30.358  32.654  1.00  0.00     0.037 A 
ATOM     59  C   UNL A   1      42.631  24.750  28.474  1.00  0.00     0.037 A 
ATOM     60  C   UNL A   1      43.911  29.461  32.806  1.00  0.00     0.049 A 
ATOM     61  C   UNL A   1      43.767  24.998  29.434  1.00  0.00     0.074 A 
ATOM     62  C   UNL A   1      44.989  29.559  33.669  1.00  0.00     0.029 A 
ATOM     63  N   UNL A   1      44.088  28.295  32.077  1.00  0.00    -0.354 N 
ATOM     64  N   UNL A   1      43.932  25.974  30.293  1.00  0.00    -0.248 NA
ATOM     65  C   UNL A   1      44.857  24.010  29.439  1.00  0.00     0.031 C 
ATOM     66  C   UNL A   1      45.836  28.470  33.436  1.00  0.00     0.029 A 
ATOM     67  C   UNL A   1      45.263  27.670  32.461  1.00  0.00     0.049 A 
ATOM     68  H   UNL A   1      43.469  27.960  31.388  1.00  0.00     0.167 HD
ATOM     69  C   UNL A   1      45.124  25.707  30.955  1.00  0.00     0.074 A 
ATOM     70  C   UNL A   1      45.630  24.463  30.416  1.00  0.00     0.031 C 
ATOM     71  C   UNL A   1      45.747  26.428  31.919  1.00  0.00     0.037 A 
BRANCH  58  72
ATOM     72  C   UNL A   1      42.742  31.573  33.531  1.00  0.00     0.064 A 
ATOM     73  C   UNL A   1      43.463  32.735  33.217  1.00  0.00     0.173 A 
ATOM     74  C   UNL A   1      41.930  31.594  34.674  1.00  0.00     0.173 A 
ATOM     75  F   UNL A   1      44.267  32.761  32.143  1.00  0.00    -0.203 F 
ATOM     76  C   UNL A   1      43.385  33.867  34.025  1.00  0.00     0.198 A 
ATOM     77  C   UNL A   1      41.834  32.735  35.465  1.00  0.00     0.198 A 
ATOM     78  F   UNL A   1      41.219  30.508  35.018  1.00  0.00    -0.203 F 
ATOM     79  F   UNL A   1      44.111  34.953  33.725  1.00  0.00    -0.200 F 
ATOM     80  C   UNL A   1      42.565  33.868  35.143  1.00  0.00     0.200 A 
ATOM     81  F   UNL A   1      41.034  32.738  36.540  1.00  0.00    -0.200 F 
ATOM     82  F   UNL A   1      42.484  34.962  35.914  1.00  0.00    -0.200 F 
ENDBRANCH  58  72
BRANCH  59  83
ATOM     83  C   UNL A   1      42.650  23.566  27.576  1.00  0.00     0.064 A 
ATOM     84  C   UNL A   1      42.168  22.320  28.000  1.00  0.00     0.173 A 
ATOM     85  C   UNL A   1      43.196  23.649  26.287  1.00  0.00     0.173 A 
ATOM     86  F   UNL A   1      41.661  22.184  29.234  1.00  0.00    -0.203 F 
ATOM     87  C   UNL A   1      42.262  21.195  27.182  1.00  0.00     0.198 A 
ATOM     88  C   UNL A   1      43.261  22.531  25.458  1.00  0.00     0.198 A 
ATOM     89  F   UNL A   1      43.672  24.818  25.832  1.00  0.00    -0.203 F 
ATOM     90  F   UNL A   1      41.850  20.004  27.635  1.00  0.00    -0.200 F 
ATOM     91  C   UNL A   1      42.805  21.302  25.911  1.00  0.00     0.200 A 
ATOM     92  F   UNL A   1      43.777  22.642  24.227  1.00  0.00    -0.200 F 
ATOM     93  F   UNL A   1      42.900  20.220  25.127  1.00  0.00    -0.200 F 
ENDBRANCH  59  83
BRANCH  71  94
ATOM     94  C   UNL A   1      47.029  25.873  32.471  1.00  0.00     0.064 A 
ATOM     95  C   UNL A   1      48.267  26.144  31.869  1.00  0.00     0.173 A 
ATOM     96  C   UNL A   1      47.020  25.079  33.628  1.00  0.00     0.173 A 
ATOM     97  F   UNL A   1      48.327  26.886  30.754  1.00  0.00    -0.203 F 
ATOM     98  C   UNL A   1      49.445  25.612  32.386  1.00  0.00     0.198 A 
ATOM     99  C   UNL A   1      48.204  24.575  34.159  1.00  0.00     0.198 A 
ATOM    100  F   UNL A   1      45.864  24.798  34.247  1.00  0.00    -0.203 F 
ATOM    101  F   UNL A   1      50.610  25.839  31.763  1.00  0.00    -0.200 F 
ATOM    102  C   UNL A   1      49.414  24.833  33.533  1.00  0.00     0.200 A 
ATOM    103  F   UNL A   1      48.173  23.833  35.275  1.00  0.00    -0.200 F 
ATOM    104  F   UNL A   1      50.548  24.323  34.029  1.00  0.00    -0.200 F 
ENDBRANCH  71  94
ENDBRANCH  45  46
ENDBRANCH  38  40
ENDBRANCH  37  38
ENDBRANCH  36  37
ENDBRANCH  35  36
ENDBRANCH  34  35
ENDBRANCH   1  34
TORSDOF 18
ENDMDL
