MODEL 1
REMARK VINA RESULT:     -12.7      0.000      0.000
REMARK SMILES O=C1Nc2ccccc2/C1=C/c1cccc(C(=O)OCCOCCOC(=O)c2ccc(-c3c4nc(c(-c5c(F)c(F)c(F)c(F)c5F)c5ccc([nH]5)c(-c5c(F)c(F)c(F)c(F)c5F)c5nc(c(-c6c(F)c(F)c(F)c(F)c6F)c6ccc3[nH]6)C=C5)C=C4)cc2)c1
REMARK SMILES IDX 23 1 22 2 21 3 20 4 19 5 17 6 18 7 16 8 12 9 13 10 91 11
REMARK SMILES IDX 14 12 15 13 11 14 1 15 2 16 3 17 10 18 4 19 9 21 5 22 8 23
REMARK SMILES IDX 6 24 7 25 24 26 25 27 26 28 27 29 28 30 29 31 90 32 30 33
REMARK SMILES IDX 89 34 31 35 32 36 33 37 83 38 34 39 88 40 82 41 84 42 35 43
REMARK SMILES IDX 87 44 81 45 80 46 36 48 68 49 48 50 67 51 49 52 52 53 66 54
REMARK SMILES IDX 85 55 50 56 51 57 65 59 86 60 53 61 37 62 38 63 46 64 39 65
REMARK SMILES IDX 40 66 44 67 47 68 41 69 42 70 45 71 43 72 69 73 70 74 78 75
REMARK SMILES IDX 71 76 72 77 76 78 79 79 73 80 74 81 77 82 75 83 54 84 55 85
REMARK SMILES IDX 63 86 56 87 57 88 61 89 64 90 58 91 59 92 62 93 60 94
REMARK H PARENT 3 20 84 47 52 58
REMARK Flexibility Score: inf
ROOT
ATOM      1  C   UNL A   1      31.445  29.813  25.227  1.00  0.00     0.202 C 
ENDROOT
BRANCH   1   2
ATOM      2  O   UNL A   1      32.600  29.215  24.641  1.00  0.00    -0.374 OA
BRANCH   2   3
ATOM      3  C   UNL A   1      32.635  29.055  23.225  1.00  0.00     0.202 C 
BRANCH   3   4
ATOM      4  C   UNL A   1      33.817  28.300  22.608  1.00  0.00     0.261 C 
BRANCH   4   5
ATOM      5  O   UNL A   1      33.887  26.950  23.085  1.00  0.00    -0.460 OA
BRANCH   5   6
ATOM      6  C   UNL A   1      33.254  26.034  22.306  1.00  0.00     0.338 C 
ATOM      7  O   UNL A   1      33.393  25.879  21.105  1.00  0.00    -0.246 OA
BRANCH   6   8
ATOM      8  C   UNL A   1      32.494  25.094  23.163  1.00  0.00     0.060 A 
ATOM      9  C   UNL A   1      31.833  22.851  23.784  1.00  0.00    -0.024 A 
ATOM     10  C   UNL A   1      31.168  23.362  24.904  1.00  0.00     0.008 A 
ATOM     11  C   UNL A   1      32.421  23.733  22.869  1.00  0.00     0.023 A 
ATOM     12  C   UNL A   1      31.164  24.737  25.152  1.00  0.00     0.002 A 
ATOM     13  C   UNL A   1      31.853  25.600  24.300  1.00  0.00     0.016 A 
BRANCH   9  14
ATOM     14  C   UNL A   1      31.984  21.401  23.607  1.00  0.00     0.022 C 
ATOM     15  O   UNL A   1      34.338  22.331  25.418  1.00  0.00    -0.269 OA
ATOM     16  C   UNL A   1      34.152  21.214  24.969  1.00  0.00     0.256 C 
ATOM     17  N   UNL A   1      34.987  20.131  25.151  1.00  0.00    -0.321 N 
ATOM     18  C   UNL A   1      33.007  20.694  24.119  1.00  0.00     0.050 C 
ATOM     19  C   UNL A   1      34.472  18.987  24.559  1.00  0.00     0.049 A 
ATOM     20  H   UNL A   1      35.841  20.167  25.641  1.00  0.00     0.170 HD
ATOM     21  C   UNL A   1      33.253  19.259  23.928  1.00  0.00     0.011 A 
ATOM     22  C   UNL A   1      35.045  17.734  24.578  1.00  0.00     0.027 A 
ATOM     23  C   UNL A   1      32.558  18.245  23.294  1.00  0.00     0.011 A 
ATOM     24  C   UNL A   1      34.349  16.708  23.940  1.00  0.00     0.002 A 
ATOM     25  C   UNL A   1      33.116  16.959  23.307  1.00  0.00     0.001 A 
ENDBRANCH   9  14
ENDBRANCH   6   8
ENDBRANCH   5   6
ENDBRANCH   4   5
ENDBRANCH   3   4
ENDBRANCH   2   3
ENDBRANCH   1   2
BRANCH   1  26
ATOM     26  C   UNL A   1      31.638  31.033  26.136  1.00  0.00     0.261 C 
BRANCH  26  27
ATOM     27  O   UNL A   1      32.615  30.828  27.168  1.00  0.00    -0.460 OA
BRANCH  27  28
ATOM     28  C   UNL A   1      33.399  31.907  27.410  1.00  0.00     0.338 C 
ATOM     29  O   UNL A   1      33.076  33.082  27.388  1.00  0.00    -0.246 OA
BRANCH  28  30
ATOM     30  C   UNL A   1      34.722  31.470  27.891  1.00  0.00     0.060 A 
ATOM     31  C   UNL A   1      34.860  30.125  28.258  1.00  0.00     0.016 A 
ATOM     32  C   UNL A   1      35.772  32.370  28.072  1.00  0.00     0.016 A 
ATOM     33  C   UNL A   1      36.035  29.687  28.860  1.00  0.00     0.010 A 
ATOM     34  C   UNL A   1      36.951  31.929  28.683  1.00  0.00     0.010 A 
ATOM     35  C   UNL A   1      37.072  30.595  29.115  1.00  0.00    -0.014 A 
BRANCH  35  36
ATOM     36  C   UNL A   1      38.216  30.165  29.955  1.00  0.00     0.031 A 
ATOM     37  C   UNL A   1      39.223  29.200  29.393  1.00  0.00     0.074 A 
ATOM     38  C   UNL A   1      38.382  30.671  31.189  1.00  0.00     0.049 A 
ATOM     39  N   UNL A   1      40.302  28.706  29.945  1.00  0.00    -0.248 NA
ATOM     40  C   UNL A   1      38.978  28.726  28.022  1.00  0.00     0.031 C 
ATOM     41  C   UNL A   1      37.491  31.633  31.833  1.00  0.00     0.029 A 
ATOM     42  N   UNL A   1      39.365  30.444  32.121  1.00  0.00    -0.354 N 
ATOM     43  C   UNL A   1      40.860  27.859  28.996  1.00  0.00     0.074 A 
ATOM     44  C   UNL A   1      39.979  27.875  27.848  1.00  0.00     0.031 C 
ATOM     45  C   UNL A   1      37.968  31.916  33.057  1.00  0.00     0.029 A 
ATOM     46  C   UNL A   1      39.177  31.131  33.294  1.00  0.00     0.049 A 
ATOM     47  H   UNL A   1      40.130  29.846  31.962  1.00  0.00     0.167 HD
ATOM     48  C   UNL A   1      42.007  27.143  29.071  1.00  0.00     0.037 A 
ATOM     49  C   UNL A   1      39.893  31.114  34.434  1.00  0.00     0.037 A 
ATOM     50  C   UNL A   1      42.882  27.132  30.217  1.00  0.00     0.049 A 
ATOM     51  C   UNL A   1      41.136  30.266  34.513  1.00  0.00     0.074 A 
ATOM     52  C   UNL A   1      44.082  26.463  30.380  1.00  0.00     0.029 A 
ATOM     53  N   UNL A   1      42.641  27.813  31.402  1.00  0.00    -0.354 N 
ATOM     54  N   UNL A   1      41.677  29.497  33.599  1.00  0.00    -0.248 NA
ATOM     55  C   UNL A   1      41.873  30.294  35.784  1.00  0.00     0.031 C 
ATOM     56  C   UNL A   1      44.534  26.685  31.686  1.00  0.00     0.029 A 
ATOM     57  C   UNL A   1      43.654  27.552  32.314  1.00  0.00     0.049 A 
ATOM     58  H   UNL A   1      41.866  28.396  31.570  1.00  0.00     0.167 HD
ATOM     59  C   UNL A   1      42.828  28.971  34.171  1.00  0.00     0.074 A 
ATOM     60  C   UNL A   1      42.919  29.530  35.505  1.00  0.00     0.031 C 
ATOM     61  C   UNL A   1      43.729  28.105  33.643  1.00  0.00     0.037 A 
BRANCH  48  62
ATOM     62  C   UNL A   1      42.366  26.283  27.891  1.00  0.00     0.064 A 
ATOM     63  C   UNL A   1      41.804  25.011  27.699  1.00  0.00     0.173 A 
ATOM     64  C   UNL A   1      43.273  26.747  26.927  1.00  0.00     0.173 A 
ATOM     65  F   UNL A   1      40.939  24.512  28.596  1.00  0.00    -0.203 F 
ATOM     66  C   UNL A   1      42.162  24.225  26.606  1.00  0.00     0.198 A 
ATOM     67  C   UNL A   1      43.603  25.973  25.817  1.00  0.00     0.198 A 
ATOM     68  F   UNL A   1      43.840  27.957  27.057  1.00  0.00    -0.203 F 
ATOM     69  F   UNL A   1      41.656  22.991  26.475  1.00  0.00    -0.200 F 
ATOM     70  C   UNL A   1      43.056  24.709  25.663  1.00  0.00     0.200 A 
ATOM     71  F   UNL A   1      44.455  26.451  24.899  1.00  0.00    -0.200 F 
ATOM     72  F   UNL A   1      43.396  23.955  24.609  1.00  0.00    -0.200 F 
ENDBRANCH  48  62
BRANCH  49  73
ATOM     73  C   UNL A   1      39.448  31.924  35.599  1.00  0.00     0.064 A 
ATOM     74  C   UNL A   1      38.521  31.422  36.522  1.00  0.00     0.173 A 
ATOM     75  C   UNL A   1      39.935  33.224  35.805  1.00  0.00     0.173 A 
ATOM     76  F   UNL A   1      38.007  30.194  36.355  1.00  0.00    -0.203 F 
ATOM     77  C   UNL A   1      38.081  32.195  37.595  1.00  0.00     0.198 A 
ATOM     78  C   UNL A   1      39.520  33.984  36.896  1.00  0.00     0.198 A 
ATOM     79  F   UNL A   1      40.823  33.753  34.951  1.00  0.00    -0.203 F 
ATOM     80  F   UNL A   1      37.156  31.710  38.433  1.00  0.00    -0.200 F 
ATOM     81  C   UNL A   1      38.587  33.473  37.785  1.00  0.00     0.200 A 
ATOM     82  F   UNL A   1      40.022  35.211  37.084  1.00  0.00    -0.200 F 
ATOM     83  F   UNL A   1      38.169  34.214  38.820  1.00  0.00    -0.200 F 
ENDBRANCH  49  73
BRANCH  61  84
ATOM     84  C   UNL A   1      44.908  27.732  34.501  1.00  0.00     0.064 A 
ATOM     85  C   UNL A   1      44.867  26.642  35.384  1.00  0.00     0.173 A 
ATOM     86  C   UNL A   1      46.099  28.472  34.434  1.00  0.00     0.173 A 
ATOM     87  F   UNL A   1      43.750  25.907  35.498  1.00  0.00    -0.203 F 
ATOM     88  C   UNL A   1      45.954  26.338  36.201  1.00  0.00     0.198 A 
ATOM     89  C   UNL A   1      47.197  28.141  35.222  1.00  0.00     0.198 A 
ATOM     90  F   UNL A   1      46.200  29.518  33.600  1.00  0.00    -0.203 F 
ATOM     91  F   UNL A   1      45.864  25.337  37.088  1.00  0.00    -0.200 F 
ATOM     92  C   UNL A   1      47.120  27.083  36.115  1.00  0.00     0.200 A 
ATOM     93  F   UNL A   1      48.330  28.852  35.124  1.00  0.00    -0.200 F 
ATOM     94  F   UNL A   1      48.165  26.790  36.902  1.00  0.00    -0.200 F 
ENDBRANCH  61  84
ENDBRANCH  35  36
ENDBRANCH  28  30
ENDBRANCH  27  28
ENDBRANCH  26  27
ENDBRANCH   1  26
TORSDOF 15
ENDMDL
MODEL 2
REMARK VINA RESULT:     -12.6      1.640      7.662
REMARK SMILES O=C1Nc2ccccc2/C1=C/c1cccc(C(=O)OCCOCCOC(=O)c2ccc(-c3c4nc(c(-c5c(F)c(F)c(F)c(F)c5F)c5ccc([nH]5)c(-c5c(F)c(F)c(F)c(F)c5F)c5nc(c(-c6c(F)c(F)c(F)c(F)c6F)c6ccc3[nH]6)C=C5)C=C4)cc2)c1
REMARK SMILES IDX 23 1 22 2 21 3 20 4 19 5 17 6 18 7 16 8 12 9 13 10 91 11
REMARK SMILES IDX 14 12 15 13 11 14 1 15 2 16 3 17 10 18 4 19 9 21 5 22 8 23
REMARK SMILES IDX 6 24 7 25 24 26 25 27 26 28 27 29 28 30 29 31 90 32 30 33
REMARK SMILES IDX 89 34 31 35 32 36 33 37 83 38 34 39 88 40 82 41 84 42 35 43
REMARK SMILES IDX 87 44 81 45 80 46 36 48 68 49 48 50 67 51 49 52 52 53 66 54
REMARK SMILES IDX 85 55 50 56 51 57 65 59 86 60 53 61 37 62 38 63 46 64 39 65
REMARK SMILES IDX 40 66 44 67 47 68 41 69 42 70 45 71 43 72 69 73 70 74 78 75
REMARK SMILES IDX 71 76 72 77 76 78 79 79 73 80 74 81 77 82 75 83 54 84 55 85
REMARK SMILES IDX 63 86 56 87 57 88 61 89 64 90 58 91 59 92 62 93 60 94
REMARK H PARENT 3 20 84 47 52 58
REMARK Flexibility Score: inf
ROOT
ATOM      1  C   UNL A   1      32.453  28.628  25.748  1.00  0.00     0.202 C 
ENDROOT
BRANCH   1   2
ATOM      2  O   UNL A   1      31.201  28.279  25.163  1.00  0.00    -0.374 OA
BRANCH   2   3
ATOM      3  C   UNL A   1      30.879  28.816  23.882  1.00  0.00     0.202 C 
BRANCH   3   4
ATOM      4  C   UNL A   1      31.742  28.403  22.684  1.00  0.00     0.261 C 
BRANCH   4   5
ATOM      5  O   UNL A   1      31.429  27.077  22.240  1.00  0.00    -0.460 OA
BRANCH   5   6
ATOM      6  C   UNL A   1      32.503  26.266  22.058  1.00  0.00     0.338 C 
ATOM      7  O   UNL A   1      33.273  26.278  21.112  1.00  0.00    -0.246 OA
BRANCH   6   8
ATOM      8  C   UNL A   1      32.738  25.470  23.285  1.00  0.00     0.060 A 
ATOM      9  C   UNL A   1      34.213  24.566  24.977  1.00  0.00    -0.024 A 
ATOM     10  C   UNL A   1      33.102  24.092  25.685  1.00  0.00     0.008 A 
ATOM     11  C   UNL A   1      34.027  25.179  23.732  1.00  0.00     0.023 A 
ATOM     12  C   UNL A   1      31.812  24.304  25.192  1.00  0.00     0.002 A 
ATOM     13  C   UNL A   1      31.628  25.020  24.009  1.00  0.00     0.016 A 
BRANCH   9  14
ATOM     14  C   UNL A   1      35.555  24.495  25.567  1.00  0.00     0.022 C 
ATOM     15  O   UNL A   1      35.145  21.864  23.954  1.00  0.00    -0.269 OA
ATOM     16  C   UNL A   1      36.095  22.155  24.660  1.00  0.00     0.256 C 
ATOM     17  N   UNL A   1      37.180  21.340  24.913  1.00  0.00    -0.321 N 
ATOM     18  C   UNL A   1      36.368  23.432  25.433  1.00  0.00     0.050 C 
ATOM     19  C   UNL A   1      38.119  21.978  25.711  1.00  0.00     0.049 A 
ATOM     20  H   UNL A   1      37.274  20.421  24.571  1.00  0.00     0.170 HD
ATOM     21  C   UNL A   1      37.692  23.268  26.047  1.00  0.00     0.011 A 
ATOM     22  C   UNL A   1      39.323  21.453  26.126  1.00  0.00     0.027 A 
ATOM     23  C   UNL A   1      38.496  24.085  26.820  1.00  0.00     0.011 A 
ATOM     24  C   UNL A   1      40.137  22.273  26.906  1.00  0.00     0.002 A 
ATOM     25  C   UNL A   1      39.731  23.577  27.248  1.00  0.00     0.001 A 
ENDBRANCH   9  14
ENDBRANCH   6   8
ENDBRANCH   5   6
ENDBRANCH   4   5
ENDBRANCH   3   4
ENDBRANCH   2   3
ENDBRANCH   1   2
BRANCH   1  26
ATOM     26  C   UNL A   1      32.749  30.111  26.007  1.00  0.00     0.261 C 
BRANCH  26  27
ATOM     27  O   UNL A   1      32.953  30.418  27.395  1.00  0.00    -0.460 OA
BRANCH  27  28
ATOM     28  C   UNL A   1      33.727  31.509  27.612  1.00  0.00     0.338 C 
ATOM     29  O   UNL A   1      33.381  32.678  27.615  1.00  0.00    -0.246 OA
BRANCH  28  30
ATOM     30  C   UNL A   1      35.077  31.093  28.030  1.00  0.00     0.060 A 
ATOM     31  C   UNL A   1      35.254  29.749  28.386  1.00  0.00     0.016 A 
ATOM     32  C   UNL A   1      36.120  32.010  28.167  1.00  0.00     0.016 A 
ATOM     33  C   UNL A   1      36.462  29.329  28.932  1.00  0.00     0.010 A 
ATOM     34  C   UNL A   1      37.332  31.587  28.721  1.00  0.00     0.010 A 
ATOM     35  C   UNL A   1      37.495  30.253  29.142  1.00  0.00    -0.014 A 
BRANCH  35  36
ATOM     36  C   UNL A   1      38.683  29.840  29.928  1.00  0.00     0.031 A 
ATOM     37  C   UNL A   1      38.851  30.346  31.334  1.00  0.00     0.074 A 
ATOM     38  C   UNL A   1      39.576  28.978  29.410  1.00  0.00     0.049 A 
ATOM     39  N   UNL A   1      39.801  30.099  32.200  1.00  0.00    -0.248 NA
ATOM     40  C   UNL A   1      37.807  31.257  31.829  1.00  0.00     0.031 C 
ATOM     41  C   UNL A   1      39.506  28.396  28.072  1.00  0.00     0.029 A 
ATOM     42  N   UNL A   1      40.716  28.442  29.954  1.00  0.00    -0.354 N 
ATOM     43  C   UNL A   1      39.475  30.828  33.337  1.00  0.00     0.074 A 
ATOM     44  C   UNL A   1      38.261  31.557  33.037  1.00  0.00     0.031 C 
ATOM     45  C   UNL A   1      40.561  27.582  27.897  1.00  0.00     0.029 A 
ATOM     46  C   UNL A   1      41.393  27.611  29.097  1.00  0.00     0.049 A 
ATOM     47  H   UNL A   1      41.019  28.635  30.870  1.00  0.00     0.167 HD
ATOM     48  C   UNL A   1      40.122  30.875  34.526  1.00  0.00     0.037 A 
ATOM     49  C   UNL A   1      42.561  26.961  29.260  1.00  0.00     0.037 A 
ATOM     50  C   UNL A   1      41.329  30.145  34.820  1.00  0.00     0.049 A 
ATOM     51  C   UNL A   1      43.292  27.074  30.573  1.00  0.00     0.074 A 
ATOM     52  C   UNL A   1      42.046  30.103  36.004  1.00  0.00     0.029 A 
ATOM     53  N   UNL A   1      42.008  29.340  33.916  1.00  0.00    -0.354 N 
ATOM     54  N   UNL A   1      42.959  27.735  31.655  1.00  0.00    -0.248 NA
ATOM     55  C   UNL A   1      44.559  26.339  30.687  1.00  0.00     0.031 C 
ATOM     56  C   UNL A   1      43.192  29.327  35.796  1.00  0.00     0.029 A 
ATOM     57  C   UNL A   1      43.153  28.825  34.505  1.00  0.00     0.049 A 
ATOM     58  H   UNL A   1      41.718  29.161  32.992  1.00  0.00     0.167 HD
ATOM     59  C   UNL A   1      43.957  27.475  32.586  1.00  0.00     0.074 A 
ATOM     60  C   UNL A   1      44.895  26.576  31.946  1.00  0.00     0.031 C 
ATOM     61  C   UNL A   1      44.086  27.938  33.855  1.00  0.00     0.037 A 
BRANCH  48  62
ATOM     62  C   UNL A   1      39.554  31.774  35.590  1.00  0.00     0.064 A 
ATOM     63  C   UNL A   1      38.580  31.329  36.498  1.00  0.00     0.173 A 
ATOM     64  C   UNL A   1      40.008  33.095  35.715  1.00  0.00     0.173 A 
ATOM     65  F   UNL A   1      38.101  30.078  36.417  1.00  0.00    -0.203 F 
ATOM     66  C   UNL A   1      38.058  32.184  37.466  1.00  0.00     0.198 A 
ATOM     67  C   UNL A   1      39.510  33.936  36.707  1.00  0.00     0.198 A 
ATOM     68  F   UNL A   1      40.942  33.573  34.878  1.00  0.00    -0.203 F 
ATOM     69  F   UNL A   1      37.086  31.754  38.283  1.00  0.00    -0.200 F 
ATOM     70  C   UNL A   1      38.528  33.484  37.574  1.00  0.00     0.200 A 
ATOM     71  F   UNL A   1      39.978  35.187  36.819  1.00  0.00    -0.200 F 
ATOM     72  F   UNL A   1      38.029  34.304  38.510  1.00  0.00    -0.200 F 
ENDBRANCH  48  62
BRANCH  49  73
ATOM     73  C   UNL A   1      43.117  26.148  28.145  1.00  0.00     0.064 A 
ATOM     74  C   UNL A   1      43.794  26.749  27.075  1.00  0.00     0.173 A 
ATOM     75  C   UNL A   1      42.973  24.753  28.125  1.00  0.00     0.173 A 
ATOM     76  F   UNL A   1      43.936  28.082  27.036  1.00  0.00    -0.203 F 
ATOM     77  C   UNL A   1      44.286  25.988  26.016  1.00  0.00     0.198 A 
ATOM     78  C   UNL A   1      43.494  23.990  27.083  1.00  0.00     0.198 A 
ATOM     79  F   UNL A   1      42.333  24.128  29.124  1.00  0.00    -0.203 F 
ATOM     80  F   UNL A   1      44.882  26.592  24.980  1.00  0.00    -0.200 F 
ATOM     81  C   UNL A   1      44.142  24.608  26.024  1.00  0.00     0.200 A 
ATOM     82  F   UNL A   1      43.365  22.657  27.103  1.00  0.00    -0.200 F 
ATOM     83  F   UNL A   1      44.620  23.876  25.010  1.00  0.00    -0.200 F 
ENDBRANCH  49  73
BRANCH  61  84
ATOM     84  C   UNL A   1      45.273  27.455  34.645  1.00  0.00     0.064 A 
ATOM     85  C   UNL A   1      46.489  28.156  34.660  1.00  0.00     0.173 A 
ATOM     86  C   UNL A   1      45.191  26.276  35.403  1.00  0.00     0.173 A 
ATOM     87  F   UNL A   1      46.628  29.283  33.945  1.00  0.00    -0.203 F 
ATOM     88  C   UNL A   1      47.589  27.671  35.364  1.00  0.00     0.198 A 
ATOM     89  C   UNL A   1      46.280  25.815  36.137  1.00  0.00     0.198 A 
ATOM     90  F   UNL A   1      44.050  25.570  35.435  1.00  0.00    -0.203 F 
ATOM     91  F   UNL A   1      48.760  28.320  35.303  1.00  0.00    -0.200 F 
ATOM     92  C   UNL A   1      47.482  26.504  36.106  1.00  0.00     0.200 A 
ATOM     93  F   UNL A   1      46.169  24.697  36.869  1.00  0.00    -0.200 F 
ATOM     94  F   UNL A   1      48.542  26.038  36.781  1.00  0.00    -0.200 F 
ENDBRANCH  61  84
ENDBRANCH  35  36
ENDBRANCH  28  30
ENDBRANCH  27  28
ENDBRANCH  26  27
ENDBRANCH   1  26
TORSDOF 15
ENDMDL
MODEL 3
REMARK VINA RESULT:     -12.6      0.130      1.932
REMARK SMILES O=C1Nc2ccccc2/C1=C/c1cccc(C(=O)OCCOCCOC(=O)c2ccc(-c3c4nc(c(-c5c(F)c(F)c(F)c(F)c5F)c5ccc([nH]5)c(-c5c(F)c(F)c(F)c(F)c5F)c5nc(c(-c6c(F)c(F)c(F)c(F)c6F)c6ccc3[nH]6)C=C5)C=C4)cc2)c1
REMARK SMILES IDX 23 1 22 2 21 3 20 4 19 5 17 6 18 7 16 8 12 9 13 10 91 11
REMARK SMILES IDX 14 12 15 13 11 14 1 15 2 16 3 17 10 18 4 19 9 21 5 22 8 23
REMARK SMILES IDX 6 24 7 25 24 26 25 27 26 28 27 29 28 30 29 31 90 32 30 33
REMARK SMILES IDX 89 34 31 35 32 36 33 37 83 38 34 39 88 40 82 41 84 42 35 43
REMARK SMILES IDX 87 44 81 45 80 46 36 48 68 49 48 50 67 51 49 52 52 53 66 54
REMARK SMILES IDX 85 55 50 56 51 57 65 59 86 60 53 61 37 62 38 63 46 64 39 65
REMARK SMILES IDX 40 66 44 67 47 68 41 69 42 70 45 71 43 72 69 73 70 74 78 75
REMARK SMILES IDX 71 76 72 77 76 78 79 79 73 80 74 81 77 82 75 83 54 84 55 85
REMARK SMILES IDX 63 86 56 87 57 88 61 89 64 90 58 91 59 92 62 93 60 94
REMARK H PARENT 3 20 84 47 52 58
REMARK Flexibility Score: inf
ROOT
ATOM      1  C   UNL A   1      31.414  29.882  25.289  1.00  0.00     0.202 C 
ENDROOT
BRANCH   1   2
ATOM      2  O   UNL A   1      32.522  29.264  24.637  1.00  0.00    -0.374 OA
BRANCH   2   3
ATOM      3  C   UNL A   1      32.414  28.980  23.244  1.00  0.00     0.202 C 
BRANCH   3   4
ATOM      4  C   UNL A   1      33.619  28.351  22.536  1.00  0.00     0.261 C 
BRANCH   4   5
ATOM      5  O   UNL A   1      33.891  27.033  23.027  1.00  0.00    -0.460 OA
BRANCH   5   6
ATOM      6  C   UNL A   1      33.308  26.028  22.324  1.00  0.00     0.338 C 
ATOM      7  O   UNL A   1      33.439  25.801  21.133  1.00  0.00    -0.246 OA
BRANCH   6   8
ATOM      8  C   UNL A   1      32.624  25.101  23.256  1.00  0.00     0.060 A 
ATOM      9  C   UNL A   1      31.987  22.870  23.941  1.00  0.00    -0.024 A 
ATOM     10  C   UNL A   1      31.455  23.392  25.127  1.00  0.00     0.008 A 
ATOM     11  C   UNL A   1      32.492  23.742  22.970  1.00  0.00     0.023 A 
ATOM     12  C   UNL A   1      31.506  24.766  25.375  1.00  0.00     0.002 A 
ATOM     13  C   UNL A   1      32.118  25.616  24.454  1.00  0.00     0.016 A 
BRANCH   9  14
ATOM     14  C   UNL A   1      32.087  21.418  23.748  1.00  0.00     0.022 C 
ATOM     15  O   UNL A   1      34.537  22.264  25.472  1.00  0.00    -0.269 OA
ATOM     16  C   UNL A   1      34.300  21.157  25.022  1.00  0.00     0.256 C 
ATOM     17  N   UNL A   1      35.110  20.048  25.164  1.00  0.00    -0.321 N 
ATOM     18  C   UNL A   1      33.108  20.677  24.214  1.00  0.00     0.050 C 
ATOM     19  C   UNL A   1      34.539  18.925  24.584  1.00  0.00     0.049 A 
ATOM     20  H   UNL A   1      35.984  20.055  25.619  1.00  0.00     0.170 HD
ATOM     21  C   UNL A   1      33.304  19.237  24.003  1.00  0.00     0.011 A 
ATOM     22  C   UNL A   1      35.075  17.656  24.571  1.00  0.00     0.027 A 
ATOM     23  C   UNL A   1      32.556  18.249  23.391  1.00  0.00     0.011 A 
ATOM     24  C   UNL A   1      34.324  16.656  23.954  1.00  0.00     0.002 A 
ATOM     25  C   UNL A   1      33.076  16.948  23.372  1.00  0.00     0.001 A 
ENDBRANCH   9  14
ENDBRANCH   6   8
ENDBRANCH   5   6
ENDBRANCH   4   5
ENDBRANCH   3   4
ENDBRANCH   2   3
ENDBRANCH   1   2
BRANCH   1  26
ATOM     26  C   UNL A   1      31.677  31.115  26.163  1.00  0.00     0.261 C 
BRANCH  26  27
ATOM     27  O   UNL A   1      32.646  30.885  27.199  1.00  0.00    -0.460 OA
BRANCH  27  28
ATOM     28  C   UNL A   1      33.432  31.956  27.468  1.00  0.00     0.338 C 
ATOM     29  O   UNL A   1      33.111  33.132  27.473  1.00  0.00    -0.246 OA
BRANCH  28  30
ATOM     30  C   UNL A   1      34.753  31.504  27.940  1.00  0.00     0.060 A 
ATOM     31  C   UNL A   1      34.874  30.162  28.324  1.00  0.00     0.016 A 
ATOM     32  C   UNL A   1      35.820  32.390  28.097  1.00  0.00     0.016 A 
ATOM     33  C   UNL A   1      36.048  29.713  28.919  1.00  0.00     0.010 A 
ATOM     34  C   UNL A   1      36.997  31.938  28.701  1.00  0.00     0.010 A 
ATOM     35  C   UNL A   1      37.102  30.608  29.150  1.00  0.00    -0.014 A 
BRANCH  35  36
ATOM     36  C   UNL A   1      38.248  30.171  29.984  1.00  0.00     0.031 A 
ATOM     37  C   UNL A   1      39.247  29.201  29.415  1.00  0.00     0.074 A 
ATOM     38  C   UNL A   1      38.424  30.674  31.217  1.00  0.00     0.049 A 
ATOM     39  N   UNL A   1      40.327  28.701  29.961  1.00  0.00    -0.248 NA
ATOM     40  C   UNL A   1      38.992  28.730  28.045  1.00  0.00     0.031 C 
ATOM     41  C   UNL A   1      37.542  31.641  31.867  1.00  0.00     0.029 A 
ATOM     42  N   UNL A   1      39.410  30.441  32.143  1.00  0.00    -0.354 N 
ATOM     43  C   UNL A   1      40.874  27.852  29.008  1.00  0.00     0.074 A 
ATOM     44  C   UNL A   1      39.988  27.874  27.864  1.00  0.00     0.031 C 
ATOM     45  C   UNL A   1      38.026  31.919  33.089  1.00  0.00     0.029 A 
ATOM     46  C   UNL A   1      39.232  31.128  33.318  1.00  0.00     0.049 A 
ATOM     47  H   UNL A   1      40.172  29.839  31.980  1.00  0.00     0.167 HD
ATOM     48  C   UNL A   1      42.019  27.130  29.075  1.00  0.00     0.037 A 
ATOM     49  C   UNL A   1      39.955  31.106  34.454  1.00  0.00     0.037 A 
ATOM     50  C   UNL A   1      42.899  27.113  30.216  1.00  0.00     0.049 A 
ATOM     51  C   UNL A   1      41.193  30.251  34.526  1.00  0.00     0.074 A 
ATOM     52  C   UNL A   1      44.097  26.438  30.372  1.00  0.00     0.029 A 
ATOM     53  N   UNL A   1      42.669  27.794  31.404  1.00  0.00    -0.354 N 
ATOM     54  N   UNL A   1      41.725  29.480  33.608  1.00  0.00    -0.248 NA
ATOM     55  C   UNL A   1      41.937  30.273  35.792  1.00  0.00     0.031 C 
ATOM     56  C   UNL A   1      44.557  26.656  31.676  1.00  0.00     0.029 A 
ATOM     57  C   UNL A   1      43.685  27.526  32.309  1.00  0.00     0.049 A 
ATOM     58  H   UNL A   1      41.898  28.381  31.577  1.00  0.00     0.167 HD
ATOM     59  C   UNL A   1      42.877  28.948  34.173  1.00  0.00     0.074 A 
ATOM     60  C   UNL A   1      42.978  29.504  35.507  1.00  0.00     0.031 C 
ATOM     61  C   UNL A   1      43.770  28.078  33.639  1.00  0.00     0.037 A 
BRANCH  48  62
ATOM     62  C   UNL A   1      42.367  26.269  27.893  1.00  0.00     0.064 A 
ATOM     63  C   UNL A   1      43.268  26.694  26.903  1.00  0.00     0.173 A 
ATOM     64  C   UNL A   1      41.806  24.991  27.759  1.00  0.00     0.173 A 
ATOM     65  F   UNL A   1      43.826  27.912  26.975  1.00  0.00    -0.203 F 
ATOM     66  C   UNL A   1      43.565  25.885  25.808  1.00  0.00     0.198 A 
ATOM     67  C   UNL A   1      42.132  24.171  26.681  1.00  0.00     0.198 A 
ATOM     68  F   UNL A   1      40.942  24.531  28.677  1.00  0.00    -0.203 F 
ATOM     69  F   UNL A   1      44.382  26.336  24.846  1.00  0.00    -0.200 F 
ATOM     70  C   UNL A   1      43.002  24.622  25.702  1.00  0.00     0.200 A 
ATOM     71  F   UNL A   1      41.599  22.944  26.590  1.00  0.00    -0.200 F 
ATOM     72  F   UNL A   1      43.293  23.843  24.651  1.00  0.00    -0.200 F 
ENDBRANCH  48  62
BRANCH  49  73
ATOM     73  C   UNL A   1      39.520  31.917  35.623  1.00  0.00     0.064 A 
ATOM     74  C   UNL A   1      40.057  33.189  35.865  1.00  0.00     0.173 A 
ATOM     75  C   UNL A   1      38.564  31.430  36.527  1.00  0.00     0.173 A 
ATOM     76  F   UNL A   1      40.993  33.688  35.043  1.00  0.00    -0.203 F 
ATOM     77  C   UNL A   1      39.672  33.933  36.977  1.00  0.00     0.198 A 
ATOM     78  C   UNL A   1      38.155  32.190  37.620  1.00  0.00     0.198 A 
ATOM     79  F   UNL A   1      38.018  30.220  36.342  1.00  0.00    -0.203 F 
ATOM     80  F   UNL A   1      40.240  35.124  37.214  1.00  0.00    -0.200 F 
ATOM     81  C   UNL A   1      38.716  33.437  37.851  1.00  0.00     0.200 A 
ATOM     82  F   UNL A   1      37.220  31.711  38.452  1.00  0.00    -0.200 F 
ATOM     83  F   UNL A   1      38.341  34.155  38.917  1.00  0.00    -0.200 F 
ENDBRANCH  49  73
BRANCH  61  84
ATOM     84  C   UNL A   1      44.952  27.698  34.490  1.00  0.00     0.064 A 
ATOM     85  C   UNL A   1      46.143  28.441  34.480  1.00  0.00     0.173 A 
ATOM     86  C   UNL A   1      44.891  26.576  35.332  1.00  0.00     0.173 A 
ATOM     87  F   UNL A   1      46.261  29.516  33.685  1.00  0.00    -0.203 F 
ATOM     88  C   UNL A   1      47.241  28.049  35.243  1.00  0.00     0.198 A 
ATOM     89  C   UNL A   1      45.977  26.211  36.123  1.00  0.00     0.198 A 
ATOM     90  F   UNL A   1      43.775  25.834  35.391  1.00  0.00    -0.203 F 
ATOM     91  F   UNL A   1      48.390  28.734  35.160  1.00  0.00    -0.200 F 
ATOM     92  C   UNL A   1      47.155  26.938  36.068  1.00  0.00     0.200 A 
ATOM     93  F   UNL A   1      45.885  25.147  36.934  1.00  0.00    -0.200 F 
ATOM     94  F   UNL A   1      48.213  26.562  36.800  1.00  0.00    -0.200 F 
ENDBRANCH  61  84
ENDBRANCH  35  36
ENDBRANCH  28  30
ENDBRANCH  27  28
ENDBRANCH  26  27
ENDBRANCH   1  26
TORSDOF 15
ENDMDL
