MODEL 1
REMARK VINA RESULT:     -12.1      0.000      0.000
REMARK SMILES Cc1nc(-c2ccc3c(c2)CCN3S(=O)(=O)c2ccc(F)c(C(=O)OCCOCCOC(=O)c3ccc(-c4c5nc(c(-c6c(F)c(F)c(F)c(F)c6F)c6ccc([nH]6)c(-c6c(F)c(F)c(F)c(F)c6F)c6nc(c(-c7c(F)c(F)c(F)c(F)c7F)c7ccc4[nH]7)C=C6)C=C5)cc3)c2)cs1
REMARK SMILES IDX 27 1 26 2 25 3 23 4 24 5 22 6 17 7 18 8 97 9 19 10 20 11
REMARK SMILES IDX 21 12 14 13 15 14 16 15 13 16 5 17 6 18 10 19 7 20 9 21 8 22
REMARK SMILES IDX 11 23 12 24 4 25 1 26 2 27 3 28 99 29 98 30 28 31 29 32
REMARK SMILES IDX 30 33 31 34 32 35 33 36 34 37 35 38 96 39 36 40 95 41 37 42
REMARK SMILES IDX 38 43 39 44 89 45 40 46 94 47 88 48 90 49 41 50 93 51 87 52
REMARK SMILES IDX 86 53 42 55 74 56 54 57 73 58 55 59 58 60 72 61 91 62 56 63
REMARK SMILES IDX 57 64 71 66 92 67 59 68 43 69 44 70 52 71 45 72 46 73 50 74
REMARK SMILES IDX 53 75 47 76 48 77 51 78 49 79 75 80 76 81 84 82 77 83 78 84
REMARK SMILES IDX 82 85 85 86 79 87 80 88 83 89 81 90 60 91 61 92 69 93 62 94
REMARK SMILES IDX 63 95 67 96 70 97 64 98 65 99 68 100 66 101
REMARK H PARENT 90 54 58 65
REMARK Flexibility Score: inf
ROOT
ATOM      1  C   UNL A   1      34.864  29.984  27.797  1.00  0.00     0.202 C 
ENDROOT
BRANCH   1   2
ATOM      2  C   UNL A   1      34.370  29.231  26.559  1.00  0.00     0.261 C 
BRANCH   2   3
ATOM      3  O   UNL A   1      33.856  27.946  26.938  1.00  0.00    -0.460 OA
BRANCH   3   4
ATOM      4  C   UNL A   1      32.514  27.805  26.875  1.00  0.00     0.341 C 
ATOM      5  O   UNL A   1      31.700  28.114  27.732  1.00  0.00    -0.246 OA
BRANCH   4   6
ATOM      6  C   UNL A   1      32.117  27.396  25.516  1.00  0.00     0.097 A 
ATOM      7  C   UNL A   1      32.227  25.754  23.750  1.00  0.00     0.089 A 
ATOM      8  C   UNL A   1      31.444  26.574  22.927  1.00  0.00     0.025 A 
ATOM      9  C   UNL A   1      32.532  26.135  25.060  1.00  0.00     0.041 A 
ATOM     10  C   UNL A   1      31.018  27.816  23.396  1.00  0.00     0.041 A 
ATOM     11  C   UNL A   1      31.367  28.230  24.680  1.00  0.00     0.137 A 
ATOM     12  F   UNL A   1      30.998  29.457  25.069  1.00  0.00    -0.206 F 
BRANCH   7  13
ATOM     13  S   UNL A   1      32.946  24.281  23.066  1.00  0.00     0.264 S 
ATOM     14  O   UNL A   1      34.130  24.686  22.335  1.00  0.00    -0.201 OA
ATOM     15  O   UNL A   1      31.878  23.573  22.387  1.00  0.00    -0.201 OA
BRANCH  13  16
ATOM     16  N   UNL A   1      33.445  23.324  24.390  1.00  0.00    -0.266 N 
ATOM     17  C   UNL A   1      37.267  21.796  25.306  1.00  0.00     0.001 A 
ATOM     18  C   UNL A   1      37.173  23.139  24.918  1.00  0.00     0.012 A 
ATOM     19  C   UNL A   1      36.107  21.011  25.353  1.00  0.00     0.016 A 
ATOM     20  C   UNL A   1      35.948  23.699  24.566  1.00  0.00     0.028 A 
ATOM     21  C   UNL A   1      34.890  21.594  24.996  1.00  0.00    -0.021 A 
ATOM     22  C   UNL A   1      34.812  22.914  24.554  1.00  0.00     0.055 A 
ATOM     23  C   UNL A   1      33.525  21.012  25.179  1.00  0.00     0.060 C 
ATOM     24  C   UNL A   1      32.621  22.063  24.514  1.00  0.00     0.140 C 
BRANCH  17  25
ATOM     25  C   UNL A   1      38.564  21.323  25.751  1.00  0.00     0.081 A 
ATOM     26  C   UNL A   1      41.678  22.211  27.429  1.00  0.00     0.079 C 
ATOM     27  C   UNL A   1      40.549  21.573  26.699  1.00  0.00     0.090 A 
ATOM     28  N   UNL A   1      39.416  22.180  26.428  1.00  0.00    -0.242 NA
ATOM     29  S   UNL A   1      40.669  19.957  26.130  1.00  0.00    -0.127 S 
ATOM     30  C   UNL A   1      39.078  20.071  25.491  1.00  0.00     0.095 A 
ENDBRANCH  17  25
ENDBRANCH  13  16
ENDBRANCH   7  13
ENDBRANCH   4   6
ENDBRANCH   3   4
ENDBRANCH   2   3
ENDBRANCH   1   2
BRANCH   1  31
ATOM     31  O   UNL A   1      34.112  31.137  28.177  1.00  0.00    -0.374 OA
BRANCH  31  32
ATOM     32  C   UNL A   1      33.227  31.701  27.211  1.00  0.00     0.202 C 
BRANCH  32  33
ATOM     33  C   UNL A   1      32.432  32.943  27.634  1.00  0.00     0.261 C 
BRANCH  33  34
ATOM     34  O   UNL A   1      33.203  34.153  27.535  1.00  0.00    -0.460 OA
BRANCH  34  35
ATOM     35  C   UNL A   1      33.299  34.857  28.688  1.00  0.00     0.338 C 
ATOM     36  O   UNL A   1      32.525  35.703  29.109  1.00  0.00    -0.246 OA
BRANCH  35  37
ATOM     37  C   UNL A   1      34.420  34.348  29.499  1.00  0.00     0.060 A 
ATOM     38  C   UNL A   1      35.700  34.383  28.931  1.00  0.00     0.016 A 
ATOM     39  C   UNL A   1      34.216  33.774  30.755  1.00  0.00     0.016 A 
ATOM     40  C   UNL A   1      36.777  33.807  29.601  1.00  0.00     0.010 A 
ATOM     41  C   UNL A   1      35.297  33.187  31.422  1.00  0.00     0.010 A 
ATOM     42  C   UNL A   1      36.576  33.175  30.835  1.00  0.00    -0.014 A 
BRANCH  42  43
ATOM     43  C   UNL A   1      37.676  32.396  31.456  1.00  0.00     0.031 A 
ATOM     44  C   UNL A   1      38.161  32.780  32.827  1.00  0.00     0.074 A 
ATOM     45  C   UNL A   1      38.211  31.339  30.820  1.00  0.00     0.049 A 
ATOM     46  N   UNL A   1      39.150  32.282  33.525  1.00  0.00    -0.248 NA
ATOM     47  C   UNL A   1      37.434  33.866  33.504  1.00  0.00     0.031 C 
ATOM     48  C   UNL A   1      37.781  30.830  29.520  1.00  0.00     0.029 A 
ATOM     49  N   UNL A   1      39.235  30.500  31.187  1.00  0.00    -0.354 N 
ATOM     50  C   UNL A   1      39.160  32.988  34.721  1.00  0.00     0.074 A 
ATOM     51  C   UNL A   1      38.101  33.971  34.645  1.00  0.00     0.031 C 
ATOM     52  C   UNL A   1      38.536  29.766  29.196  1.00  0.00     0.029 A 
ATOM     53  C   UNL A   1      39.529  29.544  30.245  1.00  0.00     0.049 A 
ATOM     54  H   UNL A   1      39.714  30.578  32.043  1.00  0.00     0.167 HD
ATOM     55  C   UNL A   1      39.971  32.819  35.790  1.00  0.00     0.037 A 
ATOM     56  C   UNL A   1      40.503  28.614  30.225  1.00  0.00     0.037 A 
ATOM     57  C   UNL A   1      41.020  31.837  35.867  1.00  0.00     0.049 A 
ATOM     58  C   UNL A   1      41.464  28.524  31.384  1.00  0.00     0.074 A 
ATOM     59  C   UNL A   1      41.904  31.603  36.906  1.00  0.00     0.029 A 
ATOM     60  N   UNL A   1      41.324  30.927  34.868  1.00  0.00    -0.354 N 
ATOM     61  N   UNL A   1      41.474  29.203  32.505  1.00  0.00    -0.248 NA
ATOM     62  C   UNL A   1      42.553  27.543  31.272  1.00  0.00     0.031 C 
ATOM     63  C   UNL A   1      42.770  30.578  36.519  1.00  0.00     0.029 A 
ATOM     64  C   UNL A   1      42.394  30.140  35.260  1.00  0.00     0.049 A 
ATOM     65  H   UNL A   1      40.851  30.851  34.008  1.00  0.00     0.167 HD
ATOM     66  C   UNL A   1      42.543  28.709  33.242  1.00  0.00     0.074 A 
ATOM     67  C   UNL A   1      43.156  27.667  32.447  1.00  0.00     0.031 C 
ATOM     68  C   UNL A   1      42.977  29.087  34.469  1.00  0.00     0.037 A 
BRANCH  55  69
ATOM     69  C   UNL A   1      39.767  33.706  36.981  1.00  0.00     0.064 A 
ATOM     70  C   UNL A   1      38.896  33.325  38.013  1.00  0.00     0.173 A 
ATOM     71  C   UNL A   1      40.345  34.983  37.044  1.00  0.00     0.173 A 
ATOM     72  F   UNL A   1      38.313  32.117  37.993  1.00  0.00    -0.203 F 
ATOM     73  C   UNL A   1      38.590  34.201  39.050  1.00  0.00     0.198 A 
ATOM     74  C   UNL A   1      40.056  35.847  38.097  1.00  0.00     0.198 A 
ATOM     75  F   UNL A   1      41.193  35.388  36.086  1.00  0.00    -0.203 F 
ATOM     76  F   UNL A   1      37.721  33.833  40.001  1.00  0.00    -0.200 F 
ATOM     77  C   UNL A   1      39.168  35.461  39.091  1.00  0.00     0.200 A 
ATOM     78  F   UNL A   1      40.628  37.058  38.144  1.00  0.00    -0.200 F 
ATOM     79  F   UNL A   1      38.867  36.306  40.087  1.00  0.00    -0.200 F 
ENDBRANCH  55  69
BRANCH  56  80
ATOM     80  C   UNL A   1      40.632  27.690  29.067  1.00  0.00     0.064 A 
ATOM     81  C   UNL A   1      39.809  26.561  28.938  1.00  0.00     0.173 A 
ATOM     82  C   UNL A   1      41.565  27.935  28.050  1.00  0.00     0.173 A 
ATOM     83  F   UNL A   1      38.894  26.284  29.878  1.00  0.00    -0.203 F 
ATOM     84  C   UNL A   1      39.924  25.706  27.843  1.00  0.00     0.198 A 
ATOM     85  C   UNL A   1      41.660  27.096  26.942  1.00  0.00     0.198 A 
ATOM     86  F   UNL A   1      42.354  29.017  28.114  1.00  0.00    -0.203 F 
ATOM     87  F   UNL A   1      39.140  24.623  27.756  1.00  0.00    -0.200 F 
ATOM     88  C   UNL A   1      40.844  25.979  26.842  1.00  0.00     0.200 A 
ATOM     89  F   UNL A   1      42.527  27.382  25.961  1.00  0.00    -0.200 F 
ATOM     90  F   UNL A   1      40.936  25.172  25.775  1.00  0.00    -0.200 F 
ENDBRANCH  56  80
BRANCH  68  91
ATOM     91  C   UNL A   1      44.145  28.353  35.060  1.00  0.00     0.064 A 
ATOM     92  C   UNL A   1      45.456  28.779  34.796  1.00  0.00     0.173 A 
ATOM     93  C   UNL A   1      43.972  27.176  35.803  1.00  0.00     0.173 A 
ATOM     94  F   UNL A   1      45.674  29.892  34.082  1.00  0.00    -0.203 F 
ATOM     95  C   UNL A   1      46.551  28.042  35.238  1.00  0.00     0.198 A 
ATOM     96  C   UNL A   1      45.069  26.457  36.267  1.00  0.00     0.198 A 
ATOM     97  F   UNL A   1      42.738  26.735  36.090  1.00  0.00    -0.203 F 
ATOM     98  F   UNL A   1      47.793  28.445  34.939  1.00  0.00    -0.200 F 
ATOM     99  C   UNL A   1      46.357  26.883  35.974  1.00  0.00     0.200 A 
ATOM    100  F   UNL A   1      44.882  25.349  36.998  1.00  0.00    -0.200 F 
ATOM    101  F   UNL A   1      47.412  26.176  36.402  1.00  0.00    -0.200 F 
ENDBRANCH  68  91
ENDBRANCH  42  43
ENDBRANCH  35  37
ENDBRANCH  34  35
ENDBRANCH  33  34
ENDBRANCH  32  33
ENDBRANCH  31  32
ENDBRANCH   1  31
TORSDOF 17
ENDMDL
MODEL 2
REMARK VINA RESULT:     -12.1      3.421      9.565
REMARK SMILES Cc1nc(-c2ccc3c(c2)CCN3S(=O)(=O)c2ccc(F)c(C(=O)OCCOCCOC(=O)c3ccc(-c4c5nc(c(-c6c(F)c(F)c(F)c(F)c6F)c6ccc([nH]6)c(-c6c(F)c(F)c(F)c(F)c6F)c6nc(c(-c7c(F)c(F)c(F)c(F)c7F)c7ccc4[nH]7)C=C6)C=C5)cc3)c2)cs1
REMARK SMILES IDX 27 1 26 2 25 3 23 4 24 5 22 6 17 7 18 8 97 9 19 10 20 11
REMARK SMILES IDX 21 12 14 13 15 14 16 15 13 16 5 17 6 18 10 19 7 20 9 21 8 22
REMARK SMILES IDX 11 23 12 24 4 25 1 26 2 27 3 28 99 29 98 30 28 31 29 32
REMARK SMILES IDX 30 33 31 34 32 35 33 36 34 37 35 38 96 39 36 40 95 41 37 42
REMARK SMILES IDX 38 43 39 44 89 45 40 46 94 47 88 48 90 49 41 50 93 51 87 52
REMARK SMILES IDX 86 53 42 55 74 56 54 57 73 58 55 59 58 60 72 61 91 62 56 63
REMARK SMILES IDX 57 64 71 66 92 67 59 68 43 69 44 70 52 71 45 72 46 73 50 74
REMARK SMILES IDX 53 75 47 76 48 77 51 78 49 79 75 80 76 81 84 82 77 83 78 84
REMARK SMILES IDX 82 85 85 86 79 87 80 88 83 89 81 90 60 91 61 92 69 93 62 94
REMARK SMILES IDX 63 95 67 96 70 97 64 98 65 99 68 100 66 101
REMARK H PARENT 90 54 58 65
REMARK Flexibility Score: inf
ROOT
ATOM      1  C   UNL A   1      42.855  22.351  25.337  1.00  0.00     0.202 C 
ENDROOT
BRANCH   1   2
ATOM      2  C   UNL A   1      43.162  21.892  26.765  1.00  0.00     0.261 C 
BRANCH   2   3
ATOM      3  O   UNL A   1      42.089  22.264  27.642  1.00  0.00    -0.460 OA
BRANCH   3   4
ATOM      4  C   UNL A   1      40.961  21.528  27.541  1.00  0.00     0.341 C 
ATOM      5  O   UNL A   1      40.786  20.388  27.948  1.00  0.00    -0.246 OA
BRANCH   4   6
ATOM      6  C   UNL A   1      39.860  22.366  27.034  1.00  0.00     0.097 A 
ATOM      7  C   UNL A   1      37.852  22.535  25.705  1.00  0.00     0.089 A 
ATOM      8  C   UNL A   1      37.766  23.904  25.993  1.00  0.00     0.025 A 
ATOM      9  C   UNL A   1      38.868  21.748  26.256  1.00  0.00     0.041 A 
ATOM     10  C   UNL A   1      38.745  24.505  26.785  1.00  0.00     0.041 A 
ATOM     11  C   UNL A   1      39.795  23.739  27.289  1.00  0.00     0.137 A 
ATOM     12  F   UNL A   1      40.751  24.365  27.988  1.00  0.00    -0.206 F 
BRANCH   7  13
ATOM     13  S   UNL A   1      36.731  21.832  24.521  1.00  0.00     0.264 S 
ATOM     14  O   UNL A   1      36.852  20.392  24.623  1.00  0.00    -0.201 OA
ATOM     15  O   UNL A   1      36.989  22.496  23.258  1.00  0.00    -0.201 OA
BRANCH  13  16
ATOM     16  N   UNL A   1      35.157  22.265  25.024  1.00  0.00    -0.266 N 
ATOM     17  C   UNL A   1      33.154  25.960  24.686  1.00  0.00     0.001 A 
ATOM     18  C   UNL A   1      33.835  25.478  23.560  1.00  0.00     0.012 A 
ATOM     19  C   UNL A   1      33.181  25.221  25.876  1.00  0.00     0.016 A 
ATOM     20  C   UNL A   1      34.547  24.283  23.612  1.00  0.00     0.028 A 
ATOM     21  C   UNL A   1      33.903  24.025  25.904  1.00  0.00    -0.021 A 
ATOM     22  C   UNL A   1      34.626  23.580  24.799  1.00  0.00     0.055 A 
ATOM     23  C   UNL A   1      33.887  22.990  26.982  1.00  0.00     0.060 C 
ATOM     24  C   UNL A   1      34.938  21.981  26.492  1.00  0.00     0.140 C 
BRANCH  17  25
ATOM     25  C   UNL A   1      32.356  27.160  24.516  1.00  0.00     0.081 A 
ATOM     26  C   UNL A   1      31.583  30.472  25.831  1.00  0.00     0.079 C 
ATOM     27  C   UNL A   1      31.668  29.183  25.091  1.00  0.00     0.090 A 
ATOM     28  N   UNL A   1      32.511  28.222  25.391  1.00  0.00    -0.242 NA
ATOM     29  S   UNL A   1      30.623  28.857  23.768  1.00  0.00    -0.127 S 
ATOM     30  C   UNL A   1      31.368  27.321  23.568  1.00  0.00     0.095 A 
ENDBRANCH  17  25
ENDBRANCH  13  16
ENDBRANCH   7  13
ENDBRANCH   4   6
ENDBRANCH   3   4
ENDBRANCH   2   3
ENDBRANCH   1   2
BRANCH   1  31
ATOM     31  O   UNL A   1      43.864  22.096  24.360  1.00  0.00    -0.374 OA
BRANCH  31  32
ATOM     32  C   UNL A   1      44.768  23.155  24.047  1.00  0.00     0.202 C 
BRANCH  32  33
ATOM     33  C   UNL A   1      46.117  23.157  24.777  1.00  0.00     0.261 C 
BRANCH  33  34
ATOM     34  O   UNL A   1      46.135  24.049  25.904  1.00  0.00    -0.460 OA
BRANCH  34  35
ATOM     35  C   UNL A   1      45.973  25.357  25.592  1.00  0.00     0.338 C 
ATOM     36  O   UNL A   1      46.374  25.939  24.596  1.00  0.00    -0.246 OA
BRANCH  35  37
ATOM     37  C   UNL A   1      45.074  26.002  26.567  1.00  0.00     0.060 A 
ATOM     38  C   UNL A   1      45.190  27.387  26.740  1.00  0.00     0.016 A 
ATOM     39  C   UNL A   1      44.192  25.259  27.354  1.00  0.00     0.016 A 
ATOM     40  C   UNL A   1      44.452  28.031  27.730  1.00  0.00     0.010 A 
ATOM     41  C   UNL A   1      43.460  25.907  28.356  1.00  0.00     0.010 A 
ATOM     42  C   UNL A   1      43.608  27.289  28.567  1.00  0.00    -0.014 A 
BRANCH  42  43
ATOM     43  C   UNL A   1      42.973  27.939  29.741  1.00  0.00     0.031 A 
ATOM     44  C   UNL A   1      41.642  28.618  29.570  1.00  0.00     0.074 A 
ATOM     45  C   UNL A   1      43.559  27.892  30.950  1.00  0.00     0.049 A 
ATOM     46  N   UNL A   1      40.943  29.302  30.440  1.00  0.00    -0.248 NA
ATOM     47  C   UNL A   1      41.011  28.508  28.245  1.00  0.00     0.031 C 
ATOM     48  C   UNL A   1      44.814  27.208  31.255  1.00  0.00     0.029 A 
ATOM     49  N   UNL A   1      43.172  28.434  32.152  1.00  0.00    -0.354 N 
ATOM     50  C   UNL A   1      39.793  29.698  29.772  1.00  0.00     0.074 A 
ATOM     51  C   UNL A   1      39.898  29.209  28.414  1.00  0.00     0.031 C 
ATOM     52  C   UNL A   1      45.095  27.371  32.559  1.00  0.00     0.029 A 
ATOM     53  C   UNL A   1      44.063  28.205  33.173  1.00  0.00     0.049 A 
ATOM     54  H   UNL A   1      42.336  28.939  32.270  1.00  0.00     0.167 HD
ATOM     55  C   UNL A   1      38.739  30.396  30.253  1.00  0.00     0.037 A 
ATOM     56  C   UNL A   1      44.054  28.639  34.448  1.00  0.00     0.037 A 
ATOM     57  C   UNL A   1      38.633  30.878  31.605  1.00  0.00     0.049 A 
ATOM     58  C   UNL A   1      42.919  29.510  34.924  1.00  0.00     0.074 A 
ATOM     59  C   UNL A   1      37.607  31.608  32.179  1.00  0.00     0.029 A 
ATOM     60  N   UNL A   1      39.584  30.676  32.592  1.00  0.00    -0.354 N 
ATOM     61  N   UNL A   1      41.842  29.890  34.283  1.00  0.00    -0.248 NA
ATOM     62  C   UNL A   1      43.003  30.018  36.302  1.00  0.00     0.031 C 
ATOM     63  C   UNL A   1      37.956  31.884  33.503  1.00  0.00     0.029 A 
ATOM     64  C   UNL A   1      39.175  31.283  33.768  1.00  0.00     0.049 A 
ATOM     65  H   UNL A   1      40.424  30.176  32.475  1.00  0.00     0.167 HD
ATOM     66  C   UNL A   1      41.107  30.650  35.185  1.00  0.00     0.074 A 
ATOM     67  C   UNL A   1      41.855  30.672  36.424  1.00  0.00     0.031 C 
ATOM     68  C   UNL A   1      39.918  31.273  35.002  1.00  0.00     0.037 A 
BRANCH  55  69
ATOM     69  C   UNL A   1      37.598  30.686  29.325  1.00  0.00     0.064 A 
ATOM     70  C   UNL A   1      37.404  31.979  28.816  1.00  0.00     0.173 A 
ATOM     71  C   UNL A   1      36.634  29.711  29.031  1.00  0.00     0.173 A 
ATOM     72  F   UNL A   1      38.295  32.948  29.076  1.00  0.00    -0.203 F 
ATOM     73  C   UNL A   1      36.271  32.291  28.070  1.00  0.00     0.198 A 
ATOM     74  C   UNL A   1      35.514  30.021  28.264  1.00  0.00     0.198 A 
ATOM     75  F   UNL A   1      36.781  28.457  29.486  1.00  0.00    -0.203 F 
ATOM     76  F   UNL A   1      36.084  33.544  27.633  1.00  0.00    -0.200 F 
ATOM     77  C   UNL A   1      35.327  31.314  27.796  1.00  0.00     0.200 A 
ATOM     78  F   UNL A   1      34.611  29.072  27.985  1.00  0.00    -0.200 F 
ATOM     79  F   UNL A   1      34.233  31.618  27.083  1.00  0.00    -0.200 F 
ENDBRANCH  55  69
BRANCH  56  80
ATOM     80  C   UNL A   1      45.158  28.266  35.372  1.00  0.00     0.064 A 
ATOM     81  C   UNL A   1      45.084  27.117  36.174  1.00  0.00     0.173 A 
ATOM     82  C   UNL A   1      46.323  29.041  35.452  1.00  0.00     0.173 A 
ATOM     83  F   UNL A   1      43.994  26.336  36.130  1.00  0.00    -0.203 F 
ATOM     84  C   UNL A   1      46.127  26.765  37.028  1.00  0.00     0.198 A 
ATOM     85  C   UNL A   1      47.378  28.673  36.284  1.00  0.00     0.198 A 
ATOM     86  F   UNL A   1      46.453  30.133  34.685  1.00  0.00    -0.203 F 
ATOM     87  F   UNL A   1      46.021  25.674  37.798  1.00  0.00    -0.200 F 
ATOM     88  C   UNL A   1      47.277  27.538  37.077  1.00  0.00     0.200 A 
ATOM     89  F   UNL A   1      48.500  29.405  36.304  1.00  0.00    -0.200 F 
ATOM     90  F   UNL A   1      48.292  27.185  37.877  1.00  0.00    -0.200 F 
ENDBRANCH  56  80
BRANCH  68  91
ATOM     91  C   UNL A   1      39.317  32.001  36.168  1.00  0.00     0.064 A 
ATOM     92  C   UNL A   1      38.350  31.376  36.970  1.00  0.00     0.173 A 
ATOM     93  C   UNL A   1      39.624  33.344  36.432  1.00  0.00     0.173 A 
ATOM     94  F   UNL A   1      38.014  30.097  36.752  1.00  0.00    -0.203 F 
ATOM     95  C   UNL A   1      37.697  32.076  37.982  1.00  0.00     0.198 A 
ATOM     96  C   UNL A   1      38.990  34.032  37.462  1.00  0.00     0.198 A 
ATOM     97  F   UNL A   1      40.549  33.981  35.700  1.00  0.00    -0.203 F 
ATOM     98  F   UNL A   1      36.747  31.471  38.707  1.00  0.00    -0.200 F 
ATOM     99  C   UNL A   1      38.018  33.402  38.228  1.00  0.00     0.200 A 
ATOM    100  F   UNL A   1      39.316  35.307  37.715  1.00  0.00    -0.200 F 
ATOM    101  F   UNL A   1      37.392  34.074  39.204  1.00  0.00    -0.200 F 
ENDBRANCH  68  91
ENDBRANCH  42  43
ENDBRANCH  35  37
ENDBRANCH  34  35
ENDBRANCH  33  34
ENDBRANCH  32  33
ENDBRANCH  31  32
ENDBRANCH   1  31
TORSDOF 17
ENDMDL
MODEL 3
REMARK VINA RESULT:     -12.0      4.880     11.178
REMARK SMILES Cc1nc(-c2ccc3c(c2)CCN3S(=O)(=O)c2ccc(F)c(C(=O)OCCOCCOC(=O)c3ccc(-c4c5nc(c(-c6c(F)c(F)c(F)c(F)c6F)c6ccc([nH]6)c(-c6c(F)c(F)c(F)c(F)c6F)c6nc(c(-c7c(F)c(F)c(F)c(F)c7F)c7ccc4[nH]7)C=C6)C=C5)cc3)c2)cs1
REMARK SMILES IDX 27 1 26 2 25 3 23 4 24 5 22 6 17 7 18 8 97 9 19 10 20 11
REMARK SMILES IDX 21 12 14 13 15 14 16 15 13 16 5 17 6 18 10 19 7 20 9 21 8 22
REMARK SMILES IDX 11 23 12 24 4 25 1 26 2 27 3 28 99 29 98 30 28 31 29 32
REMARK SMILES IDX 30 33 31 34 32 35 33 36 34 37 35 38 96 39 36 40 95 41 37 42
REMARK SMILES IDX 38 43 39 44 89 45 40 46 94 47 88 48 90 49 41 50 93 51 87 52
REMARK SMILES IDX 86 53 42 55 74 56 54 57 73 58 55 59 58 60 72 61 91 62 56 63
REMARK SMILES IDX 57 64 71 66 92 67 59 68 43 69 44 70 52 71 45 72 46 73 50 74
REMARK SMILES IDX 53 75 47 76 48 77 51 78 49 79 75 80 76 81 84 82 77 83 78 84
REMARK SMILES IDX 82 85 85 86 79 87 80 88 83 89 81 90 60 91 61 92 69 93 62 94
REMARK SMILES IDX 63 95 67 96 70 97 64 98 65 99 68 100 66 101
REMARK H PARENT 90 54 58 65
REMARK Flexibility Score: inf
ROOT
ATOM      1  C   UNL A   1      36.082  21.462  25.372  1.00  0.00     0.202 C 
ENDROOT
BRANCH   1   2
ATOM      2  C   UNL A   1      35.011  21.975  24.405  1.00  0.00     0.261 C 
BRANCH   2   3
ATOM      3  O   UNL A   1      34.631  23.313  24.758  1.00  0.00    -0.460 OA
BRANCH   3   4
ATOM      4  C   UNL A   1      34.038  24.035  23.782  1.00  0.00     0.341 C 
ATOM      5  O   UNL A   1      34.222  23.936  22.578  1.00  0.00    -0.246 OA
BRANCH   4   6
ATOM      6  C   UNL A   1      32.956  24.855  24.354  1.00  0.00     0.097 A 
ATOM      7  C   UNL A   1      32.028  27.050  24.742  1.00  0.00     0.089 A 
ATOM      8  C   UNL A   1      30.963  26.483  25.455  1.00  0.00     0.025 A 
ATOM      9  C   UNL A   1      33.005  26.244  24.150  1.00  0.00     0.041 A 
ATOM     10  C   UNL A   1      30.911  25.101  25.634  1.00  0.00     0.041 A 
ATOM     11  C   UNL A   1      31.913  24.294  25.098  1.00  0.00     0.137 A 
ATOM     12  F   UNL A   1      31.866  22.979  25.349  1.00  0.00    -0.206 F 
BRANCH   7  13
ATOM     13  S   UNL A   1      32.200  28.817  24.712  1.00  0.00     0.264 S 
ATOM     14  O   UNL A   1      30.877  29.370  24.509  1.00  0.00    -0.201 OA
ATOM     15  O   UNL A   1      33.265  29.116  23.774  1.00  0.00    -0.201 OA
BRANCH  13  16
ATOM     16  N   UNL A   1      32.732  29.280  26.268  1.00  0.00    -0.266 N 
ATOM     17  C   UNL A   1      33.225  33.138  27.897  1.00  0.00     0.001 A 
ATOM     18  C   UNL A   1      32.043  32.869  27.194  1.00  0.00     0.012 A 
ATOM     19  C   UNL A   1      34.200  32.137  28.013  1.00  0.00     0.016 A 
ATOM     20  C   UNL A   1      31.831  31.628  26.599  1.00  0.00     0.028 A 
ATOM     21  C   UNL A   1      33.964  30.901  27.408  1.00  0.00    -0.021 A 
ATOM     22  C   UNL A   1      32.813  30.659  26.660  1.00  0.00     0.055 A 
ATOM     23  C   UNL A   1      34.757  29.646  27.586  1.00  0.00     0.060 C 
ATOM     24  C   UNL A   1      34.077  28.679  26.604  1.00  0.00     0.140 C 
BRANCH  17  25
ATOM     25  C   UNL A   1      33.320  34.420  28.569  1.00  0.00     0.081 A 
ATOM     26  C   UNL A   1      32.463  36.321  31.560  1.00  0.00     0.079 C 
ATOM     27  C   UNL A   1      32.928  35.819  30.239  1.00  0.00     0.090 A 
ATOM     28  N   UNL A   1      32.775  34.579  29.832  1.00  0.00    -0.242 NA
ATOM     29  S   UNL A   1      33.702  36.868  29.120  1.00  0.00    -0.127 S 
ATOM     30  C   UNL A   1      33.862  35.560  28.016  1.00  0.00     0.095 A 
ENDBRANCH  17  25
ENDBRANCH  13  16
ENDBRANCH   7  13
ENDBRANCH   4   6
ENDBRANCH   3   4
ENDBRANCH   2   3
ENDBRANCH   1   2
BRANCH   1  31
ATOM     31  O   UNL A   1      37.304  21.016  24.782  1.00  0.00    -0.374 OA
BRANCH  31  32
ATOM     32  C   UNL A   1      37.621  19.628  24.883  1.00  0.00     0.202 C 
BRANCH  32  33
ATOM     33  C   UNL A   1      39.001  19.268  25.449  1.00  0.00     0.261 C 
BRANCH  33  34
ATOM     34  O   UNL A   1      39.351  20.060  26.597  1.00  0.00    -0.460 OA
BRANCH  34  35
ATOM     35  C   UNL A   1      40.681  20.240  26.775  1.00  0.00     0.338 C 
ATOM     36  O   UNL A   1      41.578  19.451  26.521  1.00  0.00    -0.246 OA
BRANCH  35  37
ATOM     37  C   UNL A   1      40.953  21.630  27.184  1.00  0.00     0.060 A 
ATOM     38  C   UNL A   1      40.393  22.656  26.411  1.00  0.00     0.016 A 
ATOM     39  C   UNL A   1      41.804  21.928  28.250  1.00  0.00     0.016 A 
ATOM     40  C   UNL A   1      40.714  23.985  26.678  1.00  0.00     0.010 A 
ATOM     41  C   UNL A   1      42.132  23.264  28.509  1.00  0.00     0.010 A 
ATOM     42  C   UNL A   1      41.612  24.295  27.707  1.00  0.00    -0.014 A 
BRANCH  42  43
ATOM     43  C   UNL A   1      42.102  25.687  27.867  1.00  0.00     0.031 A 
ATOM     44  C   UNL A   1      43.426  26.069  27.265  1.00  0.00     0.074 A 
ATOM     45  C   UNL A   1      41.360  26.606  28.508  1.00  0.00     0.049 A 
ATOM     46  N   UNL A   1      44.074  27.204  27.341  1.00  0.00    -0.248 NA
ATOM     47  C   UNL A   1      44.111  25.038  26.469  1.00  0.00     0.031 C 
ATOM     48  C   UNL A   1      40.033  26.373  29.075  1.00  0.00     0.029 A 
ATOM     49  N   UNL A   1      41.619  27.925  28.791  1.00  0.00    -0.354 N 
ATOM     50  C   UNL A   1      45.235  27.026  26.601  1.00  0.00     0.074 A 
ATOM     51  C   UNL A   1      45.223  25.665  26.110  1.00  0.00     0.031 C 
ATOM     52  C   UNL A   1      39.593  27.512  29.638  1.00  0.00     0.029 A 
ATOM     53  C   UNL A   1      40.623  28.541  29.510  1.00  0.00     0.049 A 
ATOM     54  H   UNL A   1      42.441  28.385  28.506  1.00  0.00     0.167 HD
ATOM     55  C   UNL A   1      46.215  27.923  26.344  1.00  0.00     0.037 A 
ATOM     56  C   UNL A   1      40.563  29.785  30.022  1.00  0.00     0.037 A 
ATOM     57  C   UNL A   1      46.223  29.278  26.829  1.00  0.00     0.049 A 
ATOM     58  C   UNL A   1      41.722  30.727  29.814  1.00  0.00     0.074 A 
ATOM     59  C   UNL A   1      47.182  30.255  26.631  1.00  0.00     0.029 A 
ATOM     60  N   UNL A   1      45.224  29.845  27.603  1.00  0.00    -0.354 N 
ATOM     61  N   UNL A   1      42.822  30.547  29.124  1.00  0.00    -0.248 NA
ATOM     62  C   UNL A   1      41.635  32.044  30.462  1.00  0.00     0.031 C 
ATOM     63  C   UNL A   1      46.785  31.403  27.321  1.00  0.00     0.029 A 
ATOM     64  C   UNL A   1      45.553  31.155  27.906  1.00  0.00     0.049 A 
ATOM     65  H   UNL A   1      44.403  29.386  27.894  1.00  0.00     0.167 HD
ATOM     66  C   UNL A   1      43.537  31.734  29.226  1.00  0.00     0.074 A 
ATOM     67  C   UNL A   1      42.745  32.633  30.038  1.00  0.00     0.031 C 
ATOM     68  C   UNL A   1      44.743  32.049  28.693  1.00  0.00     0.037 A 
BRANCH  55  69
ATOM     69  C   UNL A   1      47.370  27.486  25.494  1.00  0.00     0.064 A 
ATOM     70  C   UNL A   1      48.527  26.957  26.083  1.00  0.00     0.173 A 
ATOM     71  C   UNL A   1      47.373  27.698  24.107  1.00  0.00     0.173 A 
ATOM     72  F   UNL A   1      48.575  26.743  27.406  1.00  0.00    -0.203 F 
ATOM     73  C   UNL A   1      49.657  26.681  25.317  1.00  0.00     0.198 A 
ATOM     74  C   UNL A   1      48.496  27.398  23.341  1.00  0.00     0.198 A 
ATOM     75  F   UNL A   1      46.284  28.192  23.497  1.00  0.00    -0.203 F 
ATOM     76  F   UNL A   1      50.768  26.219  25.907  1.00  0.00    -0.200 F 
ATOM     77  C   UNL A   1      49.641  26.904  23.949  1.00  0.00     0.200 A 
ATOM     78  F   UNL A   1      48.475  27.597  22.017  1.00  0.00    -0.200 F 
ATOM     79  F   UNL A   1      50.732  26.644  23.214  1.00  0.00    -0.200 F 
ENDBRANCH  55  69
BRANCH  56  80
ATOM     80  C   UNL A   1      39.368  30.221  30.792  1.00  0.00     0.064 A 
ATOM     81  C   UNL A   1      38.290  30.866  30.165  1.00  0.00     0.173 A 
ATOM     82  C   UNL A   1      39.267  29.975  32.168  1.00  0.00     0.173 A 
ATOM     83  F   UNL A   1      38.331  31.118  28.849  1.00  0.00    -0.203 F 
ATOM     84  C   UNL A   1      37.166  31.259  30.888  1.00  0.00     0.198 A 
ATOM     85  C   UNL A   1      38.131  30.342  32.884  1.00  0.00     0.198 A 
ATOM     86  F   UNL A   1      40.258  29.336  32.806  1.00  0.00    -0.203 F 
ATOM     87  F   UNL A   1      36.161  31.892  30.269  1.00  0.00    -0.200 F 
ATOM     88  C   UNL A   1      37.083  30.990  32.246  1.00  0.00     0.200 A 
ATOM     89  F   UNL A   1      38.041  30.050  34.190  1.00  0.00    -0.200 F 
ATOM     90  F   UNL A   1      35.991  31.343  32.937  1.00  0.00    -0.200 F 
ENDBRANCH  56  80
BRANCH  68  91
ATOM     91  C   UNL A   1      45.276  33.431  28.927  1.00  0.00     0.064 A 
ATOM     92  C   UNL A   1      46.059  33.706  30.059  1.00  0.00     0.173 A 
ATOM     93  C   UNL A   1      44.934  34.502  28.088  1.00  0.00     0.173 A 
ATOM     94  F   UNL A   1      46.405  32.719  30.898  1.00  0.00    -0.203 F 
ATOM     95  C   UNL A   1      46.462  35.006  30.353  1.00  0.00     0.198 A 
ATOM     96  C   UNL A   1      45.362  35.796  28.369  1.00  0.00     0.198 A 
ATOM     97  F   UNL A   1      44.196  34.287  26.988  1.00  0.00    -0.203 F 
ATOM     98  F   UNL A   1      47.173  35.251  31.461  1.00  0.00    -0.200 F 
ATOM     99  C   UNL A   1      46.115  36.049  29.508  1.00  0.00     0.200 A 
ATOM    100  F   UNL A   1      45.045  36.800  27.541  1.00  0.00    -0.200 F 
ATOM    101  F   UNL A   1      46.507  37.299  29.789  1.00  0.00    -0.200 F 
ENDBRANCH  68  91
ENDBRANCH  42  43
ENDBRANCH  35  37
ENDBRANCH  34  35
ENDBRANCH  33  34
ENDBRANCH  32  33
ENDBRANCH  31  32
ENDBRANCH   1  31
TORSDOF 17
ENDMDL
