MODEL 1
REMARK VINA RESULT:     -11.3      0.000      0.000
REMARK SMILES C[C@@H](C(=O)OCCOCCOC(=O)c1ccc(-c2c3nc(c(-c4c(F)c(F)c(F)c(F)c4F)c4ccc([nH]4)c(-c4c(F)c(F)c(F)c(F)c4F)c4nc(c(-c5c(F)c(F)c(F)c(F)c5F)c5ccc2[nH]5)C=C4)C=C3)cc1)c1ccc(-c2cccc(OC(=O)NC3CC3)c2)c(F)c1
REMARK SMILES IDX 6 1 5 2 3 3 4 4 2 5 1 6 77 7 78 8 96 9 79 10 94 11 80 12
REMARK SMILES IDX 95 13 81 14 82 15 93 16 83 17 85 18 84 19 86 20 87 21 88 22
REMARK SMILES IDX 89 23 90 25 91 26 92 27 7 28 8 29 9 30 10 31 11 32 12 33
REMARK SMILES IDX 13 34 14 35 15 36 76 37 16 38 75 39 17 40 18 41 19 42 69 43
REMARK SMILES IDX 20 44 74 45 68 46 70 47 21 48 73 49 67 50 66 51 22 53 54 54
REMARK SMILES IDX 34 55 53 56 35 57 38 58 52 59 71 60 36 61 37 62 51 64 72 65
REMARK SMILES IDX 39 66 23 67 24 68 32 69 25 70 26 71 30 72 33 73 27 74 28 75
REMARK SMILES IDX 31 76 29 77 55 78 56 79 64 80 57 81 58 82 62 83 65 84 59 85
REMARK SMILES IDX 60 86 63 87 61 88 40 89 41 90 49 91 42 92 43 93 47 94 50 95
REMARK SMILES IDX 44 96 45 97 48 98 46 99
REMARK H PARENT 89 24 70 52 38 63
REMARK Flexibility Score: inf
ROOT
ATOM      1  C   UNL A   1      35.125  32.042  28.582  1.00  0.00     0.261 C 
ENDROOT
BRANCH   1   2
ATOM      2  O   UNL A   1      33.998  31.612  27.804  1.00  0.00    -0.463 OA
BRANCH   2   3
ATOM      3  C   UNL A   1      34.115  30.371  27.257  1.00  0.00     0.313 C 
ATOM      4  O   UNL A   1      34.946  29.543  27.615  1.00  0.00    -0.252 OA
BRANCH   3   5
ATOM      5  C   UNL A   1      33.064  30.092  26.168  1.00  0.00     0.126 C 
ATOM      6  C   UNL A   1      31.672  30.646  26.503  1.00  0.00     0.025 C 
BRANCH   5   7
ATOM      7  C   UNL A   1      33.087  28.620  25.741  1.00  0.00    -0.031 A 
ATOM      8  C   UNL A   1      33.709  28.279  24.527  1.00  0.00     0.005 A 
ATOM      9  C   UNL A   1      32.505  27.581  26.483  1.00  0.00     0.044 A 
ATOM     10  C   UNL A   1      33.759  26.959  24.073  1.00  0.00     0.012 A 
ATOM     11  C   UNL A   1      32.542  26.264  26.013  1.00  0.00     0.131 A 
ATOM     12  C   UNL A   1      33.156  25.928  24.800  1.00  0.00     0.018 A 
ATOM     13  F   UNL A   1      31.943  25.315  26.751  1.00  0.00    -0.206 F 
BRANCH  12  14
ATOM     14  C   UNL A   1      33.062  24.587  24.213  1.00  0.00    -0.012 A 
ATOM     15  C   UNL A   1      32.293  24.320  23.070  1.00  0.00     0.009 A 
ATOM     16  C   UNL A   1      33.669  23.511  24.881  1.00  0.00     0.056 A 
ATOM     17  C   UNL A   1      32.126  23.009  22.614  1.00  0.00     0.004 A 
ATOM     18  C   UNL A   1      33.489  22.208  24.436  1.00  0.00     0.133 A 
ATOM     19  C   UNL A   1      32.718  21.950  23.302  1.00  0.00     0.047 A 
BRANCH  18  20
ATOM     20  O   UNL A   1      34.023  21.068  25.087  1.00  0.00    -0.410 OA
BRANCH  20  21
ATOM     21  C   UNL A   1      33.648  20.580  26.335  1.00  0.00     0.412 C 
ATOM     22  O   UNL A   1      33.808  21.143  27.416  1.00  0.00    -0.224 OA
ATOM     23  N   UNL A   1      33.060  19.345  26.300  1.00  0.00    -0.318 N 
ATOM     24  H   UNL A   1      32.838  18.964  27.180  1.00  0.00     0.167 HD
BRANCH  23  25
ATOM     25  C   UNL A   1      32.719  18.526  25.186  1.00  0.00     0.085 C 
ATOM     26  C   UNL A   1      33.642  17.661  24.379  1.00  0.00     0.027 C 
ATOM     27  C   UNL A   1      32.718  17.030  25.373  1.00  0.00     0.027 C 
ENDBRANCH  23  25
ENDBRANCH  20  21
ENDBRANCH  18  20
ENDBRANCH  12  14
ENDBRANCH   5   7
ENDBRANCH   3   5
ENDBRANCH   2   3
ENDBRANCH   1   2
BRANCH   1  28
ATOM     28  C   UNL A   1      34.753  33.177  29.541  1.00  0.00     0.202 C 
BRANCH  28  29
ATOM     29  O   UNL A   1      35.126  34.503  29.182  1.00  0.00    -0.374 OA
BRANCH  29  30
ATOM     30  C   UNL A   1      34.121  35.374  28.665  1.00  0.00     0.202 C 
BRANCH  30  31
ATOM     31  C   UNL A   1      32.895  35.675  29.540  1.00  0.00     0.261 C 
BRANCH  31  32
ATOM     32  O   UNL A   1      33.227  36.303  30.792  1.00  0.00    -0.460 OA
BRANCH  32  33
ATOM     33  C   UNL A   1      32.807  35.628  31.891  1.00  0.00     0.338 C 
ATOM     34  O   UNL A   1      31.657  35.417  32.237  1.00  0.00    -0.246 OA
BRANCH  33  35
ATOM     35  C   UNL A   1      33.949  34.975  32.558  1.00  0.00     0.060 A 
ATOM     36  C   UNL A   1      35.198  35.602  32.464  1.00  0.00     0.016 A 
ATOM     37  C   UNL A   1      33.825  33.726  33.165  1.00  0.00     0.016 A 
ATOM     38  C   UNL A   1      36.340  34.959  32.936  1.00  0.00     0.010 A 
ATOM     39  C   UNL A   1      34.975  33.077  33.629  1.00  0.00     0.010 A 
ATOM     40  C   UNL A   1      36.242  33.675  33.484  1.00  0.00    -0.014 A 
BRANCH  40  41
ATOM     41  C   UNL A   1      37.478  32.907  33.769  1.00  0.00     0.031 A 
ATOM     42  C   UNL A   1      38.230  33.173  35.045  1.00  0.00     0.074 A 
ATOM     43  C   UNL A   1      37.906  31.956  32.920  1.00  0.00     0.049 A 
ATOM     44  N   UNL A   1      39.352  32.654  35.474  1.00  0.00    -0.248 NA
ATOM     45  C   UNL A   1      37.635  34.161  35.959  1.00  0.00     0.031 C 
ATOM     46  C   UNL A   1      37.241  31.575  31.677  1.00  0.00     0.029 A 
ATOM     47  N   UNL A   1      39.011  31.143  32.975  1.00  0.00    -0.354 N 
ATOM     48  C   UNL A   1      39.600  33.254  36.702  1.00  0.00     0.074 A 
ATOM     49  C   UNL A   1      38.533  34.203  36.932  1.00  0.00     0.031 C 
ATOM     50  C   UNL A   1      37.957  30.609  31.079  1.00  0.00     0.029 A 
ATOM     51  C   UNL A   1      39.151  30.334  31.876  1.00  0.00     0.049 A 
ATOM     52  H   UNL A   1      39.643  31.142  33.731  1.00  0.00     0.167 HD
ATOM     53  C   UNL A   1      40.623  33.026  37.562  1.00  0.00     0.037 A 
ATOM     54  C   UNL A   1      40.145  29.488  31.539  1.00  0.00     0.037 A 
ATOM     55  C   UNL A   1      41.682  32.081  37.327  1.00  0.00     0.049 A 
ATOM     56  C   UNL A   1      41.312  29.311  32.476  1.00  0.00     0.074 A 
ATOM     57  C   UNL A   1      42.756  31.768  38.143  1.00  0.00     0.029 A 
ATOM     58  N   UNL A   1      41.809  31.302  36.187  1.00  0.00    -0.354 N 
ATOM     59  N   UNL A   1      41.531  29.867  33.643  1.00  0.00    -0.248 NA
ATOM     60  C   UNL A   1      42.369  28.383  32.050  1.00  0.00     0.031 C 
ATOM     61  C   UNL A   1      43.564  30.846  37.469  1.00  0.00     0.029 A 
ATOM     62  C   UNL A   1      42.957  30.530  36.263  1.00  0.00     0.049 A 
ATOM     63  H   UNL A   1      41.175  31.298  35.433  1.00  0.00     0.167 HD
ATOM     64  C   UNL A   1      42.729  29.335  34.103  1.00  0.00     0.074 A 
ATOM     65  C   UNL A   1      43.182  28.400  33.095  1.00  0.00     0.031 C 
ATOM     66  C   UNL A   1      43.394  29.596  35.256  1.00  0.00     0.037 A 
BRANCH  53  67
ATOM     67  C   UNL A   1      40.659  33.835  38.829  1.00  0.00     0.064 A 
ATOM     68  C   UNL A   1      41.412  35.016  38.932  1.00  0.00     0.173 A 
ATOM     69  C   UNL A   1      39.902  33.444  39.943  1.00  0.00     0.173 A 
ATOM     70  F   UNL A   1      42.164  35.430  37.901  1.00  0.00    -0.203 F 
ATOM     71  C   UNL A   1      41.427  35.756  40.112  1.00  0.00     0.198 A 
ATOM     72  C   UNL A   1      39.892  34.204  41.109  1.00  0.00     0.198 A 
ATOM     73  F   UNL A   1      39.159  32.327  39.898  1.00  0.00    -0.203 F 
ATOM     74  F   UNL A   1      42.194  36.852  40.204  1.00  0.00    -0.200 F 
ATOM     75  C   UNL A   1      40.662  35.355  41.196  1.00  0.00     0.200 A 
ATOM     76  F   UNL A   1      39.139  33.823  42.150  1.00  0.00    -0.200 F 
ATOM     77  F   UNL A   1      40.669  36.073  42.327  1.00  0.00    -0.200 F 
ENDBRANCH  53  67
BRANCH  54  78
ATOM     78  C   UNL A   1      40.091  28.758  30.244  1.00  0.00     0.064 A 
ATOM     79  C   UNL A   1      39.458  27.512  30.138  1.00  0.00     0.173 A 
ATOM     80  C   UNL A   1      40.690  29.285  29.089  1.00  0.00     0.173 A 
ATOM     81  F   UNL A   1      38.892  26.953  31.218  1.00  0.00    -0.203 F 
ATOM     82  C   UNL A   1      39.447  26.810  28.933  1.00  0.00     0.198 A 
ATOM     83  C   UNL A   1      40.649  28.599  27.878  1.00  0.00     0.198 A 
ATOM     84  F   UNL A   1      41.309  30.474  29.136  1.00  0.00    -0.203 F 
ATOM     85  F   UNL A   1      38.883  25.597  28.873  1.00  0.00    -0.200 F 
ATOM     86  C   UNL A   1      40.036  27.357  27.803  1.00  0.00     0.200 A 
ATOM     87  F   UNL A   1      41.207  29.138  26.786  1.00  0.00    -0.200 F 
ATOM     88  F   UNL A   1      40.022  26.684  26.645  1.00  0.00    -0.200 F 
ENDBRANCH  54  78
BRANCH  66  89
ATOM     89  C   UNL A   1      44.660  28.828  35.516  1.00  0.00     0.064 A 
ATOM     90  C   UNL A   1      45.919  29.325  35.146  1.00  0.00     0.173 A 
ATOM     91  C   UNL A   1      44.615  27.593  36.181  1.00  0.00     0.173 A 
ATOM     92  F   UNL A   1      46.018  30.495  34.496  1.00  0.00    -0.203 F 
ATOM     93  C   UNL A   1      47.080  28.601  35.405  1.00  0.00     0.198 A 
ATOM     94  C   UNL A   1      45.780  26.889  36.472  1.00  0.00     0.198 A 
ATOM     95  F   UNL A   1      43.438  27.074  36.567  1.00  0.00    -0.203 F 
ATOM     96  F   UNL A   1      48.266  29.070  34.993  1.00  0.00    -0.200 F 
ATOM     97  C   UNL A   1      47.011  27.389  36.074  1.00  0.00     0.200 A 
ATOM     98  F   UNL A   1      45.711  25.725  37.134  1.00  0.00    -0.200 F 
ATOM     99  F   UNL A   1      48.130  26.698  36.331  1.00  0.00    -0.200 F 
ENDBRANCH  66  89
ENDBRANCH  40  41
ENDBRANCH  33  35
ENDBRANCH  32  33
ENDBRANCH  31  32
ENDBRANCH  30  31
ENDBRANCH  29  30
ENDBRANCH  28  29
ENDBRANCH   1  28
TORSDOF 19
ENDMDL
MODEL 2
REMARK VINA RESULT:     -11.3      1.774      2.689
REMARK SMILES C[C@@H](C(=O)OCCOCCOC(=O)c1ccc(-c2c3nc(c(-c4c(F)c(F)c(F)c(F)c4F)c4ccc([nH]4)c(-c4c(F)c(F)c(F)c(F)c4F)c4nc(c(-c5c(F)c(F)c(F)c(F)c5F)c5ccc2[nH]5)C=C4)C=C3)cc1)c1ccc(-c2cccc(OC(=O)NC3CC3)c2)c(F)c1
REMARK SMILES IDX 6 1 5 2 3 3 4 4 2 5 1 6 77 7 78 8 96 9 79 10 94 11 80 12
REMARK SMILES IDX 95 13 81 14 82 15 93 16 83 17 85 18 84 19 86 20 87 21 88 22
REMARK SMILES IDX 89 23 90 25 91 26 92 27 7 28 8 29 9 30 10 31 11 32 12 33
REMARK SMILES IDX 13 34 14 35 15 36 76 37 16 38 75 39 17 40 18 41 19 42 69 43
REMARK SMILES IDX 20 44 74 45 68 46 70 47 21 48 73 49 67 50 66 51 22 53 54 54
REMARK SMILES IDX 34 55 53 56 35 57 38 58 52 59 71 60 36 61 37 62 51 64 72 65
REMARK SMILES IDX 39 66 23 67 24 68 32 69 25 70 26 71 30 72 33 73 27 74 28 75
REMARK SMILES IDX 31 76 29 77 55 78 56 79 64 80 57 81 58 82 62 83 65 84 59 85
REMARK SMILES IDX 60 86 63 87 61 88 40 89 41 90 49 91 42 92 43 93 47 94 50 95
REMARK SMILES IDX 44 96 45 97 48 98 46 99
REMARK H PARENT 89 24 70 52 38 63
REMARK Flexibility Score: inf
ROOT
ATOM      1  C   UNL A   1      30.927  30.344  24.981  1.00  0.00     0.261 C 
ENDROOT
BRANCH   1   2
ATOM      2  O   UNL A   1      31.549  29.054  25.060  1.00  0.00    -0.463 OA
BRANCH   2   3
ATOM      3  C   UNL A   1      32.518  28.823  24.131  1.00  0.00     0.313 C 
ATOM      4  O   UNL A   1      33.609  29.382  24.130  1.00  0.00    -0.252 OA
BRANCH   3   5
ATOM      5  C   UNL A   1      32.120  27.750  23.102  1.00  0.00     0.126 C 
ATOM      6  C   UNL A   1      30.638  27.800  22.706  1.00  0.00     0.025 C 
BRANCH   5   7
ATOM      7  C   UNL A   1      32.629  26.366  23.520  1.00  0.00    -0.031 A 
ATOM      8  C   UNL A   1      33.050  25.472  22.520  1.00  0.00     0.005 A 
ATOM      9  C   UNL A   1      32.689  25.923  24.850  1.00  0.00     0.044 A 
ATOM     10  C   UNL A   1      33.517  24.192  22.829  1.00  0.00     0.012 A 
ATOM     11  C   UNL A   1      33.140  24.633  25.151  1.00  0.00     0.131 A 
ATOM     12  C   UNL A   1      33.550  23.741  24.153  1.00  0.00     0.018 A 
ATOM     13  F   UNL A   1      33.146  24.253  26.439  1.00  0.00    -0.206 F 
BRANCH  12  14
ATOM     14  C   UNL A   1      33.868  22.336  24.431  1.00  0.00    -0.012 A 
ATOM     15  C   UNL A   1      35.137  21.927  24.869  1.00  0.00     0.009 A 
ATOM     16  C   UNL A   1      32.908  21.354  24.141  1.00  0.00     0.056 A 
ATOM     17  C   UNL A   1      35.440  20.568  25.002  1.00  0.00     0.004 A 
ATOM     18  C   UNL A   1      33.215  20.005  24.258  1.00  0.00     0.133 A 
ATOM     19  C   UNL A   1      34.481  19.605  24.688  1.00  0.00     0.047 A 
BRANCH  18  20
ATOM     20  O   UNL A   1      32.319  18.957  23.933  1.00  0.00    -0.410 OA
BRANCH  20  21
ATOM     21  C   UNL A   1      32.533  17.950  22.996  1.00  0.00     0.412 C 
ATOM     22  O   UNL A   1      32.509  18.076  21.773  1.00  0.00    -0.224 OA
ATOM     23  N   UNL A   1      32.775  16.720  23.542  1.00  0.00    -0.318 N 
ATOM     24  H   UNL A   1      32.874  15.987  22.891  1.00  0.00     0.167 HD
BRANCH  23  25
ATOM     25  C   UNL A   1      32.904  16.334  24.907  1.00  0.00     0.085 C 
ATOM     26  C   UNL A   1      33.008  14.939  25.450  1.00  0.00     0.027 C 
ATOM     27  C   UNL A   1      34.233  15.796  25.374  1.00  0.00     0.027 C 
ENDBRANCH  23  25
ENDBRANCH  20  21
ENDBRANCH  18  20
ENDBRANCH  12  14
ENDBRANCH   5   7
ENDBRANCH   3   5
ENDBRANCH   2   3
ENDBRANCH   1   2
BRANCH   1  28
ATOM     28  C   UNL A   1      31.337  31.245  26.150  1.00  0.00     0.202 C 
BRANCH  28  29
ATOM     29  O   UNL A   1      32.414  30.817  26.976  1.00  0.00    -0.374 OA
BRANCH  29  30
ATOM     30  C   UNL A   1      33.206  31.811  27.627  1.00  0.00     0.202 C 
BRANCH  30  31
ATOM     31  C   UNL A   1      32.982  33.284  27.252  1.00  0.00     0.261 C 
BRANCH  31  32
ATOM     32  O   UNL A   1      32.252  34.022  28.249  1.00  0.00    -0.460 OA
BRANCH  32  33
ATOM     33  C   UNL A   1      32.926  35.076  28.776  1.00  0.00     0.338 C 
ATOM     34  O   UNL A   1      32.601  36.250  28.751  1.00  0.00    -0.246 OA
BRANCH  33  35
ATOM     35  C   UNL A   1      34.059  34.602  29.592  1.00  0.00     0.060 A 
ATOM     36  C   UNL A   1      35.342  34.701  29.038  1.00  0.00     0.016 A 
ATOM     37  C   UNL A   1      33.862  33.973  30.821  1.00  0.00     0.016 A 
ATOM     38  C   UNL A   1      36.432  34.129  29.691  1.00  0.00     0.010 A 
ATOM     39  C   UNL A   1      34.958  33.390  31.470  1.00  0.00     0.010 A 
ATOM     40  C   UNL A   1      36.240  33.434  30.891  1.00  0.00    -0.014 A 
BRANCH  40  41
ATOM     41  C   UNL A   1      37.354  32.635  31.457  1.00  0.00     0.031 A 
ATOM     42  C   UNL A   1      37.876  32.972  32.826  1.00  0.00     0.074 A 
ATOM     43  C   UNL A   1      37.869  31.597  30.775  1.00  0.00     0.049 A 
ATOM     44  N   UNL A   1      38.867  32.438  33.495  1.00  0.00    -0.248 NA
ATOM     45  C   UNL A   1      37.188  34.060  33.539  1.00  0.00     0.031 C 
ATOM     46  C   UNL A   1      37.417  31.144  29.462  1.00  0.00     0.029 A 
ATOM     47  N   UNL A   1      38.893  30.739  31.095  1.00  0.00    -0.354 N 
ATOM     48  C   UNL A   1      38.926  33.128  34.699  1.00  0.00     0.074 A 
ATOM     49  C   UNL A   1      37.896  34.143  34.656  1.00  0.00     0.031 C 
ATOM     50  C   UNL A   1      38.169  30.098  29.081  1.00  0.00     0.029 A 
ATOM     51  C   UNL A   1      39.179  29.834  30.104  1.00  0.00     0.049 A 
ATOM     52  H   UNL A   1      39.376  30.772  31.953  1.00  0.00     0.167 HD
ATOM     53  C   UNL A   1      39.759  32.925  35.749  1.00  0.00     0.037 A 
ATOM     54  C   UNL A   1      40.163  28.917  30.021  1.00  0.00     0.037 A 
ATOM     55  C   UNL A   1      40.783  31.914  35.786  1.00  0.00     0.049 A 
ATOM     56  C   UNL A   1      41.127  28.765  31.170  1.00  0.00     0.074 A 
ATOM     57  C   UNL A   1      41.669  31.620  36.808  1.00  0.00     0.029 A 
ATOM     58  N   UNL A   1      41.065  31.036  34.750  1.00  0.00    -0.354 N 
ATOM     59  N   UNL A   1      41.165  29.406  32.312  1.00  0.00    -0.248 NA
ATOM     60  C   UNL A   1      42.184  27.755  31.017  1.00  0.00     0.031 C 
ATOM     61  C   UNL A   1      42.527  30.608  36.366  1.00  0.00     0.029 A 
ATOM     62  C   UNL A   1      42.131  30.220  35.096  1.00  0.00     0.049 A 
ATOM     63  H   UNL A   1      40.580  30.998  33.893  1.00  0.00     0.167 HD
ATOM     64  C   UNL A   1      42.224  28.858  33.025  1.00  0.00     0.074 A 
ATOM     65  C   UNL A   1      42.794  27.821  32.192  1.00  0.00     0.031 C 
ATOM     66  C   UNL A   1      42.684  29.185  34.259  1.00  0.00     0.037 A 
BRANCH  53  67
ATOM     67  C   UNL A   1      39.616  33.835  36.936  1.00  0.00     0.064 A 
ATOM     68  C   UNL A   1      40.272  35.074  37.003  1.00  0.00     0.173 A 
ATOM     69  C   UNL A   1      38.780  33.480  38.006  1.00  0.00     0.173 A 
ATOM     70  F   UNL A   1      41.092  35.459  36.013  1.00  0.00    -0.203 F 
ATOM     71  C   UNL A   1      40.120  35.908  38.110  1.00  0.00     0.198 A 
ATOM     72  C   UNL A   1      38.603  34.330  39.094  1.00  0.00     0.198 A 
ATOM     73  F   UNL A   1      38.124  32.310  37.992  1.00  0.00    -0.203 F 
ATOM     74  F   UNL A   1      40.797  37.063  38.174  1.00  0.00    -0.200 F 
ATOM     75  C   UNL A   1      39.281  35.539  39.149  1.00  0.00     0.200 A 
ATOM     76  F   UNL A   1      37.779  33.979  40.091  1.00  0.00    -0.200 F 
ATOM     77  F   UNL A   1      39.128  36.346  40.208  1.00  0.00    -0.200 F 
ENDBRANCH  53  67
BRANCH  54  78
ATOM     78  C   UNL A   1      40.299  28.084  28.797  1.00  0.00     0.064 A 
ATOM     79  C   UNL A   1      39.665  26.839  28.691  1.00  0.00     0.173 A 
ATOM     80  C   UNL A   1      41.086  28.509  27.715  1.00  0.00     0.173 A 
ATOM     81  F   UNL A   1      38.922  26.376  29.707  1.00  0.00    -0.203 F 
ATOM     82  C   UNL A   1      39.830  26.041  27.559  1.00  0.00     0.198 A 
ATOM     83  C   UNL A   1      41.223  27.726  26.571  1.00  0.00     0.198 A 
ATOM     84  F   UNL A   1      41.715  29.692  27.765  1.00  0.00    -0.203 F 
ATOM     85  F   UNL A   1      39.257  24.831  27.506  1.00  0.00    -0.200 F 
ATOM     86  C   UNL A   1      40.603  26.488  26.498  1.00  0.00     0.200 A 
ATOM     87  F   UNL A   1      41.959  28.169  25.543  1.00  0.00    -0.200 F 
ATOM     88  F   UNL A   1      40.759  25.722  25.410  1.00  0.00    -0.200 F 
ENDBRANCH  54  78
BRANCH  66  89
ATOM     89  C   UNL A   1      43.831  28.382  34.806  1.00  0.00     0.064 A 
ATOM     90  C   UNL A   1      45.166  28.774  34.622  1.00  0.00     0.173 A 
ATOM     91  C   UNL A   1      43.589  27.223  35.560  1.00  0.00     0.173 A 
ATOM     92  F   UNL A   1      45.455  29.867  33.898  1.00  0.00    -0.203 F 
ATOM     93  C   UNL A   1      46.214  28.021  35.146  1.00  0.00     0.198 A 
ATOM     94  C   UNL A   1      44.636  26.492  36.114  1.00  0.00     0.198 A 
ATOM     95  F   UNL A   1      42.331  26.807  35.776  1.00  0.00    -0.203 F 
ATOM     96  F   UNL A   1      47.481  28.384  34.910  1.00  0.00    -0.200 F 
ATOM     97  C   UNL A   1      45.948  26.886  35.898  1.00  0.00     0.200 A 
ATOM     98  F   UNL A   1      44.376  25.406  36.855  1.00  0.00    -0.200 F 
ATOM     99  F   UNL A   1      46.957  26.167  36.408  1.00  0.00    -0.200 F 
ENDBRANCH  66  89
ENDBRANCH  40  41
ENDBRANCH  33  35
ENDBRANCH  32  33
ENDBRANCH  31  32
ENDBRANCH  30  31
ENDBRANCH  29  30
ENDBRANCH  28  29
ENDBRANCH   1  28
TORSDOF 19
ENDMDL
MODEL 3
REMARK VINA RESULT:     -11.3      5.125      9.789
REMARK SMILES C[C@@H](C(=O)OCCOCCOC(=O)c1ccc(-c2c3nc(c(-c4c(F)c(F)c(F)c(F)c4F)c4ccc([nH]4)c(-c4c(F)c(F)c(F)c(F)c4F)c4nc(c(-c5c(F)c(F)c(F)c(F)c5F)c5ccc2[nH]5)C=C4)C=C3)cc1)c1ccc(-c2cccc(OC(=O)NC3CC3)c2)c(F)c1
REMARK SMILES IDX 6 1 5 2 3 3 4 4 2 5 1 6 77 7 78 8 96 9 79 10 94 11 80 12
REMARK SMILES IDX 95 13 81 14 82 15 93 16 83 17 85 18 84 19 86 20 87 21 88 22
REMARK SMILES IDX 89 23 90 25 91 26 92 27 7 28 8 29 9 30 10 31 11 32 12 33
REMARK SMILES IDX 13 34 14 35 15 36 76 37 16 38 75 39 17 40 18 41 19 42 69 43
REMARK SMILES IDX 20 44 74 45 68 46 70 47 21 48 73 49 67 50 66 51 22 53 54 54
REMARK SMILES IDX 34 55 53 56 35 57 38 58 52 59 71 60 36 61 37 62 51 64 72 65
REMARK SMILES IDX 39 66 23 67 24 68 32 69 25 70 26 71 30 72 33 73 27 74 28 75
REMARK SMILES IDX 31 76 29 77 55 78 56 79 64 80 57 81 58 82 62 83 65 84 59 85
REMARK SMILES IDX 60 86 63 87 61 88 40 89 41 90 49 91 42 92 43 93 47 94 50 95
REMARK SMILES IDX 44 96 45 97 48 98 46 99
REMARK H PARENT 89 24 70 52 38 63
REMARK Flexibility Score: inf
ROOT
ATOM      1  C   UNL A   1      33.265  35.844  30.945  1.00  0.00     0.261 C 
ENDROOT
BRANCH   1   2
ATOM      2  O   UNL A   1      33.477  34.509  30.462  1.00  0.00    -0.463 OA
BRANCH   2   3
ATOM      3  C   UNL A   1      34.125  34.425  29.266  1.00  0.00     0.313 C 
ATOM      4  O   UNL A   1      33.879  35.147  28.306  1.00  0.00    -0.252 OA
BRANCH   3   5
ATOM      5  C   UNL A   1      35.232  33.358  29.256  1.00  0.00     0.126 C 
ATOM      6  C   UNL A   1      36.609  33.907  28.855  1.00  0.00     0.025 C 
BRANCH   5   7
ATOM      7  C   UNL A   1      34.789  32.107  28.488  1.00  0.00    -0.031 A 
ATOM      8  C   UNL A   1      33.523  32.105  27.875  1.00  0.00     0.005 A 
ATOM      9  C   UNL A   1      35.565  30.945  28.369  1.00  0.00     0.044 A 
ATOM     10  C   UNL A   1      33.052  30.998  27.166  1.00  0.00     0.012 A 
ATOM     11  C   UNL A   1      35.080  29.832  27.674  1.00  0.00     0.131 A 
ATOM     12  C   UNL A   1      33.816  29.830  27.072  1.00  0.00     0.018 A 
ATOM     13  F   UNL A   1      35.855  28.737  27.620  1.00  0.00    -0.206 F 
BRANCH  12  14
ATOM     14  C   UNL A   1      33.224  28.624  26.484  1.00  0.00    -0.012 A 
ATOM     15  C   UNL A   1      32.126  27.968  27.061  1.00  0.00     0.009 A 
ATOM     16  C   UNL A   1      33.846  28.038  25.369  1.00  0.00     0.056 A 
ATOM     17  C   UNL A   1      31.670  26.752  26.544  1.00  0.00     0.004 A 
ATOM     18  C   UNL A   1      33.401  26.822  24.866  1.00  0.00     0.133 A 
ATOM     19  C   UNL A   1      32.313  26.173  25.450  1.00  0.00     0.047 A 
BRANCH  18  20
ATOM     20  O   UNL A   1      34.009  26.144  23.781  1.00  0.00    -0.410 OA
BRANCH  20  21
ATOM     21  C   UNL A   1      33.405  25.202  22.954  1.00  0.00     0.412 C 
ATOM     22  O   UNL A   1      32.598  25.431  22.056  1.00  0.00    -0.224 OA
ATOM     23  N   UNL A   1      33.769  23.910  23.218  1.00  0.00    -0.318 N 
ATOM     24  H   UNL A   1      33.308  23.228  22.677  1.00  0.00     0.167 HD
BRANCH  23  25
ATOM     25  C   UNL A   1      34.711  23.398  24.156  1.00  0.00     0.085 C 
ATOM     26  C   UNL A   1      34.417  22.682  25.441  1.00  0.00     0.027 C 
ATOM     27  C   UNL A   1      34.885  21.904  24.251  1.00  0.00     0.027 C 
ENDBRANCH  23  25
ENDBRANCH  20  21
ENDBRANCH  18  20
ENDBRANCH  12  14
ENDBRANCH   5   7
ENDBRANCH   3   5
ENDBRANCH   2   3
ENDBRANCH   1   2
BRANCH   1  28
ATOM     28  C   UNL A   1      34.023  36.102  32.250  1.00  0.00     0.202 C 
BRANCH  28  29
ATOM     29  O   UNL A   1      35.258  35.422  32.450  1.00  0.00    -0.374 OA
BRANCH  29  30
ATOM     30  C   UNL A   1      35.406  34.613  33.617  1.00  0.00     0.202 C 
BRANCH  30  31
ATOM     31  C   UNL A   1      34.823  33.191  33.598  1.00  0.00     0.261 C 
BRANCH  31  32
ATOM     32  O   UNL A   1      35.643  32.248  32.882  1.00  0.00    -0.460 OA
BRANCH  32  33
ATOM     33  C   UNL A   1      36.831  31.970  33.475  1.00  0.00     0.338 C 
ATOM     34  O   UNL A   1      37.114  32.078  34.656  1.00  0.00    -0.246 OA
BRANCH  33  35
ATOM     35  C   UNL A   1      37.737  31.308  32.519  1.00  0.00     0.060 A 
ATOM     36  C   UNL A   1      38.787  30.544  33.045  1.00  0.00     0.016 A 
ATOM     37  C   UNL A   1      37.632  31.520  31.144  1.00  0.00     0.016 A 
ATOM     38  C   UNL A   1      39.766  30.025  32.200  1.00  0.00     0.010 A 
ATOM     39  C   UNL A   1      38.622  31.006  30.298  1.00  0.00     0.010 A 
ATOM     40  C   UNL A   1      39.712  30.287  30.826  1.00  0.00    -0.014 A 
BRANCH  40  41
ATOM     41  C   UNL A   1      40.871  29.933  29.970  1.00  0.00     0.031 A 
ATOM     42  C   UNL A   1      40.924  28.570  29.336  1.00  0.00     0.074 A 
ATOM     43  C   UNL A   1      41.844  30.828  29.729  1.00  0.00     0.049 A 
ATOM     44  N   UNL A   1      41.858  28.034  28.591  1.00  0.00    -0.248 NA
ATOM     45  C   UNL A   1      39.768  27.692  29.575  1.00  0.00     0.031 C 
ATOM     46  C   UNL A   1      41.882  32.193  30.247  1.00  0.00     0.029 A 
ATOM     47  N   UNL A   1      42.996  30.716  28.989  1.00  0.00    -0.354 N 
ATOM     48  C   UNL A   1      41.407  26.758  28.280  1.00  0.00     0.074 A 
ATOM     49  C   UNL A   1      40.134  26.585  28.946  1.00  0.00     0.031 C 
ATOM     50  C   UNL A   1      43.006  32.790  29.820  1.00  0.00     0.029 A 
ATOM     51  C   UNL A   1      43.786  31.837  29.033  1.00  0.00     0.049 A 
ATOM     52  H   UNL A   1      43.232  29.908  28.478  1.00  0.00     0.167 HD
ATOM     53  C   UNL A   1      41.998  25.819  27.501  1.00  0.00     0.037 A 
ATOM     54  C   UNL A   1      45.013  32.057  28.519  1.00  0.00     0.037 A 
ATOM     55  C   UNL A   1      43.266  25.996  26.842  1.00  0.00     0.049 A 
ATOM     56  C   UNL A   1      45.685  30.968  27.723  1.00  0.00     0.074 A 
ATOM     57  C   UNL A   1      43.943  25.111  26.021  1.00  0.00     0.029 A 
ATOM     58  N   UNL A   1      44.054  27.134  26.936  1.00  0.00    -0.354 N 
ATOM     59  N   UNL A   1      45.245  29.771  27.417  1.00  0.00    -0.248 NA
ATOM     60  C   UNL A   1      47.025  31.264  27.196  1.00  0.00     0.031 C 
ATOM     61  C   UNL A   1      45.167  25.689  25.670  1.00  0.00     0.029 A 
ATOM     62  C   UNL A   1      45.223  26.963  26.212  1.00  0.00     0.049 A 
ATOM     63  H   UNL A   1      43.817  27.945  27.442  1.00  0.00     0.167 HD
ATOM     64  C   UNL A   1      46.236  29.186  26.638  1.00  0.00     0.074 A 
ATOM     65  C   UNL A   1      47.294  30.165  26.506  1.00  0.00     0.031 C 
ATOM     66  C   UNL A   1      46.266  27.949  26.082  1.00  0.00     0.037 A 
BRANCH  53  67
ATOM     67  C   UNL A   1      41.292  24.502  27.342  1.00  0.00     0.064 A 
ATOM     68  C   UNL A   1      40.139  24.370  26.552  1.00  0.00     0.173 A 
ATOM     69  C   UNL A   1      41.798  23.347  27.959  1.00  0.00     0.173 A 
ATOM     70  F   UNL A   1      39.607  25.443  25.948  1.00  0.00    -0.203 F 
ATOM     71  C   UNL A   1      39.504  23.138  26.411  1.00  0.00     0.198 A 
ATOM     72  C   UNL A   1      41.180  22.111  27.788  1.00  0.00     0.198 A 
ATOM     73  F   UNL A   1      42.900  23.414  28.721  1.00  0.00    -0.203 F 
ATOM     74  F   UNL A   1      38.376  23.047  25.693  1.00  0.00    -0.200 F 
ATOM     75  C   UNL A   1      40.029  22.009  27.021  1.00  0.00     0.200 A 
ATOM     76  F   UNL A   1      41.697  21.019  28.366  1.00  0.00    -0.200 F 
ATOM     77  F   UNL A   1      39.422  20.823  26.877  1.00  0.00    -0.200 F 
ENDBRANCH  53  67
BRANCH  54  78
ATOM     78  C   UNL A   1      45.695  33.357  28.758  1.00  0.00     0.064 A 
ATOM     79  C   UNL A   1      46.434  33.585  29.927  1.00  0.00     0.173 A 
ATOM     80  C   UNL A   1      45.604  34.405  27.830  1.00  0.00     0.173 A 
ATOM     81  F   UNL A   1      46.532  32.623  30.857  1.00  0.00    -0.203 F 
ATOM     82  C   UNL A   1      47.038  34.818  30.168  1.00  0.00     0.198 A 
ATOM     83  C   UNL A   1      46.234  35.626  28.056  1.00  0.00     0.198 A 
ATOM     84  F   UNL A   1      44.907  34.240  26.695  1.00  0.00    -0.203 F 
ATOM     85  F   UNL A   1      47.693  35.028  31.317  1.00  0.00    -0.200 F 
ATOM     86  C   UNL A   1      46.942  35.836  29.229  1.00  0.00     0.200 A 
ATOM     87  F   UNL A   1      46.151  36.600  27.140  1.00  0.00    -0.200 F 
ATOM     88  F   UNL A   1      47.524  37.020  29.460  1.00  0.00    -0.200 F 
ENDBRANCH  54  78
BRANCH  66  89
ATOM     89  C   UNL A   1      47.461  27.597  25.240  1.00  0.00     0.064 A 
ATOM     90  C   UNL A   1      47.483  27.814  23.854  1.00  0.00     0.173 A 
ATOM     91  C   UNL A   1      48.618  27.072  25.838  1.00  0.00     0.173 A 
ATOM     92  F   UNL A   1      46.399  28.302  23.231  1.00  0.00    -0.203 F 
ATOM     93  C   UNL A   1      48.605  27.490  23.095  1.00  0.00     0.198 A 
ATOM     94  C   UNL A   1      49.751  26.784  25.082  1.00  0.00     0.198 A 
ATOM     95  F   UNL A   1      48.657  26.853  27.161  1.00  0.00    -0.203 F 
ATOM     96  F   UNL A   1      48.581  27.654  21.765  1.00  0.00    -0.200 F 
ATOM     97  C   UNL A   1      49.739  26.983  23.710  1.00  0.00     0.200 A 
ATOM     98  F   UNL A   1      50.853  26.310  25.681  1.00  0.00    -0.200 F 
ATOM     99  F   UNL A   1      50.821  26.681  22.979  1.00  0.00    -0.200 F 
ENDBRANCH  66  89
ENDBRANCH  40  41
ENDBRANCH  33  35
ENDBRANCH  32  33
ENDBRANCH  31  32
ENDBRANCH  30  31
ENDBRANCH  29  30
ENDBRANCH  28  29
ENDBRANCH   1  28
TORSDOF 19
ENDMDL
