MODEL 1
REMARK VINA RESULT:      -7.7      0.000      0.000
REMARK SMILES CCCCCCNC(=O)Oc1cccc(-c2ccc([C@@H](C)C(=O)OCCOCCOC(=O)c3ccc(-c4c5nc(c(-c6c(F)c(F)c(F)c(F)c6F)c6ccc([nH]6)c(-c6c(F)c(F)c(F)c(F)c6F)c6nc(c(-c7c(F)c(F)c(F)c(F)c7F)c7ccc4[nH]7)C=C6)C=C5)cc3)cc2N)c1
REMARK SMILES IDX 22 1 23 2 20 3 21 4 19 5 16 6 17 7 97 8 18 9 96 10 15 11
REMARK SMILES IDX 11 12 12 13 99 14 13 15 14 16 10 17 8 18 7 19 9 21 6 22 5 23
REMARK SMILES IDX 4 24 3 25 2 26 1 27 98 28 24 31 25 32 26 33 27 34 28 35
REMARK SMILES IDX 29 36 30 37 31 38 32 39 33 40 34 41 95 42 35 43 94 44 36 45
REMARK SMILES IDX 37 46 38 47 88 48 39 49 93 50 87 51 89 52 40 53 92 54 86 55
REMARK SMILES IDX 85 56 41 58 73 59 53 60 72 61 54 62 57 63 71 64 90 65 55 66
REMARK SMILES IDX 56 67 70 69 91 70 58 71 42 72 43 73 51 74 44 75 45 76 49 77
REMARK SMILES IDX 52 78 46 79 47 80 50 81 48 82 74 83 75 84 83 85 76 86 77 87
REMARK SMILES IDX 81 88 84 89 78 90 79 91 82 92 80 93 59 94 60 95 68 96 61 97
REMARK SMILES IDX 62 98 66 99 69 100 63 101 64 102 67 103 65 104
REMARK H PARENT 7 20 98 29 98 30 89 57 57 68
REMARK Flexibility Score: inf
ROOT
ATOM      1  C   UNL A   1      40.529  24.154  27.078  1.00  0.00     0.313 C 
ATOM      2  O   UNL A   1      39.700  23.377  27.542  1.00  0.00    -0.252 OA
ENDROOT
BRANCH   1   3
ATOM      3  C   UNL A   1      40.181  25.600  26.764  1.00  0.00     0.126 C 
ATOM      4  C   UNL A   1      41.160  26.134  25.721  1.00  0.00     0.025 C 
BRANCH   3   5
ATOM      5  C   UNL A   1      40.012  26.567  27.932  1.00  0.00    -0.032 A 
ATOM      6  C   UNL A   1      39.693  28.547  29.961  1.00  0.00     0.005 A 
ATOM      7  C   UNL A   1      40.819  27.701  29.923  1.00  0.00     0.011 A 
ATOM      8  C   UNL A   1      38.710  28.390  28.959  1.00  0.00     0.040 A 
ATOM      9  C   UNL A   1      40.984  26.736  28.922  1.00  0.00     0.005 A 
ATOM     10  C   UNL A   1      38.866  27.382  27.991  1.00  0.00     0.030 A 
BRANCH   6  11
ATOM     11  C   UNL A   1      39.615  29.597  31.000  1.00  0.00    -0.013 A 
ATOM     12  C   UNL A   1      39.676  31.926  31.692  1.00  0.00     0.133 A 
ATOM     13  C   UNL A   1      39.551  31.563  33.030  1.00  0.00     0.047 A 
ATOM     14  C   UNL A   1      39.713  30.962  30.681  1.00  0.00     0.056 A 
ATOM     15  C   UNL A   1      39.436  30.217  33.363  1.00  0.00     0.004 A 
ATOM     16  C   UNL A   1      39.470  29.246  32.357  1.00  0.00     0.009 A 
BRANCH  12  17
ATOM     17  O   UNL A   1      39.894  33.287  31.423  1.00  0.00    -0.410 OA
BRANCH  17  18
ATOM     18  C   UNL A   1      38.922  34.191  31.823  1.00  0.00     0.412 C 
ATOM     19  N   UNL A   1      38.098  34.584  30.804  1.00  0.00    -0.321 N 
ATOM     20  H   UNL A   1      37.376  35.210  31.043  1.00  0.00     0.167 HD
ATOM     21  O   UNL A   1      38.777  34.638  32.956  1.00  0.00    -0.224 OA
BRANCH  19  22
ATOM     22  C   UNL A   1      38.168  34.182  29.413  1.00  0.00     0.119 C 
BRANCH  22  23
ATOM     23  C   UNL A   1      37.177  33.065  29.082  1.00  0.00     0.021 C 
BRANCH  23  24
ATOM     24  C   UNL A   1      36.016  32.914  30.075  1.00  0.00     0.002 C 
BRANCH  24  25
ATOM     25  C   UNL A   1      36.016  31.626  30.905  1.00  0.00    -0.000 C 
BRANCH  25  26
ATOM     26  C   UNL A   1      35.916  31.818  32.420  1.00  0.00    -0.003 C 
ATOM     27  C   UNL A   1      35.381  33.185  32.821  1.00  0.00     0.004 C 
ENDBRANCH  25  26
ENDBRANCH  24  25
ENDBRANCH  23  24
ENDBRANCH  22  23
ENDBRANCH  19  22
ENDBRANCH  17  18
ENDBRANCH  12  17
ENDBRANCH   6  11
BRANCH   8  28
ATOM     28  N   UNL A   1      37.535  29.144  28.942  1.00  0.00    -0.398 N 
ATOM     29  H   UNL A   1      37.515  30.032  29.366  1.00  0.00     0.156 HD
ATOM     30  H   UNL A   1      36.728  28.786  28.509  1.00  0.00     0.156 HD
ENDBRANCH   8  28
ENDBRANCH   3   5
ENDBRANCH   1   3
BRANCH   1  31
ATOM     31  O   UNL A   1      41.805  23.811  26.759  1.00  0.00    -0.463 OA
BRANCH  31  32
ATOM     32  C   UNL A   1      42.675  23.528  27.869  1.00  0.00     0.261 C 
BRANCH  32  33
ATOM     33  C   UNL A   1      44.014  22.957  27.395  1.00  0.00     0.202 C 
BRANCH  33  34
ATOM     34  O   UNL A   1      44.299  23.082  26.003  1.00  0.00    -0.374 OA
BRANCH  34  35
ATOM     35  C   UNL A   1      45.616  22.739  25.567  1.00  0.00     0.202 C 
BRANCH  35  36
ATOM     36  C   UNL A   1      46.326  23.746  24.654  1.00  0.00     0.261 C 
BRANCH  36  37
ATOM     37  O   UNL A   1      45.684  25.034  24.653  1.00  0.00    -0.460 OA
BRANCH  37  38
ATOM     38  C   UNL A   1      46.522  26.089  24.796  1.00  0.00     0.338 C 
ATOM     39  O   UNL A   1      47.515  26.347  24.142  1.00  0.00    -0.246 OA
BRANCH  38  40
ATOM     40  C   UNL A   1      45.948  27.046  25.763  1.00  0.00     0.060 A 
ATOM     41  C   UNL A   1      46.841  27.726  26.603  1.00  0.00     0.016 A 
ATOM     42  C   UNL A   1      44.571  27.226  25.895  1.00  0.00     0.016 A 
ATOM     43  C   UNL A   1      46.358  28.561  27.608  1.00  0.00     0.010 A 
ATOM     44  C   UNL A   1      44.087  28.057  26.912  1.00  0.00     0.010 A 
ATOM     45  C   UNL A   1      44.977  28.704  27.790  1.00  0.00    -0.014 A 
BRANCH  45  46
ATOM     46  C   UNL A   1      44.465  29.429  28.979  1.00  0.00     0.031 A 
ATOM     47  C   UNL A   1      44.244  30.913  28.891  1.00  0.00     0.074 A 
ATOM     48  C   UNL A   1      44.189  28.772  30.118  1.00  0.00     0.049 A 
ATOM     49  N   UNL A   1      43.868  31.753  29.822  1.00  0.00    -0.248 NA
ATOM     50  C   UNL A   1      44.481  31.532  27.579  1.00  0.00     0.031 C 
ATOM     51  C   UNL A   1      44.322  27.330  30.312  1.00  0.00     0.029 A 
ATOM     52  N   UNL A   1      43.754  29.239  31.334  1.00  0.00    -0.354 N 
ATOM     53  C   UNL A   1      43.837  33.000  29.213  1.00  0.00     0.074 A 
ATOM     54  C   UNL A   1      44.251  32.811  27.839  1.00  0.00     0.031 C 
ATOM     55  C   UNL A   1      44.001  27.031  31.581  1.00  0.00     0.029 A 
ATOM     56  C   UNL A   1      43.676  28.264  32.297  1.00  0.00     0.049 A 
ATOM     57  H   UNL A   1      43.521  30.181  31.498  1.00  0.00     0.167 HD
ATOM     58  C   UNL A   1      43.493  34.193  29.753  1.00  0.00     0.037 A 
ATOM     59  C   UNL A   1      43.408  28.363  33.614  1.00  0.00     0.037 A 
ATOM     60  C   UNL A   1      43.072  34.375  31.117  1.00  0.00     0.049 A 
ATOM     61  C   UNL A   1      43.103  29.711  34.211  1.00  0.00     0.074 A 
ATOM     62  C   UNL A   1      42.643  35.533  31.741  1.00  0.00     0.029 A 
ATOM     63  N   UNL A   1      43.046  33.371  32.075  1.00  0.00    -0.354 N 
ATOM     64  N   UNL A   1      43.032  30.880  33.621  1.00  0.00    -0.248 NA
ATOM     65  C   UNL A   1      42.845  29.756  35.657  1.00  0.00     0.031 C 
ATOM     66  C   UNL A   1      42.417  35.243  33.091  1.00  0.00     0.029 A 
ATOM     67  C   UNL A   1      42.654  33.894  33.297  1.00  0.00     0.049 A 
ATOM     68  H   UNL A   1      43.271  32.427  31.909  1.00  0.00     0.167 HD
ATOM     69  C   UNL A   1      42.713  31.794  34.615  1.00  0.00     0.074 A 
ATOM     70  C   UNL A   1      42.584  31.043  35.847  1.00  0.00     0.031 C 
ATOM     71  C   UNL A   1      42.544  33.136  34.518  1.00  0.00     0.037 A 
BRANCH  58  72
ATOM     72  C   UNL A   1      43.592  35.406  28.875  1.00  0.00     0.064 A 
ATOM     73  C   UNL A   1      42.471  35.948  28.229  1.00  0.00     0.173 A 
ATOM     74  C   UNL A   1      44.826  36.051  28.702  1.00  0.00     0.173 A 
ATOM     75  F   UNL A   1      41.271  35.363  28.353  1.00  0.00    -0.203 F 
ATOM     76  C   UNL A   1      42.589  37.076  27.419  1.00  0.00     0.198 A 
ATOM     77  C   UNL A   1      44.934  37.193  27.915  1.00  0.00     0.198 A 
ATOM     78  F   UNL A   1      45.927  35.576  29.303  1.00  0.00    -0.203 F 
ATOM     79  F   UNL A   1      41.514  37.552  26.775  1.00  0.00    -0.200 F 
ATOM     80  C   UNL A   1      43.818  37.701  27.269  1.00  0.00     0.200 A 
ATOM     81  F   UNL A   1      46.120  37.804  27.781  1.00  0.00    -0.200 F 
ATOM     82  F   UNL A   1      43.928  38.788  26.494  1.00  0.00    -0.200 F 
ENDBRANCH  58  72
BRANCH  59  83
ATOM     83  C   UNL A   1      43.463  27.146  34.465  1.00  0.00     0.064 A 
ATOM     84  C   UNL A   1      44.670  26.696  35.014  1.00  0.00     0.173 A 
ATOM     85  C   UNL A   1      42.303  26.410  34.748  1.00  0.00     0.173 A 
ATOM     86  F   UNL A   1      45.811  27.350  34.750  1.00  0.00    -0.203 F 
ATOM     87  C   UNL A   1      44.716  25.553  35.811  1.00  0.00     0.198 A 
ATOM     88  C   UNL A   1      42.345  25.283  35.566  1.00  0.00     0.198 A 
ATOM     89  F   UNL A   1      41.122  26.796  34.241  1.00  0.00    -0.203 F 
ATOM     90  F   UNL A   1      45.890  25.124  36.295  1.00  0.00    -0.200 F 
ATOM     91  C   UNL A   1      43.553  24.852  36.093  1.00  0.00     0.200 A 
ATOM     92  F   UNL A   1      41.216  24.616  35.844  1.00  0.00    -0.200 F 
ATOM     93  F   UNL A   1      43.596  23.760  36.866  1.00  0.00    -0.200 F 
ENDBRANCH  59  83
BRANCH  71  94
ATOM     94  C   UNL A   1      42.203  33.885  35.773  1.00  0.00     0.064 A 
ATOM     95  C   UNL A   1      43.194  34.525  36.533  1.00  0.00     0.173 A 
ATOM     96  C   UNL A   1      40.869  34.018  36.187  1.00  0.00     0.173 A 
ATOM     97  F   UNL A   1      44.485  34.415  36.189  1.00  0.00    -0.203 F 
ATOM     98  C   UNL A   1      42.861  35.260  37.668  1.00  0.00     0.198 A 
ATOM     99  C   UNL A   1      40.538  34.776  37.307  1.00  0.00     0.198 A 
ATOM    100  F   UNL A   1      39.884  33.431  35.493  1.00  0.00    -0.203 F 
ATOM    101  F   UNL A   1      43.828  35.833  38.400  1.00  0.00    -0.200 F 
ATOM    102  C   UNL A   1      41.534  35.393  38.049  1.00  0.00     0.200 A 
ATOM    103  F   UNL A   1      39.254  34.915  37.665  1.00  0.00    -0.200 F 
ATOM    104  F   UNL A   1      41.215  36.112  39.134  1.00  0.00    -0.200 F 
ENDBRANCH  71  94
ENDBRANCH  45  46
ENDBRANCH  38  40
ENDBRANCH  37  38
ENDBRANCH  36  37
ENDBRANCH  35  36
ENDBRANCH  34  35
ENDBRANCH  33  34
ENDBRANCH  32  33
ENDBRANCH  31  32
ENDBRANCH   1  31
TORSDOF 24
ENDMDL
MODEL 2
REMARK VINA RESULT:      -7.6      4.728     10.460
REMARK SMILES CCCCCCNC(=O)Oc1cccc(-c2ccc([C@@H](C)C(=O)OCCOCCOC(=O)c3ccc(-c4c5nc(c(-c6c(F)c(F)c(F)c(F)c6F)c6ccc([nH]6)c(-c6c(F)c(F)c(F)c(F)c6F)c6nc(c(-c7c(F)c(F)c(F)c(F)c7F)c7ccc4[nH]7)C=C6)C=C5)cc3)cc2N)c1
REMARK SMILES IDX 22 1 23 2 20 3 21 4 19 5 16 6 17 7 97 8 18 9 96 10 15 11
REMARK SMILES IDX 11 12 12 13 99 14 13 15 14 16 10 17 8 18 7 19 9 21 6 22 5 23
REMARK SMILES IDX 4 24 3 25 2 26 1 27 98 28 24 31 25 32 26 33 27 34 28 35
REMARK SMILES IDX 29 36 30 37 31 38 32 39 33 40 34 41 95 42 35 43 94 44 36 45
REMARK SMILES IDX 37 46 38 47 88 48 39 49 93 50 87 51 89 52 40 53 92 54 86 55
REMARK SMILES IDX 85 56 41 58 73 59 53 60 72 61 54 62 57 63 71 64 90 65 55 66
REMARK SMILES IDX 56 67 70 69 91 70 58 71 42 72 43 73 51 74 44 75 45 76 49 77
REMARK SMILES IDX 52 78 46 79 47 80 50 81 48 82 74 83 75 84 83 85 76 86 77 87
REMARK SMILES IDX 81 88 84 89 78 90 79 91 82 92 80 93 59 94 60 95 68 96 61 97
REMARK SMILES IDX 62 98 66 99 69 100 63 101 64 102 67 103 65 104
REMARK H PARENT 7 20 98 29 98 30 89 57 57 68
REMARK Flexibility Score: inf
ROOT
ATOM      1  C   UNL A   1      36.818  31.601  28.400  1.00  0.00     0.313 C 
ATOM      2  O   UNL A   1      37.878  31.010  28.217  1.00  0.00    -0.252 OA
ENDROOT
BRANCH   1   3
ATOM      3  C   UNL A   1      35.547  30.862  28.787  1.00  0.00     0.126 C 
ATOM      4  C   UNL A   1      35.886  29.799  29.829  1.00  0.00     0.025 C 
BRANCH   3   5
ATOM      5  C   UNL A   1      34.673  30.304  27.668  1.00  0.00    -0.032 A 
ATOM      6  C   UNL A   1      32.866  29.244  25.731  1.00  0.00     0.005 A 
ATOM      7  C   UNL A   1      34.061  28.580  26.070  1.00  0.00     0.011 A 
ATOM      8  C   UNL A   1      32.579  30.467  26.379  1.00  0.00     0.040 A 
ATOM      9  C   UNL A   1      34.944  29.091  27.029  1.00  0.00     0.005 A 
ATOM     10  C   UNL A   1      33.501  30.992  27.301  1.00  0.00     0.030 A 
BRANCH   6  11
ATOM     11  C   UNL A   1      31.939  28.613  24.767  1.00  0.00    -0.013 A 
ATOM     12  C   UNL A   1      30.234  26.976  24.201  1.00  0.00     0.133 A 
ATOM     13  C   UNL A   1      30.249  27.377  22.868  1.00  0.00     0.047 A 
ATOM     14  C   UNL A   1      31.069  27.578  25.147  1.00  0.00     0.056 A 
ATOM     15  C   UNL A   1      31.093  28.413  22.477  1.00  0.00     0.004 A 
ATOM     16  C   UNL A   1      31.930  29.021  23.417  1.00  0.00     0.009 A 
BRANCH  12  17
ATOM     17  O   UNL A   1      29.443  25.860  24.518  1.00  0.00    -0.410 OA
BRANCH  17  18
ATOM     18  C   UNL A   1      29.938  24.955  25.444  1.00  0.00     0.412 C 
ATOM     19  N   UNL A   1      30.589  23.897  24.870  1.00  0.00    -0.321 N 
ATOM     20  H   UNL A   1      30.979  23.237  25.488  1.00  0.00     0.167 HD
ATOM     21  O   UNL A   1      29.822  25.035  26.662  1.00  0.00    -0.224 OA
BRANCH  19  22
ATOM     22  C   UNL A   1      30.770  23.640  23.455  1.00  0.00     0.119 C 
BRANCH  22  23
ATOM     23  C   UNL A   1      32.244  23.656  23.047  1.00  0.00     0.021 C 
BRANCH  23  24
ATOM     24  C   UNL A   1      32.913  25.036  23.088  1.00  0.00     0.002 C 
BRANCH  24  25
ATOM     25  C   UNL A   1      34.089  25.175  24.062  1.00  0.00    -0.000 C 
BRANCH  25  26
ATOM     26  C   UNL A   1      33.742  25.012  25.543  1.00  0.00    -0.003 C 
ATOM     27  C   UNL A   1      34.320  23.749  26.163  1.00  0.00     0.004 C 
ENDBRANCH  25  26
ENDBRANCH  24  25
ENDBRANCH  23  24
ENDBRANCH  22  23
ENDBRANCH  19  22
ENDBRANCH  17  18
ENDBRANCH  12  17
ENDBRANCH   6  11
BRANCH   8  28
ATOM     28  N   UNL A   1      31.448  31.225  26.073  1.00  0.00    -0.398 N 
ATOM     29  H   UNL A   1      30.553  30.890  26.307  1.00  0.00     0.156 HD
ATOM     30  H   UNL A   1      31.546  32.093  25.620  1.00  0.00     0.156 HD
ENDBRANCH   8  28
ENDBRANCH   3   5
ENDBRANCH   1   3
BRANCH   1  31
ATOM     31  O   UNL A   1      36.650  32.940  28.238  1.00  0.00    -0.463 OA
BRANCH  31  32
ATOM     32  C   UNL A   1      35.475  33.504  28.846  1.00  0.00     0.261 C 
BRANCH  32  33
ATOM     33  C   UNL A   1      34.653  34.304  27.832  1.00  0.00     0.202 C 
BRANCH  33  34
ATOM     34  O   UNL A   1      33.393  34.794  28.284  1.00  0.00    -0.374 OA
BRANCH  34  35
ATOM     35  C   UNL A   1      33.351  36.126  28.800  1.00  0.00     0.202 C 
BRANCH  35  36
ATOM     36  C   UNL A   1      32.975  36.283  30.279  1.00  0.00     0.261 C 
BRANCH  36  37
ATOM     37  O   UNL A   1      33.236  35.091  31.042  1.00  0.00    -0.460 OA
BRANCH  37  38
ATOM     38  C   UNL A   1      33.167  35.248  32.386  1.00  0.00     0.338 C 
ATOM     39  O   UNL A   1      32.198  35.563  33.051  1.00  0.00    -0.246 OA
BRANCH  38  40
ATOM     40  C   UNL A   1      34.422  34.775  33.003  1.00  0.00     0.060 A 
ATOM     41  C   UNL A   1      35.614  35.381  32.582  1.00  0.00     0.016 A 
ATOM     42  C   UNL A   1      34.445  33.721  33.916  1.00  0.00     0.016 A 
ATOM     43  C   UNL A   1      36.840  34.909  33.045  1.00  0.00     0.010 A 
ATOM     44  C   UNL A   1      35.678  33.241  34.373  1.00  0.00     0.010 A 
ATOM     45  C   UNL A   1      36.880  33.814  33.916  1.00  0.00    -0.014 A 
BRANCH  45  46
ATOM     46  C   UNL A   1      38.183  33.187  34.248  1.00  0.00     0.031 A 
ATOM     47  C   UNL A   1      38.777  32.187  33.296  1.00  0.00     0.074 A 
ATOM     48  C   UNL A   1      38.835  33.514  35.376  1.00  0.00     0.049 A 
ATOM     49  N   UNL A   1      39.867  31.472  33.416  1.00  0.00    -0.248 NA
ATOM     50  C   UNL A   1      38.043  31.963  32.042  1.00  0.00     0.031 C 
ATOM     51  C   UNL A   1      38.382  34.499  36.356  1.00  0.00     0.029 A 
ATOM     52  N   UNL A   1      40.013  33.036  35.896  1.00  0.00    -0.354 N 
ATOM     53  C   UNL A   1      39.941  30.703  32.262  1.00  0.00     0.074 A 
ATOM     54  C   UNL A   1      38.778  31.024  31.463  1.00  0.00     0.031 C 
ATOM     55  C   UNL A   1      39.259  34.535  37.373  1.00  0.00     0.029 A 
ATOM     56  C   UNL A   1      40.313  33.550  37.133  1.00  0.00     0.049 A 
ATOM     57  H   UNL A   1      40.587  32.388  35.427  1.00  0.00     0.167 HD
ATOM     58  C   UNL A   1      40.896  29.812  31.903  1.00  0.00     0.037 A 
ATOM     59  C   UNL A   1      41.304  33.234  37.989  1.00  0.00     0.037 A 
ATOM     60  C   UNL A   1      42.056  29.503  32.696  1.00  0.00     0.049 A 
ATOM     61  C   UNL A   1      42.312  32.184  37.603  1.00  0.00     0.074 A 
ATOM     62  C   UNL A   1      43.111  28.662  32.391  1.00  0.00     0.029 A 
ATOM     63  N   UNL A   1      42.304  30.012  33.963  1.00  0.00    -0.354 N 
ATOM     64  N   UNL A   1      42.402  31.492  36.492  1.00  0.00    -0.248 NA
ATOM     65  C   UNL A   1      43.354  31.865  38.590  1.00  0.00     0.031 C 
ATOM     66  C   UNL A   1      43.965  28.613  33.498  1.00  0.00     0.029 A 
ATOM     67  C   UNL A   1      43.471  29.466  34.472  1.00  0.00     0.049 A 
ATOM     68  H   UNL A   1      41.736  30.667  34.430  1.00  0.00     0.167 HD
ATOM     69  C   UNL A   1      43.509  30.669  36.640  1.00  0.00     0.074 A 
ATOM     70  C   UNL A   1      44.074  30.959  37.942  1.00  0.00     0.031 C 
ATOM     71  C   UNL A   1      44.012  29.753  35.777  1.00  0.00     0.037 A 
BRANCH  58  72
ATOM     72  C   UNL A   1      40.706  29.077  30.609  1.00  0.00     0.064 A 
ATOM     73  C   UNL A   1      39.896  27.936  30.515  1.00  0.00     0.173 A 
ATOM     74  C   UNL A   1      41.325  29.543  29.438  1.00  0.00     0.173 A 
ATOM     75  F   UNL A   1      39.292  27.445  31.606  1.00  0.00    -0.203 F 
ATOM     76  C   UNL A   1      39.735  27.272  29.301  1.00  0.00     0.198 A 
ATOM     77  C   UNL A   1      41.138  28.893  28.222  1.00  0.00     0.198 A 
ATOM     78  F   UNL A   1      42.104  30.633  29.473  1.00  0.00    -0.203 F 
ATOM     79  F   UNL A   1      38.993  26.157  29.242  1.00  0.00    -0.200 F 
ATOM     80  C   UNL A   1      40.351  27.754  28.155  1.00  0.00     0.200 A 
ATOM     81  F   UNL A   1      41.724  29.367  27.113  1.00  0.00    -0.200 F 
ATOM     82  F   UNL A   1      40.190  27.116  26.988  1.00  0.00    -0.200 F 
ENDBRANCH  58  72
BRANCH  59  83
ATOM     83  C   UNL A   1      41.361  33.894  39.319  1.00  0.00     0.064 A 
ATOM     84  C   UNL A   1      42.156  35.026  39.535  1.00  0.00     0.173 A 
ATOM     85  C   UNL A   1      40.616  33.403  40.402  1.00  0.00     0.173 A 
ATOM     86  F   UNL A   1      42.908  35.517  38.540  1.00  0.00    -0.203 F 
ATOM     87  C   UNL A   1      42.207  35.641  40.786  1.00  0.00     0.198 A 
ATOM     88  C   UNL A   1      40.647  34.033  41.644  1.00  0.00     0.198 A 
ATOM     89  F   UNL A   1      39.844  32.317  40.248  1.00  0.00    -0.203 F 
ATOM     90  F   UNL A   1      43.003  36.703  40.975  1.00  0.00    -0.200 F 
ATOM     91  C   UNL A   1      41.446  35.149  41.836  1.00  0.00     0.200 A 
ATOM     92  F   UNL A   1      39.901  33.560  42.652  1.00  0.00    -0.200 F 
ATOM     93  F   UNL A   1      41.488  35.746  43.034  1.00  0.00    -0.200 F 
ENDBRANCH  59  83
BRANCH  71  94
ATOM     94  C   UNL A   1      45.233  28.992  36.206  1.00  0.00     0.064 A 
ATOM     95  C   UNL A   1      46.524  29.488  35.965  1.00  0.00     0.173 A 
ATOM     96  C   UNL A   1      45.115  27.790  36.918  1.00  0.00     0.173 A 
ATOM     97  F   UNL A   1      46.692  30.625  35.274  1.00  0.00    -0.203 F 
ATOM     98  C   UNL A   1      47.649  28.799  36.410  1.00  0.00     0.198 A 
ATOM     99  C   UNL A   1      46.240  27.118  37.386  1.00  0.00     0.198 A 
ATOM    100  F   UNL A   1      43.903  27.276  37.180  1.00  0.00    -0.203 F 
ATOM    101  F   UNL A   1      48.874  29.273  36.138  1.00  0.00    -0.200 F 
ATOM    102  C   UNL A   1      47.507  27.621  37.129  1.00  0.00     0.200 A 
ATOM    103  F   UNL A   1      46.101  25.987  38.092  1.00  0.00    -0.200 F 
ATOM    104  F   UNL A   1      48.591  26.967  37.569  1.00  0.00    -0.200 F 
ENDBRANCH  71  94
ENDBRANCH  45  46
ENDBRANCH  38  40
ENDBRANCH  37  38
ENDBRANCH  36  37
ENDBRANCH  35  36
ENDBRANCH  34  35
ENDBRANCH  33  34
ENDBRANCH  32  33
ENDBRANCH  31  32
ENDBRANCH   1  31
TORSDOF 24
ENDMDL
MODEL 3
REMARK VINA RESULT:      -7.5      3.447     11.446
REMARK SMILES CCCCCCNC(=O)Oc1cccc(-c2ccc([C@@H](C)C(=O)OCCOCCOC(=O)c3ccc(-c4c5nc(c(-c6c(F)c(F)c(F)c(F)c6F)c6ccc([nH]6)c(-c6c(F)c(F)c(F)c(F)c6F)c6nc(c(-c7c(F)c(F)c(F)c(F)c7F)c7ccc4[nH]7)C=C6)C=C5)cc3)cc2N)c1
REMARK SMILES IDX 22 1 23 2 20 3 21 4 19 5 16 6 17 7 97 8 18 9 96 10 15 11
REMARK SMILES IDX 11 12 12 13 99 14 13 15 14 16 10 17 8 18 7 19 9 21 6 22 5 23
REMARK SMILES IDX 4 24 3 25 2 26 1 27 98 28 24 31 25 32 26 33 27 34 28 35
REMARK SMILES IDX 29 36 30 37 31 38 32 39 33 40 34 41 95 42 35 43 94 44 36 45
REMARK SMILES IDX 37 46 38 47 88 48 39 49 93 50 87 51 89 52 40 53 92 54 86 55
REMARK SMILES IDX 85 56 41 58 73 59 53 60 72 61 54 62 57 63 71 64 90 65 55 66
REMARK SMILES IDX 56 67 70 69 91 70 58 71 42 72 43 73 51 74 44 75 45 76 49 77
REMARK SMILES IDX 52 78 46 79 47 80 50 81 48 82 74 83 75 84 83 85 76 86 77 87
REMARK SMILES IDX 81 88 84 89 78 90 79 91 82 92 80 93 59 94 60 95 68 96 61 97
REMARK SMILES IDX 62 98 66 99 69 100 63 101 64 102 67 103 65 104
REMARK H PARENT 7 20 98 29 98 30 89 57 57 68
REMARK Flexibility Score: inf
ROOT
ATOM      1  C   UNL A   1      37.312  29.745  28.432  1.00  0.00     0.313 C 
ATOM      2  O   UNL A   1      37.133  30.057  27.258  1.00  0.00    -0.252 OA
ENDROOT
BRANCH   1   3
ATOM      3  C   UNL A   1      38.688  29.805  29.074  1.00  0.00     0.126 C 
ATOM      4  C   UNL A   1      39.069  31.266  29.302  1.00  0.00     0.025 C 
BRANCH   3   5
ATOM      5  C   UNL A   1      39.819  29.017  28.420  1.00  0.00    -0.032 A 
ATOM      6  C   UNL A   1      42.084  27.682  27.311  1.00  0.00     0.005 A 
ATOM      7  C   UNL A   1      41.141  28.341  26.498  1.00  0.00     0.011 A 
ATOM      8  C   UNL A   1      41.879  27.695  28.710  1.00  0.00     0.040 A 
ATOM      9  C   UNL A   1      40.035  29.007  27.040  1.00  0.00     0.005 A 
ATOM     10  C   UNL A   1      40.736  28.324  29.233  1.00  0.00     0.030 A 
BRANCH   6  11
ATOM     11  C   UNL A   1      43.271  27.062  26.683  1.00  0.00    -0.013 A 
ATOM     12  C   UNL A   1      44.520  25.116  25.935  1.00  0.00     0.133 A 
ATOM     13  C   UNL A   1      45.597  25.914  25.560  1.00  0.00     0.047 A 
ATOM     14  C   UNL A   1      43.367  25.673  26.495  1.00  0.00     0.056 A 
ATOM     15  C   UNL A   1      45.512  27.294  25.724  1.00  0.00     0.004 A 
ATOM     16  C   UNL A   1      44.361  27.859  26.282  1.00  0.00     0.009 A 
BRANCH  12  17
ATOM     17  O   UNL A   1      44.701  23.726  25.845  1.00  0.00    -0.410 OA
BRANCH  17  18
ATOM     18  C   UNL A   1      44.391  23.107  24.644  1.00  0.00     0.412 C 
ATOM     19  N   UNL A   1      43.427  22.145  24.766  1.00  0.00    -0.321 N 
ATOM     20  H   UNL A   1      43.155  21.691  23.936  1.00  0.00     0.167 HD
ATOM     21  O   UNL A   1      44.905  23.347  23.557  1.00  0.00    -0.224 OA
BRANCH  19  22
ATOM     22  C   UNL A   1      42.759  21.718  25.980  1.00  0.00     0.119 C 
BRANCH  22  23
ATOM     23  C   UNL A   1      41.473  22.503  26.241  1.00  0.00     0.021 C 
BRANCH  23  24
ATOM     24  C   UNL A   1      41.220  22.865  27.710  1.00  0.00     0.002 C 
BRANCH  24  25
ATOM     25  C   UNL A   1      42.273  22.368  28.707  1.00  0.00    -0.000 C 
BRANCH  25  26
ATOM     26  C   UNL A   1      43.017  23.460  29.480  1.00  0.00    -0.003 C 
ATOM     27  C   UNL A   1      44.531  23.326  29.407  1.00  0.00     0.004 C 
ENDBRANCH  25  26
ENDBRANCH  24  25
ENDBRANCH  23  24
ENDBRANCH  22  23
ENDBRANCH  19  22
ENDBRANCH  17  18
ENDBRANCH  12  17
ENDBRANCH   6  11
BRANCH   8  28
ATOM     28  N   UNL A   1      42.726  27.026  29.593  1.00  0.00    -0.398 N 
ATOM     29  H   UNL A   1      42.769  27.300  30.537  1.00  0.00     0.156 HD
ATOM     30  H   UNL A   1      43.283  26.281  29.272  1.00  0.00     0.156 HD
ENDBRANCH   8  28
ENDBRANCH   3   5
ENDBRANCH   1   3
BRANCH   1  31
ATOM     31  O   UNL A   1      36.337  29.280  29.257  1.00  0.00    -0.463 OA
BRANCH  31  32
ATOM     32  C   UNL A   1      36.266  29.898  30.555  1.00  0.00     0.261 C 
BRANCH  32  33
ATOM     33  C   UNL A   1      35.606  31.276  30.480  1.00  0.00     0.202 C 
BRANCH  33  34
ATOM     34  O   UNL A   1      36.358  32.368  31.005  1.00  0.00    -0.374 OA
BRANCH  34  35
ATOM     35  C   UNL A   1      35.664  33.315  31.820  1.00  0.00     0.202 C 
BRANCH  35  36
ATOM     36  C   UNL A   1      36.068  33.381  33.298  1.00  0.00     0.261 C 
BRANCH  36  37
ATOM     37  O   UNL A   1      36.430  32.093  33.827  1.00  0.00    -0.460 OA
BRANCH  37  38
ATOM     38  C   UNL A   1      37.430  32.113  34.742  1.00  0.00     0.338 C 
ATOM     39  O   UNL A   1      37.382  32.508  35.891  1.00  0.00    -0.246 OA
BRANCH  38  40
ATOM     40  C   UNL A   1      38.596  31.378  34.212  1.00  0.00     0.060 A 
ATOM     41  C   UNL A   1      39.867  31.804  34.623  1.00  0.00     0.016 A 
ATOM     42  C   UNL A   1      38.459  30.345  33.284  1.00  0.00     0.016 A 
ATOM     43  C   UNL A   1      41.009  31.223  34.079  1.00  0.00     0.010 A 
ATOM     44  C   UNL A   1      39.607  29.769  32.730  1.00  0.00     0.010 A 
ATOM     45  C   UNL A   1      40.886  30.226  33.103  1.00  0.00    -0.014 A 
BRANCH  45  46
ATOM     46  C   UNL A   1      42.092  29.753  32.381  1.00  0.00     0.031 A 
ATOM     47  C   UNL A   1      42.807  28.527  32.876  1.00  0.00     0.074 A 
ATOM     48  C   UNL A   1      42.539  30.400  31.291  1.00  0.00     0.049 A 
ATOM     49  N   UNL A   1      43.912  27.976  32.441  1.00  0.00    -0.248 NA
ATOM     50  C   UNL A   1      42.193  27.828  34.015  1.00  0.00     0.031 C 
ATOM     51  C   UNL A   1      41.910  31.574  30.692  1.00  0.00     0.029 A 
ATOM     52  N   UNL A   1      43.641  30.167  30.505  1.00  0.00    -0.354 N 
ATOM     53  C   UNL A   1      44.134  26.878  33.261  1.00  0.00     0.074 A 
ATOM     54  C   UNL A   1      43.060  26.850  34.232  1.00  0.00     0.031 C 
ATOM     55  C   UNL A   1      42.649  31.976  29.645  1.00  0.00     0.029 A 
ATOM     56  C   UNL A   1      43.822  31.111  29.526  1.00  0.00     0.049 A 
ATOM     57  H   UNL A   1      44.243  29.398  30.632  1.00  0.00     0.167 HD
ATOM     58  C   UNL A   1      45.141  25.975  33.206  1.00  0.00     0.037 A 
ATOM     59  C   UNL A   1      44.838  31.278  28.656  1.00  0.00     0.037 A 
ATOM     60  C   UNL A   1      46.201  26.001  32.234  1.00  0.00     0.049 A 
ATOM     61  C   UNL A   1      45.988  30.306  28.663  1.00  0.00     0.074 A 
ATOM     62  C   UNL A   1      47.233  25.096  32.056  1.00  0.00     0.029 A 
ATOM     63  N   UNL A   1      46.375  26.997  31.282  1.00  0.00    -0.354 N 
ATOM     64  N   UNL A   1      46.170  29.245  29.411  1.00  0.00    -0.248 NA
ATOM     65  C   UNL A   1      47.078  30.557  27.709  1.00  0.00     0.031 C 
ATOM     66  C   UNL A   1      48.066  25.577  31.041  1.00  0.00     0.029 A 
ATOM     67  C   UNL A   1      47.524  26.754  30.547  1.00  0.00     0.049 A 
ATOM     68  H   UNL A   1      45.770  27.762  31.149  1.00  0.00     0.167 HD
ATOM     69  C   UNL A   1      47.382  28.697  29.014  1.00  0.00     0.074 A 
ATOM     70  C   UNL A   1      47.886  29.533  27.944  1.00  0.00     0.031 C 
ATOM     71  C   UNL A   1      48.022  27.603  29.494  1.00  0.00     0.037 A 
BRANCH  58  72
ATOM     72  C   UNL A   1      45.167  24.901  34.253  1.00  0.00     0.064 A 
ATOM     73  C   UNL A   1      44.659  23.616  34.011  1.00  0.00     0.173 A 
ATOM     74  C   UNL A   1      45.737  25.156  35.510  1.00  0.00     0.173 A 
ATOM     75  F   UNL A   1      44.095  23.325  32.830  1.00  0.00    -0.203 F 
ATOM     76  C   UNL A   1      44.695  22.634  34.999  1.00  0.00     0.198 A 
ATOM     77  C   UNL A   1      45.797  24.164  36.484  1.00  0.00     0.198 A 
ATOM     78  F   UNL A   1      46.243  26.366  35.790  1.00  0.00    -0.203 F 
ATOM     79  F   UNL A   1      44.163  21.427  34.761  1.00  0.00    -0.200 F 
ATOM     80  C   UNL A   1      45.270  22.908  36.231  1.00  0.00     0.200 A 
ATOM     81  F   UNL A   1      46.364  24.426  37.671  1.00  0.00    -0.200 F 
ATOM     82  F   UNL A   1      45.308  21.960  37.178  1.00  0.00    -0.200 F 
ENDBRANCH  58  72
BRANCH  59  83
ATOM     83  C   UNL A   1      44.829  32.444  27.735  1.00  0.00     0.064 A 
ATOM     84  C   UNL A   1      45.468  33.643  28.074  1.00  0.00     0.173 A 
ATOM     85  C   UNL A   1      44.181  32.378  26.492  1.00  0.00     0.173 A 
ATOM     86  F   UNL A   1      46.076  33.766  29.263  1.00  0.00    -0.203 F 
ATOM     87  C   UNL A   1      45.455  34.735  27.207  1.00  0.00     0.198 A 
ATOM     88  C   UNL A   1      44.192  33.460  25.615  1.00  0.00     0.198 A 
ATOM     89  F   UNL A   1      43.550  31.253  26.123  1.00  0.00    -0.203 F 
ATOM     90  F   UNL A   1      46.043  35.883  27.570  1.00  0.00    -0.200 F 
ATOM     91  C   UNL A   1      44.824  34.639  25.975  1.00  0.00     0.200 A 
ATOM     92  F   UNL A   1      43.591  33.358  24.422  1.00  0.00    -0.200 F 
ATOM     93  F   UNL A   1      44.821  35.685  25.138  1.00  0.00    -0.200 F 
ENDBRANCH  59  83
BRANCH  71  94
ATOM     94  C   UNL A   1      49.338  27.239  28.872  1.00  0.00     0.064 A 
ATOM     95  C   UNL A   1      49.411  26.370  27.772  1.00  0.00     0.173 A 
ATOM     96  C   UNL A   1      50.532  27.812  29.336  1.00  0.00     0.173 A 
ATOM     97  F   UNL A   1      48.301  25.784  27.301  1.00  0.00    -0.203 F 
ATOM     98  C   UNL A   1      50.632  26.078  27.171  1.00  0.00     0.198 A 
ATOM     99  C   UNL A   1      51.748  27.540  28.715  1.00  0.00     0.198 A 
ATOM    100  F   UNL A   1      50.517  28.654  30.380  1.00  0.00    -0.203 F 
ATOM    101  F   UNL A   1      50.682  25.217  26.144  1.00  0.00    -0.200 F 
ATOM    102  C   UNL A   1      51.798  26.670  27.636  1.00  0.00     0.200 A 
ATOM    103  F   UNL A   1      52.871  28.123  29.156  1.00  0.00    -0.200 F 
ATOM    104  F   UNL A   1      52.971  26.399  27.046  1.00  0.00    -0.200 F 
ENDBRANCH  71  94
ENDBRANCH  45  46
ENDBRANCH  38  40
ENDBRANCH  37  38
ENDBRANCH  36  37
ENDBRANCH  35  36
ENDBRANCH  34  35
ENDBRANCH  33  34
ENDBRANCH  32  33
ENDBRANCH  31  32
ENDBRANCH   1  31
TORSDOF 24
ENDMDL
