MODEL 1
REMARK VINA RESULT:     -10.9      0.000      0.000
REMARK SMILES C[NH2+][C@]1(C(=O)OCCOCCOC(=O)c2ccc(-c3c4nc(c(-c5c(F)c(F)c(F)c(F)c5F)c5ccc([nH]5)c(-c5c(F)c(F)c(F)c(F)c5F)c5nc(c(-c6c(F)c(F)c(F)c(F)c6F)c6ccc3[nH]6)C=C5)C=C4)cc2)CCC[C@@H]1CC[N@H+]1CCC[C@H]([NH+](C)C)C1
REMARK SMILES IDX 8 1 7 2 6 3 4 4 5 5 3 6 78 7 81 8 79 9 80 10 2 11 1 12 82 15
REMARK SMILES IDX 83 16 84 17 85 18 92 19 86 21 88 22 87 23 89 24 90 25 91 26
REMARK SMILES IDX 9 28 10 29 11 30 12 31 13 32 14 33 15 34 16 35 77 36 17 37
REMARK SMILES IDX 76 38 18 39 19 40 20 41 70 42 21 43 75 44 69 45 71 46 22 47
REMARK SMILES IDX 74 48 68 49 67 50 23 52 55 53 35 54 54 55 36 56 39 57 53 58
REMARK SMILES IDX 72 59 37 60 38 61 52 63 73 64 40 65 24 66 25 67 33 68 26 69
REMARK SMILES IDX 27 70 31 71 34 72 28 73 29 74 32 75 30 76 56 77 57 78 65 79
REMARK SMILES IDX 58 80 59 81 63 82 66 83 60 84 61 85 64 86 62 87 41 88 42 89
REMARK SMILES IDX 50 90 43 91 44 92 48 93 51 94 45 95 46 96 49 97 47 98
REMARK H PARENT 2 13 2 14 84 20 89 27 71 51 39 62
REMARK Flexibility Score: inf
ROOT
ATOM      1  C   UNL A   1      36.661  21.885  24.606  1.00  0.00     0.202 C 
ENDROOT
BRANCH   1   2
ATOM      2  C   UNL A   1      36.624  23.278  23.975  1.00  0.00     0.261 C 
BRANCH   2   3
ATOM      3  O   UNL A   1      35.564  24.133  24.436  1.00  0.00    -0.459 OA
BRANCH   3   4
ATOM      4  C   UNL A   1      34.458  24.149  23.643  1.00  0.00     0.368 C 
ATOM      5  O   UNL A   1      34.497  24.191  22.413  1.00  0.00    -0.245 OA
BRANCH   4   6
ATOM      6  C   UNL A   1      33.125  24.154  24.420  1.00  0.00     0.197 C 
ATOM      7  C   UNL A   1      31.967  24.933  23.776  1.00  0.00     0.081 C 
ATOM      8  C   UNL A   1      32.525  22.714  24.378  1.00  0.00     0.068 C 
ATOM      9  C   UNL A   1      30.720  24.374  24.462  1.00  0.00     0.008 C 
ATOM     10  C   UNL A   1      31.068  22.926  24.836  1.00  0.00     0.011 C 
BRANCH   6  11
ATOM     11  N   UNL A   1      33.386  24.533  25.845  1.00  0.00    -0.334 N 
ATOM     12  C   UNL A   1      33.378  25.961  26.121  1.00  0.00     0.331 C 
ATOM     13  H   UNL A   1      32.668  24.097  26.423  1.00  0.00     0.347 HD
ATOM     14  H   UNL A   1      34.332  24.213  26.052  1.00  0.00     0.347 HD
ENDBRANCH   6  11
BRANCH   8  15
ATOM     15  C   UNL A   1      33.301  21.671  25.208  1.00  0.00     0.072 C 
BRANCH  15  16
ATOM     16  C   UNL A   1      32.534  20.388  25.577  1.00  0.00     0.262 C 
BRANCH  16  17
ATOM     17  N   UNL A   1      32.702  19.197  24.720  1.00  0.00    -0.330 N 
ATOM     18  C   UNL A   1      32.177  19.328  23.361  1.00  0.00     0.262 C 
ATOM     19  C   UNL A   1      34.135  18.845  24.640  1.00  0.00     0.327 C 
ATOM     20  H   UNL A   1      32.150  18.467  25.168  1.00  0.00     0.348 HD
ATOM     21  C   UNL A   1      32.308  18.040  22.545  1.00  0.00     0.068 C 
ATOM     22  C   UNL A   1      34.392  17.477  23.948  1.00  0.00     0.239 C 
ATOM     23  C   UNL A   1      33.715  17.459  22.562  1.00  0.00     0.077 C 
BRANCH  22  24
ATOM     24  N   UNL A   1      34.140  16.256  24.758  1.00  0.00    -0.333 N 
ATOM     25  C   UNL A   1      35.368  15.788  25.408  1.00  0.00     0.332 C 
ATOM     26  C   UNL A   1      33.083  16.372  25.760  1.00  0.00     0.332 C 
ATOM     27  H   UNL A   1      33.809  15.574  24.075  1.00  0.00     0.348 HD
ENDBRANCH  22  24
ENDBRANCH  16  17
ENDBRANCH  15  16
ENDBRANCH   8  15
ENDBRANCH   4   6
ENDBRANCH   3   4
ENDBRANCH   2   3
ENDBRANCH   1   2
BRANCH   1  28
ATOM     28  O   UNL A   1      37.739  21.012  24.291  1.00  0.00    -0.374 OA
BRANCH  28  29
ATOM     29  C   UNL A   1      37.839  19.777  24.990  1.00  0.00     0.202 C 
BRANCH  29  30
ATOM     30  C   UNL A   1      39.170  19.419  25.654  1.00  0.00     0.261 C 
BRANCH  30  31
ATOM     31  O   UNL A   1      40.063  20.538  25.752  1.00  0.00    -0.460 OA
BRANCH  31  32
ATOM     32  C   UNL A   1      40.819  20.539  26.873  1.00  0.00     0.338 C 
ATOM     33  O   UNL A   1      41.449  19.600  27.347  1.00  0.00    -0.246 OA
BRANCH  32  34
ATOM     34  C   UNL A   1      40.943  21.904  27.406  1.00  0.00     0.060 A 
ATOM     35  C   UNL A   1      40.228  22.917  26.752  1.00  0.00     0.016 A 
ATOM     36  C   UNL A   1      41.813  22.205  28.457  1.00  0.00     0.016 A 
ATOM     37  C   UNL A   1      40.439  24.247  27.094  1.00  0.00     0.010 A 
ATOM     38  C   UNL A   1      42.034  23.543  28.790  1.00  0.00     0.010 A 
ATOM     39  C   UNL A   1      41.386  24.567  28.076  1.00  0.00    -0.014 A 
BRANCH  39  40
ATOM     40  C   UNL A   1      41.840  25.969  28.201  1.00  0.00     0.031 A 
ATOM     41  C   UNL A   1      43.175  26.343  27.622  1.00  0.00     0.074 A 
ATOM     42  C   UNL A   1      41.059  26.896  28.781  1.00  0.00     0.049 A 
ATOM     43  N   UNL A   1      43.793  27.497  27.630  1.00  0.00    -0.248 NA
ATOM     44  C   UNL A   1      43.916  25.269  26.940  1.00  0.00     0.031 C 
ATOM     45  C   UNL A   1      39.729  26.651  29.334  1.00  0.00     0.029 A 
ATOM     46  N   UNL A   1      41.280  28.230  29.004  1.00  0.00    -0.354 N 
ATOM     47  C   UNL A   1      44.992  27.285  26.963  1.00  0.00     0.074 A 
ATOM     48  C   UNL A   1      45.032  25.889  26.589  1.00  0.00     0.031 C 
ATOM     49  C   UNL A   1      39.253  27.799  29.845  1.00  0.00     0.029 A 
ATOM     50  C   UNL A   1      40.259  28.848  29.680  1.00  0.00     0.049 A 
ATOM     51  H   UNL A   1      42.092  28.700  28.706  1.00  0.00     0.167 HD
ATOM     52  C   UNL A   1      45.968  28.180  26.680  1.00  0.00     0.037 A 
ATOM     53  C   UNL A   1      40.162  30.114  30.130  1.00  0.00     0.037 A 
ATOM     54  C   UNL A   1      45.918  29.569  27.055  1.00  0.00     0.049 A 
ATOM     55  C   UNL A   1      41.291  31.075  29.861  1.00  0.00     0.074 A 
ATOM     56  C   UNL A   1      46.845  30.564  26.807  1.00  0.00     0.029 A 
ATOM     57  N   UNL A   1      44.880  30.153  27.766  1.00  0.00    -0.354 N 
ATOM     58  N   UNL A   1      42.413  30.875  29.212  1.00  0.00    -0.248 NA
ATOM     59  C   UNL A   1      41.137  32.439  30.383  1.00  0.00     0.031 C 
ATOM     60  C   UNL A   1      46.390  31.742  27.411  1.00  0.00     0.029 A 
ATOM     61  C   UNL A   1      45.155  31.491  27.989  1.00  0.00     0.049 A 
ATOM     62  H   UNL A   1      44.068  29.685  28.068  1.00  0.00     0.167 HD
ATOM     63  C   UNL A   1      43.085  32.090  29.223  1.00  0.00     0.074 A 
ATOM     64  C   UNL A   1      42.238  33.026  29.935  1.00  0.00     0.031 C 
ATOM     65  C   UNL A   1      44.293  32.405  28.694  1.00  0.00     0.037 A 
BRANCH  52  66
ATOM     66  C   UNL A   1      47.181  27.677  25.954  1.00  0.00     0.064 A 
ATOM     67  C   UNL A   1      48.297  27.176  26.640  1.00  0.00     0.173 A 
ATOM     68  C   UNL A   1      47.219  27.676  24.552  1.00  0.00     0.173 A 
ATOM     69  F   UNL A   1      48.318  27.171  27.982  1.00  0.00    -0.203 F 
ATOM     70  C   UNL A   1      49.416  26.715  25.950  1.00  0.00     0.198 A 
ATOM     71  C   UNL A   1      48.327  27.188  23.864  1.00  0.00     0.198 A 
ATOM     72  F   UNL A   1      46.177  28.144  23.847  1.00  0.00    -0.203 F 
ATOM     73  F   UNL A   1      50.489  26.283  26.627  1.00  0.00    -0.200 F 
ATOM     74  C   UNL A   1      49.427  26.715  24.563  1.00  0.00     0.200 A 
ATOM     75  F   UNL A   1      48.332  27.180  22.524  1.00  0.00    -0.200 F 
ATOM     76  F   UNL A   1      50.502  26.266  23.900  1.00  0.00    -0.200 F 
ENDBRANCH  52  66
BRANCH  53  77
ATOM     77  C   UNL A   1      38.959  30.540  30.889  1.00  0.00     0.064 A 
ATOM     78  C   UNL A   1      37.843  31.081  30.235  1.00  0.00     0.173 A 
ATOM     79  C   UNL A   1      38.903  30.426  32.286  1.00  0.00     0.173 A 
ATOM     80  F   UNL A   1      37.858  31.234  28.903  1.00  0.00    -0.203 F 
ATOM     81  C   UNL A   1      36.725  31.506  30.951  1.00  0.00     0.198 A 
ATOM     82  C   UNL A   1      37.774  30.824  32.998  1.00  0.00     0.198 A 
ATOM     83  F   UNL A   1      39.945  29.917  32.961  1.00  0.00    -0.203 F 
ATOM     84  F   UNL A   1      35.691  32.059  30.304  1.00  0.00    -0.200 F 
ATOM     85  C   UNL A   1      36.689  31.371  32.331  1.00  0.00     0.200 A 
ATOM     86  F   UNL A   1      37.740  30.683  34.330  1.00  0.00    -0.200 F 
ATOM     87  F   UNL A   1      35.612  31.776  33.018  1.00  0.00    -0.200 F 
ENDBRANCH  53  77
BRANCH  65  88
ATOM     88  C   UNL A   1      44.754  33.827  28.832  1.00  0.00     0.064 A 
ATOM     89  C   UNL A   1      45.590  34.230  29.883  1.00  0.00     0.173 A 
ATOM     90  C   UNL A   1      44.392  34.785  27.874  1.00  0.00     0.173 A 
ATOM     91  F   UNL A   1      45.953  33.354  30.833  1.00  0.00    -0.203 F 
ATOM     92  C   UNL A   1      46.025  35.549  29.985  1.00  0.00     0.198 A 
ATOM     93  C   UNL A   1      44.853  36.095  27.961  1.00  0.00     0.198 A 
ATOM     94  F   UNL A   1      43.601  34.448  26.844  1.00  0.00    -0.203 F 
ATOM     95  F   UNL A   1      46.786  35.924  31.022  1.00  0.00    -0.200 F 
ATOM     96  C   UNL A   1      45.664  36.478  29.020  1.00  0.00     0.200 A 
ATOM     97  F   UNL A   1      44.515  36.988  27.020  1.00  0.00    -0.200 F 
ATOM     98  F   UNL A   1      46.091  37.744  29.114  1.00  0.00    -0.200 F 
ENDBRANCH  65  88
ENDBRANCH  39  40
ENDBRANCH  32  34
ENDBRANCH  31  32
ENDBRANCH  30  31
ENDBRANCH  29  30
ENDBRANCH  28  29
ENDBRANCH   1  28
TORSDOF 19
ENDMDL
MODEL 2
REMARK VINA RESULT:     -10.7      0.444      7.380
REMARK SMILES C[NH2+][C@]1(C(=O)OCCOCCOC(=O)c2ccc(-c3c4nc(c(-c5c(F)c(F)c(F)c(F)c5F)c5ccc([nH]5)c(-c5c(F)c(F)c(F)c(F)c5F)c5nc(c(-c6c(F)c(F)c(F)c(F)c6F)c6ccc3[nH]6)C=C5)C=C4)cc2)CCC[C@@H]1CC[N@H+]1CCC[C@H]([NH+](C)C)C1
REMARK SMILES IDX 8 1 7 2 6 3 4 4 5 5 3 6 78 7 81 8 79 9 80 10 2 11 1 12 82 15
REMARK SMILES IDX 83 16 84 17 85 18 92 19 86 21 88 22 87 23 89 24 90 25 91 26
REMARK SMILES IDX 9 28 10 29 11 30 12 31 13 32 14 33 15 34 16 35 77 36 17 37
REMARK SMILES IDX 76 38 18 39 19 40 20 41 70 42 21 43 75 44 69 45 71 46 22 47
REMARK SMILES IDX 74 48 68 49 67 50 23 52 55 53 35 54 54 55 36 56 39 57 53 58
REMARK SMILES IDX 72 59 37 60 38 61 52 63 73 64 40 65 24 66 25 67 33 68 26 69
REMARK SMILES IDX 27 70 31 71 34 72 28 73 29 74 32 75 30 76 56 77 57 78 65 79
REMARK SMILES IDX 58 80 59 81 63 82 66 83 60 84 61 85 64 86 62 87 41 88 42 89
REMARK SMILES IDX 50 90 43 91 44 92 48 93 51 94 45 95 46 96 49 97 47 98
REMARK H PARENT 2 13 2 14 84 20 89 27 71 51 39 62
REMARK Flexibility Score: inf
ROOT
ATOM      1  C   UNL A   1      36.450  21.913  24.526  1.00  0.00     0.202 C 
ENDROOT
BRANCH   1   2
ATOM      2  C   UNL A   1      36.449  23.295  23.870  1.00  0.00     0.261 C 
BRANCH   2   3
ATOM      3  O   UNL A   1      35.446  24.205  24.357  1.00  0.00    -0.459 OA
BRANCH   3   4
ATOM      4  C   UNL A   1      34.351  24.326  23.558  1.00  0.00     0.368 C 
ATOM      5  O   UNL A   1      34.404  24.456  22.335  1.00  0.00    -0.245 OA
BRANCH   4   6
ATOM      6  C   UNL A   1      33.011  24.332  24.324  1.00  0.00     0.197 C 
ATOM      7  C   UNL A   1      31.886  25.187  23.718  1.00  0.00     0.081 C 
ATOM      8  C   UNL A   1      32.363  22.918  24.192  1.00  0.00     0.068 C 
ATOM      9  C   UNL A   1      30.614  24.632  24.359  1.00  0.00     0.008 C 
ATOM     10  C   UNL A   1      30.909  23.154  24.651  1.00  0.00     0.011 C 
BRANCH   6  11
ATOM     11  N   UNL A   1      33.270  24.618  25.770  1.00  0.00    -0.334 N 
ATOM     12  C   UNL A   1      33.311  26.026  26.129  1.00  0.00     0.331 C 
ATOM     13  H   UNL A   1      32.531  24.175  26.316  1.00  0.00     0.347 HD
ATOM     14  H   UNL A   1      34.201  24.251  25.967  1.00  0.00     0.347 HD
ENDBRANCH   6  11
BRANCH   8  15
ATOM     15  C   UNL A   1      33.094  21.802  24.966  1.00  0.00     0.072 C 
BRANCH  15  16
ATOM     16  C   UNL A   1      32.265  20.549  25.299  1.00  0.00     0.262 C 
BRANCH  16  17
ATOM     17  N   UNL A   1      32.504  19.319  24.517  1.00  0.00    -0.330 N 
ATOM     18  C   UNL A   1      32.153  19.404  23.099  1.00  0.00     0.262 C 
ATOM     19  C   UNL A   1      33.925  18.931  24.629  1.00  0.00     0.327 C 
ATOM     20  H   UNL A   1      31.880  18.621  24.921  1.00  0.00     0.348 HD
ATOM     21  C   UNL A   1      32.348  18.079  22.357  1.00  0.00     0.068 C 
ATOM     22  C   UNL A   1      34.227  17.530  24.029  1.00  0.00     0.239 C 
ATOM     23  C   UNL A   1      33.726  17.468  22.571  1.00  0.00     0.077 C 
BRANCH  22  24
ATOM     24  N   UNL A   1      33.844  16.350  24.848  1.00  0.00    -0.333 N 
ATOM     25  C   UNL A   1      35.028  15.663  25.375  1.00  0.00     0.332 C 
ATOM     26  C   UNL A   1      32.920  16.621  25.947  1.00  0.00     0.332 C 
ATOM     27  H   UNL A   1      33.338  15.752  24.194  1.00  0.00     0.348 HD
ENDBRANCH  22  24
ENDBRANCH  16  17
ENDBRANCH  15  16
ENDBRANCH   8  15
ENDBRANCH   4   6
ENDBRANCH   3   4
ENDBRANCH   2   3
ENDBRANCH   1   2
BRANCH   1  28
ATOM     28  O   UNL A   1      37.522  21.019  24.253  1.00  0.00    -0.374 OA
BRANCH  28  29
ATOM     29  C   UNL A   1      37.605  19.811  24.997  1.00  0.00     0.202 C 
BRANCH  29  30
ATOM     30  C   UNL A   1      38.932  19.458  25.673  1.00  0.00     0.261 C 
BRANCH  30  31
ATOM     31  O   UNL A   1      39.830  20.575  25.754  1.00  0.00    -0.460 OA
BRANCH  31  32
ATOM     32  C   UNL A   1      40.626  20.560  26.848  1.00  0.00     0.338 C 
ATOM     33  O   UNL A   1      41.196  19.593  27.339  1.00  0.00    -0.246 OA
BRANCH  32  34
ATOM     34  C   UNL A   1      40.880  21.931  27.316  1.00  0.00     0.060 A 
ATOM     35  C   UNL A   1      40.307  22.977  26.580  1.00  0.00     0.016 A 
ATOM     36  C   UNL A   1      41.736  22.193  28.387  1.00  0.00     0.016 A 
ATOM     37  C   UNL A   1      40.650  24.294  26.863  1.00  0.00     0.010 A 
ATOM     38  C   UNL A   1      42.090  23.516  28.662  1.00  0.00     0.010 A 
ATOM     39  C   UNL A   1      41.587  24.563  27.869  1.00  0.00    -0.014 A 
BRANCH  39  40
ATOM     40  C   UNL A   1      42.188  25.913  27.944  1.00  0.00     0.031 A 
ATOM     41  C   UNL A   1      41.430  26.994  28.660  1.00  0.00     0.074 A 
ATOM     42  C   UNL A   1      43.402  26.155  27.422  1.00  0.00     0.049 A 
ATOM     43  N   UNL A   1      41.740  28.253  28.835  1.00  0.00    -0.248 NA
ATOM     44  C   UNL A   1      40.145  26.603  29.263  1.00  0.00     0.031 C 
ATOM     45  C   UNL A   1      44.242  25.168  26.748  1.00  0.00     0.029 A 
ATOM     46  N   UNL A   1      44.134  27.313  27.376  1.00  0.00    -0.354 N 
ATOM     47  C   UNL A   1      40.690  28.802  29.558  1.00  0.00     0.074 A 
ATOM     48  C   UNL A   1      39.720  27.751  29.766  1.00  0.00     0.031 C 
ATOM     49  C   UNL A   1      45.375  25.766  26.343  1.00  0.00     0.029 A 
ATOM     50  C   UNL A   1      45.323  27.182  26.704  1.00  0.00     0.049 A 
ATOM     51  H   UNL A   1      43.835  28.157  27.786  1.00  0.00     0.167 HD
ATOM     52  C   UNL A   1      40.554  30.069  30.016  1.00  0.00     0.037 A 
ATOM     53  C   UNL A   1      46.251  28.111  26.401  1.00  0.00     0.037 A 
ATOM     54  C   UNL A   1      41.527  31.108  29.806  1.00  0.00     0.049 A 
ATOM     55  C   UNL A   1      46.045  29.529  26.865  1.00  0.00     0.074 A 
ATOM     56  C   UNL A   1      41.496  32.422  30.237  1.00  0.00     0.029 A 
ATOM     57  N   UNL A   1      42.707  30.947  29.094  1.00  0.00    -0.354 N 
ATOM     58  N   UNL A   1      45.061  30.038  27.566  1.00  0.00    -0.248 NA
ATOM     59  C   UNL A   1      47.083  30.502  26.498  1.00  0.00     0.031 C 
ATOM     60  C   UNL A   1      42.635  33.068  29.745  1.00  0.00     0.029 A 
ATOM     61  C   UNL A   1      43.401  32.144  29.053  1.00  0.00     0.049 A 
ATOM     62  H   UNL A   1      43.007  30.105  28.680  1.00  0.00     0.167 HD
ATOM     63  C   UNL A   1      45.372  31.379  27.749  1.00  0.00     0.074 A 
ATOM     64  C   UNL A   1      46.645  31.603  27.093  1.00  0.00     0.031 C 
ATOM     65  C   UNL A   1      44.671  32.340  28.400  1.00  0.00     0.037 A 
BRANCH  52  66
ATOM     66  C   UNL A   1      39.298  30.405  30.765  1.00  0.00     0.064 A 
ATOM     67  C   UNL A   1      38.155  30.887  30.110  1.00  0.00     0.173 A 
ATOM     68  C   UNL A   1      39.229  30.221  32.154  1.00  0.00     0.173 A 
ATOM     69  F   UNL A   1      38.174  31.097  28.785  1.00  0.00    -0.203 F 
ATOM     70  C   UNL A   1      36.998  31.196  30.821  1.00  0.00     0.198 A 
ATOM     71  C   UNL A   1      38.062  30.504  32.858  1.00  0.00     0.198 A 
ATOM     72  F   UNL A   1      40.295  29.762  32.829  1.00  0.00    -0.203 F 
ATOM     73  F   UNL A   1      35.933  31.698  30.181  1.00  0.00    -0.200 F 
ATOM     74  C   UNL A   1      36.949  30.997  32.193  1.00  0.00     0.200 A 
ATOM     75  F   UNL A   1      38.015  30.302  34.182  1.00  0.00    -0.200 F 
ATOM     76  F   UNL A   1      35.834  31.290  32.876  1.00  0.00    -0.200 F 
ENDBRANCH  52  66
BRANCH  53  77
ATOM     77  C   UNL A   1      47.450  27.729  25.612  1.00  0.00     0.064 A 
ATOM     78  C   UNL A   1      48.626  27.301  26.241  1.00  0.00     0.173 A 
ATOM     79  C   UNL A   1      47.447  27.795  24.210  1.00  0.00     0.173 A 
ATOM     80  F   UNL A   1      48.687  27.246  27.580  1.00  0.00    -0.203 F 
ATOM     81  C   UNL A   1      49.760  26.970  25.501  1.00  0.00     0.198 A 
ATOM     82  C   UNL A   1      48.571  27.435  23.469  1.00  0.00     0.198 A 
ATOM     83  F   UNL A   1      46.346  28.200  23.559  1.00  0.00    -0.203 F 
ATOM     84  F   UNL A   1      50.885  26.607  26.131  1.00  0.00    -0.200 F 
ATOM     85  C   UNL A   1      49.729  27.031  24.115  1.00  0.00     0.200 A 
ATOM     86  F   UNL A   1      48.533  27.487  22.132  1.00  0.00    -0.200 F 
ATOM     87  F   UNL A   1      50.817  26.709  23.404  1.00  0.00    -0.200 F 
ENDBRANCH  53  77
BRANCH  65  88
ATOM     88  C   UNL A   1      45.279  33.710  28.464  1.00  0.00     0.064 A 
ATOM     89  C   UNL A   1      44.955  34.705  27.531  1.00  0.00     0.173 A 
ATOM     90  C   UNL A   1      46.162  34.044  29.503  1.00  0.00     0.173 A 
ATOM     91  F   UNL A   1      44.127  34.430  26.512  1.00  0.00    -0.203 F 
ATOM     92  C   UNL A   1      45.514  35.977  27.619  1.00  0.00     0.198 A 
ATOM     93  C   UNL A   1      46.695  35.326  29.606  1.00  0.00     0.198 A 
ATOM     94  F   UNL A   1      46.497  33.131  30.426  1.00  0.00    -0.203 F 
ATOM     95  F   UNL A   1      45.227  36.899  26.690  1.00  0.00    -0.200 F 
ATOM     96  C   UNL A   1      46.376  36.289  28.660  1.00  0.00     0.200 A 
ATOM     97  F   UNL A   1      47.517  35.629  30.620  1.00  0.00    -0.200 F 
ATOM     98  F   UNL A   1      46.906  37.517  28.748  1.00  0.00    -0.200 F 
ENDBRANCH  65  88
ENDBRANCH  39  40
ENDBRANCH  32  34
ENDBRANCH  31  32
ENDBRANCH  30  31
ENDBRANCH  29  30
ENDBRANCH  28  29
ENDBRANCH   1  28
TORSDOF 19
ENDMDL
MODEL 3
REMARK VINA RESULT:     -10.5      1.629      2.522
REMARK SMILES C[NH2+][C@]1(C(=O)OCCOCCOC(=O)c2ccc(-c3c4nc(c(-c5c(F)c(F)c(F)c(F)c5F)c5ccc([nH]5)c(-c5c(F)c(F)c(F)c(F)c5F)c5nc(c(-c6c(F)c(F)c(F)c(F)c6F)c6ccc3[nH]6)C=C5)C=C4)cc2)CCC[C@@H]1CC[N@H+]1CCC[C@H]([NH+](C)C)C1
REMARK SMILES IDX 8 1 7 2 6 3 4 4 5 5 3 6 78 7 81 8 79 9 80 10 2 11 1 12 82 15
REMARK SMILES IDX 83 16 84 17 85 18 92 19 86 21 88 22 87 23 89 24 90 25 91 26
REMARK SMILES IDX 9 28 10 29 11 30 12 31 13 32 14 33 15 34 16 35 77 36 17 37
REMARK SMILES IDX 76 38 18 39 19 40 20 41 70 42 21 43 75 44 69 45 71 46 22 47
REMARK SMILES IDX 74 48 68 49 67 50 23 52 55 53 35 54 54 55 36 56 39 57 53 58
REMARK SMILES IDX 72 59 37 60 38 61 52 63 73 64 40 65 24 66 25 67 33 68 26 69
REMARK SMILES IDX 27 70 31 71 34 72 28 73 29 74 32 75 30 76 56 77 57 78 65 79
REMARK SMILES IDX 58 80 59 81 63 82 66 83 60 84 61 85 64 86 62 87 41 88 42 89
REMARK SMILES IDX 50 90 43 91 44 92 48 93 51 94 45 95 46 96 49 97 47 98
REMARK H PARENT 2 13 2 14 84 20 89 27 71 51 39 62
REMARK Flexibility Score: inf
ROOT
ATOM      1  C   UNL A   1      37.160  21.418  24.563  1.00  0.00     0.202 C 
ENDROOT
BRANCH   1   2
ATOM      2  C   UNL A   1      36.660  22.590  23.716  1.00  0.00     0.261 C 
BRANCH   2   3
ATOM      3  O   UNL A   1      35.961  23.617  24.441  1.00  0.00    -0.459 OA
BRANCH   3   4
ATOM      4  C   UNL A   1      34.680  23.831  24.034  1.00  0.00     0.368 C 
ATOM      5  O   UNL A   1      34.373  24.205  22.902  1.00  0.00    -0.245 OA
BRANCH   4   6
ATOM      6  C   UNL A   1      33.623  23.606  25.136  1.00  0.00     0.197 C 
ATOM      7  C   UNL A   1      33.122  24.864  25.863  1.00  0.00     0.081 C 
ATOM      8  C   UNL A   1      32.293  23.151  24.457  1.00  0.00     0.068 C 
ATOM      9  C   UNL A   1      31.803  24.423  26.497  1.00  0.00     0.008 C 
ATOM     10  C   UNL A   1      31.249  23.325  25.578  1.00  0.00     0.011 C 
BRANCH   6  11
ATOM     11  N   UNL A   1      34.095  22.526  26.059  1.00  0.00    -0.334 N 
ATOM     12  C   UNL A   1      34.537  22.975  27.369  1.00  0.00     0.331 C 
ATOM     13  H   UNL A   1      33.326  21.869  26.195  1.00  0.00     0.347 HD
ATOM     14  H   UNL A   1      34.913  22.112  25.613  1.00  0.00     0.347 HD
ENDBRANCH   6  11
BRANCH   8  15
ATOM     15  C   UNL A   1      32.334  21.734  23.849  1.00  0.00     0.072 C 
BRANCH  15  16
ATOM     16  C   UNL A   1      32.200  20.564  24.840  1.00  0.00     0.262 C 
BRANCH  16  17
ATOM     17  N   UNL A   1      32.656  19.226  24.415  1.00  0.00    -0.330 N 
ATOM     18  C   UNL A   1      32.253  18.828  23.067  1.00  0.00     0.262 C 
ATOM     19  C   UNL A   1      34.129  19.155  24.507  1.00  0.00     0.327 C 
ATOM     20  H   UNL A   1      32.198  18.573  25.051  1.00  0.00     0.348 HD
ATOM     21  C   UNL A   1      32.687  17.405  22.710  1.00  0.00     0.068 C 
ATOM     22  C   UNL A   1      34.688  17.720  24.298  1.00  0.00     0.239 C 
ATOM     23  C   UNL A   1      34.165  17.146  22.965  1.00  0.00     0.077 C 
BRANCH  22  24
ATOM     24  N   UNL A   1      34.575  16.780  25.444  1.00  0.00    -0.333 N 
ATOM     25  C   UNL A   1      33.307  16.045  25.405  1.00  0.00     0.332 C 
ATOM     26  C   UNL A   1      35.675  15.828  25.588  1.00  0.00     0.332 C 
ATOM     27  H   UNL A   1      34.619  17.387  26.263  1.00  0.00     0.348 HD
ENDBRANCH  22  24
ENDBRANCH  16  17
ENDBRANCH  15  16
ENDBRANCH   8  15
ENDBRANCH   4   6
ENDBRANCH   3   4
ENDBRANCH   2   3
ENDBRANCH   1   2
BRANCH   1  28
ATOM     28  O   UNL A   1      37.901  21.689  25.747  1.00  0.00    -0.374 OA
BRANCH  28  29
ATOM     29  C   UNL A   1      39.288  21.378  25.766  1.00  0.00     0.202 C 
BRANCH  29  30
ATOM     30  C   UNL A   1      39.712  19.950  26.120  1.00  0.00     0.261 C 
BRANCH  30  31
ATOM     31  O   UNL A   1      40.850  19.504  25.368  1.00  0.00    -0.460 OA
BRANCH  31  32
ATOM     32  C   UNL A   1      41.943  19.257  26.125  1.00  0.00     0.338 C 
ATOM     33  O   UNL A   1      42.390  18.163  26.453  1.00  0.00    -0.246 OA
BRANCH  32  34
ATOM     34  C   UNL A   1      42.674  20.505  26.394  1.00  0.00     0.060 A 
ATOM     35  C   UNL A   1      42.663  20.984  27.711  1.00  0.00     0.016 A 
ATOM     36  C   UNL A   1      43.270  21.241  25.368  1.00  0.00     0.016 A 
ATOM     37  C   UNL A   1      43.181  22.241  27.997  1.00  0.00     0.010 A 
ATOM     38  C   UNL A   1      43.780  22.510  25.654  1.00  0.00     0.010 A 
ATOM     39  C   UNL A   1      43.690  23.032  26.958  1.00  0.00    -0.014 A 
BRANCH  39  40
ATOM     40  C   UNL A   1      43.931  24.470  27.205  1.00  0.00     0.031 A 
ATOM     41  C   UNL A   1      45.311  25.015  26.966  1.00  0.00     0.074 A 
ATOM     42  C   UNL A   1      42.931  25.278  27.593  1.00  0.00     0.049 A 
ATOM     43  N   UNL A   1      45.767  26.230  27.135  1.00  0.00    -0.248 NA
ATOM     44  C   UNL A   1      46.314  24.060  26.468  1.00  0.00     0.031 C 
ATOM     45  C   UNL A   1      41.547  24.863  27.809  1.00  0.00     0.029 A 
ATOM     46  N   UNL A   1      42.932  26.619  27.878  1.00  0.00    -0.354 N 
ATOM     47  C   UNL A   1      47.107  26.181  26.772  1.00  0.00     0.074 A 
ATOM     48  C   UNL A   1      47.400  24.815  26.401  1.00  0.00     0.031 C 
ATOM     49  C   UNL A   1      40.831  25.929  28.205  1.00  0.00     0.029 A 
ATOM     50  C   UNL A   1      41.714  27.090  28.298  1.00  0.00     0.049 A 
ATOM     51  H   UNL A   1      43.730  27.189  27.789  1.00  0.00     0.167 HD
ATOM     52  C   UNL A   1      48.008  27.191  26.741  1.00  0.00     0.037 A 
ATOM     53  C   UNL A   1      41.365  28.318  28.728  1.00  0.00     0.037 A 
ATOM     54  C   UNL A   1      47.706  28.549  27.110  1.00  0.00     0.049 A 
ATOM     55  C   UNL A   1      42.402  29.410  28.748  1.00  0.00     0.074 A 
ATOM     56  C   UNL A   1      48.540  29.652  27.103  1.00  0.00     0.029 A 
ATOM     57  N   UNL A   1      46.468  28.984  27.560  1.00  0.00    -0.354 N 
ATOM     58  N   UNL A   1      43.661  29.364  28.383  1.00  0.00    -0.248 NA
ATOM     59  C   UNL A   1      41.968  30.727  29.234  1.00  0.00     0.031 C 
ATOM     60  C   UNL A   1      47.818  30.746  27.595  1.00  0.00     0.029 A 
ATOM     61  C   UNL A   1      46.521  30.335  27.858  1.00  0.00     0.049 A 
ATOM     62  H   UNL A   1      45.669  28.415  27.654  1.00  0.00     0.167 HD
ATOM     63  C   UNL A   1      44.162  30.646  28.569  1.00  0.00     0.074 A 
ATOM     64  C   UNL A   1      43.066  31.451  29.069  1.00  0.00     0.031 C 
ATOM     65  C   UNL A   1      45.414  31.117  28.347  1.00  0.00     0.037 A 
BRANCH  52  66
ATOM     66  C   UNL A   1      49.409  26.858  26.320  1.00  0.00     0.064 A 
ATOM     67  C   UNL A   1      49.834  26.998  24.990  1.00  0.00     0.173 A 
ATOM     68  C   UNL A   1      50.346  26.415  27.264  1.00  0.00     0.173 A 
ATOM     69  F   UNL A   1      48.971  27.402  24.045  1.00  0.00    -0.203 F 
ATOM     70  C   UNL A   1      51.138  26.683  24.617  1.00  0.00     0.198 A 
ATOM     71  C   UNL A   1      51.657  26.128  26.893  1.00  0.00     0.198 A 
ATOM     72  F   UNL A   1      49.992  26.264  28.550  1.00  0.00    -0.203 F 
ATOM     73  F   UNL A   1      51.509  26.780  23.333  1.00  0.00    -0.200 F 
ATOM     74  C   UNL A   1      52.051  26.255  25.570  1.00  0.00     0.200 A 
ATOM     75  F   UNL A   1      52.540  25.723  27.818  1.00  0.00    -0.200 F 
ATOM     76  F   UNL A   1      53.307  25.957  25.211  1.00  0.00    -0.200 F 
ENDBRANCH  52  66
BRANCH  53  77
ATOM     77  C   UNL A   1      39.974  28.575  29.182  1.00  0.00     0.064 A 
ATOM     78  C   UNL A   1      39.006  29.083  28.305  1.00  0.00     0.173 A 
ATOM     79  C   UNL A   1      39.586  28.328  30.507  1.00  0.00     0.173 A 
ATOM     80  F   UNL A   1      39.335  29.360  27.034  1.00  0.00    -0.203 F 
ATOM     81  C   UNL A   1      37.709  29.350  28.739  1.00  0.00     0.198 A 
ATOM     82  C   UNL A   1      38.281  28.567  30.934  1.00  0.00     0.198 A 
ATOM     83  F   UNL A   1      40.474  27.842  31.388  1.00  0.00    -0.203 F 
ATOM     84  F   UNL A   1      36.817  29.877  27.890  1.00  0.00    -0.200 F 
ATOM     85  C   UNL A   1      37.346  29.085  30.052  1.00  0.00     0.200 A 
ATOM     86  F   UNL A   1      37.933  28.301  32.199  1.00  0.00    -0.200 F 
ATOM     87  F   UNL A   1      36.098  29.339  30.468  1.00  0.00    -0.200 F 
ENDBRANCH  53  77
BRANCH  65  88
ATOM     88  C   UNL A   1      45.657  32.574  28.609  1.00  0.00     0.064 A 
ATOM     89  C   UNL A   1      46.148  33.029  29.842  1.00  0.00     0.173 A 
ATOM     90  C   UNL A   1      45.440  33.521  27.597  1.00  0.00     0.173 A 
ATOM     91  F   UNL A   1      46.358  32.164  30.846  1.00  0.00    -0.203 F 
ATOM     92  C   UNL A   1      46.387  34.383  30.060  1.00  0.00     0.198 A 
ATOM     93  C   UNL A   1      45.709  34.870  27.809  1.00  0.00     0.198 A 
ATOM     94  F   UNL A   1      44.979  33.136  26.397  1.00  0.00    -0.203 F 
ATOM     95  F   UNL A   1      46.812  34.801  31.260  1.00  0.00    -0.200 F 
ATOM     96  C   UNL A   1      46.176  35.301  29.042  1.00  0.00     0.200 A 
ATOM     97  F   UNL A   1      45.518  35.754  26.819  1.00  0.00    -0.200 F 
ATOM     98  F   UNL A   1      46.415  36.603  29.251  1.00  0.00    -0.200 F 
ENDBRANCH  65  88
ENDBRANCH  39  40
ENDBRANCH  32  34
ENDBRANCH  31  32
ENDBRANCH  30  31
ENDBRANCH  29  30
ENDBRANCH  28  29
ENDBRANCH   1  28
TORSDOF 19
ENDMDL
