MODEL 1
REMARK VINA RESULT:     -12.1      0.000      0.000
REMARK SMILES CS(=O)(=O)c1ccc(/C=C(/C(=O)OCCOCCOC(=O)c2ccc(-c3c4nc(c(-c5c(F)c(F)c(F)c(F)c5F)c5ccc([nH]5)c(-c5c(F)c(F)c(F)c(F)c5F)c5nc(c(-c6c(F)c(F)c(F)c(F)c6F)c6ccc3[nH]6)C=C5)C=C4)cc2)c2cccc(Br)c2)cc1
REMARK SMILES IDX 16 1 15 2 14 3 13 4 11 5 12 6 10 7 9 8 8 9 5 10 6 11 93 12
REMARK SMILES IDX 7 13 92 14 2 15 1 16 3 17 4 18 85 19 86 20 91 21 87 22 89 23
REMARK SMILES IDX 88 24 90 25 17 26 18 27 19 28 20 29 21 30 22 31 23 32 84 33
REMARK SMILES IDX 24 34 83 35 25 36 26 37 27 38 77 39 28 40 82 41 76 42 78 43
REMARK SMILES IDX 29 44 81 45 75 46 74 47 30 49 62 50 42 51 61 52 43 53 46 54
REMARK SMILES IDX 60 55 79 56 44 57 45 58 59 60 80 61 47 62 31 63 32 64 40 65
REMARK SMILES IDX 33 66 34 67 38 68 41 69 35 70 36 71 39 72 37 73 63 74 64 75
REMARK SMILES IDX 72 76 65 77 66 78 70 79 73 80 67 81 68 82 71 83 69 84 48 85
REMARK SMILES IDX 49 86 57 87 50 88 51 89 55 90 58 91 52 92 53 93 56 94 54 95
REMARK H PARENT 78 48 46 59
REMARK Flexibility Score: inf
ROOT
ATOM      1  O   UNL A   1      35.421  21.452  25.838  1.00  0.00    -0.374 OA
ENDROOT
BRANCH   1   2
ATOM      2  C   UNL A   1      33.998  21.510  25.921  1.00  0.00     0.202 C 
BRANCH   2   3
ATOM      3  C   UNL A   1      33.269  22.412  24.920  1.00  0.00     0.261 C 
BRANCH   3   4
ATOM      4  O   UNL A   1      32.968  23.701  25.486  1.00  0.00    -0.460 OA
BRANCH   4   5
ATOM      5  C   UNL A   1      33.744  24.716  25.024  1.00  0.00     0.338 C 
ATOM      6  O   UNL A   1      34.947  24.652  24.815  1.00  0.00    -0.246 OA
BRANCH   5   7
ATOM      7  C   UNL A   1      32.937  25.929  24.671  1.00  0.00     0.067 C 
ATOM      8  C   UNL A   1      32.268  25.992  23.496  1.00  0.00     0.024 C 
BRANCH   8   9
ATOM      9  C   UNL A   1      31.237  26.981  23.085  1.00  0.00    -0.025 A 
ATOM     10  C   UNL A   1      29.240  28.935  22.761  1.00  0.00     0.067 A 
ATOM     11  C   UNL A   1      30.536  29.192  22.322  1.00  0.00     0.021 A 
ATOM     12  C   UNL A   1      28.904  27.675  23.255  1.00  0.00     0.021 A 
ATOM     13  C   UNL A   1      31.516  28.204  22.458  1.00  0.00     0.009 A 
ATOM     14  C   UNL A   1      29.900  26.705  23.412  1.00  0.00     0.009 A 
BRANCH  10  15
ATOM     15  S   UNL A   1      28.022  30.229  22.740  1.00  0.00     0.175 S 
ATOM     16  C   UNL A   1      28.763  31.578  23.627  1.00  0.00     0.163 C 
ATOM     17  O   UNL A   1      26.895  29.772  23.532  1.00  0.00    -0.224 OA
ATOM     18  O   UNL A   1      27.857  30.625  21.355  1.00  0.00    -0.224 OA
ENDBRANCH  10  15
ENDBRANCH   8   9
BRANCH   7  19
ATOM     19  C   UNL A   1      32.859  26.975  25.710  1.00  0.00    -0.010 A 
ATOM     20  C   UNL A   1      31.667  27.139  26.438  1.00  0.00     0.009 A 
ATOM     21  C   UNL A   1      33.967  27.770  26.020  1.00  0.00     0.024 A 
ATOM     22  C   UNL A   1      31.589  28.067  27.474  1.00  0.00     0.002 A 
ATOM     23  C   UNL A   1      33.885  28.686  27.068  1.00  0.00     0.018 A 
ATOM     24  C   UNL A   1      32.704  28.838  27.795  1.00  0.00     0.016 A 
ATOM     25  Br  UNL A   1      35.407  29.701  27.535  1.00  0.00    -0.051 Br
ENDBRANCH   7  19
ENDBRANCH   5   7
ENDBRANCH   4   5
ENDBRANCH   3   4
ENDBRANCH   2   3
ENDBRANCH   1   2
BRANCH   1  26
ATOM     26  C   UNL A   1      35.992  20.445  25.007  1.00  0.00     0.202 C 
BRANCH  26  27
ATOM     27  C   UNL A   1      37.520  20.321  24.974  1.00  0.00     0.261 C 
BRANCH  27  28
ATOM     28  O   UNL A   1      38.187  21.494  25.461  1.00  0.00    -0.460 OA
BRANCH  28  29
ATOM     29  C   UNL A   1      39.322  21.240  26.151  1.00  0.00     0.338 C 
ATOM     30  O   UNL A   1      39.930  20.179  26.224  1.00  0.00    -0.246 OA
BRANCH  29  31
ATOM     31  C   UNL A   1      39.863  22.495  26.696  1.00  0.00     0.060 A 
ATOM     32  C   UNL A   1      39.375  23.695  26.165  1.00  0.00     0.016 A 
ATOM     33  C   UNL A   1      40.864  22.500  27.669  1.00  0.00     0.016 A 
ATOM     34  C   UNL A   1      39.919  24.910  26.572  1.00  0.00     0.010 A 
ATOM     35  C   UNL A   1      41.417  23.719  28.069  1.00  0.00     0.010 A 
ATOM     36  C   UNL A   1      40.970  24.924  27.499  1.00  0.00    -0.014 A 
BRANCH  36  37
ATOM     37  C   UNL A   1      41.693  26.190  27.764  1.00  0.00     0.031 A 
ATOM     38  C   UNL A   1      40.995  27.277  28.530  1.00  0.00     0.074 A 
ATOM     39  C   UNL A   1      42.958  26.355  27.345  1.00  0.00     0.049 A 
ATOM     40  N   UNL A   1      41.412  28.480  28.833  1.00  0.00    -0.248 NA
ATOM     41  C   UNL A   1      39.643  26.967  29.021  1.00  0.00     0.031 C 
ATOM     42  C   UNL A   1      43.748  25.355  26.630  1.00  0.00     0.029 A 
ATOM     43  N   UNL A   1      43.798  27.435  27.454  1.00  0.00    -0.354 N 
ATOM     44  C   UNL A   1      40.374  29.071  29.540  1.00  0.00     0.074 A 
ATOM     45  C   UNL A   1      39.296  28.109  29.597  1.00  0.00     0.031 C 
ATOM     46  C   UNL A   1      44.956  25.872  26.352  1.00  0.00     0.029 A 
ATOM     47  C   UNL A   1      45.010  27.250  26.837  1.00  0.00     0.049 A 
ATOM     48  H   UNL A   1      43.555  28.262  27.928  1.00  0.00     0.167 HD
ATOM     49  C   UNL A   1      40.330  30.304  30.098  1.00  0.00     0.037 A 
ATOM     50  C   UNL A   1      46.034  28.107  26.665  1.00  0.00     0.037 A 
ATOM     51  C   UNL A   1      41.408  31.257  30.038  1.00  0.00     0.049 A 
ATOM     52  C   UNL A   1      45.931  29.501  27.231  1.00  0.00     0.074 A 
ATOM     53  C   UNL A   1      41.470  32.525  30.588  1.00  0.00     0.029 A 
ATOM     54  N   UNL A   1      42.609  31.047  29.378  1.00  0.00    -0.354 N 
ATOM     55  N   UNL A   1      44.957  30.045  27.921  1.00  0.00    -0.248 NA
ATOM     56  C   UNL A   1      47.071  30.397  26.997  1.00  0.00     0.031 C 
ATOM     57  C   UNL A   1      42.688  33.103  30.214  1.00  0.00     0.029 A 
ATOM     58  C   UNL A   1      43.410  32.174  29.482  1.00  0.00     0.049 A 
ATOM     59  H   UNL A   1      42.858  30.219  28.905  1.00  0.00     0.167 HD
ATOM     60  C   UNL A   1      45.378  31.333  28.226  1.00  0.00     0.074 A 
ATOM     61  C   UNL A   1      46.702  31.484  27.659  1.00  0.00     0.031 C 
ATOM     62  C   UNL A   1      44.728  32.304  28.916  1.00  0.00     0.037 A 
BRANCH  49  63
ATOM     63  C   UNL A   1      39.064  30.705  30.798  1.00  0.00     0.064 A 
ATOM     64  C   UNL A   1      38.894  30.524  32.180  1.00  0.00     0.173 A 
ATOM     65  C   UNL A   1      38.019  31.308  30.082  1.00  0.00     0.173 A 
ATOM     66  F   UNL A   1      39.857  29.939  32.908  1.00  0.00    -0.203 F 
ATOM     67  C   UNL A   1      37.715  30.910  32.813  1.00  0.00     0.198 A 
ATOM     68  C   UNL A   1      36.853  31.720  30.723  1.00  0.00     0.198 A 
ATOM     69  F   UNL A   1      38.131  31.506  28.761  1.00  0.00    -0.203 F 
ATOM     70  F   UNL A   1      37.555  30.686  34.125  1.00  0.00    -0.200 F 
ATOM     71  C   UNL A   1      36.700  31.515  32.086  1.00  0.00     0.200 A 
ATOM     72  F   UNL A   1      35.879  32.314  30.021  1.00  0.00    -0.200 F 
ATOM     73  F   UNL A   1      35.569  31.893  32.698  1.00  0.00    -0.200 F 
ENDBRANCH  49  63
BRANCH  50  74
ATOM     74  C   UNL A   1      47.241  27.681  25.910  1.00  0.00     0.064 A 
ATOM     75  C   UNL A   1      48.388  27.226  26.575  1.00  0.00     0.173 A 
ATOM     76  C   UNL A   1      47.278  27.736  24.508  1.00  0.00     0.173 A 
ATOM     77  F   UNL A   1      48.410  27.180  27.915  1.00  0.00    -0.203 F 
ATOM     78  C   UNL A   1      49.532  26.860  25.868  1.00  0.00     0.198 A 
ATOM     79  C   UNL A   1      48.412  27.339  23.801  1.00  0.00     0.198 A 
ATOM     80  F   UNL A   1      46.208  28.163  23.824  1.00  0.00    -0.203 F 
ATOM     81  F   UNL A   1      50.631  26.475  26.531  1.00  0.00    -0.200 F 
ATOM     82  C   UNL A   1      49.541  26.911  24.482  1.00  0.00     0.200 A 
ATOM     83  F   UNL A   1      48.410  27.377  22.462  1.00  0.00    -0.200 F 
ATOM     84  F   UNL A   1      50.639  26.554  23.804  1.00  0.00    -0.200 F 
ENDBRANCH  50  74
BRANCH  62  85
ATOM     85  C   UNL A   1      45.453  33.602  29.129  1.00  0.00     0.064 A 
ATOM     86  C   UNL A   1      45.320  34.678  28.240  1.00  0.00     0.173 A 
ATOM     87  C   UNL A   1      46.263  33.784  30.262  1.00  0.00     0.173 A 
ATOM     88  F   UNL A   1      44.570  34.550  27.133  1.00  0.00    -0.203 F 
ATOM     89  C   UNL A   1      45.990  35.878  28.461  1.00  0.00     0.198 A 
ATOM     90  C   UNL A   1      46.905  34.997  30.498  1.00  0.00     0.198 A 
ATOM     91  F   UNL A   1      46.418  32.790  31.149  1.00  0.00    -0.203 F 
ATOM     92  F   UNL A   1      45.887  36.875  27.572  1.00  0.00    -0.200 F 
ATOM     93  C   UNL A   1      46.775  36.039  29.594  1.00  0.00     0.200 A 
ATOM     94  F   UNL A   1      47.650  35.154  31.600  1.00  0.00    -0.200 F 
ATOM     95  F   UNL A   1      47.412  37.197  29.810  1.00  0.00    -0.200 F 
ENDBRANCH  62  85
ENDBRANCH  36  37
ENDBRANCH  29  31
ENDBRANCH  28  29
ENDBRANCH  27  28
ENDBRANCH  26  27
ENDBRANCH   1  26
TORSDOF 17
ENDMDL
MODEL 2
REMARK VINA RESULT:     -12.0      0.609      7.180
REMARK SMILES CS(=O)(=O)c1ccc(/C=C(/C(=O)OCCOCCOC(=O)c2ccc(-c3c4nc(c(-c5c(F)c(F)c(F)c(F)c5F)c5ccc([nH]5)c(-c5c(F)c(F)c(F)c(F)c5F)c5nc(c(-c6c(F)c(F)c(F)c(F)c6F)c6ccc3[nH]6)C=C5)C=C4)cc2)c2cccc(Br)c2)cc1
REMARK SMILES IDX 16 1 15 2 14 3 13 4 11 5 12 6 10 7 9 8 8 9 5 10 6 11 93 12
REMARK SMILES IDX 7 13 92 14 2 15 1 16 3 17 4 18 85 19 86 20 91 21 87 22 89 23
REMARK SMILES IDX 88 24 90 25 17 26 18 27 19 28 20 29 21 30 22 31 23 32 84 33
REMARK SMILES IDX 24 34 83 35 25 36 26 37 27 38 77 39 28 40 82 41 76 42 78 43
REMARK SMILES IDX 29 44 81 45 75 46 74 47 30 49 62 50 42 51 61 52 43 53 46 54
REMARK SMILES IDX 60 55 79 56 44 57 45 58 59 60 80 61 47 62 31 63 32 64 40 65
REMARK SMILES IDX 33 66 34 67 38 68 41 69 35 70 36 71 39 72 37 73 63 74 64 75
REMARK SMILES IDX 72 76 65 77 66 78 70 79 73 80 67 81 68 82 71 83 69 84 48 85
REMARK SMILES IDX 49 86 57 87 50 88 51 89 55 90 58 91 52 92 53 93 56 94 54 95
REMARK H PARENT 78 48 46 59
REMARK Flexibility Score: inf
ROOT
ATOM      1  O   UNL A   1      35.416  21.426  25.783  1.00  0.00    -0.374 OA
ENDROOT
BRANCH   1   2
ATOM      2  C   UNL A   1      33.992  21.496  25.832  1.00  0.00     0.202 C 
BRANCH   2   3
ATOM      3  C   UNL A   1      33.292  22.368  24.785  1.00  0.00     0.261 C 
BRANCH   3   4
ATOM      4  O   UNL A   1      32.963  23.668  25.309  1.00  0.00    -0.460 OA
BRANCH   4   5
ATOM      5  C   UNL A   1      33.747  24.678  24.850  1.00  0.00     0.338 C 
ATOM      6  O   UNL A   1      34.941  24.591  24.599  1.00  0.00    -0.246 OA
BRANCH   5   7
ATOM      7  C   UNL A   1      32.959  25.919  24.557  1.00  0.00     0.067 C 
ATOM      8  C   UNL A   1      32.297  26.052  23.384  1.00  0.00     0.024 C 
BRANCH   8   9
ATOM      9  C   UNL A   1      31.282  27.075  23.020  1.00  0.00    -0.025 A 
ATOM     10  C   UNL A   1      29.316  29.074  22.790  1.00  0.00     0.067 A 
ATOM     11  C   UNL A   1      30.615  29.329  22.359  1.00  0.00     0.021 A 
ATOM     12  C   UNL A   1      28.960  27.800  23.228  1.00  0.00     0.021 A 
ATOM     13  C   UNL A   1      31.579  28.320  22.448  1.00  0.00     0.009 A 
ATOM     14  C   UNL A   1      29.941  26.807  23.339  1.00  0.00     0.009 A 
BRANCH  10  15
ATOM     15  S   UNL A   1      28.121  30.388  22.831  1.00  0.00     0.175 S 
ATOM     16  C   UNL A   1      27.970  30.932  21.147  1.00  0.00     0.163 C 
ATOM     17  O   UNL A   1      28.711  31.484  23.578  1.00  0.00    -0.224 OA
ATOM     18  O   UNL A   1      26.862  29.795  23.237  1.00  0.00    -0.224 OA
ENDBRANCH  10  15
ENDBRANCH   8   9
BRANCH   7  19
ATOM     19  C   UNL A   1      32.889  26.909  25.650  1.00  0.00    -0.010 A 
ATOM     20  C   UNL A   1      31.728  26.988  26.439  1.00  0.00     0.009 A 
ATOM     21  C   UNL A   1      33.978  27.734  25.948  1.00  0.00     0.024 A 
ATOM     22  C   UNL A   1      31.663  27.861  27.523  1.00  0.00     0.002 A 
ATOM     23  C   UNL A   1      33.910  28.595  27.042  1.00  0.00     0.018 A 
ATOM     24  C   UNL A   1      32.760  28.662  27.830  1.00  0.00     0.016 A 
ATOM     25  Br  UNL A   1      35.412  29.650  27.490  1.00  0.00    -0.051 Br
ENDBRANCH   7  19
ENDBRANCH   5   7
ENDBRANCH   4   5
ENDBRANCH   3   4
ENDBRANCH   2   3
ENDBRANCH   1   2
BRANCH   1  26
ATOM     26  C   UNL A   1      35.999  20.394  24.992  1.00  0.00     0.202 C 
BRANCH  26  27
ATOM     27  C   UNL A   1      37.527  20.292  24.956  1.00  0.00     0.261 C 
BRANCH  27  28
ATOM     28  O   UNL A   1      38.179  21.500  25.372  1.00  0.00    -0.460 OA
BRANCH  28  29
ATOM     29  C   UNL A   1      39.303  21.303  26.097  1.00  0.00     0.338 C 
ATOM     30  O   UNL A   1      39.973  20.280  26.172  1.00  0.00    -0.246 OA
BRANCH  29  31
ATOM     31  C   UNL A   1      39.747  22.578  26.683  1.00  0.00     0.060 A 
ATOM     32  C   UNL A   1      39.127  23.749  26.229  1.00  0.00     0.016 A 
ATOM     33  C   UNL A   1      40.783  22.634  27.617  1.00  0.00     0.016 A 
ATOM     34  C   UNL A   1      39.572  24.990  26.675  1.00  0.00     0.010 A 
ATOM     35  C   UNL A   1      41.235  23.881  28.056  1.00  0.00     0.010 A 
ATOM     36  C   UNL A   1      40.654  25.062  27.562  1.00  0.00    -0.014 A 
BRANCH  36  37
ATOM     37  C   UNL A   1      41.265  26.378  27.862  1.00  0.00     0.031 A 
ATOM     38  C   UNL A   1      42.688  26.628  27.449  1.00  0.00     0.074 A 
ATOM     39  C   UNL A   1      40.554  27.339  28.475  1.00  0.00     0.049 A 
ATOM     40  N   UNL A   1      43.440  27.679  27.652  1.00  0.00    -0.248 NA
ATOM     41  C   UNL A   1      43.353  25.544  26.708  1.00  0.00     0.031 C 
ATOM     42  C   UNL A   1      39.156  27.224  28.883  1.00  0.00     0.029 A 
ATOM     43  N   UNL A   1      40.920  28.602  28.868  1.00  0.00    -0.354 N 
ATOM     44  C   UNL A   1      44.666  27.382  27.073  1.00  0.00     0.074 A 
ATOM     45  C   UNL A   1      44.569  26.042  26.536  1.00  0.00     0.031 C 
ATOM     46  C   UNL A   1      38.783  28.367  29.483  1.00  0.00     0.029 A 
ATOM     47  C   UNL A   1      39.926  29.277  29.532  1.00  0.00     0.049 A 
ATOM     48  H   UNL A   1      41.808  28.987  28.692  1.00  0.00     0.167 HD
ATOM     49  C   UNL A   1      45.770  28.162  26.989  1.00  0.00     0.037 A 
ATOM     50  C   UNL A   1      39.948  30.483  30.131  1.00  0.00     0.037 A 
ATOM     51  C   UNL A   1      45.859  29.495  27.526  1.00  0.00     0.049 A 
ATOM     52  C   UNL A   1      41.214  31.302  30.089  1.00  0.00     0.074 A 
ATOM     53  C   UNL A   1      46.925  30.376  27.477  1.00  0.00     0.029 A 
ATOM     54  N   UNL A   1      44.843  30.135  28.219  1.00  0.00    -0.354 N 
ATOM     55  N   UNL A   1      42.361  31.026  29.518  1.00  0.00    -0.248 NA
ATOM     56  C   UNL A   1      41.184  32.601  30.775  1.00  0.00     0.031 C 
ATOM     57  C   UNL A   1      46.573  31.528  28.188  1.00  0.00     0.029 A 
ATOM     58  C   UNL A   1      45.266  31.390  28.629  1.00  0.00     0.049 A 
ATOM     59  H   UNL A   1      43.951  29.755  28.394  1.00  0.00     0.167 HD
ATOM     60  C   UNL A   1      43.177  32.126  29.749  1.00  0.00     0.074 A 
ATOM     61  C   UNL A   1      42.389  33.080  30.501  1.00  0.00     0.031 C 
ATOM     62  C   UNL A   1      44.465  32.328  29.372  1.00  0.00     0.037 A 
BRANCH  49  63
ATOM     63  C   UNL A   1      46.981  27.582  26.319  1.00  0.00     0.064 A 
ATOM     64  C   UNL A   1      47.990  26.934  27.048  1.00  0.00     0.173 A 
ATOM     65  C   UNL A   1      47.118  27.646  24.925  1.00  0.00     0.173 A 
ATOM     66  F   UNL A   1      47.915  26.858  28.386  1.00  0.00    -0.203 F 
ATOM     67  C   UNL A   1      49.103  26.394  26.408  1.00  0.00     0.198 A 
ATOM     68  C   UNL A   1      48.217  27.078  24.284  1.00  0.00     0.198 A 
ATOM     69  F   UNL A   1      46.182  28.251  24.180  1.00  0.00    -0.203 F 
ATOM     70  F   UNL A   1      50.077  25.820  27.128  1.00  0.00    -0.200 F 
ATOM     71  C   UNL A   1      49.211  26.459  25.026  1.00  0.00     0.200 A 
ATOM     72  F   UNL A   1      48.313  27.132  22.949  1.00  0.00    -0.200 F 
ATOM     73  F   UNL A   1      50.279  25.932  24.410  1.00  0.00    -0.200 F 
ENDBRANCH  49  63
BRANCH  50  74
ATOM     74  C   UNL A   1      38.740  30.985  30.835  1.00  0.00     0.064 A 
ATOM     75  C   UNL A   1      38.584  30.812  32.218  1.00  0.00     0.173 A 
ATOM     76  C   UNL A   1      37.709  31.633  30.139  1.00  0.00     0.173 A 
ATOM     77  F   UNL A   1      39.531  30.177  32.923  1.00  0.00    -0.203 F 
ATOM     78  C   UNL A   1      37.435  31.252  32.873  1.00  0.00     0.198 A 
ATOM     79  C   UNL A   1      36.574  32.099  30.800  1.00  0.00     0.198 A 
ATOM     80  F   UNL A   1      37.808  31.823  28.815  1.00  0.00    -0.203 F 
ATOM     81  F   UNL A   1      37.290  31.031  34.187  1.00  0.00    -0.200 F 
ATOM     82  C   UNL A   1      36.434  31.900  32.165  1.00  0.00     0.200 A 
ATOM     83  F   UNL A   1      35.616  32.737  30.114  1.00  0.00    -0.200 F 
ATOM     84  F   UNL A   1      35.332  32.326  32.796  1.00  0.00    -0.200 F 
ENDBRANCH  50  74
BRANCH  62  85
ATOM     85  C   UNL A   1      45.089  33.646  29.732  1.00  0.00     0.064 A 
ATOM     86  C   UNL A   1      45.824  33.818  30.914  1.00  0.00     0.173 A 
ATOM     87  C   UNL A   1      44.984  34.743  28.861  1.00  0.00     0.173 A 
ATOM     88  F   UNL A   1      45.941  32.806  31.788  1.00  0.00    -0.203 F 
ATOM     89  C   UNL A   1      46.407  35.044  31.225  1.00  0.00     0.198 A 
ATOM     90  C   UNL A   1      45.596  35.957  29.158  1.00  0.00     0.198 A 
ATOM     91  F   UNL A   1      44.300  34.630  27.711  1.00  0.00    -0.203 F 
ATOM     92  F   UNL A   1      47.060  35.198  32.384  1.00  0.00    -0.200 F 
ATOM     93  C   UNL A   1      46.299  36.109  30.343  1.00  0.00     0.200 A 
ATOM     94  F   UNL A   1      45.504  36.980  28.297  1.00  0.00    -0.200 F 
ATOM     95  F   UNL A   1      46.868  37.286  30.639  1.00  0.00    -0.200 F 
ENDBRANCH  62  85
ENDBRANCH  36  37
ENDBRANCH  29  31
ENDBRANCH  28  29
ENDBRANCH  27  28
ENDBRANCH  26  27
ENDBRANCH   1  26
TORSDOF 17
ENDMDL
MODEL 3
REMARK VINA RESULT:     -11.9      4.467      9.972
REMARK SMILES CS(=O)(=O)c1ccc(/C=C(/C(=O)OCCOCCOC(=O)c2ccc(-c3c4nc(c(-c5c(F)c(F)c(F)c(F)c5F)c5ccc([nH]5)c(-c5c(F)c(F)c(F)c(F)c5F)c5nc(c(-c6c(F)c(F)c(F)c(F)c6F)c6ccc3[nH]6)C=C5)C=C4)cc2)c2cccc(Br)c2)cc1
REMARK SMILES IDX 16 1 15 2 14 3 13 4 11 5 12 6 10 7 9 8 8 9 5 10 6 11 93 12
REMARK SMILES IDX 7 13 92 14 2 15 1 16 3 17 4 18 85 19 86 20 91 21 87 22 89 23
REMARK SMILES IDX 88 24 90 25 17 26 18 27 19 28 20 29 21 30 22 31 23 32 84 33
REMARK SMILES IDX 24 34 83 35 25 36 26 37 27 38 77 39 28 40 82 41 76 42 78 43
REMARK SMILES IDX 29 44 81 45 75 46 74 47 30 49 62 50 42 51 61 52 43 53 46 54
REMARK SMILES IDX 60 55 79 56 44 57 45 58 59 60 80 61 47 62 31 63 32 64 40 65
REMARK SMILES IDX 33 66 34 67 38 68 41 69 35 70 36 71 39 72 37 73 63 74 64 75
REMARK SMILES IDX 72 76 65 77 66 78 70 79 73 80 67 81 68 82 71 83 69 84 48 85
REMARK SMILES IDX 49 86 57 87 50 88 51 89 55 90 58 91 52 92 53 93 56 94 54 95
REMARK H PARENT 78 48 46 59
REMARK Flexibility Score: inf
ROOT
ATOM      1  O   UNL A   1      30.902  28.552  24.397  1.00  0.00    -0.374 OA
ENDROOT
BRANCH   1   2
ATOM      2  C   UNL A   1      31.667  28.045  23.304  1.00  0.00     0.202 C 
BRANCH   2   3
ATOM      3  C   UNL A   1      31.801  26.525  23.182  1.00  0.00     0.261 C 
BRANCH   3   4
ATOM      4  O   UNL A   1      33.039  26.052  23.745  1.00  0.00    -0.460 OA
BRANCH   4   5
ATOM      5  C   UNL A   1      32.926  25.519  24.989  1.00  0.00     0.338 C 
ATOM      6  O   UNL A   1      32.500  26.102  25.976  1.00  0.00    -0.246 OA
BRANCH   5   7
ATOM      7  C   UNL A   1      33.275  24.061  25.014  1.00  0.00     0.067 C 
ATOM      8  C   UNL A   1      32.311  23.126  25.191  1.00  0.00     0.024 C 
BRANCH   8   9
ATOM      9  C   UNL A   1      32.421  21.657  25.000  1.00  0.00    -0.025 A 
ATOM     10  C   UNL A   1      32.999  18.975  24.380  1.00  0.00     0.067 A 
ATOM     11  C   UNL A   1      33.144  19.428  25.688  1.00  0.00     0.021 A 
ATOM     12  C   UNL A   1      32.462  19.811  23.403  1.00  0.00     0.021 A 
ATOM     13  C   UNL A   1      32.824  20.755  25.995  1.00  0.00     0.009 A 
ATOM     14  C   UNL A   1      32.173  21.144  23.716  1.00  0.00     0.009 A 
BRANCH  10  15
ATOM     15  S   UNL A   1      33.548  17.342  23.941  1.00  0.00     0.175 S 
ATOM     16  C   UNL A   1      32.734  16.255  25.087  1.00  0.00     0.163 C 
ATOM     17  O   UNL A   1      34.968  17.273  24.230  1.00  0.00    -0.224 OA
ATOM     18  O   UNL A   1      33.037  17.074  22.611  1.00  0.00    -0.224 OA
ENDBRANCH  10  15
ENDBRANCH   8   9
BRANCH   7  19
ATOM     19  C   UNL A   1      34.690  23.733  24.748  1.00  0.00    -0.010 A 
ATOM     20  C   UNL A   1      35.056  23.218  23.492  1.00  0.00     0.009 A 
ATOM     21  C   UNL A   1      35.680  23.976  25.705  1.00  0.00     0.024 A 
ATOM     22  C   UNL A   1      36.393  22.970  23.188  1.00  0.00     0.002 A 
ATOM     23  C   UNL A   1      37.016  23.738  25.388  1.00  0.00     0.018 A 
ATOM     24  C   UNL A   1      37.377  23.238  24.137  1.00  0.00     0.016 A 
ATOM     25  Br  UNL A   1      38.358  24.142  26.655  1.00  0.00    -0.051 Br
ENDBRANCH   7  19
ENDBRANCH   5   7
ENDBRANCH   4   5
ENDBRANCH   3   4
ENDBRANCH   2   3
ENDBRANCH   1   2
BRANCH   1  26
ATOM     26  C   UNL A   1      31.297  29.801  24.956  1.00  0.00     0.202 C 
BRANCH  26  27
ATOM     27  C   UNL A   1      32.706  29.911  25.548  1.00  0.00     0.261 C 
BRANCH  27  28
ATOM     28  O   UNL A   1      32.702  30.186  26.956  1.00  0.00    -0.460 OA
BRANCH  28  29
ATOM     29  C   UNL A   1      33.332  31.332  27.299  1.00  0.00     0.338 C 
ATOM     30  O   UNL A   1      32.862  32.463  27.329  1.00  0.00    -0.246 OA
BRANCH  29  31
ATOM     31  C   UNL A   1      34.672  31.025  27.823  1.00  0.00     0.060 A 
ATOM     32  C   UNL A   1      34.938  29.697  28.181  1.00  0.00     0.016 A 
ATOM     33  C   UNL A   1      35.633  32.020  28.010  1.00  0.00     0.016 A 
ATOM     34  C   UNL A   1      36.153  29.365  28.772  1.00  0.00     0.010 A 
ATOM     35  C   UNL A   1      36.848  31.688  28.613  1.00  0.00     0.010 A 
ATOM     36  C   UNL A   1      37.099  30.366  29.026  1.00  0.00    -0.014 A 
BRANCH  36  37
ATOM     37  C   UNL A   1      38.291  30.055  29.849  1.00  0.00     0.031 A 
ATOM     38  C   UNL A   1      39.316  29.099  29.308  1.00  0.00     0.074 A 
ATOM     39  C   UNL A   1      38.463  30.632  31.049  1.00  0.00     0.049 A 
ATOM     40  N   UNL A   1      40.405  28.643  29.871  1.00  0.00    -0.248 NA
ATOM     41  C   UNL A   1      39.080  28.587  27.949  1.00  0.00     0.031 C 
ATOM     42  C   UNL A   1      37.556  31.605  31.656  1.00  0.00     0.029 A 
ATOM     43  N   UNL A   1      39.461  30.474  31.978  1.00  0.00    -0.354 N 
ATOM     44  C   UNL A   1      40.979  27.786  28.941  1.00  0.00     0.074 A 
ATOM     45  C   UNL A   1      40.104  27.762  27.790  1.00  0.00     0.031 C 
ATOM     46  C   UNL A   1      38.032  31.949  32.864  1.00  0.00     0.029 A 
ATOM     47  C   UNL A   1      39.256  31.194  33.129  1.00  0.00     0.049 A 
ATOM     48  H   UNL A   1      40.247  29.900  31.834  1.00  0.00     0.167 HD
ATOM     49  C   UNL A   1      42.137  27.091  29.039  1.00  0.00     0.037 A 
ATOM     50  C   UNL A   1      39.966  31.218  34.273  1.00  0.00     0.037 A 
ATOM     51  C   UNL A   1      43.002  27.120  30.188  1.00  0.00     0.049 A 
ATOM     52  C   UNL A   1      41.211  30.376  34.385  1.00  0.00     0.074 A 
ATOM     53  C   UNL A   1      44.208  26.467  30.378  1.00  0.00     0.029 A 
ATOM     54  N   UNL A   1      42.749  27.836  31.348  1.00  0.00    -0.354 N 
ATOM     55  N   UNL A   1      41.762  29.588  33.493  1.00  0.00    -0.248 NA
ATOM     56  C   UNL A   1      41.934  30.430  35.663  1.00  0.00     0.031 C 
ATOM     57  C   UNL A   1      44.655  26.745  31.675  1.00  0.00     0.029 A 
ATOM     58  C   UNL A   1      43.760  27.619  32.271  1.00  0.00     0.049 A 
ATOM     59  H   UNL A   1      41.965  28.415  31.495  1.00  0.00     0.167 HD
ATOM     60  C   UNL A   1      42.908  29.077  34.089  1.00  0.00     0.074 A 
ATOM     61  C   UNL A   1      42.981  29.655  35.415  1.00  0.00     0.031 C 
ATOM     62  C   UNL A   1      43.819  28.208  33.584  1.00  0.00     0.037 A 
BRANCH  49  63
ATOM     63  C   UNL A   1      42.519  26.214  27.881  1.00  0.00     0.064 A 
ATOM     64  C   UNL A   1      42.002  24.918  27.733  1.00  0.00     0.173 A 
ATOM     65  C   UNL A   1      43.390  26.689  26.890  1.00  0.00     0.173 A 
ATOM     66  F   UNL A   1      41.176  24.409  28.662  1.00  0.00    -0.203 F 
ATOM     67  C   UNL A   1      42.361  24.122  26.648  1.00  0.00     0.198 A 
ATOM     68  C   UNL A   1      43.724  25.903  25.790  1.00  0.00     0.198 A 
ATOM     69  F   UNL A   1      43.911  27.921  26.981  1.00  0.00    -0.203 F 
ATOM     70  F   UNL A   1      41.891  22.870  26.551  1.00  0.00    -0.200 F 
ATOM     71  C   UNL A   1      43.215  24.618  25.674  1.00  0.00     0.200 A 
ATOM     72  F   UNL A   1      44.539  26.388  24.844  1.00  0.00    -0.200 F 
ATOM     73  F   UNL A   1      43.554  23.854  24.626  1.00  0.00    -0.200 F 
ENDBRANCH  49  63
BRANCH  50  74
ATOM     74  C   UNL A   1      39.509  32.056  35.412  1.00  0.00     0.064 A 
ATOM     75  C   UNL A   1      39.990  33.361  35.589  1.00  0.00     0.173 A 
ATOM     76  C   UNL A   1      38.597  31.563  36.357  1.00  0.00     0.173 A 
ATOM     77  F   UNL A   1      40.883  33.867  34.727  1.00  0.00    -0.203 F 
ATOM     78  C   UNL A   1      39.588  34.134  36.678  1.00  0.00     0.198 A 
ATOM     79  C   UNL A   1      38.173  32.348  37.428  1.00  0.00     0.198 A 
ATOM     80  F   UNL A   1      38.107  30.321  36.234  1.00  0.00    -0.203 F 
ATOM     81  F   UNL A   1      40.100  35.360  36.850  1.00  0.00    -0.200 F 
ATOM     82  C   UNL A   1      38.676  33.630  37.592  1.00  0.00     0.200 A 
ATOM     83  F   UNL A   1      37.280  31.861  38.300  1.00  0.00    -0.200 F 
ATOM     84  F   UNL A   1      38.288  34.375  38.635  1.00  0.00    -0.200 F 
ENDBRANCH  50  74
BRANCH  62  85
ATOM     85  C   UNL A   1      44.993  27.858  34.453  1.00  0.00     0.064 A 
ATOM     86  C   UNL A   1      44.975  26.748  35.309  1.00  0.00     0.173 A 
ATOM     87  C   UNL A   1      46.170  28.624  34.396  1.00  0.00     0.173 A 
ATOM     88  F   UNL A   1      43.870  25.993  35.411  1.00  0.00    -0.203 F 
ATOM     89  C   UNL A   1      46.079  26.433  36.097  1.00  0.00     0.198 A 
ATOM     90  C   UNL A   1      47.283  28.287  35.161  1.00  0.00     0.198 A 
ATOM     91  F   UNL A   1      46.243  29.692  33.587  1.00  0.00    -0.203 F 
ATOM     92  F   UNL A   1      46.020  25.398  36.945  1.00  0.00    -0.200 F 
ATOM     93  C   UNL A   1      47.234  27.197  36.016  1.00  0.00     0.200 A 
ATOM     94  F   UNL A   1      48.402  29.018  35.069  1.00  0.00    -0.200 F 
ATOM     95  F   UNL A   1      48.299  26.887  36.768  1.00  0.00    -0.200 F 
ENDBRANCH  62  85
ENDBRANCH  36  37
ENDBRANCH  29  31
ENDBRANCH  28  29
ENDBRANCH  27  28
ENDBRANCH  26  27
ENDBRANCH   1  26
TORSDOF 17
ENDMDL
