MODEL 1
REMARK VINA RESULT:     -11.8      0.000      0.000
REMARK SMILES O=C(CCC(=O)OCCOCCOC(=O)c1ccc(-c2c3nc(c(-c4c(F)c(F)c(F)c(F)c4F)c4ccc([nH]4)c(-c4c(F)c(F)c(F)c(F)c4F)c4nc(c(-c5c(F)c(F)c(F)c(F)c5F)c5ccc2[nH]5)C=C4)C=C3)cc1)/[NH+]=C1\S[C@H]2CS(=O)(=O)C[C@@H]2N1c1ccc2c(c1)OCO2
REMARK SMILES IDX 9 1 8 2 7 3 5 4 6 5 4 6 3 7 2 8 1 9 79 10 80 11 81 13 89 14
REMARK SMILES IDX 82 15 88 16 83 17 87 18 84 19 85 20 86 21 90 22 91 23 95 24
REMARK SMILES IDX 92 25 94 26 93 27 96 28 98 29 97 30 10 31 11 32 12 33 13 34
REMARK SMILES IDX 14 35 15 36 16 37 17 38 78 39 18 40 77 41 19 42 20 43 21 44
REMARK SMILES IDX 71 45 22 46 76 47 70 48 72 49 23 50 75 51 69 52 68 53 24 55
REMARK SMILES IDX 56 56 36 57 55 58 37 59 40 60 54 61 73 62 38 63 39 64 53 66
REMARK SMILES IDX 74 67 41 68 25 69 26 70 34 71 27 72 28 73 32 74 35 75 29 76
REMARK SMILES IDX 30 77 33 78 31 79 57 80 58 81 66 82 59 83 60 84 64 85 67 86
REMARK SMILES IDX 61 87 62 88 65 89 63 90 42 91 43 92 51 93 44 94 45 95 49 96
REMARK SMILES IDX 52 97 46 98 47 99 50 100 48 101
REMARK H PARENT 79 12 72 54 40 65
REMARK Flexibility Score: inf
ROOT
ATOM      1  C   UNL A   1      42.263  21.549  26.987  1.00  0.00     0.202 C 
ENDROOT
BRANCH   1   2
ATOM      2  C   UNL A   1      41.018  21.823  27.871  1.00  0.00     0.261 C 
BRANCH   2   3
ATOM      3  O   UNL A   1      40.904  23.221  28.136  1.00  0.00    -0.463 OA
BRANCH   3   4
ATOM      4  C   UNL A   1      39.776  23.711  27.586  1.00  0.00     0.306 C 
ATOM      5  O   UNL A   1      39.242  24.756  27.936  1.00  0.00    -0.252 OA
BRANCH   4   6
ATOM      6  C   UNL A   1      39.322  22.852  26.443  1.00  0.00     0.135 C 
BRANCH   6   7
ATOM      7  C   UNL A   1      37.902  23.090  25.896  1.00  0.00     0.139 C 
BRANCH   7   8
ATOM      8  C   UNL A   1      37.150  22.271  24.831  1.00  0.00     0.308 C 
ATOM      9  O   UNL A   1      37.838  21.411  24.268  1.00  0.00    -0.247 OA
ATOM     10  N   UNL A   1      35.806  22.392  24.442  1.00  0.00    -0.204 N 
ATOM     11  C   UNL A   1      34.686  22.206  25.079  1.00  0.00     0.319 C 
ATOM     12  H   UNL A   1      35.688  22.670  23.504  1.00  0.00     0.316 HD
ATOM     13  S   UNL A   1      34.422  22.153  26.847  1.00  0.00    -0.029 SA
ATOM     14  N   UNL A   1      33.389  22.037  24.525  1.00  0.00    -0.216 N 
ATOM     15  C   UNL A   1      32.694  22.529  26.813  1.00  0.00     0.120 C 
ATOM     16  C   UNL A   1      32.426  22.814  25.338  1.00  0.00     0.212 C 
ATOM     17  C   UNL A   1      32.045  23.672  27.551  1.00  0.00     0.156 C 
ATOM     18  C   UNL A   1      30.925  22.691  25.254  1.00  0.00     0.188 C 
ATOM     19  S   UNL A   1      30.443  23.692  26.707  1.00  0.00     0.155 S 
ATOM     20  O   UNL A   1      29.506  22.953  27.504  1.00  0.00    -0.229 OA
ATOM     21  O   UNL A   1      30.202  25.058  26.262  1.00  0.00    -0.229 OA
BRANCH  14  22
ATOM     22  C   UNL A   1      33.037  20.692  24.207  1.00  0.00     0.132 A 
ATOM     23  C   UNL A   1      32.339  20.413  23.011  1.00  0.00     0.056 A 
ATOM     24  C   UNL A   1      33.535  19.597  24.942  1.00  0.00     0.102 A 
ATOM     25  C   UNL A   1      32.178  19.091  22.547  1.00  0.00     0.055 A 
ATOM     26  C   UNL A   1      33.403  18.325  24.449  1.00  0.00     0.170 A 
ATOM     27  C   UNL A   1      32.762  18.074  23.269  1.00  0.00     0.166 A 
ATOM     28  O   UNL A   1      33.998  17.227  24.985  1.00  0.00    -0.453 OA
ATOM     29  O   UNL A   1      32.904  16.771  22.901  1.00  0.00    -0.454 OA
ATOM     30  C   UNL A   1      33.906  16.346  23.853  1.00  0.00     0.468 C 
ENDBRANCH  14  22
ENDBRANCH   7   8
ENDBRANCH   6   7
ENDBRANCH   4   6
ENDBRANCH   3   4
ENDBRANCH   2   3
ENDBRANCH   1   2
BRANCH   1  31
ATOM     31  O   UNL A   1      42.124  20.826  25.759  1.00  0.00    -0.374 OA
BRANCH  31  32
ATOM     32  C   UNL A   1      42.236  19.375  25.731  1.00  0.00     0.202 C 
BRANCH  32  33
ATOM     33  C   UNL A   1      43.534  18.367  25.965  1.00  0.00     0.261 C 
BRANCH  33  34
ATOM     34  O   UNL A   1      44.730  18.265  25.072  1.00  0.00    -0.460 OA
BRANCH  34  35
ATOM     35  C   UNL A   1      44.827  19.146  23.991  1.00  0.00     0.338 C 
ATOM     36  O   UNL A   1      44.514  18.835  22.848  1.00  0.00    -0.246 OA
BRANCH  35  37
ATOM     37  C   UNL A   1      45.227  20.608  24.287  1.00  0.00     0.060 A 
ATOM     38  C   UNL A   1      45.747  20.963  25.525  1.00  0.00     0.016 A 
ATOM     39  C   UNL A   1      44.857  21.713  23.512  1.00  0.00     0.016 A 
ATOM     40  C   UNL A   1      45.960  22.286  25.975  1.00  0.00     0.010 A 
ATOM     41  C   UNL A   1      45.082  23.078  23.957  1.00  0.00     0.010 A 
ATOM     42  C   UNL A   1      45.625  23.402  25.223  1.00  0.00    -0.014 A 
BRANCH  42  43
ATOM     43  C   UNL A   1      45.710  24.795  25.873  1.00  0.00     0.031 A 
ATOM     44  C   UNL A   1      47.008  25.601  25.816  1.00  0.00     0.074 A 
ATOM     45  C   UNL A   1      44.635  25.485  26.346  1.00  0.00     0.049 A 
ATOM     46  N   UNL A   1      47.274  26.812  26.262  1.00  0.00    -0.248 NA
ATOM     47  C   UNL A   1      48.133  24.988  25.099  1.00  0.00     0.031 C 
ATOM     48  C   UNL A   1      43.248  25.017  26.360  1.00  0.00     0.029 A 
ATOM     49  N   UNL A   1      44.533  26.765  26.889  1.00  0.00    -0.354 N 
ATOM     50  C   UNL A   1      48.580  27.099  25.877  1.00  0.00     0.074 A 
ATOM     51  C   UNL A   1      49.053  25.940  25.148  1.00  0.00     0.031 C 
ATOM     52  C   UNL A   1      42.447  25.991  26.828  1.00  0.00     0.029 A 
ATOM     53  C   UNL A   1      43.254  27.130  27.261  1.00  0.00     0.049 A 
ATOM     54  H   UNL A   1      45.310  27.360  26.997  1.00  0.00     0.167 HD
ATOM     55  C   UNL A   1      49.345  28.198  26.107  1.00  0.00     0.037 A 
ATOM     56  C   UNL A   1      42.770  28.214  27.918  1.00  0.00     0.037 A 
ATOM     57  C   UNL A   1      48.960  29.357  26.872  1.00  0.00     0.049 A 
ATOM     58  C   UNL A   1      43.701  29.307  28.399  1.00  0.00     0.074 A 
ATOM     59  C   UNL A   1      49.739  30.444  27.242  1.00  0.00     0.029 A 
ATOM     60  N   UNL A   1      47.704  29.578  27.406  1.00  0.00    -0.354 N 
ATOM     61  N   UNL A   1      44.964  29.505  28.120  1.00  0.00    -0.248 NA
ATOM     62  C   UNL A   1      43.137  30.313  29.318  1.00  0.00     0.031 C 
ATOM     63  C   UNL A   1      48.979  31.273  28.078  1.00  0.00     0.029 A 
ATOM     64  C   UNL A   1      47.703  30.749  28.155  1.00  0.00     0.049 A 
ATOM     65  H   UNL A   1      46.924  28.990  27.276  1.00  0.00     0.167 HD
ATOM     66  C   UNL A   1      45.335  30.659  28.807  1.00  0.00     0.074 A 
ATOM     67  C   UNL A   1      44.159  31.138  29.495  1.00  0.00     0.031 C 
ATOM     68  C   UNL A   1      46.552  31.255  28.858  1.00  0.00     0.037 A 
BRANCH  55  69
ATOM     69  C   UNL A   1      50.766  28.139  25.619  1.00  0.00     0.064 A 
ATOM     70  C   UNL A   1      51.108  28.312  24.270  1.00  0.00     0.173 A 
ATOM     71  C   UNL A   1      51.800  27.888  26.534  1.00  0.00     0.173 A 
ATOM     72  F   UNL A   1      50.153  28.530  23.353  1.00  0.00    -0.203 F 
ATOM     73  C   UNL A   1      52.433  28.199  23.851  1.00  0.00     0.198 A 
ATOM     74  C   UNL A   1      53.124  27.803  26.116  1.00  0.00     0.198 A 
ATOM     75  F   UNL A   1      51.523  27.720  27.836  1.00  0.00    -0.203 F 
ATOM     76  F   UNL A   1      52.734  28.304  22.550  1.00  0.00    -0.200 F 
ATOM     77  C   UNL A   1      53.438  27.947  24.774  1.00  0.00     0.200 A 
ATOM     78  F   UNL A   1      54.092  27.567  27.012  1.00  0.00    -0.200 F 
ATOM     79  F   UNL A   1      54.709  27.826  24.368  1.00  0.00    -0.200 F 
ENDBRANCH  55  69
BRANCH  56  80
ATOM     80  C   UNL A   1      41.316  28.308  28.284  1.00  0.00     0.064 A 
ATOM     81  C   UNL A   1      40.374  28.905  27.428  1.00  0.00     0.173 A 
ATOM     82  C   UNL A   1      40.861  27.899  29.548  1.00  0.00     0.173 A 
ATOM     83  F   UNL A   1      40.756  29.379  26.233  1.00  0.00    -0.203 F 
ATOM     84  C   UNL A   1      39.047  29.090  27.826  1.00  0.00     0.198 A 
ATOM     85  C   UNL A   1      39.528  28.046  29.926  1.00  0.00     0.198 A 
ATOM     86  F   UNL A   1      41.720  27.369  30.431  1.00  0.00    -0.203 F 
ATOM     87  F   UNL A   1      38.189  29.728  27.016  1.00  0.00    -0.200 F 
ATOM     88  C   UNL A   1      38.623  28.650  29.069  1.00  0.00     0.200 A 
ATOM     89  F   UNL A   1      39.126  27.620  31.131  1.00  0.00    -0.200 F 
ATOM     90  F   UNL A   1      37.350  28.827  29.450  1.00  0.00    -0.200 F 
ENDBRANCH  56  80
BRANCH  68  91
ATOM     91  C   UNL A   1      46.686  32.525  29.659  1.00  0.00     0.064 A 
ATOM     92  C   UNL A   1      46.403  33.786  29.111  1.00  0.00     0.173 A 
ATOM     93  C   UNL A   1      47.095  32.483  31.003  1.00  0.00     0.173 A 
ATOM     94  F   UNL A   1      46.013  33.894  27.832  1.00  0.00    -0.203 F 
ATOM     95  C   UNL A   1      46.569  34.953  29.857  1.00  0.00     0.198 A 
ATOM     96  C   UNL A   1      47.226  33.648  31.757  1.00  0.00     0.198 A 
ATOM     97  F   UNL A   1      47.369  31.309  31.590  1.00  0.00    -0.203 F 
ATOM     98  F   UNL A   1      46.357  36.148  29.287  1.00  0.00    -0.200 F 
ATOM     99  C   UNL A   1      46.977  34.884  31.180  1.00  0.00     0.200 A 
ATOM    100  F   UNL A   1      47.602  33.576  33.042  1.00  0.00    -0.200 F 
ATOM    101  F   UNL A   1      47.140  36.005  31.895  1.00  0.00    -0.200 F 
ENDBRANCH  68  91
ENDBRANCH  42  43
ENDBRANCH  35  37
ENDBRANCH  34  35
ENDBRANCH  33  34
ENDBRANCH  32  33
ENDBRANCH  31  32
ENDBRANCH   1  31
TORSDOF 17
ENDMDL
MODEL 2
REMARK VINA RESULT:     -11.8      4.585     10.549
REMARK SMILES O=C(CCC(=O)OCCOCCOC(=O)c1ccc(-c2c3nc(c(-c4c(F)c(F)c(F)c(F)c4F)c4ccc([nH]4)c(-c4c(F)c(F)c(F)c(F)c4F)c4nc(c(-c5c(F)c(F)c(F)c(F)c5F)c5ccc2[nH]5)C=C4)C=C3)cc1)/[NH+]=C1\S[C@H]2CS(=O)(=O)C[C@@H]2N1c1ccc2c(c1)OCO2
REMARK SMILES IDX 9 1 8 2 7 3 5 4 6 5 4 6 3 7 2 8 1 9 79 10 80 11 81 13 89 14
REMARK SMILES IDX 82 15 88 16 83 17 87 18 84 19 85 20 86 21 90 22 91 23 95 24
REMARK SMILES IDX 92 25 94 26 93 27 96 28 98 29 97 30 10 31 11 32 12 33 13 34
REMARK SMILES IDX 14 35 15 36 16 37 17 38 78 39 18 40 77 41 19 42 20 43 21 44
REMARK SMILES IDX 71 45 22 46 76 47 70 48 72 49 23 50 75 51 69 52 68 53 24 55
REMARK SMILES IDX 56 56 36 57 55 58 37 59 40 60 54 61 73 62 38 63 39 64 53 66
REMARK SMILES IDX 74 67 41 68 25 69 26 70 34 71 27 72 28 73 32 74 35 75 29 76
REMARK SMILES IDX 30 77 33 78 31 79 57 80 58 81 66 82 59 83 60 84 64 85 67 86
REMARK SMILES IDX 61 87 62 88 65 89 63 90 42 91 43 92 51 93 44 94 45 95 49 96
REMARK SMILES IDX 52 97 46 98 47 99 50 100 48 101
REMARK H PARENT 79 12 72 54 40 65
REMARK Flexibility Score: inf
ROOT
ATOM      1  C   UNL A   1      33.285  36.173  30.222  1.00  0.00     0.202 C 
ENDROOT
BRANCH   1   2
ATOM      2  C   UNL A   1      33.288  34.882  29.361  1.00  0.00     0.261 C 
BRANCH   2   3
ATOM      3  O   UNL A   1      34.625  34.408  29.196  1.00  0.00    -0.463 OA
BRANCH   3   4
ATOM      4  C   UNL A   1      34.701  33.103  29.528  1.00  0.00     0.306 C 
ATOM      5  O   UNL A   1      34.262  32.636  30.570  1.00  0.00    -0.252 OA
BRANCH   4   6
ATOM      6  C   UNL A   1      35.314  32.304  28.415  1.00  0.00     0.135 C 
BRANCH   6   7
ATOM      7  C   UNL A   1      34.408  31.297  27.683  1.00  0.00     0.139 C 
BRANCH   7   8
ATOM      8  C   UNL A   1      34.800  29.933  27.086  1.00  0.00     0.308 C 
ATOM      9  O   UNL A   1      35.573  29.271  27.790  1.00  0.00    -0.247 OA
ATOM     10  N   UNL A   1      34.386  29.375  25.866  1.00  0.00    -0.204 N 
ATOM     11  C   UNL A   1      33.220  29.004  25.420  1.00  0.00     0.319 C 
ATOM     12  H   UNL A   1      35.120  29.237  25.224  1.00  0.00     0.316 HD
ATOM     13  S   UNL A   1      31.607  29.477  26.029  1.00  0.00    -0.029 SA
ATOM     14  N   UNL A   1      32.944  28.160  24.311  1.00  0.00    -0.216 N 
ATOM     15  C   UNL A   1      30.708  29.111  24.550  1.00  0.00     0.120 C 
ATOM     16  C   UNL A   1      31.804  28.732  23.559  1.00  0.00     0.212 C 
ATOM     17  C   UNL A   1      29.837  30.090  23.806  1.00  0.00     0.156 C 
ATOM     18  C   UNL A   1      31.029  28.011  22.482  1.00  0.00     0.188 C 
ATOM     19  S   UNL A   1      29.647  29.186  22.249  1.00  0.00     0.155 S 
ATOM     20  O   UNL A   1      28.403  28.471  22.293  1.00  0.00    -0.229 OA
ATOM     21  O   UNL A   1      29.999  30.098  21.169  1.00  0.00    -0.229 OA
BRANCH  14  22
ATOM     22  C   UNL A   1      32.895  26.766  24.609  1.00  0.00     0.132 A 
ATOM     23  C   UNL A   1      33.993  25.939  24.284  1.00  0.00     0.056 A 
ATOM     24  C   UNL A   1      31.872  26.208  25.402  1.00  0.00     0.102 A 
ATOM     25  C   UNL A   1      34.085  24.616  24.765  1.00  0.00     0.055 A 
ATOM     26  C   UNL A   1      32.004  24.935  25.892  1.00  0.00     0.170 A 
ATOM     27  C   UNL A   1      33.092  24.162  25.604  1.00  0.00     0.166 A 
ATOM     28  O   UNL A   1      31.167  24.373  26.804  1.00  0.00    -0.453 OA
ATOM     29  O   UNL A   1      33.084  23.013  26.335  1.00  0.00    -0.454 OA
ATOM     30  C   UNL A   1      32.017  23.309  27.264  1.00  0.00     0.468 C 
ENDBRANCH  14  22
ENDBRANCH   7   8
ENDBRANCH   6   7
ENDBRANCH   4   6
ENDBRANCH   3   4
ENDBRANCH   2   3
ENDBRANCH   1   2
BRANCH   1  31
ATOM     31  O   UNL A   1      32.841  36.125  31.582  1.00  0.00    -0.374 OA
BRANCH  31  32
ATOM     32  C   UNL A   1      33.572  35.358  32.579  1.00  0.00     0.202 C 
BRANCH  32  33
ATOM     33  C   UNL A   1      35.171  35.380  33.028  1.00  0.00     0.261 C 
BRANCH  33  34
ATOM     34  O   UNL A   1      36.288  34.698  32.305  1.00  0.00    -0.460 OA
BRANCH  34  35
ATOM     35  C   UNL A   1      36.936  33.634  32.939  1.00  0.00     0.338 C 
ATOM     36  O   UNL A   1      36.707  33.310  34.100  1.00  0.00    -0.246 OA
BRANCH  35  37
ATOM     37  C   UNL A   1      37.883  32.758  32.090  1.00  0.00     0.060 A 
ATOM     38  C   UNL A   1      38.945  32.086  32.681  1.00  0.00     0.016 A 
ATOM     39  C   UNL A   1      37.960  32.781  30.693  1.00  0.00     0.016 A 
ATOM     40  C   UNL A   1      39.984  31.424  31.987  1.00  0.00     0.010 A 
ATOM     41  C   UNL A   1      39.014  32.094  29.966  1.00  0.00     0.010 A 
ATOM     42  C   UNL A   1      40.076  31.410  30.603  1.00  0.00    -0.014 A 
BRANCH  42  43
ATOM     43  C   UNL A   1      41.344  30.835  29.945  1.00  0.00     0.031 A 
ATOM     44  C   UNL A   1      41.347  29.417  29.373  1.00  0.00     0.074 A 
ATOM     45  C   UNL A   1      42.449  31.572  29.641  1.00  0.00     0.049 A 
ATOM     46  N   UNL A   1      42.297  28.761  28.738  1.00  0.00    -0.248 NA
ATOM     47  C   UNL A   1      40.089  28.666  29.467  1.00  0.00     0.031 C 
ATOM     48  C   UNL A   1      42.639  32.996  29.918  1.00  0.00     0.029 A 
ATOM     49  N   UNL A   1      43.631  31.224  28.989  1.00  0.00    -0.354 N 
ATOM     50  C   UNL A   1      41.752  27.538  28.360  1.00  0.00     0.074 A 
ATOM     51  C   UNL A   1      40.380  27.545  28.824  1.00  0.00     0.031 C 
ATOM     52  C   UNL A   1      43.816  33.402  29.410  1.00  0.00     0.029 A 
ATOM     53  C   UNL A   1      44.538  32.258  28.857  1.00  0.00     0.049 A 
ATOM     54  H   UNL A   1      43.804  30.317  28.649  1.00  0.00     0.167 HD
ATOM     55  C   UNL A   1      42.313  26.487  27.707  1.00  0.00     0.037 A 
ATOM     56  C   UNL A   1      45.816  32.297  28.405  1.00  0.00     0.037 A 
ATOM     57  C   UNL A   1      43.684  26.391  27.271  1.00  0.00     0.049 A 
ATOM     58  C   UNL A   1      46.507  31.038  27.927  1.00  0.00     0.074 A 
ATOM     59  C   UNL A   1      44.338  25.299  26.717  1.00  0.00     0.029 A 
ATOM     60  N   UNL A   1      44.620  27.405  27.355  1.00  0.00    -0.354 N 
ATOM     61  N   UNL A   1      46.003  29.855  27.681  1.00  0.00    -0.248 NA
ATOM     62  C   UNL A   1      47.962  31.116  27.694  1.00  0.00     0.031 C 
ATOM     63  C   UNL A   1      45.690  25.626  26.556  1.00  0.00     0.029 A 
ATOM     64  C   UNL A   1      45.859  26.947  26.925  1.00  0.00     0.049 A 
ATOM     65  H   UNL A   1      44.435  28.319  27.675  1.00  0.00     0.167 HD
ATOM     66  C   UNL A   1      47.065  29.064  27.250  1.00  0.00     0.074 A 
ATOM     67  C   UNL A   1      48.240  29.904  27.237  1.00  0.00     0.031 C 
ATOM     68  C   UNL A   1      47.053  27.753  26.903  1.00  0.00     0.037 A 
BRANCH  55  69
ATOM     69  C   UNL A   1      41.452  25.266  27.538  1.00  0.00     0.064 A 
ATOM     70  C   UNL A   1      41.655  24.092  28.278  1.00  0.00     0.173 A 
ATOM     71  C   UNL A   1      40.408  25.282  26.600  1.00  0.00     0.173 A 
ATOM     72  F   UNL A   1      42.655  24.019  29.170  1.00  0.00    -0.203 F 
ATOM     73  C   UNL A   1      40.866  22.965  28.055  1.00  0.00     0.198 A 
ATOM     74  C   UNL A   1      39.605  24.165  26.400  1.00  0.00     0.198 A 
ATOM     75  F   UNL A   1      40.171  26.384  25.873  1.00  0.00    -0.203 F 
ATOM     76  F   UNL A   1      41.114  21.831  28.725  1.00  0.00    -0.200 F 
ATOM     77  C   UNL A   1      39.841  23.004  27.120  1.00  0.00     0.200 A 
ATOM     78  F   UNL A   1      38.612  24.209  25.501  1.00  0.00    -0.200 F 
ATOM     79  F   UNL A   1      39.092  21.915  26.897  1.00  0.00    -0.200 F 
ENDBRANCH  55  69
BRANCH  56  80
ATOM     80  C   UNL A   1      46.618  33.566  28.467  1.00  0.00     0.064 A 
ATOM     81  C   UNL A   1      46.737  34.422  27.358  1.00  0.00     0.173 A 
ATOM     82  C   UNL A   1      47.370  33.890  29.607  1.00  0.00     0.173 A 
ATOM     83  F   UNL A   1      46.098  34.135  26.215  1.00  0.00    -0.203 F 
ATOM     84  C   UNL A   1      47.577  35.539  27.391  1.00  0.00     0.198 A 
ATOM     85  C   UNL A   1      48.174  35.028  29.652  1.00  0.00     0.198 A 
ATOM     86  F   UNL A   1      47.341  33.087  30.681  1.00  0.00    -0.203 F 
ATOM     87  F   UNL A   1      47.726  36.296  26.294  1.00  0.00    -0.200 F 
ATOM     88  C   UNL A   1      48.284  35.847  28.541  1.00  0.00     0.200 A 
ATOM     89  F   UNL A   1      48.857  35.318  30.768  1.00  0.00    -0.200 F 
ATOM     90  F   UNL A   1      49.088  36.919  28.572  1.00  0.00    -0.200 F 
ENDBRANCH  56  80
BRANCH  68  91
ATOM     91  C   UNL A   1      48.346  27.131  26.438  1.00  0.00     0.064 A 
ATOM     92  C   UNL A   1      49.208  26.457  27.318  1.00  0.00     0.173 A 
ATOM     93  C   UNL A   1      48.727  27.198  25.087  1.00  0.00     0.173 A 
ATOM     94  F   UNL A   1      48.903  26.362  28.621  1.00  0.00    -0.203 F 
ATOM     95  C   UNL A   1      50.416  25.920  26.876  1.00  0.00     0.198 A 
ATOM     96  C   UNL A   1      49.918  26.629  24.642  1.00  0.00     0.198 A 
ATOM     97  F   UNL A   1      47.941  27.817  24.193  1.00  0.00    -0.203 F 
ATOM     98  F   UNL A   1      51.251  25.341  27.751  1.00  0.00    -0.200 F 
ATOM     99  C   UNL A   1      50.770  26.003  25.538  1.00  0.00     0.200 A 
ATOM    100  F   UNL A   1      50.248  26.696  23.344  1.00  0.00    -0.200 F 
ATOM    101  F   UNL A   1      51.933  25.490  25.115  1.00  0.00    -0.200 F 
ENDBRANCH  68  91
ENDBRANCH  42  43
ENDBRANCH  35  37
ENDBRANCH  34  35
ENDBRANCH  33  34
ENDBRANCH  32  33
ENDBRANCH  31  32
ENDBRANCH   1  31
TORSDOF 17
ENDMDL
MODEL 3
REMARK VINA RESULT:     -11.7      4.853      9.006
REMARK SMILES O=C(CCC(=O)OCCOCCOC(=O)c1ccc(-c2c3nc(c(-c4c(F)c(F)c(F)c(F)c4F)c4ccc([nH]4)c(-c4c(F)c(F)c(F)c(F)c4F)c4nc(c(-c5c(F)c(F)c(F)c(F)c5F)c5ccc2[nH]5)C=C4)C=C3)cc1)/[NH+]=C1\S[C@H]2CS(=O)(=O)C[C@@H]2N1c1ccc2c(c1)OCO2
REMARK SMILES IDX 9 1 8 2 7 3 5 4 6 5 4 6 3 7 2 8 1 9 79 10 80 11 81 13 89 14
REMARK SMILES IDX 82 15 88 16 83 17 87 18 84 19 85 20 86 21 90 22 91 23 95 24
REMARK SMILES IDX 92 25 94 26 93 27 96 28 98 29 97 30 10 31 11 32 12 33 13 34
REMARK SMILES IDX 14 35 15 36 16 37 17 38 78 39 18 40 77 41 19 42 20 43 21 44
REMARK SMILES IDX 71 45 22 46 76 47 70 48 72 49 23 50 75 51 69 52 68 53 24 55
REMARK SMILES IDX 56 56 36 57 55 58 37 59 40 60 54 61 73 62 38 63 39 64 53 66
REMARK SMILES IDX 74 67 41 68 25 69 26 70 34 71 27 72 28 73 32 74 35 75 29 76
REMARK SMILES IDX 30 77 33 78 31 79 57 80 58 81 66 82 59 83 60 84 64 85 67 86
REMARK SMILES IDX 61 87 62 88 65 89 63 90 42 91 43 92 51 93 44 94 45 95 49 96
REMARK SMILES IDX 52 97 46 98 47 99 50 100 48 101
REMARK H PARENT 79 12 72 54 40 65
REMARK Flexibility Score: inf
ROOT
ATOM      1  C   UNL A   1      42.692  20.212  25.657  1.00  0.00     0.202 C 
ENDROOT
BRANCH   1   2
ATOM      2  C   UNL A   1      41.987  20.649  26.969  1.00  0.00     0.261 C 
BRANCH   2   3
ATOM      3  O   UNL A   1      40.634  21.015  26.698  1.00  0.00    -0.463 OA
BRANCH   3   4
ATOM      4  C   UNL A   1      40.341  22.191  27.289  1.00  0.00     0.306 C 
ATOM      5  O   UNL A   1      40.649  22.473  28.440  1.00  0.00    -0.252 OA
BRANCH   4   6
ATOM      6  C   UNL A   1      39.673  23.124  26.322  1.00  0.00     0.135 C 
BRANCH   6   7
ATOM      7  C   UNL A   1      38.157  22.958  26.110  1.00  0.00     0.139 C 
BRANCH   7   8
ATOM      8  C   UNL A   1      37.438  22.065  25.081  1.00  0.00     0.308 C 
ATOM      9  O   UNL A   1      38.126  21.135  24.644  1.00  0.00    -0.247 OA
ATOM     10  N   UNL A   1      36.125  22.189  24.600  1.00  0.00    -0.204 N 
ATOM     11  C   UNL A   1      34.964  22.100  25.183  1.00  0.00     0.319 C 
ATOM     12  H   UNL A   1      36.072  22.381  23.636  1.00  0.00     0.316 HD
ATOM     13  S   UNL A   1      34.595  22.224  26.928  1.00  0.00    -0.029 SA
ATOM     14  N   UNL A   1      33.696  21.919  24.567  1.00  0.00    -0.216 N 
ATOM     15  C   UNL A   1      32.887  22.648  26.753  1.00  0.00     0.120 C 
ATOM     16  C   UNL A   1      32.716  22.799  25.244  1.00  0.00     0.212 C 
ATOM     17  C   UNL A   1      32.239  23.875  27.339  1.00  0.00     0.156 C 
ATOM     18  C   UNL A   1      31.219  22.715  25.079  1.00  0.00     0.188 C 
ATOM     19  S   UNL A   1      30.690  23.864  26.400  1.00  0.00     0.155 S 
ATOM     20  O   UNL A   1      29.682  23.233  27.204  1.00  0.00    -0.229 OA
ATOM     21  O   UNL A   1      30.525  25.188  25.816  1.00  0.00    -0.229 OA
BRANCH  14  22
ATOM     22  C   UNL A   1      33.315  20.561  24.355  1.00  0.00     0.132 A 
ATOM     23  C   UNL A   1      32.397  20.242  23.331  1.00  0.00     0.056 A 
ATOM     24  C   UNL A   1      33.972  19.492  24.998  1.00  0.00     0.102 A 
ATOM     25  C   UNL A   1      32.172  18.906  22.936  1.00  0.00     0.055 A 
ATOM     26  C   UNL A   1      33.769  18.207  24.568  1.00  0.00     0.170 A 
ATOM     27  C   UNL A   1      32.909  17.917  23.547  1.00  0.00     0.166 A 
ATOM     28  O   UNL A   1      34.481  17.132  24.997  1.00  0.00    -0.453 OA
ATOM     29  O   UNL A   1      33.001  16.607  23.186  1.00  0.00    -0.454 OA
ATOM     30  C   UNL A   1      34.181  16.222  23.926  1.00  0.00     0.468 C 
ENDBRANCH  14  22
ENDBRANCH   7   8
ENDBRANCH   6   7
ENDBRANCH   4   6
ENDBRANCH   3   4
ENDBRANCH   2   3
ENDBRANCH   1   2
BRANCH   1  31
ATOM     31  O   UNL A   1      44.120  20.244  25.568  1.00  0.00    -0.374 OA
BRANCH  31  32
ATOM     32  C   UNL A   1      44.802  21.344  24.903  1.00  0.00     0.202 C 
BRANCH  32  33
ATOM     33  C   UNL A   1      44.219  22.701  24.144  1.00  0.00     0.261 C 
BRANCH  33  34
ATOM     34  O   UNL A   1      44.821  24.067  24.219  1.00  0.00    -0.460 OA
BRANCH  34  35
ATOM     35  C   UNL A   1      45.352  24.493  25.440  1.00  0.00     0.338 C 
ATOM     36  O   UNL A   1      46.538  24.376  25.728  1.00  0.00    -0.246 OA
BRANCH  35  37
ATOM     37  C   UNL A   1      44.418  25.256  26.404  1.00  0.00     0.060 A 
ATOM     38  C   UNL A   1      44.710  26.557  26.790  1.00  0.00     0.016 A 
ATOM     39  C   UNL A   1      43.411  24.668  27.179  1.00  0.00     0.016 A 
ATOM     40  C   UNL A   1      44.045  27.278  27.810  1.00  0.00     0.010 A 
ATOM     41  C   UNL A   1      42.712  25.401  28.221  1.00  0.00     0.010 A 
ATOM     42  C   UNL A   1      43.031  26.732  28.581  1.00  0.00    -0.014 A 
BRANCH  42  43
ATOM     43  C   UNL A   1      42.505  27.522  29.793  1.00  0.00     0.031 A 
ATOM     44  C   UNL A   1      41.222  28.347  29.686  1.00  0.00     0.074 A 
ATOM     45  C   UNL A   1      42.993  27.394  31.059  1.00  0.00     0.049 A 
ATOM     46  N   UNL A   1      40.586  29.048  30.602  1.00  0.00    -0.248 NA
ATOM     47  C   UNL A   1      40.528  28.319  28.393  1.00  0.00     0.031 C 
ATOM     48  C   UNL A   1      44.104  26.537  31.473  1.00  0.00     0.029 A 
ATOM     49  N   UNL A   1      42.588  27.974  32.260  1.00  0.00    -0.354 N 
ATOM     50  C   UNL A   1      39.429  29.533  30.000  1.00  0.00     0.074 A 
ATOM     51  C   UNL A   1      39.441  29.035  28.640  1.00  0.00     0.031 C 
ATOM     52  C   UNL A   1      44.257  26.608  32.807  1.00  0.00     0.029 A 
ATOM     53  C   UNL A   1      43.334  27.597  33.360  1.00  0.00     0.049 A 
ATOM     54  H   UNL A   1      41.829  28.599  32.320  1.00  0.00     0.167 HD
ATOM     55  C   UNL A   1      38.445  30.329  30.495  1.00  0.00     0.037 A 
ATOM     56  C   UNL A   1      43.336  28.018  34.649  1.00  0.00     0.037 A 
ATOM     57  C   UNL A   1      38.401  30.905  31.815  1.00  0.00     0.049 A 
ATOM     58  C   UNL A   1      42.392  29.110  35.107  1.00  0.00     0.074 A 
ATOM     59  C   UNL A   1      37.492  31.820  32.326  1.00  0.00     0.029 A 
ATOM     60  N   UNL A   1      39.308  30.649  32.827  1.00  0.00    -0.354 N 
ATOM     61  N   UNL A   1      41.371  29.641  34.485  1.00  0.00    -0.248 NA
ATOM     62  C   UNL A   1      42.629  29.684  36.446  1.00  0.00     0.031 C 
ATOM     63  C   UNL A   1      37.905  32.187  33.613  1.00  0.00     0.029 A 
ATOM     64  C   UNL A   1      39.019  31.435  33.936  1.00  0.00     0.049 A 
ATOM     65  H   UNL A   1      40.052  30.005  32.769  1.00  0.00     0.167 HD
ATOM     66  C   UNL A   1      40.837  30.587  35.357  1.00  0.00     0.074 A 
ATOM     67  C   UNL A   1      41.626  30.541  36.566  1.00  0.00     0.031 C 
ATOM     68  C   UNL A   1      39.785  31.420  35.156  1.00  0.00     0.037 A 
BRANCH  55  69
ATOM     69  C   UNL A   1      37.369  30.742  29.529  1.00  0.00     0.064 A 
ATOM     70  C   UNL A   1      37.323  32.020  28.953  1.00  0.00     0.173 A 
ATOM     71  C   UNL A   1      36.358  29.829  29.190  1.00  0.00     0.173 A 
ATOM     72  F   UNL A   1      38.253  32.936  29.264  1.00  0.00    -0.203 F 
ATOM     73  C   UNL A   1      36.280  32.379  28.102  1.00  0.00     0.198 A 
ATOM     74  C   UNL A   1      35.335  30.183  28.318  1.00  0.00     0.198 A 
ATOM     75  F   UNL A   1      36.363  28.593  29.711  1.00  0.00    -0.203 F 
ATOM     76  F   UNL A   1      36.216  33.625  27.610  1.00  0.00    -0.200 F 
ATOM     77  C   UNL A   1      35.290  31.461  27.783  1.00  0.00     0.200 A 
ATOM     78  F   UNL A   1      34.384  29.290  28.008  1.00  0.00    -0.200 F 
ATOM     79  F   UNL A   1      34.281  31.812  26.974  1.00  0.00    -0.200 F 
ENDBRANCH  55  69
BRANCH  56  80
ATOM     80  C   UNL A   1      44.344  27.493  35.631  1.00  0.00     0.064 A 
ATOM     81  C   UNL A   1      44.064  26.399  36.467  1.00  0.00     0.173 A 
ATOM     82  C   UNL A   1      45.570  28.149  35.827  1.00  0.00     0.173 A 
ATOM     83  F   UNL A   1      42.883  25.770  36.379  1.00  0.00    -0.203 F 
ATOM     84  C   UNL A   1      44.965  25.991  37.456  1.00  0.00     0.198 A 
ATOM     85  C   UNL A   1      46.486  27.714  36.784  1.00  0.00     0.198 A 
ATOM     86  F   UNL A   1      45.877  29.231  35.096  1.00  0.00    -0.203 F 
ATOM     87  F   UNL A   1      44.639  24.990  38.286  1.00  0.00    -0.200 F 
ATOM     88  C   UNL A   1      46.179  26.641  37.604  1.00  0.00     0.200 A 
ATOM     89  F   UNL A   1      47.656  28.350  36.924  1.00  0.00    -0.200 F 
ATOM     90  F   UNL A   1      47.042  26.250  38.551  1.00  0.00    -0.200 F 
ENDBRANCH  56  80
BRANCH  68  91
ATOM     91  C   UNL A   1      39.385  32.341  36.281  1.00  0.00     0.064 A 
ATOM     92  C   UNL A   1      39.976  33.602  36.459  1.00  0.00     0.173 A 
ATOM     93  C   UNL A   1      38.385  31.963  37.193  1.00  0.00     0.173 A 
ATOM     94  F   UNL A   1      40.941  34.018  35.625  1.00  0.00    -0.203 F 
ATOM     95  C   UNL A   1      39.619  34.423  37.527  1.00  0.00     0.198 A 
ATOM     96  C   UNL A   1      38.004  32.802  38.238  1.00  0.00     0.198 A 
ATOM     97  F   UNL A   1      37.772  30.776  37.070  1.00  0.00    -0.203 F 
ATOM     98  F   UNL A   1      40.248  35.593  37.711  1.00  0.00    -0.200 F 
ATOM     99  C   UNL A   1      38.630  34.026  38.414  1.00  0.00     0.200 A 
ATOM    100  F   UNL A   1      37.035  32.421  39.083  1.00  0.00    -0.200 F 
ATOM    101  F   UNL A   1      38.290  34.814  39.442  1.00  0.00    -0.200 F 
ENDBRANCH  68  91
ENDBRANCH  42  43
ENDBRANCH  35  37
ENDBRANCH  34  35
ENDBRANCH  33  34
ENDBRANCH  32  33
ENDBRANCH  31  32
ENDBRANCH   1  31
TORSDOF 17
ENDMDL
