MODEL 1
REMARK VINA RESULT:     -10.5      0.000      0.000
REMARK SMILES C[NH2+][C@@](C)(CCCC[N@H+]1C[C@H]2CCC[N@@H+]2C[C@@H]1C)C(=O)OCCOCCOC(=O)c1ccc(-c2c3nc(c(-c4c(F)c(F)c(F)c(F)c4F)c4ccc([nH]4)c(-c4c(F)c(F)c(F)c(F)c4F)c4nc(c(-c5c(F)c(F)c(F)c(F)c5F)c5ccc2[nH]5)C=C4)C=C3)cc1
REMARK SMILES IDX 22 1 21 2 19 3 20 4 3 5 4 6 2 7 1 8 5 11 6 12 7 13 8 14 9 15
REMARK SMILES IDX 10 16 17 17 11 19 16 20 18 21 12 22 15 23 13 24 14 25 23 27
REMARK SMILES IDX 24 28 25 29 26 30 27 31 28 32 29 33 30 34 31 35 92 36 32 37
REMARK SMILES IDX 91 38 33 39 34 40 35 41 85 42 36 43 90 44 84 45 86 46 37 47
REMARK SMILES IDX 89 48 83 49 82 50 38 52 70 53 50 54 69 55 51 56 54 57 68 58
REMARK SMILES IDX 87 59 52 60 53 61 67 63 88 64 55 65 39 66 40 67 48 68 41 69
REMARK SMILES IDX 42 70 46 71 49 72 43 73 44 74 47 75 45 76 71 77 72 78 80 79
REMARK SMILES IDX 73 80 74 81 78 82 81 83 75 84 76 85 79 86 77 87 56 88 57 89
REMARK SMILES IDX 65 90 58 91 59 92 63 93 66 94 60 95 61 96 64 97 62 98
REMARK H PARENT 2 9 2 10 9 18 15 26 86 51 54 62
REMARK Flexibility Score: inf
ROOT
ATOM      1  C   UNL A   1      33.691  28.613  25.870  1.00  0.00     0.261 C 
ENDROOT
BRANCH   1   2
ATOM      2  O   UNL A   1      33.512  27.675  24.783  1.00  0.00    -0.459 OA
BRANCH   2   3
ATOM      3  C   UNL A   1      32.919  28.211  23.680  1.00  0.00     0.367 C 
ATOM      4  O   UNL A   1      33.266  29.295  23.215  1.00  0.00    -0.245 OA
BRANCH   3   5
ATOM      5  C   UNL A   1      31.649  27.439  23.181  1.00  0.00     0.191 C 
ATOM      6  C   UNL A   1      30.470  28.371  23.562  1.00  0.00     0.092 C 
BRANCH   5   7
ATOM      7  N   UNL A   1      31.674  27.214  21.703  1.00  0.00    -0.335 N 
ATOM      8  C   UNL A   1      32.223  25.946  21.242  1.00  0.00     0.331 C 
ATOM      9  H   UNL A   1      30.714  27.277  21.365  1.00  0.00     0.347 HD
ATOM     10  H   UNL A   1      32.304  27.927  21.335  1.00  0.00     0.347 HD
ENDBRANCH   5   7
BRANCH   5  11
ATOM     11  C   UNL A   1      31.308  26.062  23.837  1.00  0.00     0.081 C 
BRANCH  11  12
ATOM     12  C   UNL A   1      30.530  26.041  25.164  1.00  0.00     0.013 C 
BRANCH  12  13
ATOM     13  C   UNL A   1      31.004  24.998  26.157  1.00  0.00     0.062 C 
BRANCH  13  14
ATOM     14  C   UNL A   1      32.501  24.650  26.149  1.00  0.00     0.262 C 
BRANCH  14  15
ATOM     15  N   UNL A   1      32.961  23.533  25.307  1.00  0.00    -0.323 N 
ATOM     16  C   UNL A   1      34.242  23.898  24.682  1.00  0.00     0.328 C 
ATOM     17  C   UNL A   1      32.851  22.176  25.917  1.00  0.00     0.236 C 
ATOM     18  H   UNL A   1      32.296  23.399  24.545  1.00  0.00     0.348 HD
ATOM     19  C   UNL A   1      35.200  22.745  24.435  1.00  0.00     0.240 C 
ATOM     20  C   UNL A   1      34.126  21.270  25.981  1.00  0.00     0.328 C 
ATOM     21  C   UNL A   1      31.752  21.350  25.214  1.00  0.00     0.081 C 
ATOM     22  C   UNL A   1      36.638  23.178  24.210  1.00  0.00     0.077 C 
ATOM     23  N   UNL A   1      35.371  21.946  25.648  1.00  0.00    -0.323 N 
ATOM     24  C   UNL A   1      37.409  21.889  24.478  1.00  0.00     0.068 C 
ATOM     25  C   UNL A   1      36.491  21.051  25.371  1.00  0.00     0.263 C 
ATOM     26  H   UNL A   1      35.585  22.503  26.475  1.00  0.00     0.348 HD
ENDBRANCH  14  15
ENDBRANCH  13  14
ENDBRANCH  12  13
ENDBRANCH  11  12
ENDBRANCH   5  11
ENDBRANCH   3   5
ENDBRANCH   2   3
ENDBRANCH   1   2
BRANCH   1  27
ATOM     27  C   UNL A   1      32.608  28.520  26.943  1.00  0.00     0.202 C 
BRANCH  27  28
ATOM     28  O   UNL A   1      31.802  29.671  27.181  1.00  0.00    -0.374 OA
BRANCH  28  29
ATOM     29  C   UNL A   1      31.779  30.660  26.155  1.00  0.00     0.202 C 
BRANCH  29  30
ATOM     30  C   UNL A   1      31.725  32.134  26.618  1.00  0.00     0.261 C 
BRANCH  30  31
ATOM     31  O   UNL A   1      32.426  32.377  27.856  1.00  0.00    -0.460 OA
BRANCH  31  32
ATOM     32  C   UNL A   1      33.418  33.304  27.825  1.00  0.00     0.338 C 
ATOM     33  O   UNL A   1      33.270  34.500  27.678  1.00  0.00    -0.246 OA
BRANCH  32  34
ATOM     34  C   UNL A   1      34.747  32.708  28.181  1.00  0.00     0.060 A 
ATOM     35  C   UNL A   1      34.745  31.375  28.597  1.00  0.00     0.016 A 
ATOM     36  C   UNL A   1      35.965  33.393  28.152  1.00  0.00     0.016 A 
ATOM     37  C   UNL A   1      35.916  30.781  29.080  1.00  0.00     0.010 A 
ATOM     38  C   UNL A   1      37.142  32.804  28.628  1.00  0.00     0.010 A 
ATOM     39  C   UNL A   1      37.110  31.510  29.155  1.00  0.00    -0.014 A 
BRANCH  39  40
ATOM     40  C   UNL A   1      38.275  30.945  29.882  1.00  0.00     0.031 A 
ATOM     41  C   UNL A   1      38.499  31.301  31.329  1.00  0.00     0.074 A 
ATOM     42  C   UNL A   1      39.098  30.074  29.274  1.00  0.00     0.049 A 
ATOM     43  N   UNL A   1      39.348  30.792  32.187  1.00  0.00    -0.248 NA
ATOM     44  C   UNL A   1      37.664  32.379  31.884  1.00  0.00     0.031 C 
ATOM     45  C   UNL A   1      39.016  29.679  27.871  1.00  0.00     0.029 A 
ATOM     46  N   UNL A   1      40.157  29.353  29.768  1.00  0.00    -0.354 N 
ATOM     47  C   UNL A   1      39.135  31.469  33.381  1.00  0.00     0.074 A 
ATOM     48  C   UNL A   1      38.121  32.468  33.124  1.00  0.00     0.031 C 
ATOM     49  C   UNL A   1      39.968  28.765  27.619  1.00  0.00     0.029 A 
ATOM     50  C   UNL A   1      40.732  28.519  28.842  1.00  0.00     0.049 A 
ATOM     51  H   UNL A   1      40.474  29.428  30.697  1.00  0.00     0.167 HD
ATOM     52  C   UNL A   1      39.712  31.260  34.590  1.00  0.00     0.037 A 
ATOM     53  C   UNL A   1      41.750  27.645  28.970  1.00  0.00     0.037 A 
ATOM     54  C   UNL A   1      40.727  30.269  34.843  1.00  0.00     0.049 A 
ATOM     55  C   UNL A   1      42.397  27.451  30.317  1.00  0.00     0.074 A 
ATOM     56  C   UNL A   1      41.330  29.938  36.044  1.00  0.00     0.029 A 
ATOM     57  N   UNL A   1      41.305  29.463  33.872  1.00  0.00    -0.354 N 
ATOM     58  N   UNL A   1      42.111  28.015  31.466  1.00  0.00    -0.248 NA
ATOM     59  C   UNL A   1      43.501  26.482  30.387  1.00  0.00     0.031 C 
ATOM     60  C   UNL A   1      42.317  28.981  35.790  1.00  0.00     0.029 A 
ATOM     61  C   UNL A   1      42.283  28.663  34.442  1.00  0.00     0.049 A 
ATOM     62  H   UNL A   1      41.055  29.459  32.920  1.00  0.00     0.167 HD
ATOM     63  C   UNL A   1      42.974  27.448  32.396  1.00  0.00     0.074 A 
ATOM     64  C   UNL A   1      43.783  26.484  31.682  1.00  0.00     0.031 C 
ATOM     65  C   UNL A   1      43.084  27.703  33.724  1.00  0.00     0.037 A 
BRANCH  52  66
ATOM     66  C   UNL A   1      39.267  32.122  35.738  1.00  0.00     0.064 A 
ATOM     67  C   UNL A   1      38.336  31.665  36.684  1.00  0.00     0.173 A 
ATOM     68  C   UNL A   1      39.820  33.397  35.928  1.00  0.00     0.173 A 
ATOM     69  F   UNL A   1      37.773  30.454  36.549  1.00  0.00    -0.203 F 
ATOM     70  C   UNL A   1      37.955  32.464  37.759  1.00  0.00     0.198 A 
ATOM     71  C   UNL A   1      39.460  34.180  37.022  1.00  0.00     0.198 A 
ATOM     72  F   UNL A   1      40.721  33.880  35.060  1.00  0.00    -0.203 F 
ATOM     73  F   UNL A   1      37.029  32.024  38.624  1.00  0.00    -0.200 F 
ATOM     74  C   UNL A   1      38.522  33.717  37.932  1.00  0.00     0.200 A 
ATOM     75  F   UNL A   1      40.023  35.384  37.197  1.00  0.00    -0.200 F 
ATOM     76  F   UNL A   1      38.164  34.480  38.973  1.00  0.00    -0.200 F 
ENDBRANCH  52  66
BRANCH  53  77
ATOM     77  C   UNL A   1      42.199  26.858  27.792  1.00  0.00     0.064 A 
ATOM     78  C   UNL A   1      43.206  27.335  26.942  1.00  0.00     0.173 A 
ATOM     79  C   UNL A   1      41.622  25.617  27.486  1.00  0.00     0.173 A 
ATOM     80  F   UNL A   1      43.775  28.527  27.180  1.00  0.00    -0.203 F 
ATOM     81  C   UNL A   1      43.603  26.613  25.819  1.00  0.00     0.198 A 
ATOM     82  C   UNL A   1      42.040  24.881  26.381  1.00  0.00     0.198 A 
ATOM     83  F   UNL A   1      40.656  25.114  28.269  1.00  0.00    -0.203 F 
ATOM     84  F   UNL A   1      44.533  27.116  24.994  1.00  0.00    -0.200 F 
ATOM     85  C   UNL A   1      43.024  25.383  25.543  1.00  0.00     0.200 A 
ATOM     86  F   UNL A   1      41.489  23.687  26.126  1.00  0.00    -0.200 F 
ATOM     87  F   UNL A   1      43.408  24.686  24.464  1.00  0.00    -0.200 F 
ENDBRANCH  53  77
BRANCH  65  88
ATOM     88  C   UNL A   1      44.092  26.906  34.504  1.00  0.00     0.064 A 
ATOM     89  C   UNL A   1      45.392  27.381  34.736  1.00  0.00     0.173 A 
ATOM     90  C   UNL A   1      43.740  25.666  35.061  1.00  0.00     0.173 A 
ATOM     91  F   UNL A   1      45.786  28.554  34.217  1.00  0.00    -0.203 F 
ATOM     92  C   UNL A   1      46.310  26.630  35.468  1.00  0.00     0.198 A 
ATOM     93  C   UNL A   1      44.649  24.935  35.821  1.00  0.00     0.198 A 
ATOM     94  F   UNL A   1      42.508  25.168  34.878  1.00  0.00    -0.203 F 
ATOM     95  F   UNL A   1      47.562  27.080  35.630  1.00  0.00    -0.200 F 
ATOM     96  C   UNL A   1      45.935  25.413  36.016  1.00  0.00     0.200 A 
ATOM     97  F   UNL A   1      44.278  23.767  36.365  1.00  0.00    -0.200 F 
ATOM     98  F   UNL A   1      46.817  24.697  36.727  1.00  0.00    -0.200 F 
ENDBRANCH  65  88
ENDBRANCH  39  40
ENDBRANCH  32  34
ENDBRANCH  31  32
ENDBRANCH  30  31
ENDBRANCH  29  30
ENDBRANCH  28  29
ENDBRANCH  27  28
ENDBRANCH   1  27
TORSDOF 20
ENDMDL
MODEL 2
REMARK VINA RESULT:     -10.5      4.233      9.648
REMARK SMILES C[NH2+][C@@](C)(CCCC[N@H+]1C[C@H]2CCC[N@@H+]2C[C@@H]1C)C(=O)OCCOCCOC(=O)c1ccc(-c2c3nc(c(-c4c(F)c(F)c(F)c(F)c4F)c4ccc([nH]4)c(-c4c(F)c(F)c(F)c(F)c4F)c4nc(c(-c5c(F)c(F)c(F)c(F)c5F)c5ccc2[nH]5)C=C4)C=C3)cc1
REMARK SMILES IDX 22 1 21 2 19 3 20 4 3 5 4 6 2 7 1 8 5 11 6 12 7 13 8 14 9 15
REMARK SMILES IDX 10 16 17 17 11 19 16 20 18 21 12 22 15 23 13 24 14 25 23 27
REMARK SMILES IDX 24 28 25 29 26 30 27 31 28 32 29 33 30 34 31 35 92 36 32 37
REMARK SMILES IDX 91 38 33 39 34 40 35 41 85 42 36 43 90 44 84 45 86 46 37 47
REMARK SMILES IDX 89 48 83 49 82 50 38 52 70 53 50 54 69 55 51 56 54 57 68 58
REMARK SMILES IDX 87 59 52 60 53 61 67 63 88 64 55 65 39 66 40 67 48 68 41 69
REMARK SMILES IDX 42 70 46 71 49 72 43 73 44 74 47 75 45 76 71 77 72 78 80 79
REMARK SMILES IDX 73 80 74 81 78 82 81 83 75 84 76 85 79 86 77 87 56 88 57 89
REMARK SMILES IDX 65 90 58 91 59 92 63 93 66 94 60 95 61 96 64 97 62 98
REMARK H PARENT 2 9 2 10 9 18 15 26 86 51 54 62
REMARK Flexibility Score: inf
ROOT
ATOM      1  C   UNL A   1      34.430  25.044  25.517  1.00  0.00     0.261 C 
ENDROOT
BRANCH   1   2
ATOM      2  O   UNL A   1      33.887  26.035  24.613  1.00  0.00    -0.459 OA
BRANCH   2   3
ATOM      3  C   UNL A   1      33.238  27.058  25.235  1.00  0.00     0.367 C 
ATOM      4  O   UNL A   1      33.703  27.616  26.227  1.00  0.00    -0.245 OA
BRANCH   3   5
ATOM      5  C   UNL A   1      31.786  27.325  24.711  1.00  0.00     0.191 C 
ATOM      6  C   UNL A   1      31.425  28.715  25.297  1.00  0.00     0.092 C 
BRANCH   5   7
ATOM      7  N   UNL A   1      31.726  27.362  23.218  1.00  0.00    -0.335 N 
ATOM      8  C   UNL A   1      30.681  28.184  22.623  1.00  0.00     0.331 C 
ATOM      9  H   UNL A   1      32.623  27.713  22.882  1.00  0.00     0.347 HD
ATOM     10  H   UNL A   1      31.508  26.407  22.935  1.00  0.00     0.347 HD
ENDBRANCH   5   7
BRANCH   5  11
ATOM     11  C   UNL A   1      30.637  26.375  25.180  1.00  0.00     0.081 C 
BRANCH  11  12
ATOM     12  C   UNL A   1      30.650  24.907  24.721  1.00  0.00     0.013 C 
BRANCH  12  13
ATOM     13  C   UNL A   1      31.095  23.918  25.780  1.00  0.00     0.062 C 
BRANCH  13  14
ATOM     14  C   UNL A   1      31.019  22.425  25.424  1.00  0.00     0.262 C 
BRANCH  14  15
ATOM     15  N   UNL A   1      32.121  21.826  24.652  1.00  0.00    -0.323 N 
ATOM     16  C   UNL A   1      32.488  20.537  25.259  1.00  0.00     0.328 C 
ATOM     17  C   UNL A   1      31.974  21.875  23.169  1.00  0.00     0.236 C 
ATOM     18  H   UNL A   1      32.942  22.426  24.732  1.00  0.00     0.348 HD
ATOM     19  C   UNL A   1      32.994  19.480  24.292  1.00  0.00     0.240 C 
ATOM     20  C   UNL A   1      32.081  20.543  22.354  1.00  0.00     0.328 C 
ATOM     21  C   UNL A   1      32.991  22.859  22.553  1.00  0.00     0.081 C 
ATOM     22  C   UNL A   1      32.947  18.067  24.845  1.00  0.00     0.077 C 
ATOM     23  N   UNL A   1      32.078  19.333  23.162  1.00  0.00    -0.323 N 
ATOM     24  C   UNL A   1      33.025  17.221  23.578  1.00  0.00     0.068 C 
ATOM     25  C   UNL A   1      32.519  18.133  22.457  1.00  0.00     0.263 C 
ATOM     26  H   UNL A   1      31.104  19.218  23.440  1.00  0.00     0.348 HD
ENDBRANCH  14  15
ENDBRANCH  13  14
ENDBRANCH  12  13
ENDBRANCH  11  12
ENDBRANCH   5  11
ENDBRANCH   3   5
ENDBRANCH   2   3
ENDBRANCH   1   2
BRANCH   1  27
ATOM     27  C   UNL A   1      35.398  24.071  24.847  1.00  0.00     0.202 C 
BRANCH  27  28
ATOM     28  O   UNL A   1      35.720  22.866  25.537  1.00  0.00    -0.374 OA
BRANCH  28  29
ATOM     29  C   UNL A   1      35.878  21.696  24.739  1.00  0.00     0.202 C 
BRANCH  29  30
ATOM     30  C   UNL A   1      37.080  20.784  25.082  1.00  0.00     0.261 C 
BRANCH  30  31
ATOM     31  O   UNL A   1      38.355  21.455  25.005  1.00  0.00    -0.460 OA
BRANCH  31  32
ATOM     32  C   UNL A   1      39.267  21.144  25.961  1.00  0.00     0.338 C 
ATOM     33  O   UNL A   1      39.769  20.052  26.138  1.00  0.00    -0.246 OA
BRANCH  32  34
ATOM     34  C   UNL A   1      39.747  22.363  26.690  1.00  0.00     0.060 A 
ATOM     35  C   UNL A   1      39.144  23.575  26.349  1.00  0.00     0.016 A 
ATOM     36  C   UNL A   1      40.759  22.373  27.653  1.00  0.00     0.016 A 
ATOM     37  C   UNL A   1      39.622  24.780  26.876  1.00  0.00     0.010 A 
ATOM     38  C   UNL A   1      41.241  23.574  28.190  1.00  0.00     0.010 A 
ATOM     39  C   UNL A   1      40.714  24.792  27.754  1.00  0.00    -0.014 A 
BRANCH  39  40
ATOM     40  C   UNL A   1      41.354  26.082  28.117  1.00  0.00     0.031 A 
ATOM     41  C   UNL A   1      42.751  26.383  27.642  1.00  0.00     0.074 A 
ATOM     42  C   UNL A   1      40.674  27.005  28.818  1.00  0.00     0.049 A 
ATOM     43  N   UNL A   1      43.425  27.506  27.703  1.00  0.00    -0.248 NA
ATOM     44  C   UNL A   1      43.496  25.275  27.023  1.00  0.00     0.031 C 
ATOM     45  C   UNL A   1      39.335  26.822  29.371  1.00  0.00     0.029 A 
ATOM     46  N   UNL A   1      41.014  28.287  29.171  1.00  0.00    -0.354 N 
ATOM     47  C   UNL A   1      44.655  27.244  27.114  1.00  0.00     0.074 A 
ATOM     48  C   UNL A   1      44.663  25.842  26.759  1.00  0.00     0.031 C 
ATOM     49  C   UNL A   1      38.953  27.961  29.973  1.00  0.00     0.029 A 
ATOM     50  C   UNL A   1      40.025  28.949  29.855  1.00  0.00     0.049 A 
ATOM     51  H   UNL A   1      41.885  28.693  28.955  1.00  0.00     0.167 HD
ATOM     52  C   UNL A   1      45.677  28.101  26.869  1.00  0.00     0.037 A 
ATOM     53  C   UNL A   1      39.984  30.212  30.322  1.00  0.00     0.037 A 
ATOM     54  C   UNL A   1      45.671  29.495  27.230  1.00  0.00     0.049 A 
ATOM     55  C   UNL A   1      41.145  31.138  30.063  1.00  0.00     0.074 A 
ATOM     56  C   UNL A   1      46.631  30.458  26.971  1.00  0.00     0.029 A 
ATOM     57  N   UNL A   1      44.663  30.122  27.949  1.00  0.00    -0.354 N 
ATOM     58  N   UNL A   1      42.257  30.912  29.406  1.00  0.00    -0.248 NA
ATOM     59  C   UNL A   1      41.035  32.503  30.599  1.00  0.00     0.031 C 
ATOM     60  C   UNL A   1      46.236  31.649  27.588  1.00  0.00     0.029 A 
ATOM     61  C   UNL A   1      44.996  31.448  28.174  1.00  0.00     0.049 A 
ATOM     62  H   UNL A   1      43.834  29.687  28.253  1.00  0.00     0.167 HD
ATOM     63  C   UNL A   1      42.961  32.110  29.422  1.00  0.00     0.074 A 
ATOM     64  C   UNL A   1      42.144  33.066  30.139  1.00  0.00     0.031 C 
ATOM     65  C   UNL A   1      44.176  32.394  28.888  1.00  0.00     0.037 A 
BRANCH  52  66
ATOM     66  C   UNL A   1      46.897  27.556  26.179  1.00  0.00     0.064 A 
ATOM     67  C   UNL A   1      47.028  27.587  24.781  1.00  0.00     0.173 A 
ATOM     68  C   UNL A   1      47.972  27.051  26.925  1.00  0.00     0.173 A 
ATOM     69  F   UNL A   1      46.028  28.056  24.019  1.00  0.00    -0.203 F 
ATOM     70  C   UNL A   1      48.177  27.106  24.158  1.00  0.00     0.198 A 
ATOM     71  C   UNL A   1      49.132  26.601  26.299  1.00  0.00     0.198 A 
ATOM     72  F   UNL A   1      47.906  27.007  28.264  1.00  0.00    -0.203 F 
ATOM     73  F   UNL A   1      48.259  27.103  22.819  1.00  0.00    -0.200 F 
ATOM     74  C   UNL A   1      49.230  26.621  24.916  1.00  0.00     0.200 A 
ATOM     75  F   UNL A   1      50.157  26.149  27.035  1.00  0.00    -0.200 F 
ATOM     76  F   UNL A   1      50.340  26.169  24.316  1.00  0.00    -0.200 F 
ENDBRANCH  52  66
BRANCH  53  77
ATOM     77  C   UNL A   1      38.782  30.690  31.054  1.00  0.00     0.064 A 
ATOM     78  C   UNL A   1      37.697  31.261  30.374  1.00  0.00     0.173 A 
ATOM     79  C   UNL A   1      38.699  30.597  32.451  1.00  0.00     0.173 A 
ATOM     80  F   UNL A   1      37.737  31.391  29.039  1.00  0.00    -0.203 F 
ATOM     81  C   UNL A   1      36.586  31.739  31.064  1.00  0.00     0.198 A 
ATOM     82  C   UNL A   1      37.575  31.048  33.137  1.00  0.00     0.198 A 
ATOM     83  F   UNL A   1      39.709  30.057  33.149  1.00  0.00    -0.203 F 
ATOM     84  F   UNL A   1      35.585  32.327  30.393  1.00  0.00    -0.200 F 
ATOM     85  C   UNL A   1      36.523  31.627  32.444  1.00  0.00     0.200 A 
ATOM     86  F   UNL A   1      37.511  30.924  34.470  1.00  0.00    -0.200 F 
ATOM     87  F   UNL A   1      35.452  32.085  33.108  1.00  0.00    -0.200 F 
ENDBRANCH  53  77
BRANCH  65  88
ATOM     88  C   UNL A   1      44.685  33.802  29.027  1.00  0.00     0.064 A 
ATOM     89  C   UNL A   1      45.512  34.188  30.092  1.00  0.00     0.173 A 
ATOM     90  C   UNL A   1      44.372  34.768  28.058  1.00  0.00     0.173 A 
ATOM     91  F   UNL A   1      45.832  33.308  31.053  1.00  0.00    -0.203 F 
ATOM     92  C   UNL A   1      45.980  35.497  30.199  1.00  0.00     0.198 A 
ATOM     93  C   UNL A   1      44.870  36.065  28.149  1.00  0.00     0.198 A 
ATOM     94  F   UNL A   1      43.593  34.452  27.013  1.00  0.00    -0.203 F 
ATOM     95  F   UNL A   1      46.723  35.855  31.254  1.00  0.00    -0.200 F 
ATOM     96  C   UNL A   1      45.665  36.431  29.224  1.00  0.00     0.200 A 
ATOM     97  F   UNL A   1      44.580  36.962  27.195  1.00  0.00    -0.200 F 
ATOM     98  F   UNL A   1      46.124  37.686  29.324  1.00  0.00    -0.200 F 
ENDBRANCH  65  88
ENDBRANCH  39  40
ENDBRANCH  32  34
ENDBRANCH  31  32
ENDBRANCH  30  31
ENDBRANCH  29  30
ENDBRANCH  28  29
ENDBRANCH  27  28
ENDBRANCH   1  27
TORSDOF 20
ENDMDL
MODEL 3
REMARK VINA RESULT:     -10.3      4.253      9.656
REMARK SMILES C[NH2+][C@@](C)(CCCC[N@H+]1C[C@H]2CCC[N@@H+]2C[C@@H]1C)C(=O)OCCOCCOC(=O)c1ccc(-c2c3nc(c(-c4c(F)c(F)c(F)c(F)c4F)c4ccc([nH]4)c(-c4c(F)c(F)c(F)c(F)c4F)c4nc(c(-c5c(F)c(F)c(F)c(F)c5F)c5ccc2[nH]5)C=C4)C=C3)cc1
REMARK SMILES IDX 22 1 21 2 19 3 20 4 3 5 4 6 2 7 1 8 5 11 6 12 7 13 8 14 9 15
REMARK SMILES IDX 10 16 17 17 11 19 16 20 18 21 12 22 15 23 13 24 14 25 23 27
REMARK SMILES IDX 24 28 25 29 26 30 27 31 28 32 29 33 30 34 31 35 92 36 32 37
REMARK SMILES IDX 91 38 33 39 34 40 35 41 85 42 36 43 90 44 84 45 86 46 37 47
REMARK SMILES IDX 89 48 83 49 82 50 38 52 70 53 50 54 69 55 51 56 54 57 68 58
REMARK SMILES IDX 87 59 52 60 53 61 67 63 88 64 55 65 39 66 40 67 48 68 41 69
REMARK SMILES IDX 42 70 46 71 49 72 43 73 44 74 47 75 45 76 71 77 72 78 80 79
REMARK SMILES IDX 73 80 74 81 78 82 81 83 75 84 76 85 79 86 77 87 56 88 57 89
REMARK SMILES IDX 65 90 58 91 59 92 63 93 66 94 60 95 61 96 64 97 62 98
REMARK H PARENT 2 9 2 10 9 18 15 26 86 51 54 62
REMARK Flexibility Score: inf
ROOT
ATOM      1  C   UNL A   1      34.477  24.992  25.532  1.00  0.00     0.261 C 
ENDROOT
BRANCH   1   2
ATOM      2  O   UNL A   1      33.885  25.997  24.675  1.00  0.00    -0.459 OA
BRANCH   2   3
ATOM      3  C   UNL A   1      33.279  27.014  25.348  1.00  0.00     0.367 C 
ATOM      4  O   UNL A   1      33.768  27.506  26.363  1.00  0.00    -0.245 OA
BRANCH   3   5
ATOM      5  C   UNL A   1      31.837  27.364  24.843  1.00  0.00     0.191 C 
ATOM      6  C   UNL A   1      31.515  28.714  25.533  1.00  0.00     0.092 C 
BRANCH   5   7
ATOM      7  N   UNL A   1      31.785  27.516  23.357  1.00  0.00    -0.335 N 
ATOM      8  C   UNL A   1      31.762  28.877  22.838  1.00  0.00     0.331 C 
ATOM      9  H   UNL A   1      32.607  27.052  22.970  1.00  0.00     0.347 HD
ATOM     10  H   UNL A   1      30.893  27.109  23.077  1.00  0.00     0.347 HD
ENDBRANCH   5   7
BRANCH   5  11
ATOM     11  C   UNL A   1      30.659  26.414  25.236  1.00  0.00     0.081 C 
BRANCH  11  12
ATOM     12  C   UNL A   1      30.692  24.951  24.762  1.00  0.00     0.013 C 
BRANCH  12  13
ATOM     13  C   UNL A   1      31.087  23.950  25.829  1.00  0.00     0.062 C 
BRANCH  13  14
ATOM     14  C   UNL A   1      31.025  22.461  25.453  1.00  0.00     0.262 C 
BRANCH  14  15
ATOM     15  N   UNL A   1      32.120  21.889  24.652  1.00  0.00    -0.323 N 
ATOM     16  C   UNL A   1      32.520  20.600  25.237  1.00  0.00     0.328 C 
ATOM     17  C   UNL A   1      31.940  21.952  23.173  1.00  0.00     0.236 C 
ATOM     18  H   UNL A   1      32.932  22.502  24.721  1.00  0.00     0.348 HD
ATOM     19  C   UNL A   1      33.022  19.562  24.247  1.00  0.00     0.240 C 
ATOM     20  C   UNL A   1      32.052  20.630  22.341  1.00  0.00     0.328 C 
ATOM     21  C   UNL A   1      32.927  22.959  22.546  1.00  0.00     0.081 C 
ATOM     22  C   UNL A   1      33.010  18.142  24.785  1.00  0.00     0.077 C 
ATOM     23  N   UNL A   1      32.085  19.412  23.135  1.00  0.00    -0.323 N 
ATOM     24  C   UNL A   1      33.075  17.312  23.508  1.00  0.00     0.068 C 
ATOM     25  C   UNL A   1      32.530  18.227  22.408  1.00  0.00     0.263 C 
ATOM     26  H   UNL A   1      31.119  19.278  23.433  1.00  0.00     0.348 HD
ENDBRANCH  14  15
ENDBRANCH  13  14
ENDBRANCH  12  13
ENDBRANCH  11  12
ENDBRANCH   5  11
ENDBRANCH   3   5
ENDBRANCH   2   3
ENDBRANCH   1   2
BRANCH   1  27
ATOM     27  C   UNL A   1      35.375  24.006  24.789  1.00  0.00     0.202 C 
BRANCH  27  28
ATOM     28  O   UNL A   1      35.855  22.869  25.502  1.00  0.00    -0.374 OA
BRANCH  28  29
ATOM     29  C   UNL A   1      36.066  21.681  24.744  1.00  0.00     0.202 C 
BRANCH  29  30
ATOM     30  C   UNL A   1      37.254  20.789  25.174  1.00  0.00     0.261 C 
BRANCH  30  31
ATOM     31  O   UNL A   1      38.533  21.454  25.100  1.00  0.00    -0.460 OA
BRANCH  31  32
ATOM     32  C   UNL A   1      39.429  21.163  26.077  1.00  0.00     0.338 C 
ATOM     33  O   UNL A   1      39.934  20.078  26.280  1.00  0.00    -0.246 OA
BRANCH  32  34
ATOM     34  C   UNL A   1      39.889  22.397  26.794  1.00  0.00     0.060 A 
ATOM     35  C   UNL A   1      39.262  23.595  26.446  1.00  0.00     0.016 A 
ATOM     36  C   UNL A   1      40.906  22.434  27.752  1.00  0.00     0.016 A 
ATOM     37  C   UNL A   1      39.721  24.813  26.961  1.00  0.00     0.010 A 
ATOM     38  C   UNL A   1      41.367  23.647  28.277  1.00  0.00     0.010 A 
ATOM     39  C   UNL A   1      40.815  24.852  27.834  1.00  0.00    -0.014 A 
BRANCH  39  40
ATOM     40  C   UNL A   1      41.433  26.157  28.184  1.00  0.00     0.031 A 
ATOM     41  C   UNL A   1      42.829  26.473  27.716  1.00  0.00     0.074 A 
ATOM     42  C   UNL A   1      40.733  27.079  28.866  1.00  0.00     0.049 A 
ATOM     43  N   UNL A   1      43.486  27.606  27.767  1.00  0.00    -0.248 NA
ATOM     44  C   UNL A   1      43.596  25.367  27.119  1.00  0.00     0.031 C 
ATOM     45  C   UNL A   1      39.392  26.884  29.411  1.00  0.00     0.029 A 
ATOM     46  N   UNL A   1      41.051  28.371  29.204  1.00  0.00    -0.354 N 
ATOM     47  C   UNL A   1      44.725  27.355  27.192  1.00  0.00     0.074 A 
ATOM     48  C   UNL A   1      44.756  25.948  26.856  1.00  0.00     0.031 C 
ATOM     49  C   UNL A   1      38.988  28.025  29.993  1.00  0.00     0.029 A 
ATOM     50  C   UNL A   1      40.047  29.027  29.870  1.00  0.00     0.049 A 
ATOM     51  H   UNL A   1      41.917  28.787  28.989  1.00  0.00     0.167 HD
ATOM     52  C   UNL A   1      45.736  28.223  26.943  1.00  0.00     0.037 A 
ATOM     53  C   UNL A   1      39.982  30.296  30.319  1.00  0.00     0.037 A 
ATOM     54  C   UNL A   1      45.706  29.622  27.284  1.00  0.00     0.049 A 
ATOM     55  C   UNL A   1      41.131  31.236  30.056  1.00  0.00     0.074 A 
ATOM     56  C   UNL A   1      46.653  30.596  27.018  1.00  0.00     0.029 A 
ATOM     57  N   UNL A   1      44.682  30.244  27.985  1.00  0.00    -0.354 N 
ATOM     58  N   UNL A   1      42.252  31.018  29.412  1.00  0.00    -0.248 NA
ATOM     59  C   UNL A   1      40.996  32.606  30.572  1.00  0.00     0.031 C 
ATOM     60  C   UNL A   1      46.235  31.789  27.616  1.00  0.00     0.029 A 
ATOM     61  C   UNL A   1      44.993  31.578  28.194  1.00  0.00     0.049 A 
ATOM     62  H   UNL A   1      43.857  29.801  28.288  1.00  0.00     0.167 HD
ATOM     63  C   UNL A   1      42.938  32.227  29.416  1.00  0.00     0.074 A 
ATOM     64  C   UNL A   1      42.100  33.179  30.113  1.00  0.00     0.031 C 
ATOM     65  C   UNL A   1      44.152  32.521  28.888  1.00  0.00     0.037 A 
BRANCH  52  66
ATOM     66  C   UNL A   1      46.969  27.688  26.270  1.00  0.00     0.064 A 
ATOM     67  C   UNL A   1      48.045  27.169  27.009  1.00  0.00     0.173 A 
ATOM     68  C   UNL A   1      47.054  27.638  24.871  1.00  0.00     0.173 A 
ATOM     69  F   UNL A   1      48.018  27.195  28.351  1.00  0.00    -0.203 F 
ATOM     70  C   UNL A   1      49.169  26.650  26.372  1.00  0.00     0.198 A 
ATOM     71  C   UNL A   1      48.166  27.089  24.238  1.00  0.00     0.198 A 
ATOM     72  F   UNL A   1      46.051  28.110  24.115  1.00  0.00    -0.203 F 
ATOM     73  F   UNL A   1      50.203  26.204  27.099  1.00  0.00    -0.200 F 
ATOM     74  C   UNL A   1      49.225  26.603  24.988  1.00  0.00     0.200 A 
ATOM     75  F   UNL A   1      48.210  27.027  22.900  1.00  0.00    -0.200 F 
ATOM     76  F   UNL A   1      50.302  26.091  24.375  1.00  0.00    -0.200 F 
ENDBRANCH  52  66
BRANCH  53  77
ATOM     77  C   UNL A   1      38.767  30.766  31.034  1.00  0.00     0.064 A 
ATOM     78  C   UNL A   1      38.690  30.730  32.433  1.00  0.00     0.173 A 
ATOM     79  C   UNL A   1      37.653  31.249  30.332  1.00  0.00     0.173 A 
ATOM     80  F   UNL A   1      39.722  30.257  33.149  1.00  0.00    -0.203 F 
ATOM     81  C   UNL A   1      37.538  31.139  33.101  1.00  0.00     0.198 A 
ATOM     82  C   UNL A   1      36.514  31.686  31.002  1.00  0.00     0.198 A 
ATOM     83  F   UNL A   1      37.677  31.306  28.992  1.00  0.00    -0.203 F 
ATOM     84  F   UNL A   1      37.472  31.046  34.437  1.00  0.00    -0.200 F 
ATOM     85  C   UNL A   1      36.453  31.622  32.386  1.00  0.00     0.200 A 
ATOM     86  F   UNL A   1      35.474  32.166  30.308  1.00  0.00    -0.200 F 
ATOM     87  F   UNL A   1      35.346  32.018  33.029  1.00  0.00    -0.200 F 
ENDBRANCH  53  77
BRANCH  65  88
ATOM     88  C   UNL A   1      44.639  33.938  29.011  1.00  0.00     0.064 A 
ATOM     89  C   UNL A   1      44.354  34.906  28.035  1.00  0.00     0.173 A 
ATOM     90  C   UNL A   1      45.367  34.344  30.140  1.00  0.00     0.173 A 
ATOM     91  F   UNL A   1      43.672  34.570  26.929  1.00  0.00    -0.203 F 
ATOM     92  C   UNL A   1      44.808  36.217  28.171  1.00  0.00     0.198 A 
ATOM     93  C   UNL A   1      45.788  35.662  30.290  1.00  0.00     0.198 A 
ATOM     94  F   UNL A   1      45.660  33.463  31.109  1.00  0.00    -0.203 F 
ATOM     95  F   UNL A   1      44.570  37.109  27.200  1.00  0.00    -0.200 F 
ATOM     96  C   UNL A   1      45.517  36.595  29.301  1.00  0.00     0.200 A 
ATOM     97  F   UNL A   1      46.458  36.030  31.391  1.00  0.00    -0.200 F 
ATOM     98  F   UNL A   1      45.944  37.858  29.434  1.00  0.00    -0.200 F 
ENDBRANCH  65  88
ENDBRANCH  39  40
ENDBRANCH  32  34
ENDBRANCH  31  32
ENDBRANCH  30  31
ENDBRANCH  29  30
ENDBRANCH  28  29
ENDBRANCH  27  28
ENDBRANCH   1  27
TORSDOF 20
ENDMDL
