MODEL 1
REMARK VINA RESULT:     -11.0      0.000      0.000
REMARK SMILES CC(=O)NCCNC(=O)C[N@H+]1CC[C@@H](C(=O)OCCOCCOC(=O)c2ccc(-c3c4nc(c(-c5c(F)c(F)c(F)c(F)c5F)c5ccc([nH]5)c(-c5c(F)c(F)c(F)c(F)c5F)c5nc(c(-c6c(F)c(F)c(F)c(F)c6F)c6ccc3[nH]6)C=C5)C=C4)cc2)[C@H]1C
REMARK SMILES IDX 18 1 17 2 15 3 16 4 14 5 11 6 12 7 89 8 13 10 90 11 10 12
REMARK SMILES IDX 8 13 7 14 9 16 6 17 5 18 4 19 1 20 2 21 3 22 19 24 20 25
REMARK SMILES IDX 21 26 22 27 23 28 24 29 25 30 26 31 27 32 88 33 28 34 87 35
REMARK SMILES IDX 29 36 30 37 31 38 81 39 32 40 86 41 80 42 82 43 33 44 85 45
REMARK SMILES IDX 79 46 78 47 34 49 66 50 46 51 65 52 47 53 50 54 64 55 83 56
REMARK SMILES IDX 48 57 49 58 63 60 84 61 51 62 35 63 36 64 44 65 37 66 38 67
REMARK SMILES IDX 42 68 45 69 39 70 40 71 43 72 41 73 67 74 68 75 76 76 69 77
REMARK SMILES IDX 70 78 74 79 77 80 71 81 72 82 75 83 73 84 52 85 53 86 61 87
REMARK SMILES IDX 54 88 55 89 59 90 62 91 56 92 57 93 60 94 58 95
REMARK H PARENT 11 9 7 15 4 23 82 48 50 59
REMARK Flexibility Score: inf
ROOT
ATOM      1  C   UNL A   1      39.656  21.045  26.655  1.00  0.00     0.261 C 
ENDROOT
BRANCH   1   2
ATOM      2  O   UNL A   1      39.138  21.566  25.417  1.00  0.00    -0.463 OA
BRANCH   2   3
ATOM      3  C   UNL A   1      38.174  22.507  25.533  1.00  0.00     0.315 C 
ATOM      4  O   UNL A   1      38.222  23.459  26.303  1.00  0.00    -0.252 OA
BRANCH   3   5
ATOM      5  C   UNL A   1      36.975  22.259  24.646  1.00  0.00     0.162 C 
ATOM      6  N   UNL A   1      34.724  21.866  24.061  1.00  0.00    -0.324 N 
ATOM      7  C   UNL A   1      35.158  23.121  23.436  1.00  0.00     0.264 C 
ATOM      8  C   UNL A   1      35.739  21.435  25.064  1.00  0.00     0.195 C 
ATOM      9  H   UNL A   1      34.713  21.106  23.381  1.00  0.00     0.348 HD
ATOM     10  C   UNL A   1      36.388  23.572  24.186  1.00  0.00     0.083 C 
ATOM     11  C   UNL A   1      35.297  21.539  26.527  1.00  0.00     0.076 C 
BRANCH   6  12
ATOM     12  C   UNL A   1      33.300  21.849  24.424  1.00  0.00     0.363 C 
BRANCH  12  13
ATOM     13  C   UNL A   1      32.536  20.783  23.635  1.00  0.00     0.275 C 
ATOM     14  N   UNL A   1      32.458  19.510  24.138  1.00  0.00    -0.349 N 
ATOM     15  H   UNL A   1      32.147  18.817  23.513  1.00  0.00     0.163 HD
ATOM     16  O   UNL A   1      32.037  21.019  22.534  1.00  0.00    -0.269 OA
BRANCH  14  17
ATOM     17  C   UNL A   1      32.782  19.058  25.485  1.00  0.00     0.137 C 
BRANCH  17  18
ATOM     18  C   UNL A   1      32.471  17.566  25.652  1.00  0.00     0.137 C 
BRANCH  18  19
ATOM     19  N   UNL A   1      33.692  16.813  25.897  1.00  0.00    -0.355 N 
ATOM     20  C   UNL A   1      34.145  16.302  23.531  1.00  0.00     0.114 C 
ATOM     21  C   UNL A   1      34.459  16.137  24.993  1.00  0.00     0.216 C 
ATOM     22  O   UNL A   1      35.383  15.431  25.386  1.00  0.00    -0.275 OA
ATOM     23  H   UNL A   1      34.003  16.788  26.831  1.00  0.00     0.163 HD
ENDBRANCH  18  19
ENDBRANCH  17  18
ENDBRANCH  14  17
ENDBRANCH  12  13
ENDBRANCH   6  12
ENDBRANCH   3   5
ENDBRANCH   2   3
ENDBRANCH   1   2
BRANCH   1  24
ATOM     24  C   UNL A   1      41.125  21.443  26.821  1.00  0.00     0.202 C 
BRANCH  24  25
ATOM     25  O   UNL A   1      41.779  21.917  25.646  1.00  0.00    -0.374 OA
BRANCH  25  26
ATOM     26  C   UNL A   1      43.184  22.160  25.728  1.00  0.00     0.202 C 
BRANCH  26  27
ATOM     27  C   UNL A   1      43.799  22.998  24.599  1.00  0.00     0.261 C 
BRANCH  27  28
ATOM     28  O   UNL A   1      43.269  24.337  24.576  1.00  0.00    -0.460 OA
BRANCH  28  29
ATOM     29  C   UNL A   1      44.060  25.275  25.145  1.00  0.00     0.338 C 
ATOM     30  O   UNL A   1      45.184  25.606  24.793  1.00  0.00    -0.246 OA
BRANCH  29  31
ATOM     31  C   UNL A   1      43.302  26.028  26.165  1.00  0.00     0.060 A 
ATOM     32  C   UNL A   1      43.757  27.315  26.481  1.00  0.00     0.016 A 
ATOM     33  C   UNL A   1      42.206  25.483  26.838  1.00  0.00     0.016 A 
ATOM     34  C   UNL A   1      43.161  28.038  27.512  1.00  0.00     0.010 A 
ATOM     35  C   UNL A   1      41.611  26.210  27.878  1.00  0.00     0.010 A 
ATOM     36  C   UNL A   1      42.111  27.472  28.248  1.00  0.00    -0.014 A 
BRANCH  36  37
ATOM     37  C   UNL A   1      41.656  28.135  29.496  1.00  0.00     0.031 A 
ATOM     38  C   UNL A   1      40.422  28.997  29.454  1.00  0.00     0.074 A 
ATOM     39  C   UNL A   1      42.295  27.936  30.663  1.00  0.00     0.049 A 
ATOM     40  N   UNL A   1      39.859  29.692  30.410  1.00  0.00    -0.248 NA
ATOM     41  C   UNL A   1      39.728  29.086  28.159  1.00  0.00     0.031 C 
ATOM     42  C   UNL A   1      43.468  27.085  30.848  1.00  0.00     0.029 A 
ATOM     43  N   UNL A   1      42.045  28.442  31.915  1.00  0.00    -0.354 N 
ATOM     44  C   UNL A   1      38.752  30.301  29.832  1.00  0.00     0.074 A 
ATOM     45  C   UNL A   1      38.742  29.925  28.435  1.00  0.00     0.031 C 
ATOM     46  C   UNL A   1      43.842  27.133  32.140  1.00  0.00     0.029 A 
ATOM     47  C   UNL A   1      42.957  28.046  32.862  1.00  0.00     0.049 A 
ATOM     48  H   UNL A   1      41.283  29.034  32.114  1.00  0.00     0.167 HD
ATOM     49  C   UNL A   1      37.819  31.091  30.416  1.00  0.00     0.037 A 
ATOM     50  C   UNL A   1      43.076  28.400  34.157  1.00  0.00     0.037 A 
ATOM     51  C   UNL A   1      37.825  31.464  31.806  1.00  0.00     0.049 A 
ATOM     52  C   UNL A   1      42.076  29.355  34.760  1.00  0.00     0.074 A 
ATOM     53  C   UNL A   1      36.919  32.255  32.491  1.00  0.00     0.029 A 
ATOM     54  N   UNL A   1      38.790  31.077  32.723  1.00  0.00    -0.354 N 
ATOM     55  N   UNL A   1      41.021  29.909  34.211  1.00  0.00    -0.248 NA
ATOM     56  C   UNL A   1      42.282  29.731  36.167  1.00  0.00     0.031 C 
ATOM     57  C   UNL A   1      37.366  32.392  33.808  1.00  0.00     0.029 A 
ATOM     58  C   UNL A   1      38.515  31.634  33.962  1.00  0.00     0.049 A 
ATOM     59  H   UNL A   1      39.557  30.491  32.524  1.00  0.00     0.167 HD
ATOM     60  C   UNL A   1      40.422  30.665  35.212  1.00  0.00     0.074 A 
ATOM     61  C   UNL A   1      41.220  30.488  36.405  1.00  0.00     0.031 C 
ATOM     62  C   UNL A   1      39.308  31.435  35.148  1.00  0.00     0.037 A 
BRANCH  49  63
ATOM     63  C   UNL A   1      36.717  31.627  29.548  1.00  0.00     0.064 A 
ATOM     64  C   UNL A   1      35.675  30.808  29.088  1.00  0.00     0.173 A 
ATOM     65  C   UNL A   1      36.672  32.991  29.220  1.00  0.00     0.173 A 
ATOM     66  F   UNL A   1      35.678  29.494  29.363  1.00  0.00    -0.203 F 
ATOM     67  C   UNL A   1      34.643  31.329  28.313  1.00  0.00     0.198 A 
ATOM     68  C   UNL A   1      35.622  33.515  28.472  1.00  0.00     0.198 A 
ATOM     69  F   UNL A   1      37.640  33.820  29.639  1.00  0.00    -0.203 F 
ATOM     70  F   UNL A   1      33.681  30.519  27.849  1.00  0.00    -0.200 F 
ATOM     71  C   UNL A   1      34.611  32.682  28.015  1.00  0.00     0.200 A 
ATOM     72  F   UNL A   1      35.584  34.826  28.198  1.00  0.00    -0.200 F 
ATOM     73  F   UNL A   1      33.607  33.186  27.281  1.00  0.00    -0.200 F 
ENDBRANCH  49  63
BRANCH  50  74
ATOM     74  C   UNL A   1      44.198  27.869  34.980  1.00  0.00     0.064 A 
ATOM     75  C   UNL A   1      44.085  26.646  35.657  1.00  0.00     0.173 A 
ATOM     76  C   UNL A   1      45.385  28.598  35.147  1.00  0.00     0.173 A 
ATOM     77  F   UNL A   1      42.960  25.924  35.552  1.00  0.00    -0.203 F 
ATOM     78  C   UNL A   1      45.103  26.188  36.491  1.00  0.00     0.198 A 
ATOM     79  C   UNL A   1      46.416  28.121  35.954  1.00  0.00     0.198 A 
ATOM     80  F   UNL A   1      45.544  29.775  34.526  1.00  0.00    -0.203 F 
ATOM     81  F   UNL A   1      44.943  25.047  37.175  1.00  0.00    -0.200 F 
ATOM     82  C   UNL A   1      46.270  26.924  36.636  1.00  0.00     0.200 A 
ATOM     83  F   UNL A   1      47.546  28.831  36.080  1.00  0.00    -0.200 F 
ATOM     84  F   UNL A   1      47.246  26.484  37.441  1.00  0.00    -0.200 F 
ENDBRANCH  50  74
BRANCH  62  85
ATOM     85  C   UNL A   1      38.850  32.106  36.414  1.00  0.00     0.064 A 
ATOM     86  C   UNL A   1      39.214  33.424  36.728  1.00  0.00     0.173 A 
ATOM     87  C   UNL A   1      37.998  31.431  37.304  1.00  0.00     0.173 A 
ATOM     88  F   UNL A   1      40.036  34.108  35.919  1.00  0.00    -0.203 F 
ATOM     89  C   UNL A   1      38.765  34.031  37.898  1.00  0.00     0.198 A 
ATOM     90  C   UNL A   1      37.524  32.054  38.455  1.00  0.00     0.198 A 
ATOM     91  F   UNL A   1      37.612  30.173  37.048  1.00  0.00    -0.203 F 
ATOM     92  F   UNL A   1      39.168  35.273  38.203  1.00  0.00    -0.200 F 
ATOM     93  C   UNL A   1      37.914  33.350  38.756  1.00  0.00     0.200 A 
ATOM     94  F   UNL A   1      36.688  31.399  39.273  1.00  0.00    -0.200 F 
ATOM     95  F   UNL A   1      37.476  33.939  39.877  1.00  0.00    -0.200 F 
ENDBRANCH  62  85
ENDBRANCH  36  37
ENDBRANCH  29  31
ENDBRANCH  28  29
ENDBRANCH  27  28
ENDBRANCH  26  27
ENDBRANCH  25  26
ENDBRANCH  24  25
ENDBRANCH   1  24
TORSDOF 19
ENDMDL
MODEL 2
REMARK VINA RESULT:     -11.0      0.895      7.484
REMARK SMILES CC(=O)NCCNC(=O)C[N@H+]1CC[C@@H](C(=O)OCCOCCOC(=O)c2ccc(-c3c4nc(c(-c5c(F)c(F)c(F)c(F)c5F)c5ccc([nH]5)c(-c5c(F)c(F)c(F)c(F)c5F)c5nc(c(-c6c(F)c(F)c(F)c(F)c6F)c6ccc3[nH]6)C=C5)C=C4)cc2)[C@H]1C
REMARK SMILES IDX 18 1 17 2 15 3 16 4 14 5 11 6 12 7 89 8 13 10 90 11 10 12
REMARK SMILES IDX 8 13 7 14 9 16 6 17 5 18 4 19 1 20 2 21 3 22 19 24 20 25
REMARK SMILES IDX 21 26 22 27 23 28 24 29 25 30 26 31 27 32 88 33 28 34 87 35
REMARK SMILES IDX 29 36 30 37 31 38 81 39 32 40 86 41 80 42 82 43 33 44 85 45
REMARK SMILES IDX 79 46 78 47 34 49 66 50 46 51 65 52 47 53 50 54 64 55 83 56
REMARK SMILES IDX 48 57 49 58 63 60 84 61 51 62 35 63 36 64 44 65 37 66 38 67
REMARK SMILES IDX 42 68 45 69 39 70 40 71 43 72 41 73 67 74 68 75 76 76 69 77
REMARK SMILES IDX 70 78 74 79 77 80 71 81 72 82 75 83 73 84 52 85 53 86 61 87
REMARK SMILES IDX 54 88 55 89 59 90 62 91 56 92 57 93 60 94 58 95
REMARK H PARENT 11 9 7 15 4 23 82 48 50 59
REMARK Flexibility Score: inf
ROOT
ATOM      1  C   UNL A   1      40.221  21.414  25.901  1.00  0.00     0.261 C 
ENDROOT
BRANCH   1   2
ATOM      2  O   UNL A   1      38.805  21.340  26.148  1.00  0.00    -0.463 OA
BRANCH   2   3
ATOM      3  C   UNL A   1      38.082  22.413  25.755  1.00  0.00     0.315 C 
ATOM      4  O   UNL A   1      38.313  23.567  26.094  1.00  0.00    -0.252 OA
BRANCH   3   5
ATOM      5  C   UNL A   1      36.902  22.061  24.878  1.00  0.00     0.162 C 
ATOM      6  N   UNL A   1      34.653  21.688  24.274  1.00  0.00    -0.324 N 
ATOM      7  C   UNL A   1      35.191  22.765  23.434  1.00  0.00     0.264 C 
ATOM      8  C   UNL A   1      35.600  21.410  25.390  1.00  0.00     0.195 C 
ATOM      9  H   UNL A   1      34.616  20.809  23.759  1.00  0.00     0.348 HD
ATOM     10  C   UNL A   1      36.420  23.286  24.139  1.00  0.00     0.083 C 
ATOM     11  C   UNL A   1      35.113  21.832  26.780  1.00  0.00     0.076 C 
BRANCH   6  12
ATOM     12  C   UNL A   1      33.219  21.827  24.563  1.00  0.00     0.363 C 
BRANCH  12  13
ATOM     13  C   UNL A   1      32.364  21.399  23.368  1.00  0.00     0.275 C 
ATOM     14  N   UNL A   1      32.290  20.069  23.044  1.00  0.00    -0.349 N 
ATOM     15  H   UNL A   1      31.910  19.861  22.160  1.00  0.00     0.163 HD
ATOM     16  O   UNL A   1      31.787  22.219  22.653  1.00  0.00    -0.269 OA
BRANCH  14  17
ATOM     17  C   UNL A   1      32.705  18.927  23.847  1.00  0.00     0.137 C 
BRANCH  17  18
ATOM     18  C   UNL A   1      32.834  17.667  22.983  1.00  0.00     0.137 C 
BRANCH  18  19
ATOM     19  N   UNL A   1      33.920  16.826  23.463  1.00  0.00    -0.355 N 
ATOM     20  C   UNL A   1      32.829  16.202  25.582  1.00  0.00     0.114 C 
ATOM     21  C   UNL A   1      34.026  16.198  24.670  1.00  0.00     0.216 C 
ATOM     22  O   UNL A   1      35.076  15.641  24.976  1.00  0.00    -0.275 OA
ATOM     23  H   UNL A   1      34.671  16.693  22.841  1.00  0.00     0.163 HD
ENDBRANCH  18  19
ENDBRANCH  17  18
ENDBRANCH  14  17
ENDBRANCH  12  13
ENDBRANCH   6  12
ENDBRANCH   3   5
ENDBRANCH   2   3
ENDBRANCH   1   2
BRANCH   1  24
ATOM     24  C   UNL A   1      40.911  20.143  26.403  1.00  0.00     0.202 C 
BRANCH  24  25
ATOM     25  O   UNL A   1      42.326  20.092  26.230  1.00  0.00    -0.374 OA
BRANCH  25  26
ATOM     26  C   UNL A   1      43.051  21.313  26.383  1.00  0.00     0.202 C 
BRANCH  26  27
ATOM     27  C   UNL A   1      43.714  21.877  25.118  1.00  0.00     0.261 C 
BRANCH  27  28
ATOM     28  O   UNL A   1      43.106  23.115  24.702  1.00  0.00    -0.460 OA
BRANCH  28  29
ATOM     29  C   UNL A   1      43.839  24.224  24.952  1.00  0.00     0.338 C 
ATOM     30  O   UNL A   1      44.879  24.561  24.403  1.00  0.00    -0.246 OA
BRANCH  29  31
ATOM     31  C   UNL A   1      43.104  25.122  25.866  1.00  0.00     0.060 A 
ATOM     32  C   UNL A   1      43.646  26.396  26.084  1.00  0.00     0.016 A 
ATOM     33  C   UNL A   1      41.945  24.725  26.536  1.00  0.00     0.016 A 
ATOM     34  C   UNL A   1      43.070  27.254  27.019  1.00  0.00     0.010 A 
ATOM     35  C   UNL A   1      41.371  25.587  27.480  1.00  0.00     0.010 A 
ATOM     36  C   UNL A   1      41.953  26.838  27.756  1.00  0.00    -0.014 A 
BRANCH  36  37
ATOM     37  C   UNL A   1      41.506  27.646  28.918  1.00  0.00     0.031 A 
ATOM     38  C   UNL A   1      42.266  27.540  30.215  1.00  0.00     0.074 A 
ATOM     39  C   UNL A   1      40.472  28.500  28.816  1.00  0.00     0.049 A 
ATOM     40  N   UNL A   1      42.041  28.128  31.362  1.00  0.00    -0.248 NA
ATOM     41  C   UNL A   1      43.442  26.654  30.214  1.00  0.00     0.031 C 
ATOM     42  C   UNL A   1      39.687  28.734  27.606  1.00  0.00     0.029 A 
ATOM     43  N   UNL A   1      39.904  29.330  29.752  1.00  0.00    -0.354 N 
ATOM     44  C   UNL A   1      43.040  27.680  32.218  1.00  0.00     0.074 A 
ATOM     45  C   UNL A   1      43.852  26.744  31.470  1.00  0.00     0.031 C 
ATOM     46  C   UNL A   1      38.732  29.643  27.875  1.00  0.00     0.029 A 
ATOM     47  C   UNL A   1      38.817  30.026  29.284  1.00  0.00     0.049 A 
ATOM     48  H   UNL A   1      40.244  29.416  30.672  1.00  0.00     0.167 HD
ATOM     49  C   UNL A   1      43.269  28.027  33.507  1.00  0.00     0.037 A 
ATOM     50  C   UNL A   1      37.973  30.858  29.927  1.00  0.00     0.037 A 
ATOM     51  C   UNL A   1      42.465  28.960  34.252  1.00  0.00     0.049 A 
ATOM     52  C   UNL A   1      38.197  31.157  31.388  1.00  0.00     0.074 A 
ATOM     53  C   UNL A   1      42.623  29.381  35.561  1.00  0.00     0.029 A 
ATOM     54  N   UNL A   1      41.347  29.612  33.755  1.00  0.00    -0.354 N 
ATOM     55  N   UNL A   1      39.156  30.745  32.183  1.00  0.00    -0.248 NA
ATOM     56  C   UNL A   1      37.222  32.042  32.042  1.00  0.00     0.031 C 
ATOM     57  C   UNL A   1      41.568  30.243  35.874  1.00  0.00     0.029 A 
ATOM     58  C   UNL A   1      40.790  30.412  34.740  1.00  0.00     0.049 A 
ATOM     59  H   UNL A   1      41.000  29.520  32.837  1.00  0.00     0.167 HD
ATOM     60  C   UNL A   1      38.920  31.348  33.413  1.00  0.00     0.074 A 
ATOM     61  C   UNL A   1      37.736  32.166  33.257  1.00  0.00     0.031 C 
ATOM     62  C   UNL A   1      39.621  31.236  34.568  1.00  0.00     0.037 A 
BRANCH  49  63
ATOM     63  C   UNL A   1      44.429  27.381  34.208  1.00  0.00     0.064 A 
ATOM     64  C   UNL A   1      45.674  28.019  34.318  1.00  0.00     0.173 A 
ATOM     65  C   UNL A   1      44.277  26.131  34.827  1.00  0.00     0.173 A 
ATOM     66  F   UNL A   1      45.876  29.210  33.732  1.00  0.00    -0.203 F 
ATOM     67  C   UNL A   1      46.729  27.420  35.002  1.00  0.00     0.198 A 
ATOM     68  C   UNL A   1      45.323  25.550  35.537  1.00  0.00     0.198 A 
ATOM     69  F   UNL A   1      43.106  25.480  34.758  1.00  0.00    -0.203 F 
ATOM     70  F   UNL A   1      47.921  28.030  35.057  1.00  0.00    -0.200 F 
ATOM     71  C   UNL A   1      46.550  26.192  35.619  1.00  0.00     0.200 A 
ATOM     72  F   UNL A   1      45.144  24.370  36.148  1.00  0.00    -0.200 F 
ATOM     73  F   UNL A   1      47.562  25.624  36.291  1.00  0.00    -0.200 F 
ENDBRANCH  49  63
BRANCH  50  74
ATOM     74  C   UNL A   1      36.818  31.460  29.206  1.00  0.00     0.064 A 
ATOM     75  C   UNL A   1      36.786  32.828  28.902  1.00  0.00     0.173 A 
ATOM     76  C   UNL A   1      35.701  30.688  28.852  1.00  0.00     0.173 A 
ATOM     77  F   UNL A   1      37.817  33.614  29.244  1.00  0.00    -0.203 F 
ATOM     78  C   UNL A   1      35.670  33.406  28.299  1.00  0.00     0.198 A 
ATOM     79  C   UNL A   1      34.601  31.262  28.218  1.00  0.00     0.198 A 
ATOM     80  F   UNL A   1      35.678  29.375  29.122  1.00  0.00    -0.203 F 
ATOM     81  F   UNL A   1      35.641  34.727  28.077  1.00  0.00    -0.200 F 
ATOM     82  C   UNL A   1      34.580  32.621  27.953  1.00  0.00     0.200 A 
ATOM     83  F   UNL A   1      33.555  30.496  27.874  1.00  0.00    -0.200 F 
ATOM     84  F   UNL A   1      33.506  33.179  27.377  1.00  0.00    -0.200 F 
ENDBRANCH  50  74
BRANCH  62  85
ATOM     85  C   UNL A   1      39.165  32.055  35.743  1.00  0.00     0.064 A 
ATOM     86  C   UNL A   1      38.309  31.531  36.724  1.00  0.00     0.173 A 
ATOM     87  C   UNL A   1      39.628  33.370  35.912  1.00  0.00     0.173 A 
ATOM     88  F   UNL A   1      37.827  30.285  36.604  1.00  0.00    -0.203 F 
ATOM     89  C   UNL A   1      37.912  32.302  37.814  1.00  0.00     0.198 A 
ATOM     90  C   UNL A   1      39.256  34.125  37.021  1.00  0.00     0.198 A 
ATOM     91  F   UNL A   1      40.455  33.917  35.010  1.00  0.00    -0.203 F 
ATOM     92  F   UNL A   1      37.052  31.798  38.710  1.00  0.00    -0.200 F 
ATOM     93  C   UNL A   1      38.392  33.595  37.966  1.00  0.00     0.200 A 
ATOM     94  F   UNL A   1      39.735  35.367  37.175  1.00  0.00    -0.200 F 
ATOM     95  F   UNL A   1      38.016  34.331  39.021  1.00  0.00    -0.200 F 
ENDBRANCH  62  85
ENDBRANCH  36  37
ENDBRANCH  29  31
ENDBRANCH  28  29
ENDBRANCH  27  28
ENDBRANCH  26  27
ENDBRANCH  25  26
ENDBRANCH  24  25
ENDBRANCH   1  24
TORSDOF 19
ENDMDL
MODEL 3
REMARK VINA RESULT:     -10.7      1.834      7.896
REMARK SMILES CC(=O)NCCNC(=O)C[N@H+]1CC[C@@H](C(=O)OCCOCCOC(=O)c2ccc(-c3c4nc(c(-c5c(F)c(F)c(F)c(F)c5F)c5ccc([nH]5)c(-c5c(F)c(F)c(F)c(F)c5F)c5nc(c(-c6c(F)c(F)c(F)c(F)c6F)c6ccc3[nH]6)C=C5)C=C4)cc2)[C@H]1C
REMARK SMILES IDX 18 1 17 2 15 3 16 4 14 5 11 6 12 7 89 8 13 10 90 11 10 12
REMARK SMILES IDX 8 13 7 14 9 16 6 17 5 18 4 19 1 20 2 21 3 22 19 24 20 25
REMARK SMILES IDX 21 26 22 27 23 28 24 29 25 30 26 31 27 32 88 33 28 34 87 35
REMARK SMILES IDX 29 36 30 37 31 38 81 39 32 40 86 41 80 42 82 43 33 44 85 45
REMARK SMILES IDX 79 46 78 47 34 49 66 50 46 51 65 52 47 53 50 54 64 55 83 56
REMARK SMILES IDX 48 57 49 58 63 60 84 61 51 62 35 63 36 64 44 65 37 66 38 67
REMARK SMILES IDX 42 68 45 69 39 70 40 71 43 72 41 73 67 74 68 75 76 76 69 77
REMARK SMILES IDX 70 78 74 79 77 80 71 81 72 82 75 83 73 84 52 85 53 86 61 87
REMARK SMILES IDX 54 88 55 89 59 90 62 91 56 92 57 93 60 94 58 95
REMARK H PARENT 11 9 7 15 4 23 82 48 50 59
REMARK Flexibility Score: inf
ROOT
ATOM      1  C   UNL A   1      40.160  21.390  25.868  1.00  0.00     0.261 C 
ENDROOT
BRANCH   1   2
ATOM      2  O   UNL A   1      38.743  21.362  26.123  1.00  0.00    -0.463 OA
BRANCH   2   3
ATOM      3  C   UNL A   1      38.056  22.465  25.753  1.00  0.00     0.315 C 
ATOM      4  O   UNL A   1      38.323  23.604  26.118  1.00  0.00    -0.252 OA
BRANCH   3   5
ATOM      5  C   UNL A   1      36.867  22.171  24.867  1.00  0.00     0.162 C 
ATOM      6  N   UNL A   1      34.618  22.129  24.156  1.00  0.00    -0.324 N 
ATOM      7  C   UNL A   1      35.410  22.865  23.163  1.00  0.00     0.264 C 
ATOM      8  C   UNL A   1      35.435  21.921  25.385  1.00  0.00     0.195 C 
ATOM      9  H   UNL A   1      34.417  21.184  23.833  1.00  0.00     0.348 HD
ATOM     10  C   UNL A   1      36.690  23.273  23.851  1.00  0.00     0.083 C 
ATOM     11  C   UNL A   1      34.990  22.727  26.610  1.00  0.00     0.076 C 
BRANCH   6  12
ATOM     12  C   UNL A   1      33.236  22.611  24.283  1.00  0.00     0.363 C 
BRANCH  12  13
ATOM     13  C   UNL A   1      32.542  22.681  22.920  1.00  0.00     0.275 C 
ATOM     14  N   UNL A   1      32.117  23.897  22.451  1.00  0.00    -0.349 N 
ATOM     15  H   UNL A   1      31.499  23.872  21.685  1.00  0.00     0.163 HD
ATOM     16  O   UNL A   1      32.303  21.670  22.258  1.00  0.00    -0.269 OA
BRANCH  14  17
ATOM     17  C   UNL A   1      32.467  25.220  22.948  1.00  0.00     0.137 C 
BRANCH  17  18
ATOM     18  C   UNL A   1      31.755  26.314  22.143  1.00  0.00     0.137 C 
BRANCH  18  19
ATOM     19  N   UNL A   1      31.540  27.497  22.964  1.00  0.00    -0.355 N 
ATOM     20  C   UNL A   1      33.772  28.467  22.583  1.00  0.00     0.114 C 
ATOM     21  C   UNL A   1      32.439  28.474  23.280  1.00  0.00     0.216 C 
ATOM     22  O   UNL A   1      32.139  29.333  24.104  1.00  0.00    -0.275 OA
ATOM     23  H   UNL A   1      30.636  27.605  23.337  1.00  0.00     0.163 HD
ENDBRANCH  18  19
ENDBRANCH  17  18
ENDBRANCH  14  17
ENDBRANCH  12  13
ENDBRANCH   6  12
ENDBRANCH   3   5
ENDBRANCH   2   3
ENDBRANCH   1   2
BRANCH   1  24
ATOM     24  C   UNL A   1      40.802  20.073  26.309  1.00  0.00     0.202 C 
BRANCH  24  25
ATOM     25  O   UNL A   1      42.224  20.010  26.215  1.00  0.00    -0.374 OA
BRANCH  25  26
ATOM     26  C   UNL A   1      42.948  21.230  26.379  1.00  0.00     0.202 C 
BRANCH  26  27
ATOM     27  C   UNL A   1      43.640  21.787  25.127  1.00  0.00     0.261 C 
BRANCH  27  28
ATOM     28  O   UNL A   1      43.044  23.023  24.689  1.00  0.00    -0.460 OA
BRANCH  28  29
ATOM     29  C   UNL A   1      43.788  24.128  24.918  1.00  0.00     0.338 C 
ATOM     30  O   UNL A   1      44.825  24.451  24.354  1.00  0.00    -0.246 OA
BRANCH  29  31
ATOM     31  C   UNL A   1      43.071  25.044  25.829  1.00  0.00     0.060 A 
ATOM     32  C   UNL A   1      43.638  26.307  26.046  1.00  0.00     0.016 A 
ATOM     33  C   UNL A   1      41.902  24.672  26.497  1.00  0.00     0.016 A 
ATOM     34  C   UNL A   1      43.079  27.179  26.977  1.00  0.00     0.010 A 
ATOM     35  C   UNL A   1      41.344  25.548  27.438  1.00  0.00     0.010 A 
ATOM     36  C   UNL A   1      41.952  26.787  27.712  1.00  0.00    -0.014 A 
BRANCH  36  37
ATOM     37  C   UNL A   1      41.518  27.607  28.872  1.00  0.00     0.031 A 
ATOM     38  C   UNL A   1      42.293  27.512  30.161  1.00  0.00     0.074 A 
ATOM     39  C   UNL A   1      40.486  28.463  28.774  1.00  0.00     0.049 A 
ATOM     40  N   UNL A   1      42.082  28.110  31.306  1.00  0.00    -0.248 NA
ATOM     41  C   UNL A   1      43.467  26.623  30.156  1.00  0.00     0.031 C 
ATOM     42  C   UNL A   1      39.688  28.687  27.570  1.00  0.00     0.029 A 
ATOM     43  N   UNL A   1      39.930  29.302  29.708  1.00  0.00    -0.354 N 
ATOM     44  C   UNL A   1      43.089  27.668  32.155  1.00  0.00     0.074 A 
ATOM     45  C   UNL A   1      43.891  26.723  31.406  1.00  0.00     0.031 C 
ATOM     46  C   UNL A   1      38.738  29.600  27.842  1.00  0.00     0.029 A 
ATOM     47  C   UNL A   1      38.839  29.996  29.246  1.00  0.00     0.049 A 
ATOM     48  H   UNL A   1      40.280  29.396  30.623  1.00  0.00     0.167 HD
ATOM     49  C   UNL A   1      43.333  28.026  33.437  1.00  0.00     0.037 A 
ATOM     50  C   UNL A   1      38.004  30.836  29.890  1.00  0.00     0.037 A 
ATOM     51  C   UNL A   1      42.540  28.968  34.183  1.00  0.00     0.049 A 
ATOM     52  C   UNL A   1      38.245  31.147  31.346  1.00  0.00     0.074 A 
ATOM     53  C   UNL A   1      42.713  29.400  35.486  1.00  0.00     0.029 A 
ATOM     54  N   UNL A   1      41.417  29.617  33.693  1.00  0.00    -0.354 N 
ATOM     55  N   UNL A   1      39.212  30.741  32.134  1.00  0.00    -0.248 NA
ATOM     56  C   UNL A   1      37.278  32.041  32.003  1.00  0.00     0.031 C 
ATOM     57  C   UNL A   1      41.663  30.268  35.802  1.00  0.00     0.029 A 
ATOM     58  C   UNL A   1      40.872  30.427  34.676  1.00  0.00     0.049 A 
ATOM     59  H   UNL A   1      41.060  29.518  32.779  1.00  0.00     0.167 HD
ATOM     60  C   UNL A   1      38.990  31.356  33.361  1.00  0.00     0.074 A 
ATOM     61  C   UNL A   1      37.806  32.175  33.211  1.00  0.00     0.031 C 
ATOM     62  C   UNL A   1      39.704  31.253  34.509  1.00  0.00     0.037 A 
BRANCH  49  63
ATOM     63  C   UNL A   1      44.500  27.384  34.132  1.00  0.00     0.064 A 
ATOM     64  C   UNL A   1      44.375  26.157  34.801  1.00  0.00     0.173 A 
ATOM     65  C   UNL A   1      45.771  27.976  34.081  1.00  0.00     0.173 A 
ATOM     66  F   UNL A   1      43.178  25.555  34.891  1.00  0.00    -0.203 F 
ATOM     67  C   UNL A   1      45.474  25.558  35.411  1.00  0.00     0.198 A 
ATOM     68  C   UNL A   1      46.874  27.359  34.664  1.00  0.00     0.198 A 
ATOM     69  F   UNL A   1      45.947  29.146  33.449  1.00  0.00    -0.203 F 
ATOM     70  F   UNL A   1      45.322  24.407  36.080  1.00  0.00    -0.200 F 
ATOM     71  C   UNL A   1      46.723  26.153  35.333  1.00  0.00     0.200 A 
ATOM     72  F   UNL A   1      48.084  27.928  34.573  1.00  0.00    -0.200 F 
ATOM     73  F   UNL A   1      47.785  25.568  35.907  1.00  0.00    -0.200 F 
ENDBRANCH  49  63
BRANCH  50  74
ATOM     74  C   UNL A   1      36.842  31.433  29.176  1.00  0.00     0.064 A 
ATOM     75  C   UNL A   1      36.810  32.799  28.861  1.00  0.00     0.173 A 
ATOM     76  C   UNL A   1      35.720  30.661  28.841  1.00  0.00     0.173 A 
ATOM     77  F   UNL A   1      37.846  33.586  29.184  1.00  0.00    -0.203 F 
ATOM     78  C   UNL A   1      35.689  33.374  28.265  1.00  0.00     0.198 A 
ATOM     79  C   UNL A   1      34.614  31.231  28.214  1.00  0.00     0.198 A 
ATOM     80  F   UNL A   1      35.697  29.351  29.123  1.00  0.00    -0.203 F 
ATOM     81  F   UNL A   1      35.659  34.693  28.032  1.00  0.00    -0.200 F 
ATOM     82  C   UNL A   1      34.593  32.589  27.938  1.00  0.00     0.200 A 
ATOM     83  F   UNL A   1      33.564  30.464  27.889  1.00  0.00    -0.200 F 
ATOM     84  F   UNL A   1      33.514  33.144  27.368  1.00  0.00    -0.200 F 
ENDBRANCH  50  74
BRANCH  62  85
ATOM     85  C   UNL A   1      39.262  32.083  35.682  1.00  0.00     0.064 A 
ATOM     86  C   UNL A   1      39.661  33.419  35.837  1.00  0.00     0.173 A 
ATOM     87  C   UNL A   1      38.390  31.545  36.642  1.00  0.00     0.173 A 
ATOM     88  F   UNL A   1      40.503  33.979  34.955  1.00  0.00    -0.203 F 
ATOM     89  C   UNL A   1      39.226  34.176  36.922  1.00  0.00     0.198 A 
ATOM     90  C   UNL A   1      37.930  32.314  37.707  1.00  0.00     0.198 A 
ATOM     91  F   UNL A   1      37.970  30.276  36.538  1.00  0.00    -0.203 F 
ATOM     92  F   UNL A   1      39.662  35.434  37.077  1.00  0.00    -0.200 F 
ATOM     93  C   UNL A   1      38.355  33.626  37.852  1.00  0.00     0.200 A 
ATOM     94  F   UNL A   1      37.075  31.786  38.593  1.00  0.00    -0.200 F 
ATOM     95  F   UNL A   1      37.930  34.358  38.890  1.00  0.00    -0.200 F 
ENDBRANCH  62  85
ENDBRANCH  36  37
ENDBRANCH  29  31
ENDBRANCH  28  29
ENDBRANCH  27  28
ENDBRANCH  26  27
ENDBRANCH  25  26
ENDBRANCH  24  25
ENDBRANCH   1  24
TORSDOF 19
ENDMDL
