MODEL 1
REMARK VINA RESULT:     -11.7      0.000      0.000
REMARK SMILES C[C@@H]1[NH2+]CC[C@@H]1C(=O)Nc1ccccc1CC(=O)OCCOCCOC(=O)c1ccc(-c2c3nc(c(-c4c(F)c(F)c(F)c(F)c4F)c4ccc([nH]4)c(-c4c(F)c(F)c(F)c(F)c4F)c4nc(c(-c5c(F)c(F)c(F)c(F)c5F)c5ccc2[nH]5)C=C4)C=C3)cc1
REMARK SMILES IDX 21 1 20 2 19 3 17 4 18 5 16 6 15 7 10 8 11 9 12 10 14 11
REMARK SMILES IDX 13 12 9 13 7 14 8 15 6 17 1 18 2 19 3 20 4 21 5 24 22 25
REMARK SMILES IDX 23 26 24 27 25 28 26 29 27 30 28 31 29 32 90 33 30 34 89 35
REMARK SMILES IDX 31 36 32 37 33 38 83 39 34 40 88 41 82 42 84 43 35 44 87 45
REMARK SMILES IDX 81 46 80 47 36 49 68 50 48 51 67 52 49 53 52 54 66 55 85 56
REMARK SMILES IDX 50 57 51 58 65 60 86 61 53 62 37 63 38 64 46 65 39 66 40 67
REMARK SMILES IDX 44 68 47 69 41 70 42 71 45 72 43 73 69 74 70 75 78 76 71 77
REMARK SMILES IDX 72 78 76 79 79 80 73 81 74 82 77 83 75 84 54 85 55 86 63 87
REMARK SMILES IDX 56 88 57 89 61 90 64 91 58 92 59 93 62 94 60 95
REMARK H PARENT 9 16 3 22 3 23 84 48 52 59
REMARK Flexibility Score: inf
ROOT
ATOM      1  C   UNL A   1      34.948  22.359  25.346  1.00  0.00     0.202 C 
ENDROOT
BRANCH   1   2
ATOM      2  C   UNL A   1      35.552  23.441  24.439  1.00  0.00     0.261 C 
BRANCH   2   3
ATOM      3  O   UNL A   1      35.256  24.730  25.000  1.00  0.00    -0.463 OA
BRANCH   3   4
ATOM      4  C   UNL A   1      34.046  25.260  24.661  1.00  0.00     0.310 C 
ATOM      5  O   UNL A   1      33.514  25.109  23.571  1.00  0.00    -0.252 OA
BRANCH   4   6
ATOM      6  C   UNL A   1      33.392  25.799  25.914  1.00  0.00     0.160 C 
BRANCH   6   7
ATOM      7  C   UNL A   1      33.002  27.244  26.065  1.00  0.00    -0.013 A 
ATOM      8  C   UNL A   1      31.718  27.782  25.915  1.00  0.00     0.044 A 
ATOM      9  C   UNL A   1      31.555  29.175  25.965  1.00  0.00     0.026 A 
ATOM     10  C   UNL A   1      32.635  30.016  26.265  1.00  0.00     0.002 A 
ATOM     11  C   UNL A   1      34.056  28.100  26.462  1.00  0.00     0.006 A 
ATOM     12  C   UNL A   1      33.881  29.475  26.548  1.00  0.00     0.000 A 
BRANCH   8  13
ATOM     13  N   UNL A   1      30.695  27.009  25.364  1.00  0.00    -0.325 N 
ATOM     14  C   UNL A   1      30.401  26.656  24.091  1.00  0.00     0.233 C 
ATOM     15  O   UNL A   1      30.125  25.446  23.984  1.00  0.00    -0.274 OA
ATOM     16  H   UNL A   1      30.064  26.651  26.030  1.00  0.00     0.169 HD
BRANCH  14  17
ATOM     17  C   UNL A   1      30.372  27.519  22.811  1.00  0.00     0.142 C 
ATOM     18  C   UNL A   1      32.854  28.440  22.747  1.00  0.00     0.076 C 
ATOM     19  C   UNL A   1      31.477  28.366  22.144  1.00  0.00     0.192 C 
ATOM     20  N   UNL A   1      30.950  29.747  22.031  1.00  0.00    -0.343 N 
ATOM     21  C   UNL A   1      29.993  29.891  23.116  1.00  0.00     0.261 C 
ATOM     22  H   UNL A   1      30.490  29.880  21.130  1.00  0.00     0.346 HD
ATOM     23  H   UNL A   1      31.696  30.441  22.090  1.00  0.00     0.346 HD
ATOM     24  C   UNL A   1      29.253  28.579  23.023  1.00  0.00     0.081 C 
ENDBRANCH  14  17
ENDBRANCH   8  13
ENDBRANCH   6   7
ENDBRANCH   4   6
ENDBRANCH   3   4
ENDBRANCH   2   3
ENDBRANCH   1   2
BRANCH   1  25
ATOM     25  O   UNL A   1      35.861  21.390  25.878  1.00  0.00    -0.374 OA
BRANCH  25  26
ATOM     26  C   UNL A   1      36.377  20.389  25.001  1.00  0.00     0.202 C 
BRANCH  26  27
ATOM     27  C   UNL A   1      37.904  20.224  24.989  1.00  0.00     0.261 C 
BRANCH  27  28
ATOM     28  O   UNL A   1      38.551  21.416  25.462  1.00  0.00    -0.460 OA
BRANCH  28  29
ATOM     29  C   UNL A   1      39.706  21.214  26.123  1.00  0.00     0.338 C 
ATOM     30  O   UNL A   1      40.504  20.299  25.966  1.00  0.00    -0.246 OA
BRANCH  29  31
ATOM     31  C   UNL A   1      39.986  22.383  26.966  1.00  0.00     0.060 A 
ATOM     32  C   UNL A   1      39.308  23.567  26.661  1.00  0.00     0.016 A 
ATOM     33  C   UNL A   1      40.993  22.361  27.935  1.00  0.00     0.016 A 
ATOM     34  C   UNL A   1      39.691  24.758  27.269  1.00  0.00     0.010 A 
ATOM     35  C   UNL A   1      41.381  23.562  28.542  1.00  0.00     0.010 A 
ATOM     36  C   UNL A   1      40.772  24.771  28.162  1.00  0.00    -0.014 A 
BRANCH  36  37
ATOM     37  C   UNL A   1      41.381  26.087  28.475  1.00  0.00     0.031 A 
ATOM     38  C   UNL A   1      42.762  26.379  27.951  1.00  0.00     0.074 A 
ATOM     39  C   UNL A   1      40.678  27.049  29.096  1.00  0.00     0.049 A 
ATOM     40  N   UNL A   1      43.423  27.508  27.930  1.00  0.00    -0.248 NA
ATOM     41  C   UNL A   1      43.491  25.245  27.362  1.00  0.00     0.031 C 
ATOM     42  C   UNL A   1      39.332  26.893  29.638  1.00  0.00     0.029 A 
ATOM     43  N   UNL A   1      41.001  28.358  29.355  1.00  0.00    -0.354 N 
ATOM     44  C   UNL A   1      44.635  27.223  27.315  1.00  0.00     0.074 A 
ATOM     45  C   UNL A   1      44.638  25.808  27.017  1.00  0.00     0.031 C 
ATOM     46  C   UNL A   1      38.937  28.066  30.163  1.00  0.00     0.029 A 
ATOM     47  C   UNL A   1      40.004  29.053  29.991  1.00  0.00     0.049 A 
ATOM     48  H   UNL A   1      41.865  28.759  29.108  1.00  0.00     0.167 HD
ATOM     49  C   UNL A   1      45.650  28.067  27.010  1.00  0.00     0.037 A 
ATOM     50  C   UNL A   1      39.956  30.342  30.381  1.00  0.00     0.037 A 
ATOM     51  C   UNL A   1      45.651  29.473  27.308  1.00  0.00     0.049 A 
ATOM     52  C   UNL A   1      41.103  31.260  30.047  1.00  0.00     0.074 A 
ATOM     53  C   UNL A   1      46.617  30.419  27.016  1.00  0.00     0.029 A 
ATOM     54  N   UNL A   1      44.633  30.134  27.980  1.00  0.00    -0.354 N 
ATOM     55  N   UNL A   1      42.216  30.996  29.409  1.00  0.00    -0.248 NA
ATOM     56  C   UNL A   1      40.974  32.661  30.471  1.00  0.00     0.031 C 
ATOM     57  C   UNL A   1      46.205  31.644  27.553  1.00  0.00     0.029 A 
ATOM     58  C   UNL A   1      44.960  31.470  28.137  1.00  0.00     0.049 A 
ATOM     59  H   UNL A   1      43.801  29.715  28.299  1.00  0.00     0.167 HD
ATOM     60  C   UNL A   1      42.913  32.196  29.339  1.00  0.00     0.074 A 
ATOM     61  C   UNL A   1      42.086  33.194  29.984  1.00  0.00     0.031 C 
ATOM     62  C   UNL A   1      44.127  32.449  28.790  1.00  0.00     0.037 A 
BRANCH  49  63
ATOM     63  C   UNL A   1      46.853  27.474  26.339  1.00  0.00     0.064 A 
ATOM     64  C   UNL A   1      47.901  26.903  27.077  1.00  0.00     0.173 A 
ATOM     65  C   UNL A   1      46.960  27.480  24.941  1.00  0.00     0.173 A 
ATOM     66  F   UNL A   1      47.854  26.891  28.418  1.00  0.00    -0.203 F 
ATOM     67  C   UNL A   1      49.025  26.384  26.439  1.00  0.00     0.198 A 
ATOM     68  C   UNL A   1      48.073  26.938  24.307  1.00  0.00     0.198 A 
ATOM     69  F   UNL A   1      45.985  28.015  24.191  1.00  0.00    -0.203 F 
ATOM     70  F   UNL A   1      50.037  25.889  27.165  1.00  0.00    -0.200 F 
ATOM     71  C   UNL A   1      49.109  26.399  25.055  1.00  0.00     0.200 A 
ATOM     72  F   UNL A   1      48.151  26.948  22.969  1.00  0.00    -0.200 F 
ATOM     73  F   UNL A   1      50.193  25.903  24.443  1.00  0.00    -0.200 F 
ENDBRANCH  49  63
BRANCH  50  74
ATOM     74  C   UNL A   1      38.765  30.839  31.116  1.00  0.00     0.064 A 
ATOM     75  C   UNL A   1      37.670  31.394  30.443  1.00  0.00     0.173 A 
ATOM     76  C   UNL A   1      38.701  30.754  32.515  1.00  0.00     0.173 A 
ATOM     77  F   UNL A   1      37.696  31.518  29.108  1.00  0.00    -0.203 F 
ATOM     78  C   UNL A   1      36.555  31.854  31.142  1.00  0.00     0.198 A 
ATOM     79  C   UNL A   1      37.577  31.193  33.211  1.00  0.00     0.198 A 
ATOM     80  F   UNL A   1      39.726  30.233  33.203  1.00  0.00    -0.203 F 
ATOM     81  F   UNL A   1      35.533  32.412  30.479  1.00  0.00    -0.200 F 
ATOM     82  C   UNL A   1      36.507  31.747  32.524  1.00  0.00     0.200 A 
ATOM     83  F   UNL A   1      37.531  31.078  34.545  1.00  0.00    -0.200 F 
ATOM     84  F   UNL A   1      35.432  32.181  33.195  1.00  0.00    -0.200 F 
ENDBRANCH  50  74
BRANCH  62  85
ATOM     85  C   UNL A   1      44.631  33.861  28.857  1.00  0.00     0.064 A 
ATOM     86  C   UNL A   1      45.446  34.298  29.912  1.00  0.00     0.173 A 
ATOM     87  C   UNL A   1      44.327  34.775  27.837  1.00  0.00     0.173 A 
ATOM     88  F   UNL A   1      45.755  33.465  30.916  1.00  0.00    -0.203 F 
ATOM     89  C   UNL A   1      45.915  35.608  29.956  1.00  0.00     0.198 A 
ATOM     90  C   UNL A   1      44.820  36.077  27.872  1.00  0.00     0.198 A 
ATOM     91  F   UNL A   1      43.558  34.403  26.802  1.00  0.00    -0.203 F 
ATOM     92  F   UNL A   1      46.656  36.017  30.996  1.00  0.00    -0.200 F 
ATOM     93  C   UNL A   1      45.607  36.494  28.935  1.00  0.00     0.200 A 
ATOM     94  F   UNL A   1      44.530  36.928  26.878  1.00  0.00    -0.200 F 
ATOM     95  F   UNL A   1      46.063  37.754  28.977  1.00  0.00    -0.200 F 
ENDBRANCH  62  85
ENDBRANCH  36  37
ENDBRANCH  29  31
ENDBRANCH  28  29
ENDBRANCH  27  28
ENDBRANCH  26  27
ENDBRANCH  25  26
ENDBRANCH   1  25
TORSDOF 17
ENDMDL
MODEL 2
REMARK VINA RESULT:     -11.5      4.931      9.163
REMARK SMILES C[C@@H]1[NH2+]CC[C@@H]1C(=O)Nc1ccccc1CC(=O)OCCOCCOC(=O)c1ccc(-c2c3nc(c(-c4c(F)c(F)c(F)c(F)c4F)c4ccc([nH]4)c(-c4c(F)c(F)c(F)c(F)c4F)c4nc(c(-c5c(F)c(F)c(F)c(F)c5F)c5ccc2[nH]5)C=C4)C=C3)cc1
REMARK SMILES IDX 21 1 20 2 19 3 17 4 18 5 16 6 15 7 10 8 11 9 12 10 14 11
REMARK SMILES IDX 13 12 9 13 7 14 8 15 6 17 1 18 2 19 3 20 4 21 5 24 22 25
REMARK SMILES IDX 23 26 24 27 25 28 26 29 27 30 28 31 29 32 90 33 30 34 89 35
REMARK SMILES IDX 31 36 32 37 33 38 83 39 34 40 88 41 82 42 84 43 35 44 87 45
REMARK SMILES IDX 81 46 80 47 36 49 68 50 48 51 67 52 49 53 52 54 66 55 85 56
REMARK SMILES IDX 50 57 51 58 65 60 86 61 53 62 37 63 38 64 46 65 39 66 40 67
REMARK SMILES IDX 44 68 47 69 41 70 42 71 45 72 43 73 69 74 70 75 78 76 71 77
REMARK SMILES IDX 72 78 76 79 79 80 73 81 74 82 77 83 75 84 54 85 55 86 63 87
REMARK SMILES IDX 56 88 57 89 61 90 64 91 58 92 59 93 62 94 60 95
REMARK H PARENT 9 16 3 22 3 23 84 48 52 59
REMARK Flexibility Score: inf
ROOT
ATOM      1  C   UNL A   1      39.365  20.785  25.783  1.00  0.00     0.202 C 
ENDROOT
BRANCH   1   2
ATOM      2  C   UNL A   1      38.158  21.487  25.141  1.00  0.00     0.261 C 
BRANCH   2   3
ATOM      3  O   UNL A   1      37.429  22.178  26.167  1.00  0.00    -0.463 OA
BRANCH   3   4
ATOM      4  C   UNL A   1      37.217  23.508  25.949  1.00  0.00     0.310 C 
ATOM      5  O   UNL A   1      38.047  24.378  26.165  1.00  0.00    -0.252 OA
BRANCH   4   6
ATOM      6  C   UNL A   1      35.934  23.665  25.163  1.00  0.00     0.160 C 
BRANCH   6   7
ATOM      7  C   UNL A   1      34.576  23.562  25.802  1.00  0.00    -0.013 A 
ATOM      8  C   UNL A   1      34.012  22.420  26.384  1.00  0.00     0.044 A 
ATOM      9  C   UNL A   1      32.679  22.468  26.820  1.00  0.00     0.026 A 
ATOM     10  C   UNL A   1      31.949  23.664  26.775  1.00  0.00     0.002 A 
ATOM     11  C   UNL A   1      33.856  24.779  25.856  1.00  0.00     0.006 A 
ATOM     12  C   UNL A   1      32.550  24.830  26.324  1.00  0.00     0.000 A 
BRANCH   8  13
ATOM     13  N   UNL A   1      34.612  21.173  26.203  1.00  0.00    -0.325 N 
ATOM     14  C   UNL A   1      34.300  20.114  25.420  1.00  0.00     0.233 C 
ATOM     15  O   UNL A   1      35.292  19.654  24.824  1.00  0.00    -0.274 OA
ATOM     16  H   UNL A   1      35.419  21.037  26.751  1.00  0.00     0.169 HD
BRANCH  14  17
ATOM     17  C   UNL A   1      32.933  19.438  25.178  1.00  0.00     0.142 C 
ATOM     18  C   UNL A   1      33.547  16.885  25.519  1.00  0.00     0.076 C 
ATOM     19  C   UNL A   1      32.529  17.948  25.210  1.00  0.00     0.192 C 
ATOM     20  N   UNL A   1      31.927  17.638  23.891  1.00  0.00    -0.343 N 
ATOM     21  C   UNL A   1      32.539  18.566  22.953  1.00  0.00     0.261 C 
ATOM     22  H   UNL A   1      30.916  17.775  23.920  1.00  0.00     0.346 HD
ATOM     23  H   UNL A   1      32.088  16.667  23.622  1.00  0.00     0.346 HD
ATOM     24  C   UNL A   1      32.488  19.850  23.745  1.00  0.00     0.081 C 
ENDBRANCH  14  17
ENDBRANCH   8  13
ENDBRANCH   6   7
ENDBRANCH   4   6
ENDBRANCH   3   4
ENDBRANCH   2   3
ENDBRANCH   1   2
BRANCH   1  25
ATOM     25  O   UNL A   1      40.405  21.635  26.282  1.00  0.00    -0.374 OA
BRANCH  25  26
ATOM     26  C   UNL A   1      41.754  21.172  26.212  1.00  0.00     0.202 C 
BRANCH  26  27
ATOM     27  C   UNL A   1      42.806  22.218  25.812  1.00  0.00     0.261 C 
BRANCH  27  28
ATOM     28  O   UNL A   1      42.178  23.422  25.345  1.00  0.00    -0.460 OA
BRANCH  28  29
ATOM     29  C   UNL A   1      42.947  24.525  25.406  1.00  0.00     0.338 C 
ATOM     30  O   UNL A   1      43.982  24.747  24.793  1.00  0.00    -0.246 OA
BRANCH  29  31
ATOM     31  C   UNL A   1      42.254  25.547  26.201  1.00  0.00     0.060 A 
ATOM     32  C   UNL A   1      42.855  26.807  26.286  1.00  0.00     0.016 A 
ATOM     33  C   UNL A   1      41.125  25.237  26.964  1.00  0.00     0.016 A 
ATOM     34  C   UNL A   1      42.375  27.740  27.198  1.00  0.00     0.010 A 
ATOM     35  C   UNL A   1      40.646  26.177  27.886  1.00  0.00     0.010 A 
ATOM     36  C   UNL A   1      41.311  27.406  28.048  1.00  0.00    -0.014 A 
BRANCH  36  37
ATOM     37  C   UNL A   1      41.095  28.262  29.240  1.00  0.00     0.031 A 
ATOM     38  C   UNL A   1      39.912  29.193  29.247  1.00  0.00     0.074 A 
ATOM     39  C   UNL A   1      41.852  28.124  30.342  1.00  0.00     0.049 A 
ATOM     40  N   UNL A   1      39.410  29.893  30.232  1.00  0.00    -0.248 NA
ATOM     41  C   UNL A   1      39.193  29.346  27.973  1.00  0.00     0.031 C 
ATOM     42  C   UNL A   1      43.015  27.250  30.462  1.00  0.00     0.029 A 
ATOM     43  N   UNL A   1      41.736  28.710  31.578  1.00  0.00    -0.354 N 
ATOM     44  C   UNL A   1      38.311  30.556  29.700  1.00  0.00     0.074 A 
ATOM     45  C   UNL A   1      38.244  30.209  28.298  1.00  0.00     0.031 C 
ATOM     46  C   UNL A   1      43.506  27.351  31.710  1.00  0.00     0.029 A 
ATOM     47  C   UNL A   1      42.689  28.296  32.473  1.00  0.00     0.049 A 
ATOM     48  H   UNL A   1      41.035  29.364  31.800  1.00  0.00     0.167 HD
ATOM     49  C   UNL A   1      37.426  31.367  30.327  1.00  0.00     0.037 A 
ATOM     50  C   UNL A   1      42.874  28.634  33.764  1.00  0.00     0.037 A 
ATOM     51  C   UNL A   1      37.493  31.715  31.720  1.00  0.00     0.049 A 
ATOM     52  C   UNL A   1      41.888  29.552  34.437  1.00  0.00     0.074 A 
ATOM     53  C   UNL A   1      36.629  32.506  32.457  1.00  0.00     0.029 A 
ATOM     54  N   UNL A   1      38.492  31.297  32.587  1.00  0.00    -0.354 N 
ATOM     55  N   UNL A   1      40.816  30.122  33.944  1.00  0.00    -0.248 NA
ATOM     56  C   UNL A   1      42.128  29.855  35.855  1.00  0.00     0.031 C 
ATOM     57  C   UNL A   1      37.132  32.606  33.759  1.00  0.00     0.029 A 
ATOM     58  C   UNL A   1      38.283  31.837  33.845  1.00  0.00     0.049 A 
ATOM     59  H   UNL A   1      39.240  30.705  32.344  1.00  0.00     0.167 HD
ATOM     60  C   UNL A   1      40.245  30.836  34.990  1.00  0.00     0.074 A 
ATOM     61  C   UNL A   1      41.079  30.612  36.151  1.00  0.00     0.031 C 
ATOM     62  C   UNL A   1      39.130  31.609  34.988  1.00  0.00     0.037 A 
BRANCH  49  63
ATOM     63  C   UNL A   1      36.325  31.951  29.493  1.00  0.00     0.064 A 
ATOM     64  C   UNL A   1      36.288  33.317  29.175  1.00  0.00     0.173 A 
ATOM     65  C   UNL A   1      35.295  31.134  29.007  1.00  0.00     0.173 A 
ATOM     66  F   UNL A   1      37.241  34.143  29.632  1.00  0.00    -0.203 F 
ATOM     67  C   UNL A   1      35.242  33.848  28.424  1.00  0.00     0.198 A 
ATOM     68  C   UNL A   1      34.265  31.664  28.236  1.00  0.00     0.198 A 
ATOM     69  F   UNL A   1      35.285  29.821  29.284  1.00  0.00    -0.203 F 
ATOM     70  F   UNL A   1      35.198  35.164  28.175  1.00  0.00    -0.200 F 
ATOM     71  C   UNL A   1      34.233  33.022  27.953  1.00  0.00     0.200 A 
ATOM     72  F   UNL A   1      33.294  30.863  27.776  1.00  0.00    -0.200 F 
ATOM     73  F   UNL A   1      33.226  33.534  27.234  1.00  0.00    -0.200 F 
ENDBRANCH  49  63
BRANCH  50  74
ATOM     74  C   UNL A   1      44.036  28.081  34.504  1.00  0.00     0.064 A 
ATOM     75  C   UNL A   1      45.234  28.796  34.625  1.00  0.00     0.173 A 
ATOM     76  C   UNL A   1      43.960  26.821  35.118  1.00  0.00     0.173 A 
ATOM     77  F   UNL A   1      45.361  29.993  34.034  1.00  0.00    -0.203 F 
ATOM     78  C   UNL A   1      46.318  28.269  35.325  1.00  0.00     0.198 A 
ATOM     79  C   UNL A   1      45.036  26.306  35.837  1.00  0.00     0.198 A 
ATOM     80  F   UNL A   1      42.835  26.098  35.028  1.00  0.00    -0.203 F 
ATOM     81  F   UNL A   1      47.465  28.958  35.398  1.00  0.00    -0.200 F 
ATOM     82  C   UNL A   1      46.216  27.028  35.936  1.00  0.00     0.200 A 
ATOM     83  F   UNL A   1      44.928  25.111  36.434  1.00  0.00    -0.200 F 
ATOM     84  F   UNL A   1      47.255  26.526  36.617  1.00  0.00    -0.200 F 
ENDBRANCH  50  74
BRANCH  62  85
ATOM     85  C   UNL A   1      38.744  32.261  36.284  1.00  0.00     0.064 A 
ATOM     86  C   UNL A   1      38.025  31.567  37.268  1.00  0.00     0.173 A 
ATOM     87  C   UNL A   1      39.130  33.582  36.560  1.00  0.00     0.173 A 
ATOM     88  F   UNL A   1      37.624  30.306  37.046  1.00  0.00    -0.203 F 
ATOM     89  C   UNL A   1      37.683  32.181  38.469  1.00  0.00     0.198 A 
ATOM     90  C   UNL A   1      38.809  34.183  37.773  1.00  0.00     0.198 A 
ATOM     91  F   UNL A   1      39.827  34.285  35.654  1.00  0.00    -0.203 F 
ATOM     92  F   UNL A   1      36.957  31.512  39.378  1.00  0.00    -0.200 F 
ATOM     93  C   UNL A   1      38.079  33.485  38.724  1.00  0.00     0.200 A 
ATOM     94  F   UNL A   1      39.203  35.439  38.021  1.00  0.00    -0.200 F 
ATOM     95  F   UNL A   1      37.752  34.072  39.883  1.00  0.00    -0.200 F 
ENDBRANCH  62  85
ENDBRANCH  36  37
ENDBRANCH  29  31
ENDBRANCH  28  29
ENDBRANCH  27  28
ENDBRANCH  26  27
ENDBRANCH  25  26
ENDBRANCH   1  25
TORSDOF 17
ENDMDL
MODEL 3
REMARK VINA RESULT:     -11.4      1.195      2.647
REMARK SMILES C[C@@H]1[NH2+]CC[C@@H]1C(=O)Nc1ccccc1CC(=O)OCCOCCOC(=O)c1ccc(-c2c3nc(c(-c4c(F)c(F)c(F)c(F)c4F)c4ccc([nH]4)c(-c4c(F)c(F)c(F)c(F)c4F)c4nc(c(-c5c(F)c(F)c(F)c(F)c5F)c5ccc2[nH]5)C=C4)C=C3)cc1
REMARK SMILES IDX 21 1 20 2 19 3 17 4 18 5 16 6 15 7 10 8 11 9 12 10 14 11
REMARK SMILES IDX 13 12 9 13 7 14 8 15 6 17 1 18 2 19 3 20 4 21 5 24 22 25
REMARK SMILES IDX 23 26 24 27 25 28 26 29 27 30 28 31 29 32 90 33 30 34 89 35
REMARK SMILES IDX 31 36 32 37 33 38 83 39 34 40 88 41 82 42 84 43 35 44 87 45
REMARK SMILES IDX 81 46 80 47 36 49 68 50 48 51 67 52 49 53 52 54 66 55 85 56
REMARK SMILES IDX 50 57 51 58 65 60 86 61 53 62 37 63 38 64 46 65 39 66 40 67
REMARK SMILES IDX 44 68 47 69 41 70 42 71 45 72 43 73 69 74 70 75 78 76 71 77
REMARK SMILES IDX 72 78 76 79 79 80 73 81 74 82 77 83 75 84 54 85 55 86 63 87
REMARK SMILES IDX 56 88 57 89 61 90 64 91 58 92 59 93 62 94 60 95
REMARK H PARENT 9 16 3 22 3 23 84 48 52 59
REMARK Flexibility Score: inf
ROOT
ATOM      1  C   UNL A   1      35.319  23.858  24.443  1.00  0.00     0.202 C 
ENDROOT
BRANCH   1   2
ATOM      2  C   UNL A   1      35.327  23.645  22.922  1.00  0.00     0.261 C 
BRANCH   2   3
ATOM      3  O   UNL A   1      33.975  23.708  22.441  1.00  0.00    -0.463 OA
BRANCH   3   4
ATOM      4  C   UNL A   1      33.426  24.954  22.379  1.00  0.00     0.310 C 
ATOM      5  O   UNL A   1      34.026  25.950  22.001  1.00  0.00    -0.252 OA
BRANCH   4   6
ATOM      6  C   UNL A   1      31.932  24.829  22.583  1.00  0.00     0.160 C 
BRANCH   6   7
ATOM      7  C   UNL A   1      31.313  24.642  23.941  1.00  0.00    -0.013 A 
ATOM      8  C   UNL A   1      30.749  25.640  24.746  1.00  0.00     0.044 A 
ATOM      9  C   UNL A   1      30.332  25.310  26.044  1.00  0.00     0.026 A 
ATOM     10  C   UNL A   1      30.377  23.986  26.500  1.00  0.00     0.002 A 
ATOM     11  C   UNL A   1      31.258  23.300  24.384  1.00  0.00     0.006 A 
ATOM     12  C   UNL A   1      30.808  22.973  25.656  1.00  0.00     0.000 A 
BRANCH   8  13
ATOM     13  N   UNL A   1      30.934  26.986  24.424  1.00  0.00    -0.325 N 
ATOM     14  C   UNL A   1      31.783  27.929  24.894  1.00  0.00     0.233 C 
ATOM     15  O   UNL A   1      32.316  28.588  23.980  1.00  0.00    -0.274 OA
ATOM     16  H   UNL A   1      30.329  27.312  23.719  1.00  0.00     0.169 HD
BRANCH  14  17
ATOM     17  C   UNL A   1      32.163  28.275  26.350  1.00  0.00     0.142 C 
ATOM     18  C   UNL A   1      31.719  30.886  26.398  1.00  0.00     0.076 C 
ATOM     19  C   UNL A   1      32.153  29.627  27.097  1.00  0.00     0.192 C 
ATOM     20  N   UNL A   1      33.524  29.839  27.618  1.00  0.00    -0.343 N 
ATOM     21  C   UNL A   1      34.404  29.119  26.710  1.00  0.00     0.261 C 
ATOM     22  H   UNL A   1      33.608  29.468  28.564  1.00  0.00     0.346 HD
ATOM     23  H   UNL A   1      33.760  30.831  27.666  1.00  0.00     0.346 HD
ATOM     24  C   UNL A   1      33.641  27.828  26.535  1.00  0.00     0.081 C 
ENDBRANCH  14  17
ENDBRANCH   8  13
ENDBRANCH   6   7
ENDBRANCH   4   6
ENDBRANCH   3   4
ENDBRANCH   2   3
ENDBRANCH   1   2
BRANCH   1  25
ATOM     25  O   UNL A   1      35.316  22.675  25.252  1.00  0.00    -0.374 OA
BRANCH  25  26
ATOM     26  C   UNL A   1      35.803  21.461  24.683  1.00  0.00     0.202 C 
BRANCH  26  27
ATOM     27  C   UNL A   1      37.097  20.901  25.294  1.00  0.00     0.261 C 
BRANCH  27  28
ATOM     28  O   UNL A   1      38.151  21.876  25.240  1.00  0.00    -0.460 OA
BRANCH  28  29
ATOM     29  C   UNL A   1      39.261  21.553  25.929  1.00  0.00     0.338 C 
ATOM     30  O   UNL A   1      39.983  20.579  25.765  1.00  0.00    -0.246 OA
BRANCH  29  31
ATOM     31  C   UNL A   1      39.609  22.664  26.823  1.00  0.00     0.060 A 
ATOM     32  C   UNL A   1      38.889  23.854  26.673  1.00  0.00     0.016 A 
ATOM     33  C   UNL A   1      40.709  22.594  27.682  1.00  0.00     0.016 A 
ATOM     34  C   UNL A   1      39.316  25.006  27.324  1.00  0.00     0.010 A 
ATOM     35  C   UNL A   1      41.140  23.757  28.334  1.00  0.00     0.010 A 
ATOM     36  C   UNL A   1      40.481  24.978  28.104  1.00  0.00    -0.014 A 
BRANCH  36  37
ATOM     37  C   UNL A   1      41.102  26.281  28.449  1.00  0.00     0.031 A 
ATOM     38  C   UNL A   1      42.488  26.570  27.938  1.00  0.00     0.074 A 
ATOM     39  C   UNL A   1      40.406  27.235  29.089  1.00  0.00     0.049 A 
ATOM     40  N   UNL A   1      43.161  27.693  27.945  1.00  0.00    -0.248 NA
ATOM     41  C   UNL A   1      43.208  25.442  27.327  1.00  0.00     0.031 C 
ATOM     42  C   UNL A   1      39.056  27.080  29.621  1.00  0.00     0.029 A 
ATOM     43  N   UNL A   1      40.740  28.534  29.379  1.00  0.00    -0.354 N 
ATOM     44  C   UNL A   1      44.373  27.409  27.329  1.00  0.00     0.074 A 
ATOM     45  C   UNL A   1      44.362  26.001  26.999  1.00  0.00     0.031 C 
ATOM     46  C   UNL A   1      38.670  28.245  30.171  1.00  0.00     0.029 A 
ATOM     47  C   UNL A   1      39.748  29.225  30.026  1.00  0.00     0.049 A 
ATOM     48  H   UNL A   1      41.609  28.932  29.144  1.00  0.00     0.167 HD
ATOM     49  C   UNL A   1      45.396  28.250  27.047  1.00  0.00     0.037 A 
ATOM     50  C   UNL A   1      39.711  30.505  30.444  1.00  0.00     0.037 A 
ATOM     51  C   UNL A   1      45.410  29.648  27.377  1.00  0.00     0.049 A 
ATOM     52  C   UNL A   1      40.868  31.419  30.135  1.00  0.00     0.074 A 
ATOM     53  C   UNL A   1      46.387  30.591  27.110  1.00  0.00     0.029 A 
ATOM     54  N   UNL A   1      44.396  30.304  28.059  1.00  0.00    -0.354 N 
ATOM     55  N   UNL A   1      41.982  31.158  29.496  1.00  0.00    -0.248 NA
ATOM     56  C   UNL A   1      40.751  32.812  30.591  1.00  0.00     0.031 C 
ATOM     57  C   UNL A   1      45.985  31.808  27.672  1.00  0.00     0.029 A 
ATOM     58  C   UNL A   1      44.736  31.634  28.247  1.00  0.00     0.049 A 
ATOM     59  H   UNL A   1      43.559  29.886  28.365  1.00  0.00     0.167 HD
ATOM     60  C   UNL A   1      42.690  32.353  29.456  1.00  0.00     0.074 A 
ATOM     61  C   UNL A   1      41.871  33.345  30.120  1.00  0.00     0.031 C 
ATOM     62  C   UNL A   1      43.910  32.605  28.919  1.00  0.00     0.037 A 
BRANCH  49  63
ATOM     63  C   UNL A   1      46.597  27.660  26.369  1.00  0.00     0.064 A 
ATOM     64  C   UNL A   1      46.725  27.653  24.971  1.00  0.00     0.173 A 
ATOM     65  C   UNL A   1      47.632  27.093  27.127  1.00  0.00     0.173 A 
ATOM     66  F   UNL A   1      45.753  28.167  24.203  1.00  0.00    -0.203 F 
ATOM     67  C   UNL A   1      47.833  27.075  24.357  1.00  0.00     0.198 A 
ATOM     68  C   UNL A   1      48.749  26.538  26.510  1.00  0.00     0.198 A 
ATOM     69  F   UNL A   1      47.557  27.074  28.466  1.00  0.00    -0.203 F 
ATOM     70  F   UNL A   1      47.911  27.033  23.020  1.00  0.00    -0.200 F 
ATOM     71  C   UNL A   1      48.845  26.521  25.126  1.00  0.00     0.200 A 
ATOM     72  F   UNL A   1      49.729  26.008  27.255  1.00  0.00    -0.200 F 
ATOM     73  F   UNL A   1      49.908  25.960  24.534  1.00  0.00    -0.200 F 
ENDBRANCH  49  63
BRANCH  50  74
ATOM     74  C   UNL A   1      38.522  30.998  31.185  1.00  0.00     0.064 A 
ATOM     75  C   UNL A   1      37.389  31.476  30.514  1.00  0.00     0.173 A 
ATOM     76  C   UNL A   1      38.497  30.985  32.587  1.00  0.00     0.173 A 
ATOM     77  F   UNL A   1      37.376  31.530  29.174  1.00  0.00    -0.203 F 
ATOM     78  C   UNL A   1      36.277  31.933  31.219  1.00  0.00     0.198 A 
ATOM     79  C   UNL A   1      37.375  31.420  33.290  1.00  0.00     0.198 A 
ATOM     80  F   UNL A   1      39.558  30.538  33.273  1.00  0.00    -0.203 F 
ATOM     81  F   UNL A   1      35.218  32.418  30.556  1.00  0.00    -0.200 F 
ATOM     82  C   UNL A   1      36.268  31.898  32.606  1.00  0.00     0.200 A 
ATOM     83  F   UNL A   1      37.368  31.374  34.630  1.00  0.00    -0.200 F 
ATOM     84  F   UNL A   1      35.195  32.328  33.283  1.00  0.00    -0.200 F 
ENDBRANCH  50  74
BRANCH  62  85
ATOM     85  C   UNL A   1      44.427  34.011  29.019  1.00  0.00     0.064 A 
ATOM     86  C   UNL A   1      44.132  34.972  28.041  1.00  0.00     0.173 A 
ATOM     87  C   UNL A   1      45.195  34.410  30.124  1.00  0.00     0.173 A 
ATOM     88  F   UNL A   1      43.411  34.635  26.962  1.00  0.00    -0.203 F 
ATOM     89  C   UNL A   1      44.610  36.274  28.153  1.00  0.00     0.198 A 
ATOM     90  C   UNL A   1      45.649  35.720  30.244  1.00  0.00     0.198 A 
ATOM     91  F   UNL A   1      45.498  33.530  31.091  1.00  0.00    -0.203 F 
ATOM     92  F   UNL A   1      44.352  37.165  27.184  1.00  0.00    -0.200 F 
ATOM     93  C   UNL A   1      45.362  36.649  29.255  1.00  0.00     0.200 A 
ATOM     94  F   UNL A   1      46.366  36.083  31.317  1.00  0.00    -0.200 F 
ATOM     95  F   UNL A   1      45.818  37.905  29.363  1.00  0.00    -0.200 F 
ENDBRANCH  62  85
ENDBRANCH  36  37
ENDBRANCH  29  31
ENDBRANCH  28  29
ENDBRANCH  27  28
ENDBRANCH  26  27
ENDBRANCH  25  26
ENDBRANCH   1  25
TORSDOF 17
ENDMDL
