MODEL 1
REMARK VINA RESULT:     -12.1      0.000      0.000
REMARK SMILES Cc1occc1C(=O)NN1C(=O)/C(=C\c2ccc(O[C@H](C)C(=O)OCCOCCOC(=O)c3ccc(-c4c5nc(c(-c6c(F)c(F)c(F)c(F)c6F)c6ccc([nH]6)c(-c6c(F)c(F)c(F)c(F)c6F)c6nc(c(-c7c(F)c(F)c(F)c(F)c7F)c7ccc4[nH]7)C=C6)C=C5)cc3)cc2)SC1=S
REMARK SMILES IDX 25 1 24 2 22 3 23 4 20 5 21 6 19 7 18 8 15 9 16 10 97 11
REMARK SMILES IDX 17 12 96 13 14 14 10 15 11 16 99 17 12 18 13 19 98 20 100 21
REMARK SMILES IDX 9 22 7 23 8 24 6 26 1 27 2 28 3 29 4 30 5 31 26 32 27 33
REMARK SMILES IDX 28 34 29 35 30 36 31 37 32 38 33 39 34 40 95 41 35 42 94 43
REMARK SMILES IDX 36 44 37 45 38 46 88 47 39 48 93 49 87 50 89 51 40 52 92 53
REMARK SMILES IDX 86 54 85 55 41 57 73 58 53 59 72 60 54 61 57 62 71 63 90 64
REMARK SMILES IDX 55 65 56 66 70 68 91 69 58 70 42 71 43 72 51 73 44 74 45 75
REMARK SMILES IDX 49 76 52 77 46 78 47 79 50 80 48 81 74 82 75 83 83 84 76 85
REMARK SMILES IDX 77 86 81 87 84 88 78 89 79 90 82 91 80 92 59 93 60 94 68 95
REMARK SMILES IDX 61 96 62 97 66 98 69 99 63 100 64 101 67 102 65 103
REMARK H PARENT 9 25 89 56 57 67
REMARK Flexibility Score: inf
ROOT
ATOM      1  C   UNL A   1      31.085  30.572  25.355  1.00  0.00     0.261 C 
ENDROOT
BRANCH   1   2
ATOM      2  O   UNL A   1      30.930  29.818  24.142  1.00  0.00    -0.461 OA
BRANCH   2   3
ATOM      3  C   UNL A   1      29.740  29.986  23.500  1.00  0.00     0.347 C 
ATOM      4  O   UNL A   1      29.216  31.070  23.268  1.00  0.00    -0.248 OA
BRANCH   3   5
ATOM      5  C   UNL A   1      29.117  28.660  23.085  1.00  0.00     0.279 C 
ATOM      6  C   UNL A   1      27.629  28.727  22.746  1.00  0.00     0.066 C 
BRANCH   5   7
ATOM      7  O   UNL A   1      29.989  27.950  22.215  1.00  0.00    -0.479 OA
BRANCH   7   8
ATOM      8  C   UNL A   1      30.975  27.105  22.599  1.00  0.00     0.120 A 
ATOM      9  C   UNL A   1      33.350  25.682  23.087  1.00  0.00    -0.024 A 
ATOM     10  C   UNL A   1      32.433  25.919  24.116  1.00  0.00     0.012 A 
ATOM     11  C   UNL A   1      32.982  26.007  21.781  1.00  0.00     0.012 A 
ATOM     12  C   UNL A   1      31.239  26.608  23.867  1.00  0.00     0.047 A 
ATOM     13  C   UNL A   1      31.820  26.742  21.549  1.00  0.00     0.047 A 
BRANCH   9  14
ATOM     14  C   UNL A   1      34.680  25.160  23.430  1.00  0.00     0.029 C 
ATOM     15  N   UNL A   1      34.668  21.660  24.424  1.00  0.00    -0.198 N 
ATOM     16  C   UNL A   1      34.020  22.730  23.830  1.00  0.00     0.285 C 
ATOM     17  C   UNL A   1      36.045  21.689  24.465  1.00  0.00     0.168 C 
ATOM     18  O   UNL A   1      32.871  22.694  23.416  1.00  0.00    -0.266 OA
ATOM     19  C   UNL A   1      34.967  23.878  23.714  1.00  0.00     0.082 C 
ATOM     20  S   UNL A   1      36.580  23.313  24.020  1.00  0.00    -0.052 SA
ATOM     21  S   UNL A   1      37.091  20.447  24.838  1.00  0.00    -0.050 S 
BRANCH  15  22
ATOM     22  N   UNL A   1      33.904  20.524  24.660  1.00  0.00    -0.254 N 
ATOM     23  C   UNL A   1      32.682  20.447  25.288  1.00  0.00     0.273 C 
ATOM     24  O   UNL A   1      32.079  19.376  25.187  1.00  0.00    -0.267 OA
ATOM     25  H   UNL A   1      34.281  19.673  24.339  1.00  0.00     0.192 HD
BRANCH  23  26
ATOM     26  C   UNL A   1      32.144  21.504  26.138  1.00  0.00     0.082 A 
ATOM     27  C   UNL A   1      33.944  22.334  27.922  1.00  0.00     0.088 C 
ATOM     28  C   UNL A   1      32.662  22.234  27.200  1.00  0.00     0.113 A 
ATOM     29  O   UNL A   1      31.736  23.133  27.653  1.00  0.00    -0.469 OA
ATOM     30  C   UNL A   1      30.649  23.043  26.859  1.00  0.00     0.196 A 
ATOM     31  C   UNL A   1      30.849  22.085  25.903  1.00  0.00     0.056 A 
ENDBRANCH  23  26
ENDBRANCH  15  22
ENDBRANCH   9  14
ENDBRANCH   7   8
ENDBRANCH   5   7
ENDBRANCH   3   5
ENDBRANCH   2   3
ENDBRANCH   1   2
BRANCH   1  32
ATOM     32  C   UNL A   1      32.454  30.352  26.001  1.00  0.00     0.202 C 
BRANCH  32  33
ATOM     33  O   UNL A   1      32.580  30.716  27.374  1.00  0.00    -0.374 OA
BRANCH  33  34
ATOM     34  C   UNL A   1      33.414  31.830  27.684  1.00  0.00     0.202 C 
BRANCH  34  35
ATOM     35  C   UNL A   1      32.877  33.215  27.302  1.00  0.00     0.261 C 
BRANCH  35  36
ATOM     36  O   UNL A   1      32.276  33.895  28.419  1.00  0.00    -0.460 OA
BRANCH  36  37
ATOM     37  C   UNL A   1      32.968  34.968  28.863  1.00  0.00     0.338 C 
ATOM     38  O   UNL A   1      32.646  36.148  28.777  1.00  0.00    -0.246 OA
BRANCH  37  39
ATOM     39  C   UNL A   1      34.142  34.542  29.646  1.00  0.00     0.060 A 
ATOM     40  C   UNL A   1      35.385  34.566  29.003  1.00  0.00     0.016 A 
ATOM     41  C   UNL A   1      34.022  34.038  30.943  1.00  0.00     0.016 A 
ATOM     42  C   UNL A   1      36.508  34.034  29.634  1.00  0.00     0.010 A 
ATOM     43  C   UNL A   1      35.150  33.496  31.572  1.00  0.00     0.010 A 
ATOM     44  C   UNL A   1      36.389  33.457  30.906  1.00  0.00    -0.014 A 
BRANCH  44  45
ATOM     45  C   UNL A   1      37.525  32.679  31.459  1.00  0.00     0.031 A 
ATOM     46  C   UNL A   1      38.053  33.030  32.824  1.00  0.00     0.074 A 
ATOM     47  C   UNL A   1      38.047  31.643  30.781  1.00  0.00     0.049 A 
ATOM     48  N   UNL A   1      39.048  32.503  33.492  1.00  0.00    -0.248 NA
ATOM     49  C   UNL A   1      37.367  34.124  33.531  1.00  0.00     0.031 C 
ATOM     50  C   UNL A   1      37.590  31.174  29.475  1.00  0.00     0.029 A 
ATOM     51  N   UNL A   1      39.080  30.797  31.101  1.00  0.00    -0.354 N 
ATOM     52  C   UNL A   1      39.104  33.194  34.695  1.00  0.00     0.074 A 
ATOM     53  C   UNL A   1      38.067  34.203  34.655  1.00  0.00     0.031 C 
ATOM     54  C   UNL A   1      38.346  30.126  29.099  1.00  0.00     0.029 A 
ATOM     55  C   UNL A   1      39.357  29.873  30.125  1.00  0.00     0.049 A 
ATOM     56  H   UNL A   1      39.575  30.849  31.951  1.00  0.00     0.167 HD
ATOM     57  C   UNL A   1      39.936  32.998  35.745  1.00  0.00     0.037 A 
ATOM     58  C   UNL A   1      40.329  28.942  30.060  1.00  0.00     0.037 A 
ATOM     59  C   UNL A   1      40.965  31.993  35.790  1.00  0.00     0.049 A 
ATOM     60  C   UNL A   1      41.293  28.797  31.211  1.00  0.00     0.074 A 
ATOM     61  C   UNL A   1      41.860  31.717  36.810  1.00  0.00     0.029 A 
ATOM     62  N   UNL A   1      41.239  31.099  34.766  1.00  0.00    -0.354 N 
ATOM     63  N   UNL A   1      41.330  29.448  32.349  1.00  0.00    -0.248 NA
ATOM     64  C   UNL A   1      42.351  27.786  31.067  1.00  0.00     0.031 C 
ATOM     65  C   UNL A   1      42.702  30.684  36.387  1.00  0.00     0.029 A 
ATOM     66  C   UNL A   1      42.301  30.284  35.123  1.00  0.00     0.049 A 
ATOM     67  H   UNL A   1      40.751  31.050  33.913  1.00  0.00     0.167 HD
ATOM     68  C   UNL A   1      42.389  28.905  33.066  1.00  0.00     0.074 A 
ATOM     69  C   UNL A   1      42.962  27.862  32.241  1.00  0.00     0.031 C 
ATOM     70  C   UNL A   1      42.848  29.240  34.297  1.00  0.00     0.037 A 
BRANCH  57  71
ATOM     71  C   UNL A   1      39.780  33.897  36.936  1.00  0.00     0.064 A 
ATOM     72  C   UNL A   1      40.419  35.144  37.001  1.00  0.00     0.173 A 
ATOM     73  C   UNL A   1      38.938  33.533  37.996  1.00  0.00     0.173 A 
ATOM     74  F   UNL A   1      41.245  35.532  36.017  1.00  0.00    -0.203 F 
ATOM     75  C   UNL A   1      40.231  35.987  38.094  1.00  0.00     0.198 A 
ATOM     76  C   UNL A   1      38.733  34.388  39.075  1.00  0.00     0.198 A 
ATOM     77  F   UNL A   1      38.302  32.351  37.980  1.00  0.00    -0.203 F 
ATOM     78  F   UNL A   1      40.878  37.160  38.152  1.00  0.00    -0.200 F 
ATOM     79  C   UNL A   1      39.383  35.613  39.124  1.00  0.00     0.200 A 
ATOM     80  F   UNL A   1      37.905  34.030  40.066  1.00  0.00    -0.200 F 
ATOM     81  F   UNL A   1      39.194  36.431  40.169  1.00  0.00    -0.200 F 
ENDBRANCH  57  71
BRANCH  58  82
ATOM     82  C   UNL A   1      40.461  28.079  28.857  1.00  0.00     0.064 A 
ATOM     83  C   UNL A   1      41.231  28.481  27.756  1.00  0.00     0.173 A 
ATOM     84  C   UNL A   1      39.784  26.854  28.766  1.00  0.00     0.173 A 
ATOM     85  F   UNL A   1      41.876  29.656  27.785  1.00  0.00    -0.203 F 
ATOM     86  C   UNL A   1      41.296  27.705  26.601  1.00  0.00     0.198 A 
ATOM     87  C   UNL A   1      39.873  26.065  27.622  1.00  0.00     0.198 A 
ATOM     88  F   UNL A   1      39.032  26.424  29.789  1.00  0.00    -0.203 F 
ATOM     89  F   UNL A   1      41.992  28.141  25.542  1.00  0.00    -0.200 F 
ATOM     90  C   UNL A   1      40.620  26.495  26.536  1.00  0.00     0.200 A 
ATOM     91  F   UNL A   1      39.227  24.892  27.568  1.00  0.00    -0.200 F 
ATOM     92  F   UNL A   1      40.678  25.752  25.424  1.00  0.00    -0.200 F 
ENDBRANCH  58  82
BRANCH  70  93
ATOM     93  C   UNL A   1      43.998  28.446  34.845  1.00  0.00     0.064 A 
ATOM     94  C   UNL A   1      43.798  27.258  35.561  1.00  0.00     0.173 A 
ATOM     95  C   UNL A   1      45.320  28.861  34.614  1.00  0.00     0.173 A 
ATOM     96  F   UNL A   1      42.554  26.828  35.820  1.00  0.00    -0.203 F 
ATOM     97  C   UNL A   1      44.878  26.525  36.048  1.00  0.00     0.198 A 
ATOM     98  C   UNL A   1      46.397  28.110  35.077  1.00  0.00     0.198 A 
ATOM     99  F   UNL A   1      45.565  29.986  33.928  1.00  0.00    -0.203 F 
ATOM    100  F   UNL A   1      44.661  25.416  36.769  1.00  0.00    -0.200 F 
ATOM    101  C   UNL A   1      46.175  26.948  35.800  1.00  0.00     0.200 A 
ATOM    102  F   UNL A   1      47.650  28.513  34.824  1.00  0.00    -0.200 F 
ATOM    103  F   UNL A   1      47.213  26.238  36.263  1.00  0.00    -0.200 F 
ENDBRANCH  70  93
ENDBRANCH  44  45
ENDBRANCH  37  39
ENDBRANCH  36  37
ENDBRANCH  35  36
ENDBRANCH  34  35
ENDBRANCH  33  34
ENDBRANCH  32  33
ENDBRANCH   1  32
TORSDOF 19
ENDMDL
MODEL 2
REMARK VINA RESULT:     -12.0      5.884     10.956
REMARK SMILES Cc1occc1C(=O)NN1C(=O)/C(=C\c2ccc(O[C@H](C)C(=O)OCCOCCOC(=O)c3ccc(-c4c5nc(c(-c6c(F)c(F)c(F)c(F)c6F)c6ccc([nH]6)c(-c6c(F)c(F)c(F)c(F)c6F)c6nc(c(-c7c(F)c(F)c(F)c(F)c7F)c7ccc4[nH]7)C=C6)C=C5)cc3)cc2)SC1=S
REMARK SMILES IDX 25 1 24 2 22 3 23 4 20 5 21 6 19 7 18 8 15 9 16 10 97 11
REMARK SMILES IDX 17 12 96 13 14 14 10 15 11 16 99 17 12 18 13 19 98 20 100 21
REMARK SMILES IDX 9 22 7 23 8 24 6 26 1 27 2 28 3 29 4 30 5 31 26 32 27 33
REMARK SMILES IDX 28 34 29 35 30 36 31 37 32 38 33 39 34 40 95 41 35 42 94 43
REMARK SMILES IDX 36 44 37 45 38 46 88 47 39 48 93 49 87 50 89 51 40 52 92 53
REMARK SMILES IDX 86 54 85 55 41 57 73 58 53 59 72 60 54 61 57 62 71 63 90 64
REMARK SMILES IDX 55 65 56 66 70 68 91 69 58 70 42 71 43 72 51 73 44 74 45 75
REMARK SMILES IDX 49 76 52 77 46 78 47 79 50 80 48 81 74 82 75 83 83 84 76 85
REMARK SMILES IDX 77 86 81 87 84 88 78 89 79 90 82 91 80 92 59 93 60 94 68 95
REMARK SMILES IDX 61 96 62 97 66 98 69 99 63 100 64 101 67 102 65 103
REMARK H PARENT 9 25 89 56 57 67
REMARK Flexibility Score: inf
ROOT
ATOM      1  C   UNL A   1      42.539  22.289  26.058  1.00  0.00     0.261 C 
ENDROOT
BRANCH   1   2
ATOM      2  O   UNL A   1      43.125  23.416  26.730  1.00  0.00    -0.461 OA
BRANCH   2   3
ATOM      3  C   UNL A   1      42.412  24.575  26.653  1.00  0.00     0.347 C 
ATOM      4  O   UNL A   1      42.063  25.114  25.608  1.00  0.00    -0.248 OA
BRANCH   3   5
ATOM      5  C   UNL A   1      42.080  25.139  28.028  1.00  0.00     0.279 C 
ATOM      6  C   UNL A   1      42.769  24.434  29.195  1.00  0.00     0.066 C 
BRANCH   5   7
ATOM      7  O   UNL A   1      42.065  26.560  27.994  1.00  0.00    -0.479 OA
BRANCH   7   8
ATOM      8  C   UNL A   1      41.007  27.349  28.294  1.00  0.00     0.120 A 
ATOM      9  C   UNL A   1      38.625  28.839  28.409  1.00  0.00    -0.024 A 
ATOM     10  C   UNL A   1      39.074  28.119  29.522  1.00  0.00     0.012 A 
ATOM     11  C   UNL A   1      39.469  28.949  27.304  1.00  0.00     0.012 A 
ATOM     12  C   UNL A   1      40.273  27.396  29.470  1.00  0.00     0.047 A 
ATOM     13  C   UNL A   1      40.632  28.182  27.238  1.00  0.00     0.047 A 
BRANCH   9  14
ATOM     14  C   UNL A   1      37.265  29.395  28.427  1.00  0.00     0.029 C 
ATOM     15  N   UNL A   1      37.079  32.764  29.790  1.00  0.00    -0.198 N 
ATOM     16  C   UNL A   1      37.843  31.729  29.279  1.00  0.00     0.285 C 
ATOM     17  C   UNL A   1      35.747  32.808  29.443  1.00  0.00     0.168 C 
ATOM     18  O   UNL A   1      39.063  31.744  29.207  1.00  0.00    -0.266 OA
ATOM     19  C   UNL A   1      36.941  30.654  28.769  1.00  0.00     0.082 C 
ATOM     20  S   UNL A   1      35.320  31.272  28.678  1.00  0.00    -0.052 SA
ATOM     21  S   UNL A   1      34.668  34.060  29.653  1.00  0.00    -0.050 S 
BRANCH  15  22
ATOM     22  N   UNL A   1      37.772  33.824  30.361  1.00  0.00    -0.254 N 
ATOM     23  C   UNL A   1      38.389  33.861  31.591  1.00  0.00     0.273 C 
ATOM     24  O   UNL A   1      39.137  34.819  31.801  1.00  0.00    -0.267 OA
ATOM     25  H   UNL A   1      37.830  34.645  29.822  1.00  0.00     0.192 HD
BRANCH  23  26
ATOM     26  C   UNL A   1      38.112  32.911  32.662  1.00  0.00     0.082 A 
ATOM     27  C   UNL A   1      39.681  30.761  32.490  1.00  0.00     0.088 C 
ATOM     28  C   UNL A   1      38.630  31.665  32.993  1.00  0.00     0.113 A 
ATOM     29  O   UNL A   1      38.024  31.185  34.121  1.00  0.00    -0.469 OA
ATOM     30  C   UNL A   1      37.169  32.129  34.566  1.00  0.00     0.196 A 
ATOM     31  C   UNL A   1      37.197  33.213  33.730  1.00  0.00     0.056 A 
ENDBRANCH  23  26
ENDBRANCH  15  22
ENDBRANCH   9  14
ENDBRANCH   7   8
ENDBRANCH   5   7
ENDBRANCH   3   5
ENDBRANCH   2   3
ENDBRANCH   1   2
BRANCH   1  32
ATOM     32  C   UNL A   1      43.495  21.663  25.042  1.00  0.00     0.202 C 
BRANCH  32  33
ATOM     33  O   UNL A   1      44.003  22.524  24.025  1.00  0.00    -0.374 OA
BRANCH  33  34
ATOM     34  C   UNL A   1      45.412  22.729  23.980  1.00  0.00     0.202 C 
BRANCH  34  35
ATOM     35  C   UNL A   1      45.984  23.774  24.945  1.00  0.00     0.261 C 
BRANCH  35  36
ATOM     36  O   UNL A   1      45.466  25.093  24.692  1.00  0.00    -0.460 OA
BRANCH  36  37
ATOM     37  C   UNL A   1      46.388  26.080  24.745  1.00  0.00     0.338 C 
ATOM     38  O   UNL A   1      47.404  26.186  24.066  1.00  0.00    -0.246 OA
BRANCH  37  39
ATOM     39  C   UNL A   1      45.943  27.159  25.644  1.00  0.00     0.060 A 
ATOM     40  C   UNL A   1      46.898  27.713  26.506  1.00  0.00     0.016 A 
ATOM     41  C   UNL A   1      44.606  27.557  25.717  1.00  0.00     0.016 A 
ATOM     42  C   UNL A   1      46.510  28.627  27.483  1.00  0.00     0.010 A 
ATOM     43  C   UNL A   1      44.217  28.469  26.705  1.00  0.00     0.010 A 
ATOM     44  C   UNL A   1      45.160  28.979  27.617  1.00  0.00    -0.014 A 
BRANCH  44  45
ATOM     45  C   UNL A   1      44.727  29.754  28.806  1.00  0.00     0.031 A 
ATOM     46  C   UNL A   1      44.609  31.250  28.699  1.00  0.00     0.074 A 
ATOM     47  C   UNL A   1      44.393  29.131  29.950  1.00  0.00     0.049 A 
ATOM     48  N   UNL A   1      44.272  32.125  29.612  1.00  0.00    -0.248 NA
ATOM     49  C   UNL A   1      44.913  31.839  27.385  1.00  0.00     0.031 C 
ATOM     50  C   UNL A   1      44.416  27.686  30.162  1.00  0.00     0.029 A 
ATOM     51  N   UNL A   1      43.967  29.642  31.151  1.00  0.00    -0.354 N 
ATOM     52  C   UNL A   1      44.318  33.363  28.984  1.00  0.00     0.074 A 
ATOM     53  C   UNL A   1      44.749  33.133  27.622  1.00  0.00     0.031 C 
ATOM     54  C   UNL A   1      44.029  27.425  31.424  1.00  0.00     0.029 A 
ATOM     55  C   UNL A   1      43.761  28.685  32.113  1.00  0.00     0.049 A 
ATOM     56  H   UNL A   1      43.823  30.604  31.307  1.00  0.00     0.167 HD
ATOM     57  C   UNL A   1      44.015  34.581  29.493  1.00  0.00     0.037 A 
ATOM     58  C   UNL A   1      43.414  28.817  33.409  1.00  0.00     0.037 A 
ATOM     59  C   UNL A   1      43.582  34.812  30.846  1.00  0.00     0.049 A 
ATOM     60  C   UNL A   1      43.160  30.193  33.972  1.00  0.00     0.074 A 
ATOM     61  C   UNL A   1      43.253  36.011  31.455  1.00  0.00     0.029 A 
ATOM     62  N   UNL A   1      43.420  33.821  31.802  1.00  0.00    -0.354 N 
ATOM     63  N   UNL A   1      43.195  31.355  33.366  1.00  0.00    -0.248 NA
ATOM     64  C   UNL A   1      42.816  30.272  35.399  1.00  0.00     0.031 C 
ATOM     65  C   UNL A   1      42.932  35.750  32.791  1.00  0.00     0.029 A 
ATOM     66  C   UNL A   1      43.015  34.384  33.001  1.00  0.00     0.049 A 
ATOM     67  H   UNL A   1      43.570  32.860  31.650  1.00  0.00     0.167 HD
ATOM     68  C   UNL A   1      42.847  32.297  34.327  1.00  0.00     0.074 A 
ATOM     69  C   UNL A   1      42.593  31.570  35.553  1.00  0.00     0.031 C 
ATOM     70  C   UNL A   1      42.750  33.644  34.207  1.00  0.00     0.037 A 
BRANCH  57  71
ATOM     71  C   UNL A   1      44.153  35.769  28.587  1.00  0.00     0.064 A 
ATOM     72  C   UNL A   1      43.061  36.267  27.860  1.00  0.00     0.173 A 
ATOM     73  C   UNL A   1      45.375  36.449  28.488  1.00  0.00     0.173 A 
ATOM     74  F   UNL A   1      41.874  35.643  27.911  1.00  0.00    -0.203 F 
ATOM     75  C   UNL A   1      43.194  37.396  27.055  1.00  0.00     0.198 A 
ATOM     76  C   UNL A   1      45.497  37.591  27.702  1.00  0.00     0.198 A 
ATOM     77  F   UNL A   1      46.448  36.014  29.165  1.00  0.00    -0.203 F 
ATOM     78  F   UNL A   1      42.146  37.835  26.343  1.00  0.00    -0.200 F 
ATOM     79  C   UNL A   1      44.407  38.061  26.983  1.00  0.00     0.200 A 
ATOM     80  F   UNL A   1      46.669  38.240  27.642  1.00  0.00    -0.200 F 
ATOM     81  F   UNL A   1      44.530  39.155  26.218  1.00  0.00    -0.200 F 
ENDBRANCH  57  71
BRANCH  58  82
ATOM     82  C   UNL A   1      43.302  27.617  34.280  1.00  0.00     0.064 A 
ATOM     83  C   UNL A   1      44.430  27.064  34.902  1.00  0.00     0.173 A 
ATOM     84  C   UNL A   1      42.071  26.974  34.472  1.00  0.00     0.173 A 
ATOM     85  F   UNL A   1      45.635  27.627  34.726  1.00  0.00    -0.203 F 
ATOM     86  C   UNL A   1      44.336  25.897  35.659  1.00  0.00     0.198 A 
ATOM     87  C   UNL A   1      41.972  25.825  35.254  1.00  0.00     0.198 A 
ATOM     88  F   UNL A   1      40.961  27.461  33.898  1.00  0.00    -0.203 F 
ATOM     89  F   UNL A   1      45.439  25.357  36.193  1.00  0.00    -0.200 F 
ATOM     90  C   UNL A   1      43.106  25.281  35.838  1.00  0.00     0.200 A 
ATOM     91  F   UNL A   1      40.781  25.239  35.432  1.00  0.00    -0.200 F 
ATOM     92  F   UNL A   1      43.017  24.158  36.561  1.00  0.00    -0.200 F 
ENDBRANCH  58  82
BRANCH  70  93
ATOM     93  C   UNL A   1      42.310  34.416  35.417  1.00  0.00     0.064 A 
ATOM     94  C   UNL A   1      40.954  34.619  35.709  1.00  0.00     0.173 A 
ATOM     95  C   UNL A   1      43.261  34.923  36.318  1.00  0.00     0.173 A 
ATOM     96  F   UNL A   1      40.009  34.166  34.871  1.00  0.00    -0.203 F 
ATOM     97  C   UNL A   1      40.565  35.323  36.846  1.00  0.00     0.198 A 
ATOM     98  C   UNL A   1      42.867  35.601  37.469  1.00  0.00     0.198 A 
ATOM     99  F   UNL A   1      44.570  34.749  36.089  1.00  0.00    -0.203 F 
ATOM    100  F   UNL A   1      39.264  35.545  37.081  1.00  0.00    -0.200 F 
ATOM    101  C   UNL A   1      41.520  35.807  37.727  1.00  0.00     0.200 A 
ATOM    102  F   UNL A   1      43.791  36.056  38.326  1.00  0.00    -0.200 F 
ATOM    103  F   UNL A   1      41.143  36.479  38.824  1.00  0.00    -0.200 F 
ENDBRANCH  70  93
ENDBRANCH  44  45
ENDBRANCH  37  39
ENDBRANCH  36  37
ENDBRANCH  35  36
ENDBRANCH  34  35
ENDBRANCH  33  34
ENDBRANCH  32  33
ENDBRANCH   1  32
TORSDOF 19
ENDMDL
MODEL 3
REMARK VINA RESULT:     -11.9      1.341      2.722
REMARK SMILES Cc1occc1C(=O)NN1C(=O)/C(=C\c2ccc(O[C@H](C)C(=O)OCCOCCOC(=O)c3ccc(-c4c5nc(c(-c6c(F)c(F)c(F)c(F)c6F)c6ccc([nH]6)c(-c6c(F)c(F)c(F)c(F)c6F)c6nc(c(-c7c(F)c(F)c(F)c(F)c7F)c7ccc4[nH]7)C=C6)C=C5)cc3)cc2)SC1=S
REMARK SMILES IDX 25 1 24 2 22 3 23 4 20 5 21 6 19 7 18 8 15 9 16 10 97 11
REMARK SMILES IDX 17 12 96 13 14 14 10 15 11 16 99 17 12 18 13 19 98 20 100 21
REMARK SMILES IDX 9 22 7 23 8 24 6 26 1 27 2 28 3 29 4 30 5 31 26 32 27 33
REMARK SMILES IDX 28 34 29 35 30 36 31 37 32 38 33 39 34 40 95 41 35 42 94 43
REMARK SMILES IDX 36 44 37 45 38 46 88 47 39 48 93 49 87 50 89 51 40 52 92 53
REMARK SMILES IDX 86 54 85 55 41 57 73 58 53 59 72 60 54 61 57 62 71 63 90 64
REMARK SMILES IDX 55 65 56 66 70 68 91 69 58 70 42 71 43 72 51 73 44 74 45 75
REMARK SMILES IDX 49 76 52 77 46 78 47 79 50 80 48 81 74 82 75 83 83 84 76 85
REMARK SMILES IDX 77 86 81 87 84 88 78 89 79 90 82 91 80 92 59 93 60 94 68 95
REMARK SMILES IDX 61 96 62 97 66 98 69 99 63 100 64 101 67 102 65 103
REMARK H PARENT 9 25 89 56 57 67
REMARK Flexibility Score: inf
ROOT
ATOM      1  C   UNL A   1      32.053  29.942  25.649  1.00  0.00     0.261 C 
ENDROOT
BRANCH   1   2
ATOM      2  O   UNL A   1      32.122  28.732  24.877  1.00  0.00    -0.461 OA
BRANCH   2   3
ATOM      3  C   UNL A   1      32.142  28.904  23.526  1.00  0.00     0.347 C 
ATOM      4  O   UNL A   1      33.107  29.305  22.885  1.00  0.00    -0.248 OA
BRANCH   3   5
ATOM      5  C   UNL A   1      30.816  28.530  22.877  1.00  0.00     0.279 C 
ATOM      6  C   UNL A   1      29.891  29.710  22.581  1.00  0.00     0.066 C 
BRANCH   5   7
ATOM      7  O   UNL A   1      31.011  27.540  21.876  1.00  0.00    -0.479 OA
BRANCH   7   8
ATOM      8  C   UNL A   1      31.445  26.276  22.086  1.00  0.00     0.120 A 
ATOM      9  C   UNL A   1      31.822  23.507  22.400  1.00  0.00    -0.024 A 
ATOM     10  C   UNL A   1      32.786  24.293  21.759  1.00  0.00     0.012 A 
ATOM     11  C   UNL A   1      30.759  24.147  23.036  1.00  0.00     0.012 A 
ATOM     12  C   UNL A   1      32.608  25.676  21.624  1.00  0.00     0.047 A 
ATOM     13  C   UNL A   1      30.558  25.515  22.849  1.00  0.00     0.047 A 
BRANCH   9  14
ATOM     14  C   UNL A   1      31.936  22.044  22.324  1.00  0.00     0.029 C 
ATOM     15  N   UNL A   1      33.089  20.503  25.411  1.00  0.00    -0.198 N 
ATOM     16  C   UNL A   1      32.575  21.607  24.754  1.00  0.00     0.285 C 
ATOM     17  C   UNL A   1      32.871  19.265  24.851  1.00  0.00     0.168 C 
ATOM     18  O   UNL A   1      32.384  22.695  25.279  1.00  0.00    -0.266 OA
ATOM     19  C   UNL A   1      32.225  21.229  23.352  1.00  0.00     0.082 C 
ATOM     20  S   UNL A   1      32.253  19.498  23.211  1.00  0.00    -0.052 SA
ATOM     21  S   UNL A   1      33.104  17.765  25.539  1.00  0.00    -0.050 S 
BRANCH  15  22
ATOM     22  N   UNL A   1      33.521  20.704  26.717  1.00  0.00    -0.254 N 
ATOM     23  C   UNL A   1      34.543  21.516  27.151  1.00  0.00     0.273 C 
ATOM     24  O   UNL A   1      34.607  21.718  28.366  1.00  0.00    -0.267 OA
ATOM     25  H   UNL A   1      33.036  20.206  27.415  1.00  0.00     0.192 HD
BRANCH  23  26
ATOM     26  C   UNL A   1      35.590  22.032  26.275  1.00  0.00     0.082 A 
ATOM     27  C   UNL A   1      36.815  20.066  24.953  1.00  0.00     0.088 C 
ATOM     28  C   UNL A   1      36.501  21.431  25.416  1.00  0.00     0.113 A 
ATOM     29  O   UNL A   1      37.273  22.380  24.805  1.00  0.00    -0.469 OA
ATOM     30  C   UNL A   1      36.833  23.592  25.204  1.00  0.00     0.196 A 
ATOM     31  C   UNL A   1      35.793  23.443  26.081  1.00  0.00     0.056 A 
ENDBRANCH  23  26
ENDBRANCH  15  22
ENDBRANCH   9  14
ENDBRANCH   7   8
ENDBRANCH   5   7
ENDBRANCH   3   5
ENDBRANCH   2   3
ENDBRANCH   1   2
BRANCH   1  32
ATOM     32  C   UNL A   1      33.252  30.097  26.586  1.00  0.00     0.202 C 
BRANCH  32  33
ATOM     33  O   UNL A   1      33.077  30.957  27.710  1.00  0.00    -0.374 OA
BRANCH  33  34
ATOM     34  C   UNL A   1      33.692  32.241  27.657  1.00  0.00     0.202 C 
BRANCH  34  35
ATOM     35  C   UNL A   1      32.771  33.430  27.355  1.00  0.00     0.261 C 
BRANCH  35  36
ATOM     36  O   UNL A   1      32.336  34.102  28.552  1.00  0.00    -0.460 OA
BRANCH  36  37
ATOM     37  C   UNL A   1      33.121  35.133  28.936  1.00  0.00     0.338 C 
ATOM     38  O   UNL A   1      32.892  36.331  28.806  1.00  0.00    -0.246 OA
BRANCH  37  39
ATOM     39  C   UNL A   1      34.276  34.646  29.712  1.00  0.00     0.060 A 
ATOM     40  C   UNL A   1      35.543  34.782  29.132  1.00  0.00     0.016 A 
ATOM     41  C   UNL A   1      34.120  33.985  30.932  1.00  0.00     0.016 A 
ATOM     42  C   UNL A   1      36.655  34.207  29.743  1.00  0.00     0.010 A 
ATOM     43  C   UNL A   1      35.238  33.400  31.540  1.00  0.00     0.010 A 
ATOM     44  C   UNL A   1      36.504  33.476  30.929  1.00  0.00    -0.014 A 
BRANCH  44  45
ATOM     45  C   UNL A   1      37.641  32.668  31.434  1.00  0.00     0.031 A 
ATOM     46  C   UNL A   1      38.222  32.989  32.784  1.00  0.00     0.074 A 
ATOM     47  C   UNL A   1      38.119  31.631  30.724  1.00  0.00     0.049 A 
ATOM     48  N   UNL A   1      39.227  32.433  33.412  1.00  0.00    -0.248 NA
ATOM     49  C   UNL A   1      37.583  34.087  33.529  1.00  0.00     0.031 C 
ATOM     50  C   UNL A   1      37.609  31.189  29.428  1.00  0.00     0.029 A 
ATOM     51  N   UNL A   1      39.144  30.760  30.998  1.00  0.00    -0.354 N 
ATOM     52  C   UNL A   1      39.337  33.106  34.621  1.00  0.00     0.074 A 
ATOM     53  C   UNL A   1      38.320  34.136  34.629  1.00  0.00     0.031 C 
ATOM     54  C   UNL A   1      38.330  30.131  29.014  1.00  0.00     0.029 A 
ATOM     55  C   UNL A   1      39.368  29.843  30.002  1.00  0.00     0.049 A 
ATOM     56  H   UNL A   1      39.667  30.789  31.832  1.00  0.00     0.167 HD
ATOM     57  C   UNL A   1      40.199  32.878  35.640  1.00  0.00     0.037 A 
ATOM     58  C   UNL A   1      40.318  28.894  29.893  1.00  0.00     0.037 A 
ATOM     59  C   UNL A   1      41.208  31.852  35.637  1.00  0.00     0.049 A 
ATOM     60  C   UNL A   1      41.317  28.713  31.009  1.00  0.00     0.074 A 
ATOM     61  C   UNL A   1      42.130  31.543  36.623  1.00  0.00     0.029 A 
ATOM     62  N   UNL A   1      41.429  30.966  34.593  1.00  0.00    -0.354 N 
ATOM     63  N   UNL A   1      41.405  29.347  32.153  1.00  0.00    -0.248 NA
ATOM     64  C   UNL A   1      42.347  27.682  30.816  1.00  0.00     0.031 C 
ATOM     65  C   UNL A   1      42.936  30.499  36.158  1.00  0.00     0.029 A 
ATOM     66  C   UNL A   1      42.485  30.124  34.903  1.00  0.00     0.049 A 
ATOM     67  H   UNL A   1      40.911  30.939  33.756  1.00  0.00     0.167 HD
ATOM     68  C   UNL A   1      42.475  28.772  32.827  1.00  0.00     0.074 A 
ATOM     69  C   UNL A   1      42.998  27.729  31.969  1.00  0.00     0.031 C 
ATOM     70  C   UNL A   1      42.982  29.081  34.046  1.00  0.00     0.037 A 
BRANCH  57  71
ATOM     71  C   UNL A   1      40.102  33.764  36.847  1.00  0.00     0.064 A 
ATOM     72  C   UNL A   1      39.251  33.452  37.918  1.00  0.00     0.173 A 
ATOM     73  C   UNL A   1      40.908  34.906  36.957  1.00  0.00     0.173 A 
ATOM     74  F   UNL A   1      38.450  32.378  37.854  1.00  0.00    -0.203 F 
ATOM     75  C   UNL A   1      39.203  34.262  39.051  1.00  0.00     0.198 A 
ATOM     76  C   UNL A   1      40.875  35.698  38.101  1.00  0.00     0.198 A 
ATOM     77  F   UNL A   1      41.740  35.245  35.961  1.00  0.00    -0.203 F 
ATOM     78  F   UNL A   1      38.358  33.964  40.049  1.00  0.00    -0.200 F 
ATOM     79  C   UNL A   1      40.019  35.378  39.145  1.00  0.00     0.200 A 
ATOM     80  F   UNL A   1      41.673  36.771  38.195  1.00  0.00    -0.200 F 
ATOM     81  F   UNL A   1      39.980  36.148  40.241  1.00  0.00    -0.200 F 
ENDBRANCH  57  71
BRANCH  58  82
ATOM     82  C   UNL A   1      40.392  28.045  28.674  1.00  0.00     0.064 A 
ATOM     83  C   UNL A   1      39.751  26.799  28.617  1.00  0.00     0.173 A 
ATOM     84  C   UNL A   1      41.143  28.443  27.558  1.00  0.00     0.173 A 
ATOM     85  F   UNL A   1      39.044  26.362  29.669  1.00  0.00    -0.203 F 
ATOM     86  C   UNL A   1      39.882  25.973  27.503  1.00  0.00     0.198 A 
ATOM     87  C   UNL A   1      41.248  27.630  26.433  1.00  0.00     0.198 A 
ATOM     88  F   UNL A   1      41.777  29.625  27.562  1.00  0.00    -0.203 F 
ATOM     89  F   UNL A   1      39.307  24.762  27.498  1.00  0.00    -0.200 F 
ATOM     90  C   UNL A   1      40.627  26.390  26.410  1.00  0.00     0.200 A 
ATOM     91  F   UNL A   1      41.960  28.042  25.376  1.00  0.00    -0.200 F 
ATOM     92  F   UNL A   1      40.755  25.594  25.341  1.00  0.00    -0.200 F 
ENDBRANCH  58  82
BRANCH  70  93
ATOM     93  C   UNL A   1      44.133  28.256  34.545  1.00  0.00     0.064 A 
ATOM     94  C   UNL A   1      45.463  28.648  34.339  1.00  0.00     0.173 A 
ATOM     95  C   UNL A   1      43.898  27.080  35.275  1.00  0.00     0.173 A 
ATOM     96  F   UNL A   1      45.739  29.756  33.634  1.00  0.00    -0.203 F 
ATOM     97  C   UNL A   1      46.518  27.879  34.824  1.00  0.00     0.198 A 
ATOM     98  C   UNL A   1      44.955  26.330  35.784  1.00  0.00     0.198 A 
ATOM     99  F   UNL A   1      42.644  26.667  35.506  1.00  0.00    -0.203 F 
ATOM    100  F   UNL A   1      47.783  28.248  34.576  1.00  0.00    -0.200 F 
ATOM    101  C   UNL A   1      46.264  26.726  35.551  1.00  0.00     0.200 A 
ATOM    102  F   UNL A   1      44.706  25.223  36.497  1.00  0.00    -0.200 F 
ATOM    103  F   UNL A   1      47.280  25.990  36.023  1.00  0.00    -0.200 F 
ENDBRANCH  70  93
ENDBRANCH  44  45
ENDBRANCH  37  39
ENDBRANCH  36  37
ENDBRANCH  35  36
ENDBRANCH  34  35
ENDBRANCH  33  34
ENDBRANCH  32  33
ENDBRANCH   1  32
TORSDOF 19
ENDMDL
