MODEL 1
REMARK VINA RESULT:     -11.9      0.000      0.000
REMARK SMILES O=C(COCC(=O)OCCOCCOC(=O)c1ccc(-c2c3nc(c(-c4c(F)c(F)c(F)c(F)c4F)c4ccc([nH]4)c(-c4c(F)c(F)c(F)c(F)c4F)c4nc(c(-c5c(F)c(F)c(F)c(F)c5F)c5ccc2[nH]5)C=C4)C=C3)cc1)/[NH+]=C1\S[C@@H]2CS(=O)(=O)C[C@H]2N1c1ccc(Cl)cc1
REMARK SMILES IDX 10 1 9 2 8 3 6 4 7 5 5 6 4 7 3 8 2 9 1 10 80 11 81 12 82 14
REMARK SMILES IDX 90 15 83 16 89 17 84 18 88 19 85 20 86 21 87 22 91 23 92 24
REMARK SMILES IDX 97 25 93 26 96 27 94 28 95 29 11 30 12 31 13 32 14 33 15 34
REMARK SMILES IDX 16 35 17 36 18 37 79 38 19 39 78 40 20 41 21 42 22 43 72 44
REMARK SMILES IDX 23 45 77 46 71 47 73 48 24 49 76 50 70 51 69 52 25 54 57 55
REMARK SMILES IDX 37 56 56 57 38 58 41 59 55 60 74 61 39 62 40 63 54 65 75 66
REMARK SMILES IDX 42 67 26 68 27 69 35 70 28 71 29 72 33 73 36 74 30 75 31 76
REMARK SMILES IDX 34 77 32 78 58 79 59 80 67 81 60 82 61 83 65 84 68 85 62 86
REMARK SMILES IDX 63 87 66 88 64 89 43 90 44 91 52 92 45 93 46 94 50 95 53 96
REMARK SMILES IDX 47 97 48 98 51 99 49 100
REMARK H PARENT 80 13 73 53 41 64
REMARK Flexibility Score: inf
ROOT
ATOM      1  C   UNL A   1      36.328  21.271  25.380  1.00  0.00     0.202 C 
ENDROOT
BRANCH   1   2
ATOM      2  C   UNL A   1      34.975  21.153  24.671  1.00  0.00     0.261 C 
BRANCH   2   3
ATOM      3  O   UNL A   1      34.239  19.981  25.075  1.00  0.00    -0.462 OA
BRANCH   3   4
ATOM      4  C   UNL A   1      32.883  20.072  24.987  1.00  0.00     0.332 C 
ATOM      5  O   UNL A   1      32.118  19.114  24.942  1.00  0.00    -0.250 OA
BRANCH   4   6
ATOM      6  C   UNL A   1      32.380  21.527  24.921  1.00  0.00     0.283 C 
BRANCH   6   7
ATOM      7  O   UNL A   1      31.864  22.209  26.053  1.00  0.00    -0.358 OA
BRANCH   7   8
ATOM      8  C   UNL A   1      31.871  23.616  25.910  1.00  0.00     0.288 C 
BRANCH   8   9
ATOM      9  C   UNL A   1      33.127  24.458  26.283  1.00  0.00     0.333 C 
ATOM     10  O   UNL A   1      34.197  23.892  26.503  1.00  0.00    -0.244 OA
ATOM     11  N   UNL A   1      32.986  25.819  26.411  1.00  0.00    -0.202 N 
ATOM     12  C   UNL A   1      32.607  26.534  25.408  1.00  0.00     0.319 C 
ATOM     13  H   UNL A   1      33.177  26.252  27.275  1.00  0.00     0.316 HD
ATOM     14  S   UNL A   1      32.195  25.865  23.793  1.00  0.00    -0.029 SA
ATOM     15  N   UNL A   1      32.325  27.907  25.394  1.00  0.00    -0.217 N 
ATOM     16  C   UNL A   1      30.866  27.068  23.736  1.00  0.00     0.120 C 
ATOM     17  C   UNL A   1      31.650  28.325  24.146  1.00  0.00     0.212 C 
ATOM     18  C   UNL A   1      30.127  27.337  22.460  1.00  0.00     0.156 C 
ATOM     19  C   UNL A   1      30.590  29.398  24.158  1.00  0.00     0.188 C 
ATOM     20  S   UNL A   1      29.670  29.058  22.650  1.00  0.00     0.155 S 
ATOM     21  O   UNL A   1      28.262  29.140  22.948  1.00  0.00    -0.229 OA
ATOM     22  O   UNL A   1      30.287  29.799  21.566  1.00  0.00    -0.229 OA
BRANCH  15  23
ATOM     23  C   UNL A   1      33.025  28.862  26.151  1.00  0.00     0.128 A 
ATOM     24  C   UNL A   1      32.404  30.040  26.598  1.00  0.00     0.053 A 
ATOM     25  C   UNL A   1      34.378  28.685  26.488  1.00  0.00     0.053 A 
ATOM     26  C   UNL A   1      33.108  31.021  27.307  1.00  0.00     0.025 A 
ATOM     27  C   UNL A   1      35.091  29.664  27.196  1.00  0.00     0.025 A 
ATOM     28  C   UNL A   1      34.455  30.833  27.595  1.00  0.00     0.041 A 
ATOM     29  Cl  UNL A   1      35.324  32.045  28.450  1.00  0.00    -0.084 Cl
ENDBRANCH  15  23
ENDBRANCH   8   9
ENDBRANCH   7   8
ENDBRANCH   6   7
ENDBRANCH   4   6
ENDBRANCH   3   4
ENDBRANCH   2   3
ENDBRANCH   1   2
BRANCH   1  30
ATOM     30  O   UNL A   1      37.485  20.828  24.677  1.00  0.00    -0.374 OA
BRANCH  30  31
ATOM     31  C   UNL A   1      37.971  19.518  24.961  1.00  0.00     0.202 C 
BRANCH  31  32
ATOM     32  C   UNL A   1      39.394  19.417  25.551  1.00  0.00     0.261 C 
BRANCH  32  33
ATOM     33  O   UNL A   1      39.947  20.687  25.962  1.00  0.00    -0.460 OA
BRANCH  33  34
ATOM     34  C   UNL A   1      40.538  20.668  27.185  1.00  0.00     0.338 C 
ATOM     35  O   UNL A   1      40.975  19.698  27.782  1.00  0.00    -0.246 OA
BRANCH  34  36
ATOM     36  C   UNL A   1      40.776  22.039  27.682  1.00  0.00     0.060 A 
ATOM     37  C   UNL A   1      39.977  23.061  27.149  1.00  0.00     0.016 A 
ATOM     38  C   UNL A   1      41.839  22.345  28.531  1.00  0.00     0.016 A 
ATOM     39  C   UNL A   1      40.273  24.397  27.416  1.00  0.00     0.010 A 
ATOM     40  C   UNL A   1      42.140  23.690  28.791  1.00  0.00     0.010 A 
ATOM     41  C   UNL A   1      41.386  24.723  28.199  1.00  0.00    -0.014 A 
BRANCH  41  42
ATOM     42  C   UNL A   1      41.868  26.130  28.247  1.00  0.00     0.031 A 
ATOM     43  C   UNL A   1      43.167  26.474  27.568  1.00  0.00     0.074 A 
ATOM     44  C   UNL A   1      41.153  27.095  28.856  1.00  0.00     0.049 A 
ATOM     45  N   UNL A   1      43.832  27.602  27.563  1.00  0.00    -0.248 NA
ATOM     46  C   UNL A   1      43.806  25.400  26.791  1.00  0.00     0.031 C 
ATOM     47  C   UNL A   1      39.851  26.909  29.492  1.00  0.00     0.029 A 
ATOM     48  N   UNL A   1      41.435  28.426  29.051  1.00  0.00    -0.354 N 
ATOM     49  C   UNL A   1      44.975  27.365  26.807  1.00  0.00     0.074 A 
ATOM     50  C   UNL A   1      44.923  25.984  26.381  1.00  0.00     0.031 C 
ATOM     51  C   UNL A   1      39.456  28.078  30.027  1.00  0.00     0.029 A 
ATOM     52  C   UNL A   1      40.497  29.082  29.811  1.00  0.00     0.049 A 
ATOM     53  H   UNL A   1      42.234  28.867  28.681  1.00  0.00     0.167 HD
ATOM     54  C   UNL A   1      45.973  28.225  26.495  1.00  0.00     0.037 A 
ATOM     55  C   UNL A   1      40.498  30.336  30.306  1.00  0.00     0.037 A 
ATOM     56  C   UNL A   1      46.008  29.606  26.897  1.00  0.00     0.049 A 
ATOM     57  C   UNL A   1      41.663  31.251  30.006  1.00  0.00     0.074 A 
ATOM     58  C   UNL A   1      46.963  30.563  26.604  1.00  0.00     0.029 A 
ATOM     59  N   UNL A   1      45.048  30.226  27.682  1.00  0.00    -0.354 N 
ATOM     60  N   UNL A   1      42.729  31.023  29.277  1.00  0.00    -0.248 NA
ATOM     61  C   UNL A   1      41.624  32.596  30.597  1.00  0.00     0.031 C 
ATOM     62  C   UNL A   1      46.617  31.744  27.264  1.00  0.00     0.029 A 
ATOM     63  C   UNL A   1      45.406  31.544  27.907  1.00  0.00     0.049 A 
ATOM     64  H   UNL A   1      44.234  29.793  28.026  1.00  0.00     0.167 HD
ATOM     65  C   UNL A   1      43.458  32.208  29.283  1.00  0.00     0.074 A 
ATOM     66  C   UNL A   1      42.713  33.152  30.085  1.00  0.00     0.031 C 
ATOM     67  C   UNL A   1      44.636  32.487  28.675  1.00  0.00     0.037 A 
BRANCH  54  68
ATOM     68  C   UNL A   1      47.137  27.703  25.705  1.00  0.00     0.064 A 
ATOM     69  C   UNL A   1      47.168  27.757  24.304  1.00  0.00     0.173 A 
ATOM     70  C   UNL A   1      48.278  27.226  26.370  1.00  0.00     0.173 A 
ATOM     71  F   UNL A   1      46.100  28.195  23.621  1.00  0.00    -0.203 F 
ATOM     72  C   UNL A   1      48.296  27.343  23.598  1.00  0.00     0.198 A 
ATOM     73  C   UNL A   1      49.414  26.843  25.662  1.00  0.00     0.198 A 
ATOM     74  F   UNL A   1      48.302  27.160  27.710  1.00  0.00    -0.203 F 
ATOM     75  F   UNL A   1      48.294  27.376  22.259  1.00  0.00    -0.200 F 
ATOM     76  C   UNL A   1      49.421  26.898  24.277  1.00  0.00     0.200 A 
ATOM     77  F   UNL A   1      50.505  26.431  26.322  1.00  0.00    -0.200 F 
ATOM     78  F   UNL A   1      50.513  26.524  23.596  1.00  0.00    -0.200 F 
ENDBRANCH  54  68
BRANCH  55  79
ATOM     79  C   UNL A   1      39.386  30.806  31.179  1.00  0.00     0.064 A 
ATOM     80  C   UNL A   1      38.383  31.654  30.687  1.00  0.00     0.173 A 
ATOM     81  C   UNL A   1      39.342  30.473  32.541  1.00  0.00     0.173 A 
ATOM     82  F   UNL A   1      38.393  32.025  29.398  1.00  0.00    -0.203 F 
ATOM     83  C   UNL A   1      37.405  32.181  31.530  1.00  0.00     0.198 A 
ATOM     84  C   UNL A   1      38.342  30.969  33.375  1.00  0.00     0.198 A 
ATOM     85  F   UNL A   1      40.276  29.667  33.068  1.00  0.00    -0.203 F 
ATOM     86  F   UNL A   1      36.506  33.048  31.046  1.00  0.00    -0.200 F 
ATOM     87  C   UNL A   1      37.384  31.836  32.872  1.00  0.00     0.200 A 
ATOM     88  F   UNL A   1      38.318  30.621  34.669  1.00  0.00    -0.200 F 
ATOM     89  F   UNL A   1      36.450  32.350  33.684  1.00  0.00    -0.200 F 
ENDBRANCH  55  79
BRANCH  67  90
ATOM     90  C   UNL A   1      45.166  33.890  28.777  1.00  0.00     0.064 A 
ATOM     91  C   UNL A   1      46.090  34.267  29.761  1.00  0.00     0.173 A 
ATOM     92  C   UNL A   1      44.794  34.851  27.823  1.00  0.00     0.173 A 
ATOM     93  F   UNL A   1      46.470  33.391  30.703  1.00  0.00    -0.203 F 
ATOM     94  C   UNL A   1      46.608  35.560  29.797  1.00  0.00     0.198 A 
ATOM     95  C   UNL A   1      45.339  36.131  27.841  1.00  0.00     0.198 A 
ATOM     96  F   UNL A   1      43.919  34.539  26.854  1.00  0.00    -0.203 F 
ATOM     97  F   UNL A   1      47.459  35.911  30.772  1.00  0.00    -0.200 F 
ATOM     98  C   UNL A   1      46.241  36.486  28.832  1.00  0.00     0.200 A 
ATOM     99  F   UNL A   1      44.998  37.017  26.896  1.00  0.00    -0.200 F 
ATOM    100  F   UNL A   1      46.755  37.723  28.859  1.00  0.00    -0.200 F 
ENDBRANCH  67  90
ENDBRANCH  41  42
ENDBRANCH  34  36
ENDBRANCH  33  34
ENDBRANCH  32  33
ENDBRANCH  31  32
ENDBRANCH  30  31
ENDBRANCH   1  30
TORSDOF 18
ENDMDL
MODEL 2
REMARK VINA RESULT:     -11.3      1.196      2.157
REMARK SMILES O=C(COCC(=O)OCCOCCOC(=O)c1ccc(-c2c3nc(c(-c4c(F)c(F)c(F)c(F)c4F)c4ccc([nH]4)c(-c4c(F)c(F)c(F)c(F)c4F)c4nc(c(-c5c(F)c(F)c(F)c(F)c5F)c5ccc2[nH]5)C=C4)C=C3)cc1)/[NH+]=C1\S[C@@H]2CS(=O)(=O)C[C@H]2N1c1ccc(Cl)cc1
REMARK SMILES IDX 10 1 9 2 8 3 6 4 7 5 5 6 4 7 3 8 2 9 1 10 80 11 81 12 82 14
REMARK SMILES IDX 90 15 83 16 89 17 84 18 88 19 85 20 86 21 87 22 91 23 92 24
REMARK SMILES IDX 97 25 93 26 96 27 94 28 95 29 11 30 12 31 13 32 14 33 15 34
REMARK SMILES IDX 16 35 17 36 18 37 79 38 19 39 78 40 20 41 21 42 22 43 72 44
REMARK SMILES IDX 23 45 77 46 71 47 73 48 24 49 76 50 70 51 69 52 25 54 57 55
REMARK SMILES IDX 37 56 56 57 38 58 41 59 55 60 74 61 39 62 40 63 54 65 75 66
REMARK SMILES IDX 42 67 26 68 27 69 35 70 28 71 29 72 33 73 36 74 30 75 31 76
REMARK SMILES IDX 34 77 32 78 58 79 59 80 67 81 60 82 61 83 65 84 68 85 62 86
REMARK SMILES IDX 63 87 66 88 64 89 43 90 44 91 52 92 45 93 46 94 50 95 53 96
REMARK SMILES IDX 47 97 48 98 51 99 49 100
REMARK H PARENT 80 13 73 53 41 64
REMARK Flexibility Score: inf
ROOT
ATOM      1  C   UNL A   1      34.712  20.988  25.460  1.00  0.00     0.202 C 
ENDROOT
BRANCH   1   2
ATOM      2  C   UNL A   1      33.663  21.453  26.474  1.00  0.00     0.261 C 
BRANCH   2   3
ATOM      3  O   UNL A   1      32.407  21.793  25.855  1.00  0.00    -0.462 OA
BRANCH   3   4
ATOM      4  C   UNL A   1      31.657  22.728  26.505  1.00  0.00     0.332 C 
ATOM      5  O   UNL A   1      31.794  23.038  27.683  1.00  0.00    -0.250 OA
BRANCH   4   6
ATOM      6  C   UNL A   1      30.575  23.359  25.610  1.00  0.00     0.283 C 
BRANCH   6   7
ATOM      7  O   UNL A   1      30.616  23.287  24.193  1.00  0.00    -0.358 OA
BRANCH   7   8
ATOM      8  C   UNL A   1      31.072  24.480  23.584  1.00  0.00     0.288 C 
BRANCH   8   9
ATOM      9  C   UNL A   1      32.416  25.140  24.013  1.00  0.00     0.333 C 
ATOM     10  O   UNL A   1      33.476  24.548  23.816  1.00  0.00    -0.244 OA
ATOM     11  N   UNL A   1      32.370  26.353  24.658  1.00  0.00    -0.202 N 
ATOM     12  C   UNL A   1      31.865  27.385  24.073  1.00  0.00     0.319 C 
ATOM     13  H   UNL A   1      32.727  26.436  25.572  1.00  0.00     0.316 HD
ATOM     14  S   UNL A   1      31.151  27.360  22.426  1.00  0.00    -0.029 SA
ATOM     15  N   UNL A   1      31.657  28.660  24.616  1.00  0.00    -0.217 N 
ATOM     16  C   UNL A   1      29.896  28.478  23.052  1.00  0.00     0.120 C 
ATOM     17  C   UNL A   1      30.802  29.503  23.751  1.00  0.00     0.212 C 
ATOM     18  C   UNL A   1      28.967  29.192  22.118  1.00  0.00     0.156 C 
ATOM     19  C   UNL A   1      29.818  30.479  24.346  1.00  0.00     0.188 C 
ATOM     20  S   UNL A   1      28.639  30.711  23.007  1.00  0.00     0.155 S 
ATOM     21  O   UNL A   1      27.308  30.655  23.558  1.00  0.00    -0.229 OA
ATOM     22  O   UNL A   1      29.102  31.811  22.182  1.00  0.00    -0.229 OA
BRANCH  15  23
ATOM     23  C   UNL A   1      32.525  29.275  25.536  1.00  0.00     0.128 A 
ATOM     24  C   UNL A   1      33.824  28.788  25.754  1.00  0.00     0.053 A 
ATOM     25  C   UNL A   1      32.129  30.399  26.281  1.00  0.00     0.053 A 
ATOM     26  C   UNL A   1      34.676  29.362  26.706  1.00  0.00     0.025 A 
ATOM     27  C   UNL A   1      32.975  30.979  27.238  1.00  0.00     0.025 A 
ATOM     28  C   UNL A   1      34.243  30.451  27.453  1.00  0.00     0.041 A 
ATOM     29  Cl  UNL A   1      35.282  31.146  28.633  1.00  0.00    -0.084 Cl
ENDBRANCH  15  23
ENDBRANCH   8   9
ENDBRANCH   7   8
ENDBRANCH   6   7
ENDBRANCH   4   6
ENDBRANCH   3   4
ENDBRANCH   2   3
ENDBRANCH   1   2
BRANCH   1  30
ATOM     30  O   UNL A   1      35.348  21.982  24.661  1.00  0.00    -0.374 OA
BRANCH  30  31
ATOM     31  C   UNL A   1      36.708  21.765  24.293  1.00  0.00     0.202 C 
BRANCH  31  32
ATOM     32  C   UNL A   1      37.649  21.231  25.394  1.00  0.00     0.261 C 
BRANCH  32  33
ATOM     33  O   UNL A   1      38.947  21.862  25.409  1.00  0.00    -0.460 OA
BRANCH  33  34
ATOM     34  C   UNL A   1      39.646  21.676  26.560  1.00  0.00     0.338 C 
ATOM     35  O   UNL A   1      40.082  20.625  26.999  1.00  0.00    -0.246 OA
BRANCH  34  36
ATOM     36  C   UNL A   1      39.999  22.968  27.183  1.00  0.00     0.060 A 
ATOM     37  C   UNL A   1      39.324  24.107  26.721  1.00  0.00     0.016 A 
ATOM     38  C   UNL A   1      41.056  23.091  28.083  1.00  0.00     0.016 A 
ATOM     39  C   UNL A   1      39.740  25.379  27.113  1.00  0.00     0.010 A 
ATOM     40  C   UNL A   1      41.479  24.372  28.469  1.00  0.00     0.010 A 
ATOM     41  C   UNL A   1      40.852  25.523  27.951  1.00  0.00    -0.014 A 
BRANCH  41  42
ATOM     42  C   UNL A   1      41.467  26.865  28.138  1.00  0.00     0.031 A 
ATOM     43  C   UNL A   1      42.872  27.091  27.645  1.00  0.00     0.074 A 
ATOM     44  C   UNL A   1      40.784  27.876  28.706  1.00  0.00     0.049 A 
ATOM     45  N   UNL A   1      43.646  28.137  27.785  1.00  0.00    -0.248 NA
ATOM     46  C   UNL A   1      43.490  25.986  26.894  1.00  0.00     0.031 C 
ATOM     47  C   UNL A   1      39.399  27.809  29.165  1.00  0.00     0.029 A 
ATOM     48  N   UNL A   1      41.176  29.158  29.008  1.00  0.00    -0.354 N 
ATOM     49  C   UNL A   1      44.845  27.808  27.165  1.00  0.00     0.074 A 
ATOM     50  C   UNL A   1      44.706  26.460  26.659  1.00  0.00     0.031 C 
ATOM     51  C   UNL A   1      39.062  28.991  29.711  1.00  0.00     0.029 A 
ATOM     52  C   UNL A   1      40.221  29.882  29.682  1.00  0.00     0.049 A 
ATOM     53  H   UNL A   1      42.058  29.524  28.765  1.00  0.00     0.167 HD
ATOM     54  C   UNL A   1      45.960  28.564  27.027  1.00  0.00     0.037 A 
ATOM     55  C   UNL A   1      40.289  31.106  30.242  1.00  0.00     0.037 A 
ATOM     56  C   UNL A   1      46.087  29.915  27.507  1.00  0.00     0.049 A 
ATOM     57  C   UNL A   1      41.573  31.898  30.140  1.00  0.00     0.074 A 
ATOM     58  C   UNL A   1      47.167  30.772  27.387  1.00  0.00     0.029 A 
ATOM     59  N   UNL A   1      45.104  30.604  28.199  1.00  0.00    -0.354 N 
ATOM     60  N   UNL A   1      42.694  31.585  29.537  1.00  0.00    -0.248 NA
ATOM     61  C   UNL A   1      41.598  33.214  30.796  1.00  0.00     0.031 C 
ATOM     62  C   UNL A   1      46.863  31.955  28.065  1.00  0.00     0.029 A 
ATOM     63  C   UNL A   1      45.565  31.864  28.540  1.00  0.00     0.049 A 
ATOM     64  H   UNL A   1      44.211  30.250  28.416  1.00  0.00     0.167 HD
ATOM     65  C   UNL A   1      43.535  32.681  29.699  1.00  0.00     0.074 A 
ATOM     66  C   UNL A   1      42.796  33.667  30.454  1.00  0.00     0.031 C 
ATOM     67  C   UNL A   1      44.805  32.853  29.258  1.00  0.00     0.037 A 
BRANCH  54  68
ATOM     68  C   UNL A   1      47.156  27.951  26.359  1.00  0.00     0.064 A 
ATOM     69  C   UNL A   1      48.112  27.218  27.077  1.00  0.00     0.173 A 
ATOM     70  C   UNL A   1      47.295  28.024  24.964  1.00  0.00     0.173 A 
ATOM     71  F   UNL A   1      48.031  27.126  28.413  1.00  0.00    -0.203 F 
ATOM     72  C   UNL A   1      49.168  26.587  26.422  1.00  0.00     0.198 A 
ATOM     73  C   UNL A   1      48.334  27.367  24.311  1.00  0.00     0.198 A 
ATOM     74  F   UNL A   1      46.404  28.708  24.231  1.00  0.00    -0.203 F 
ATOM     75  F   UNL A   1      50.086  25.915  27.129  1.00  0.00    -0.200 F 
ATOM     76  C   UNL A   1      49.271  26.652  25.040  1.00  0.00     0.200 A 
ATOM     77  F   UNL A   1      48.420  27.418  22.974  1.00  0.00    -0.200 F 
ATOM     78  F   UNL A   1      50.274  26.025  24.410  1.00  0.00    -0.200 F 
ENDBRANCH  54  68
BRANCH  55  79
ATOM     79  C   UNL A   1      39.129  31.659  30.995  1.00  0.00     0.064 A 
ATOM     80  C   UNL A   1      38.887  31.296  32.328  1.00  0.00     0.173 A 
ATOM     81  C   UNL A   1      38.199  32.508  30.375  1.00  0.00     0.173 A 
ATOM     82  F   UNL A   1      39.731  30.467  32.960  1.00  0.00    -0.203 F 
ATOM     83  C   UNL A   1      37.742  31.728  32.997  1.00  0.00     0.198 A 
ATOM     84  C   UNL A   1      37.075  32.969  31.057  1.00  0.00     0.198 A 
ATOM     85  F   UNL A   1      38.378  32.887  29.101  1.00  0.00    -0.203 F 
ATOM     86  F   UNL A   1      37.499  31.303  34.244  1.00  0.00    -0.200 F 
ATOM     87  C   UNL A   1      36.839  32.565  32.362  1.00  0.00     0.200 A 
ATOM     88  F   UNL A   1      36.212  33.791  30.442  1.00  0.00    -0.200 F 
ATOM     89  F   UNL A   1      35.734  32.972  33.001  1.00  0.00    -0.200 F 
ENDBRANCH  55  79
BRANCH  67  90
ATOM     90  C   UNL A   1      45.461  34.183  29.503  1.00  0.00     0.064 A 
ATOM     91  C   UNL A   1      46.266  34.420  30.625  1.00  0.00     0.173 A 
ATOM     92  C   UNL A   1      45.336  35.211  28.555  1.00  0.00     0.173 A 
ATOM     93  F   UNL A   1      46.409  33.476  31.567  1.00  0.00    -0.203 F 
ATOM     94  C   UNL A   1      46.908  35.645  30.798  1.00  0.00     0.198 A 
ATOM     95  C   UNL A   1      46.006  36.420  28.713  1.00  0.00     0.198 A 
ATOM     96  F   UNL A   1      44.584  35.032  27.458  1.00  0.00    -0.203 F 
ATOM     97  F   UNL A   1      47.641  35.865  31.899  1.00  0.00    -0.200 F 
ATOM     98  C   UNL A   1      46.787  36.639  29.838  1.00  0.00     0.200 A 
ATOM     99  F   UNL A   1      45.903  37.370  27.774  1.00  0.00    -0.200 F 
ATOM    100  F   UNL A   1      47.421  37.808  29.997  1.00  0.00    -0.200 F 
ENDBRANCH  67  90
ENDBRANCH  41  42
ENDBRANCH  34  36
ENDBRANCH  33  34
ENDBRANCH  32  33
ENDBRANCH  31  32
ENDBRANCH  30  31
ENDBRANCH   1  30
TORSDOF 18
ENDMDL
MODEL 3
REMARK VINA RESULT:     -11.3      1.058      7.240
REMARK SMILES O=C(COCC(=O)OCCOCCOC(=O)c1ccc(-c2c3nc(c(-c4c(F)c(F)c(F)c(F)c4F)c4ccc([nH]4)c(-c4c(F)c(F)c(F)c(F)c4F)c4nc(c(-c5c(F)c(F)c(F)c(F)c5F)c5ccc2[nH]5)C=C4)C=C3)cc1)/[NH+]=C1\S[C@@H]2CS(=O)(=O)C[C@H]2N1c1ccc(Cl)cc1
REMARK SMILES IDX 10 1 9 2 8 3 6 4 7 5 5 6 4 7 3 8 2 9 1 10 80 11 81 12 82 14
REMARK SMILES IDX 90 15 83 16 89 17 84 18 88 19 85 20 86 21 87 22 91 23 92 24
REMARK SMILES IDX 97 25 93 26 96 27 94 28 95 29 11 30 12 31 13 32 14 33 15 34
REMARK SMILES IDX 16 35 17 36 18 37 79 38 19 39 78 40 20 41 21 42 22 43 72 44
REMARK SMILES IDX 23 45 77 46 71 47 73 48 24 49 76 50 70 51 69 52 25 54 57 55
REMARK SMILES IDX 37 56 56 57 38 58 41 59 55 60 74 61 39 62 40 63 54 65 75 66
REMARK SMILES IDX 42 67 26 68 27 69 35 70 28 71 29 72 33 73 36 74 30 75 31 76
REMARK SMILES IDX 34 77 32 78 58 79 59 80 67 81 60 82 61 83 65 84 68 85 62 86
REMARK SMILES IDX 63 87 66 88 64 89 43 90 44 91 52 92 45 93 46 94 50 95 53 96
REMARK SMILES IDX 47 97 48 98 51 99 49 100
REMARK H PARENT 80 13 73 53 41 64
REMARK Flexibility Score: inf
ROOT
ATOM      1  C   UNL A   1      34.375  21.056  25.645  1.00  0.00     0.202 C 
ENDROOT
BRANCH   1   2
ATOM      2  C   UNL A   1      33.291  21.521  26.622  1.00  0.00     0.261 C 
BRANCH   2   3
ATOM      3  O   UNL A   1      32.101  21.979  25.950  1.00  0.00    -0.462 OA
BRANCH   3   4
ATOM      4  C   UNL A   1      31.501  23.079  26.487  1.00  0.00     0.332 C 
ATOM      5  O   UNL A   1      31.700  23.500  27.621  1.00  0.00    -0.250 OA
BRANCH   4   6
ATOM      6  C   UNL A   1      30.504  23.750  25.524  1.00  0.00     0.283 C 
BRANCH   6   7
ATOM      7  O   UNL A   1      30.531  23.534  24.122  1.00  0.00    -0.358 OA
BRANCH   7   8
ATOM      8  C   UNL A   1      31.113  24.604  23.402  1.00  0.00     0.288 C 
BRANCH   8   9
ATOM      9  C   UNL A   1      32.438  25.268  23.878  1.00  0.00     0.333 C 
ATOM     10  O   UNL A   1      33.510  24.694  23.690  1.00  0.00    -0.244 OA
ATOM     11  N   UNL A   1      32.364  26.465  24.550  1.00  0.00    -0.202 N 
ATOM     12  C   UNL A   1      31.859  27.505  23.978  1.00  0.00     0.319 C 
ATOM     13  H   UNL A   1      32.699  26.529  25.474  1.00  0.00     0.316 HD
ATOM     14  S   UNL A   1      31.184  27.512  22.315  1.00  0.00    -0.029 SA
ATOM     15  N   UNL A   1      31.624  28.764  24.548  1.00  0.00    -0.217 N 
ATOM     16  C   UNL A   1      29.902  28.600  22.940  1.00  0.00     0.120 C 
ATOM     17  C   UNL A   1      30.780  29.618  23.684  1.00  0.00     0.212 C 
ATOM     18  C   UNL A   1      28.985  29.326  22.001  1.00  0.00     0.156 C 
ATOM     19  C   UNL A   1      29.771  30.568  24.279  1.00  0.00     0.188 C 
ATOM     20  S   UNL A   1      28.620  30.820  22.920  1.00  0.00     0.155 S 
ATOM     21  O   UNL A   1      27.277  30.736  23.438  1.00  0.00    -0.229 OA
ATOM     22  O   UNL A   1      29.088  31.944  22.132  1.00  0.00    -0.229 OA
BRANCH  15  23
ATOM     23  C   UNL A   1      32.464  29.366  25.501  1.00  0.00     0.128 A 
ATOM     24  C   UNL A   1      33.762  28.886  25.740  1.00  0.00     0.053 A 
ATOM     25  C   UNL A   1      32.039  30.469  26.262  1.00  0.00     0.053 A 
ATOM     26  C   UNL A   1      34.585  29.447  26.725  1.00  0.00     0.025 A 
ATOM     27  C   UNL A   1      32.857  31.035  27.252  1.00  0.00     0.025 A 
ATOM     28  C   UNL A   1      34.124  30.515  27.486  1.00  0.00     0.041 A 
ATOM     29  Cl  UNL A   1      35.128  31.192  28.706  1.00  0.00    -0.084 Cl
ENDBRANCH  15  23
ENDBRANCH   8   9
ENDBRANCH   7   8
ENDBRANCH   6   7
ENDBRANCH   4   6
ENDBRANCH   3   4
ENDBRANCH   2   3
ENDBRANCH   1   2
BRANCH   1  30
ATOM     30  O   UNL A   1      34.939  22.027  24.769  1.00  0.00    -0.374 OA
BRANCH  30  31
ATOM     31  C   UNL A   1      36.283  21.828  24.337  1.00  0.00     0.202 C 
BRANCH  31  32
ATOM     32  C   UNL A   1      37.271  21.260  25.379  1.00  0.00     0.261 C 
BRANCH  32  33
ATOM     33  O   UNL A   1      38.613  21.781  25.256  1.00  0.00    -0.460 OA
BRANCH  33  34
ATOM     34  C   UNL A   1      39.422  21.493  26.309  1.00  0.00     0.338 C 
ATOM     35  O   UNL A   1      39.855  20.399  26.632  1.00  0.00    -0.246 OA
BRANCH  34  36
ATOM     36  C   UNL A   1      39.900  22.727  26.965  1.00  0.00     0.060 A 
ATOM     37  C   UNL A   1      39.386  23.943  26.494  1.00  0.00     0.016 A 
ATOM     38  C   UNL A   1      40.924  22.713  27.912  1.00  0.00     0.016 A 
ATOM     39  C   UNL A   1      39.933  25.152  26.922  1.00  0.00     0.010 A 
ATOM     40  C   UNL A   1      41.479  23.930  28.334  1.00  0.00     0.010 A 
ATOM     41  C   UNL A   1      41.017  25.153  27.808  1.00  0.00    -0.014 A 
BRANCH  41  42
ATOM     42  C   UNL A   1      41.779  26.410  28.041  1.00  0.00     0.031 A 
ATOM     43  C   UNL A   1      41.129  27.514  28.833  1.00  0.00     0.074 A 
ATOM     44  C   UNL A   1      43.036  26.562  27.585  1.00  0.00     0.049 A 
ATOM     45  N   UNL A   1      41.555  28.727  29.077  1.00  0.00    -0.248 NA
ATOM     46  C   UNL A   1      39.819  27.209  29.431  1.00  0.00     0.031 C 
ATOM     47  C   UNL A   1      43.803  25.549  26.864  1.00  0.00     0.029 A 
ATOM     48  N   UNL A   1      43.884  27.641  27.651  1.00  0.00    -0.354 N 
ATOM     49  C   UNL A   1      40.558  29.335  29.831  1.00  0.00     0.074 A 
ATOM     50  C   UNL A   1      39.498  28.365  29.995  1.00  0.00     0.031 C 
ATOM     51  C   UNL A   1      45.001  26.061  26.533  1.00  0.00     0.029 A 
ATOM     52  C   UNL A   1      45.068  27.453  26.979  1.00  0.00     0.049 A 
ATOM     53  H   UNL A   1      43.665  28.471  28.134  1.00  0.00     0.167 HD
ATOM     54  C   UNL A   1      40.533  30.589  30.342  1.00  0.00     0.037 A 
ATOM     55  C   UNL A   1      46.072  28.315  26.722  1.00  0.00     0.037 A 
ATOM     56  C   UNL A   1      41.601  31.543  30.202  1.00  0.00     0.049 A 
ATOM     57  C   UNL A   1      45.982  29.732  27.241  1.00  0.00     0.074 A 
ATOM     58  C   UNL A   1      41.679  32.827  30.711  1.00  0.00     0.029 A 
ATOM     59  N   UNL A   1      42.774  31.319  29.499  1.00  0.00    -0.354 N 
ATOM     60  N   UNL A   1      45.045  30.292  27.966  1.00  0.00    -0.248 NA
ATOM     61  C   UNL A   1      47.092  30.637  26.904  1.00  0.00     0.031 C 
ATOM     62  C   UNL A   1      42.870  33.404  30.262  1.00  0.00     0.029 A 
ATOM     63  C   UNL A   1      43.567  32.453  29.536  1.00  0.00     0.049 A 
ATOM     64  H   UNL A   1      43.008  30.478  29.042  1.00  0.00     0.167 HD
ATOM     65  C   UNL A   1      45.475  31.592  28.212  1.00  0.00     0.074 A 
ATOM     66  C   UNL A   1      46.757  31.738  27.561  1.00  0.00     0.031 C 
ATOM     67  C   UNL A   1      44.861  32.573  28.917  1.00  0.00     0.037 A 
BRANCH  54  68
ATOM     68  C   UNL A   1      39.302  31.030  31.079  1.00  0.00     0.064 A 
ATOM     69  C   UNL A   1      39.082  30.698  32.423  1.00  0.00     0.173 A 
ATOM     70  C   UNL A   1      38.374  31.875  30.450  1.00  0.00     0.173 A 
ATOM     71  F   UNL A   1      39.933  29.885  33.067  1.00  0.00    -0.203 F 
ATOM     72  C   UNL A   1      37.973  31.190  33.108  1.00  0.00     0.198 A 
ATOM     73  C   UNL A   1      37.284  32.389  31.147  1.00  0.00     0.198 A 
ATOM     74  F   UNL A   1      38.542  32.228  29.167  1.00  0.00    -0.203 F 
ATOM     75  F   UNL A   1      37.767  30.838  34.385  1.00  0.00    -0.200 F 
ATOM     76  C   UNL A   1      37.082  32.044  32.474  1.00  0.00     0.200 A 
ATOM     77  F   UNL A   1      36.436  33.228  30.536  1.00  0.00    -0.200 F 
ATOM     78  F   UNL A   1      36.030  32.535  33.143  1.00  0.00    -0.200 F 
ENDBRANCH  54  68
BRANCH  55  79
ATOM     79  C   UNL A   1      47.239  27.895  25.898  1.00  0.00     0.064 A 
ATOM     80  C   UNL A   1      47.160  27.840  24.499  1.00  0.00     0.173 A 
ATOM     81  C   UNL A   1      48.436  27.472  26.496  1.00  0.00     0.173 A 
ATOM     82  F   UNL A   1      46.029  28.208  23.877  1.00  0.00    -0.203 F 
ATOM     83  C   UNL A   1      48.215  27.342  23.734  1.00  0.00     0.198 A 
ATOM     84  C   UNL A   1      49.504  27.011  25.729  1.00  0.00     0.198 A 
ATOM     85  F   UNL A   1      48.569  27.501  27.831  1.00  0.00    -0.203 F 
ATOM     86  F   UNL A   1      48.081  27.231  22.406  1.00  0.00    -0.200 F 
ATOM     87  C   UNL A   1      49.387  26.931  24.350  1.00  0.00     0.200 A 
ATOM     88  F   UNL A   1      50.640  26.628  26.328  1.00  0.00    -0.200 F 
ATOM     89  F   UNL A   1      50.397  26.444  23.617  1.00  0.00    -0.200 F 
ENDBRANCH  55  79
BRANCH  67  90
ATOM     90  C   UNL A   1      45.595  33.873  29.098  1.00  0.00     0.064 A 
ATOM     91  C   UNL A   1      45.442  34.944  28.208  1.00  0.00     0.173 A 
ATOM     92  C   UNL A   1      46.405  34.068  30.228  1.00  0.00     0.173 A 
ATOM     93  F   UNL A   1      44.688  34.807  27.107  1.00  0.00    -0.203 F 
ATOM     94  C   UNL A   1      46.090  36.157  28.432  1.00  0.00     0.198 A 
ATOM     95  C   UNL A   1      47.024  35.291  30.467  1.00  0.00     0.198 A 
ATOM     96  F   UNL A   1      46.578  33.077  31.117  1.00  0.00    -0.203 F 
ATOM     97  F   UNL A   1      45.963  37.155  27.546  1.00  0.00    -0.200 F 
ATOM     98  C   UNL A   1      46.870  36.333  29.565  1.00  0.00     0.200 A 
ATOM     99  F   UNL A   1      47.760  35.465  31.573  1.00  0.00    -0.200 F 
ATOM    100  F   UNL A   1      47.477  37.507  29.788  1.00  0.00    -0.200 F 
ENDBRANCH  67  90
ENDBRANCH  41  42
ENDBRANCH  34  36
ENDBRANCH  33  34
ENDBRANCH  32  33
ENDBRANCH  31  32
ENDBRANCH  30  31
ENDBRANCH   1  30
TORSDOF 18
ENDMDL
