MODEL 1
REMARK VINA RESULT:     -11.8      0.000      0.000
REMARK SMILES O=CN1CCN(S(=O)(=O)c2ccc(C(=O)OCCOCCOC(=O)c3ccc(-c4c5nc(c(-c6c(F)c(F)c(F)c(F)c6F)c6ccc([nH]6)c(-c6c(F)c(F)c(F)c(F)c6F)c6nc(c(-c7c(F)c(F)c(F)c(F)c7F)c7ccc4[nH]7)C=C6)C=C5)cc3)cc2)CC1
REMARK SMILES IDX 19 1 18 2 17 3 16 4 14 5 15 6 13 7 10 8 11 9 89 10 12 11
REMARK SMILES IDX 88 12 7 13 8 14 9 15 6 16 1 17 2 18 3 19 4 20 91 21 5 22
REMARK SMILES IDX 90 23 20 24 21 25 22 26 23 27 24 28 25 29 26 30 87 31 27 32
REMARK SMILES IDX 86 33 28 34 29 35 30 36 80 37 31 38 85 39 79 40 81 41 32 42
REMARK SMILES IDX 84 43 78 44 77 45 33 47 65 48 45 49 64 50 46 51 49 52 63 53
REMARK SMILES IDX 82 54 47 55 48 56 62 58 83 59 50 60 34 61 35 62 43 63 36 64
REMARK SMILES IDX 37 65 41 66 44 67 38 68 39 69 42 70 40 71 66 72 67 73 75 74
REMARK SMILES IDX 68 75 69 76 73 77 76 78 70 79 71 80 74 81 72 82 51 83 52 84
REMARK SMILES IDX 60 85 53 86 54 87 58 88 61 89 55 90 56 91 59 92 57 93
REMARK H PARENT 81 46 49 57
REMARK Flexibility Score: inf
ROOT
ATOM      1  O   UNL A   1      45.571  19.610  25.138  1.00  0.00    -0.374 OA
ENDROOT
BRANCH   1   2
ATOM      2  C   UNL A   1      44.226  19.534  24.674  1.00  0.00     0.202 C 
BRANCH   2   3
ATOM      3  C   UNL A   1      43.133  19.203  25.694  1.00  0.00     0.261 C 
BRANCH   3   4
ATOM      4  O   UNL A   1      41.866  19.759  25.322  1.00  0.00    -0.460 OA
BRANCH   4   5
ATOM      5  C   UNL A   1      41.068  20.074  26.372  1.00  0.00     0.338 C 
ATOM      6  O   UNL A   1      41.397  20.142  27.544  1.00  0.00    -0.246 OA
BRANCH   5   7
ATOM      7  C   UNL A   1      39.714  20.454  25.902  1.00  0.00     0.060 A 
ATOM      8  C   UNL A   1      37.128  21.250  25.258  1.00  0.00     0.082 A 
ATOM      9  C   UNL A   1      38.003  22.172  25.832  1.00  0.00     0.022 A 
ATOM     10  C   UNL A   1      37.578  19.977  24.879  1.00  0.00     0.022 A 
ATOM     11  C   UNL A   1      39.299  21.772  26.147  1.00  0.00     0.017 A 
ATOM     12  C   UNL A   1      38.865  19.566  25.231  1.00  0.00     0.017 A 
BRANCH   8  13
ATOM     13  S   UNL A   1      35.426  21.690  25.010  1.00  0.00     0.243 S 
ATOM     14  O   UNL A   1      34.642  20.485  25.141  1.00  0.00    -0.207 OA
ATOM     15  O   UNL A   1      35.346  22.491  23.805  1.00  0.00    -0.207 OA
BRANCH  13  16
ATOM     16  N   UNL A   1      35.083  22.734  26.325  1.00  0.00    -0.194 NA
ATOM     17  O   UNL A   1      30.239  23.844  27.158  1.00  0.00    -0.279 OA
ATOM     18  C   UNL A   1      31.136  24.301  26.461  1.00  0.00     0.340 C 
ATOM     19  N   UNL A   1      32.357  23.706  26.244  1.00  0.00    -0.343 N 
ATOM     20  C   UNL A   1      33.360  24.287  25.347  1.00  0.00     0.136 C 
ATOM     21  C   UNL A   1      32.637  22.382  26.792  1.00  0.00     0.136 C 
ATOM     22  C   UNL A   1      34.786  24.150  25.912  1.00  0.00     0.124 C 
ATOM     23  C   UNL A   1      34.065  22.304  27.341  1.00  0.00     0.124 C 
ENDBRANCH  13  16
ENDBRANCH   8  13
ENDBRANCH   5   7
ENDBRANCH   4   5
ENDBRANCH   3   4
ENDBRANCH   2   3
ENDBRANCH   1   2
BRANCH   1  24
ATOM     24  C   UNL A   1      46.116  20.899  25.420  1.00  0.00     0.202 C 
BRANCH  24  25
ATOM     25  C   UNL A   1      45.531  22.112  24.682  1.00  0.00     0.261 C 
BRANCH  25  26
ATOM     26  O   UNL A   1      44.816  23.009  25.549  1.00  0.00    -0.460 OA
BRANCH  26  27
ATOM     27  C   UNL A   1      43.572  23.335  25.117  1.00  0.00     0.338 C 
ATOM     28  O   UNL A   1      42.934  22.809  24.222  1.00  0.00    -0.246 OA
BRANCH  27  29
ATOM     29  C   UNL A   1      42.977  24.335  26.023  1.00  0.00     0.060 A 
ATOM     30  C   UNL A   1      43.509  25.630  26.001  1.00  0.00     0.016 A 
ATOM     31  C   UNL A   1      41.977  23.991  26.932  1.00  0.00     0.016 A 
ATOM     32  C   UNL A   1      43.064  26.583  26.915  1.00  0.00     0.010 A 
ATOM     33  C   UNL A   1      41.537  24.947  27.855  1.00  0.00     0.010 A 
ATOM     34  C   UNL A   1      42.099  26.237  27.870  1.00  0.00    -0.014 A 
BRANCH  34  35
ATOM     35  C   UNL A   1      41.759  27.192  28.953  1.00  0.00     0.031 A 
ATOM     36  C   UNL A   1      42.563  27.180  30.225  1.00  0.00     0.074 A 
ATOM     37  C   UNL A   1      40.749  28.068  28.799  1.00  0.00     0.049 A 
ATOM     38  N   UNL A   1      42.396  27.877  31.319  1.00  0.00    -0.248 NA
ATOM     39  C   UNL A   1      43.707  26.255  30.270  1.00  0.00     0.031 C 
ATOM     40  C   UNL A   1      39.920  28.195  27.602  1.00  0.00     0.029 A 
ATOM     41  N   UNL A   1      40.239  29.005  29.664  1.00  0.00    -0.354 N 
ATOM     42  C   UNL A   1      43.399  27.465  32.187  1.00  0.00     0.074 A 
ATOM     43  C   UNL A   1      44.159  26.442  31.502  1.00  0.00     0.031 C 
ATOM     44  C   UNL A   1      38.991  29.144  27.814  1.00  0.00     0.029 A 
ATOM     45  C   UNL A   1      39.135  29.658  29.175  1.00  0.00     0.049 A 
ATOM     46  H   UNL A   1      40.629  29.190  30.549  1.00  0.00     0.167 HD
ATOM     47  C   UNL A   1      43.662  27.906  33.440  1.00  0.00     0.037 A 
ATOM     48  C   UNL A   1      38.314  30.546  29.770  1.00  0.00     0.037 A 
ATOM     49  C   UNL A   1      42.912  28.937  34.109  1.00  0.00     0.049 A 
ATOM     50  C   UNL A   1      38.600  30.975  31.188  1.00  0.00     0.074 A 
ATOM     51  C   UNL A   1      43.132  29.485  35.361  1.00  0.00     0.029 A 
ATOM     52  N   UNL A   1      41.792  29.567  33.588  1.00  0.00    -0.354 N 
ATOM     53  N   UNL A   1      39.576  30.614  31.985  1.00  0.00    -0.248 NA
ATOM     54  C   UNL A   1      37.667  31.940  31.789  1.00  0.00     0.031 C 
ATOM     55  C   UNL A   1      42.106  30.397  35.626  1.00  0.00     0.029 A 
ATOM     56  C   UNL A   1      41.288  30.470  34.510  1.00  0.00     0.049 A 
ATOM     57  H   UNL A   1      41.411  29.397  32.697  1.00  0.00     0.167 HD
ATOM     58  C   UNL A   1      39.395  31.329  33.162  1.00  0.00     0.074 A 
ATOM     59  C   UNL A   1      38.226  32.159  32.971  1.00  0.00     0.031 C 
ATOM     60  C   UNL A   1      40.128  31.299  34.302  1.00  0.00     0.037 A 
BRANCH  47  61
ATOM     61  C   UNL A   1      44.790  27.265  34.193  1.00  0.00     0.064 A 
ATOM     62  C   UNL A   1      46.082  27.811  34.202  1.00  0.00     0.173 A 
ATOM     63  C   UNL A   1      44.552  26.131  34.986  1.00  0.00     0.173 A 
ATOM     64  F   UNL A   1      46.365  28.888  33.453  1.00  0.00    -0.203 F 
ATOM     65  C   UNL A   1      47.096  27.240  34.969  1.00  0.00     0.198 A 
ATOM     66  C   UNL A   1      45.559  25.581  35.773  1.00  0.00     0.198 A 
ATOM     67  F   UNL A   1      43.333  25.571  35.017  1.00  0.00    -0.203 F 
ATOM     68  F   UNL A   1      48.329  27.762  34.939  1.00  0.00    -0.200 F 
ATOM     69  C   UNL A   1      46.830  26.134  35.762  1.00  0.00     0.200 A 
ATOM     70  F   UNL A   1      45.296  24.523  36.552  1.00  0.00    -0.200 F 
ATOM     71  F   UNL A   1      47.801  25.600  36.517  1.00  0.00    -0.200 F 
ENDBRANCH  47  61
BRANCH  48  72
ATOM     72  C   UNL A   1      37.119  31.064  29.050  1.00  0.00     0.064 A 
ATOM     73  C   UNL A   1      37.058  32.390  28.601  1.00  0.00     0.173 A 
ATOM     74  C   UNL A   1      35.993  30.254  28.839  1.00  0.00     0.173 A 
ATOM     75  F   UNL A   1      38.098  33.213  28.799  1.00  0.00    -0.203 F 
ATOM     76  C   UNL A   1      35.905  32.897  28.004  1.00  0.00     0.198 A 
ATOM     77  C   UNL A   1      34.855  30.750  28.208  1.00  0.00     0.198 A 
ATOM     78  F   UNL A   1      35.998  28.976  29.247  1.00  0.00    -0.203 F 
ATOM     79  F   UNL A   1      35.849  34.187  27.648  1.00  0.00    -0.200 F 
ATOM     80  C   UNL A   1      34.806  32.075  27.804  1.00  0.00     0.200 A 
ATOM     81  F   UNL A   1      33.801  29.947  28.003  1.00  0.00    -0.200 F 
ATOM     82  F   UNL A   1      33.696  32.563  27.234  1.00  0.00    -0.200 F 
ENDBRANCH  48  72
BRANCH  60  83
ATOM     83  C   UNL A   1      39.718  32.222  35.416  1.00  0.00     0.064 A 
ATOM     84  C   UNL A   1      40.212  33.531  35.512  1.00  0.00     0.173 A 
ATOM     85  C   UNL A   1      38.784  31.802  36.376  1.00  0.00     0.173 A 
ATOM     86  F   UNL A   1      41.117  33.978  34.628  1.00  0.00    -0.203 F 
ATOM     87  C   UNL A   1      39.811  34.374  36.545  1.00  0.00     0.198 A 
ATOM     88  C   UNL A   1      38.357  32.659  37.386  1.00  0.00     0.198 A 
ATOM     89  F   UNL A   1      38.272  30.563  36.325  1.00  0.00    -0.203 F 
ATOM     90  F   UNL A   1      40.338  35.601  36.650  1.00  0.00    -0.200 F 
ATOM     91  C   UNL A   1      38.878  33.941  37.476  1.00  0.00     0.200 A 
ATOM     92  F   UNL A   1      37.441  32.244  38.272  1.00  0.00    -0.200 F 
ATOM     93  F   UNL A   1      38.485  34.756  38.464  1.00  0.00    -0.200 F 
ENDBRANCH  60  83
ENDBRANCH  34  35
ENDBRANCH  27  29
ENDBRANCH  26  27
ENDBRANCH  25  26
ENDBRANCH  24  25
ENDBRANCH   1  24
TORSDOF 16
ENDMDL
MODEL 2
REMARK VINA RESULT:     -11.7      1.873      2.946
REMARK SMILES O=CN1CCN(S(=O)(=O)c2ccc(C(=O)OCCOCCOC(=O)c3ccc(-c4c5nc(c(-c6c(F)c(F)c(F)c(F)c6F)c6ccc([nH]6)c(-c6c(F)c(F)c(F)c(F)c6F)c6nc(c(-c7c(F)c(F)c(F)c(F)c7F)c7ccc4[nH]7)C=C6)C=C5)cc3)cc2)CC1
REMARK SMILES IDX 19 1 18 2 17 3 16 4 14 5 15 6 13 7 10 8 11 9 89 10 12 11
REMARK SMILES IDX 88 12 7 13 8 14 9 15 6 16 1 17 2 18 3 19 4 20 91 21 5 22
REMARK SMILES IDX 90 23 20 24 21 25 22 26 23 27 24 28 25 29 26 30 87 31 27 32
REMARK SMILES IDX 86 33 28 34 29 35 30 36 80 37 31 38 85 39 79 40 81 41 32 42
REMARK SMILES IDX 84 43 78 44 77 45 33 47 65 48 45 49 64 50 46 51 49 52 63 53
REMARK SMILES IDX 82 54 47 55 48 56 62 58 83 59 50 60 34 61 35 62 43 63 36 64
REMARK SMILES IDX 37 65 41 66 44 67 38 68 39 69 42 70 40 71 66 72 67 73 75 74
REMARK SMILES IDX 68 75 69 76 73 77 76 78 70 79 71 80 74 81 72 82 51 83 52 84
REMARK SMILES IDX 60 85 53 86 54 87 58 88 61 89 55 90 56 91 59 92 57 93
REMARK H PARENT 81 46 49 57
REMARK Flexibility Score: inf
ROOT
ATOM      1  O   UNL A   1      41.409  20.327  27.095  1.00  0.00    -0.374 OA
ENDROOT
BRANCH   1   2
ATOM      2  C   UNL A   1      40.310  21.233  27.064  1.00  0.00     0.202 C 
BRANCH   2   3
ATOM      3  C   UNL A   1      39.485  21.314  25.777  1.00  0.00     0.261 C 
BRANCH   3   4
ATOM      4  O   UNL A   1      38.259  22.030  25.971  1.00  0.00    -0.460 OA
BRANCH   4   5
ATOM      5  C   UNL A   1      37.183  21.460  25.373  1.00  0.00     0.338 C 
ATOM      6  O   UNL A   1      37.084  20.304  24.997  1.00  0.00    -0.246 OA
BRANCH   5   7
ATOM      7  C   UNL A   1      36.048  22.412  25.328  1.00  0.00     0.060 A 
ATOM      8  C   UNL A   1      34.083  24.373  25.155  1.00  0.00     0.082 A 
ATOM      9  C   UNL A   1      34.848  24.072  24.029  1.00  0.00     0.022 A 
ATOM     10  C   UNL A   1      34.200  23.608  26.323  1.00  0.00     0.022 A 
ATOM     11  C   UNL A   1      35.827  23.086  24.117  1.00  0.00     0.017 A 
ATOM     12  C   UNL A   1      35.207  22.645  26.422  1.00  0.00     0.017 A 
BRANCH   8  13
ATOM     13  S   UNL A   1      32.954  25.743  25.110  1.00  0.00     0.243 S 
ATOM     14  O   UNL A   1      33.739  26.951  25.028  1.00  0.00    -0.207 OA
ATOM     15  O   UNL A   1      31.994  25.561  26.182  1.00  0.00    -0.207 OA
BRANCH  13  16
ATOM     16  N   UNL A   1      32.105  25.518  23.639  1.00  0.00    -0.194 NA
ATOM     17  O   UNL A   1      29.909  29.583  21.626  1.00  0.00    -0.279 OA
ATOM     18  C   UNL A   1      29.593  28.732  22.447  1.00  0.00     0.340 C 
ATOM     19  N   UNL A   1      30.443  27.802  22.998  1.00  0.00    -0.343 N 
ATOM     20  C   UNL A   1      30.002  26.849  24.020  1.00  0.00     0.136 C 
ATOM     21  C   UNL A   1      31.869  27.834  22.685  1.00  0.00     0.136 C 
ATOM     22  C   UNL A   1      30.611  25.451  23.806  1.00  0.00     0.124 C 
ATOM     23  C   UNL A   1      32.420  26.419  22.480  1.00  0.00     0.124 C 
ENDBRANCH  13  16
ENDBRANCH   8  13
ENDBRANCH   5   7
ENDBRANCH   4   5
ENDBRANCH   3   4
ENDBRANCH   2   3
ENDBRANCH   1   2
BRANCH   1  24
ATOM     24  C   UNL A   1      42.423  20.459  26.098  1.00  0.00     0.202 C 
BRANCH  24  25
ATOM     25  C   UNL A   1      43.227  21.767  26.050  1.00  0.00     0.261 C 
BRANCH  25  26
ATOM     26  O   UNL A   1      42.720  22.707  25.086  1.00  0.00    -0.460 OA
BRANCH  26  27
ATOM     27  C   UNL A   1      43.403  23.877  25.029  1.00  0.00     0.338 C 
ATOM     28  O   UNL A   1      44.290  24.182  24.251  1.00  0.00    -0.246 OA
BRANCH  27  29
ATOM     29  C   UNL A   1      42.793  24.854  25.948  1.00  0.00     0.060 A 
ATOM     30  C   UNL A   1      43.453  26.076  26.130  1.00  0.00     0.016 A 
ATOM     31  C   UNL A   1      41.645  24.549  26.680  1.00  0.00     0.016 A 
ATOM     32  C   UNL A   1      42.985  26.989  27.072  1.00  0.00     0.010 A 
ATOM     33  C   UNL A   1      41.182  25.464  27.633  1.00  0.00     0.010 A 
ATOM     34  C   UNL A   1      41.865  26.674  27.853  1.00  0.00    -0.014 A 
BRANCH  34  35
ATOM     35  C   UNL A   1      41.477  27.562  28.976  1.00  0.00     0.031 A 
ATOM     36  C   UNL A   1      42.236  27.484  30.273  1.00  0.00     0.074 A 
ATOM     37  C   UNL A   1      40.463  28.437  28.836  1.00  0.00     0.049 A 
ATOM     38  N   UNL A   1      42.022  28.116  31.399  1.00  0.00    -0.248 NA
ATOM     39  C   UNL A   1      43.387  26.568  30.307  1.00  0.00     0.031 C 
ATOM     40  C   UNL A   1      39.676  28.625  27.619  1.00  0.00     0.029 A 
ATOM     41  N   UNL A   1      39.913  29.318  29.734  1.00  0.00    -0.354 N 
ATOM     42  C   UNL A   1      42.999  27.663  32.277  1.00  0.00     0.074 A 
ATOM     43  C   UNL A   1      43.793  26.688  31.562  1.00  0.00     0.031 C 
ATOM     44  C   UNL A   1      38.730  29.552  27.852  1.00  0.00     0.029 A 
ATOM     45  C   UNL A   1      38.820  29.988  29.244  1.00  0.00     0.049 A 
ATOM     46  H   UNL A   1      40.269  29.455  30.642  1.00  0.00     0.167 HD
ATOM     47  C   UNL A   1      43.212  28.034  33.562  1.00  0.00     0.037 A 
ATOM     48  C   UNL A   1      37.969  30.833  29.860  1.00  0.00     0.037 A 
ATOM     49  C   UNL A   1      42.428  29.018  34.262  1.00  0.00     0.049 A 
ATOM     50  C   UNL A   1      38.199  31.183  31.309  1.00  0.00     0.074 A 
ATOM     51  C   UNL A   1      42.598  29.495  35.550  1.00  0.00     0.029 A 
ATOM     52  N   UNL A   1      41.320  29.667  33.738  1.00  0.00    -0.354 N 
ATOM     53  N   UNL A   1      39.151  30.785  32.118  1.00  0.00    -0.248 NA
ATOM     54  C   UNL A   1      37.236  32.103  31.930  1.00  0.00     0.031 C 
ATOM     55  C   UNL A   1      41.553  30.382  35.829  1.00  0.00     0.029 A 
ATOM     56  C   UNL A   1      40.774  30.511  34.691  1.00  0.00     0.049 A 
ATOM     57  H   UNL A   1      40.973  29.546  32.825  1.00  0.00     0.167 HD
ATOM     58  C   UNL A   1      38.920  31.430  33.327  1.00  0.00     0.074 A 
ATOM     59  C   UNL A   1      37.750  32.259  33.142  1.00  0.00     0.031 C 
ATOM     60  C   UNL A   1      39.614  31.341  34.489  1.00  0.00     0.037 A 
BRANCH  47  61
ATOM     61  C   UNL A   1      44.320  27.360  34.317  1.00  0.00     0.064 A 
ATOM     62  C   UNL A   1      45.604  27.918  34.406  1.00  0.00     0.173 A 
ATOM     63  C   UNL A   1      44.067  26.180  35.033  1.00  0.00     0.173 A 
ATOM     64  F   UNL A   1      45.901  29.039  33.732  1.00  0.00    -0.203 F 
ATOM     65  C   UNL A   1      46.596  27.312  35.174  1.00  0.00     0.198 A 
ATOM     66  C   UNL A   1      45.051  25.594  35.823  1.00  0.00     0.198 A 
ATOM     67  F   UNL A   1      42.854  25.607  34.986  1.00  0.00    -0.203 F 
ATOM     68  F   UNL A   1      47.823  27.847  35.221  1.00  0.00    -0.200 F 
ATOM     69  C   UNL A   1      46.315  26.159  35.891  1.00  0.00     0.200 A 
ATOM     70  F   UNL A   1      44.773  24.489  36.529  1.00  0.00    -0.200 F 
ATOM     71  F   UNL A   1      47.264  25.591  36.648  1.00  0.00    -0.200 F 
ENDBRANCH  47  61
BRANCH  48  72
ATOM     72  C   UNL A   1      36.795  31.381  29.128  1.00  0.00     0.064 A 
ATOM     73  C   UNL A   1      36.735  32.730  28.753  1.00  0.00     0.173 A 
ATOM     74  C   UNL A   1      35.685  30.575  28.831  1.00  0.00     0.173 A 
ATOM     75  F   UNL A   1      37.759  33.549  29.034  1.00  0.00    -0.203 F 
ATOM     76  C   UNL A   1      35.598  33.260  28.145  1.00  0.00     0.198 A 
ATOM     77  C   UNL A   1      34.565  31.097  28.189  1.00  0.00     0.198 A 
ATOM     78  F   UNL A   1      35.689  29.276  29.165  1.00  0.00    -0.203 F 
ATOM     79  F   UNL A   1      35.542  34.568  27.861  1.00  0.00    -0.200 F 
ATOM     80  C   UNL A   1      34.516  32.442  27.859  1.00  0.00     0.200 A 
ATOM     81  F   UNL A   1      33.528  30.298  27.901  1.00  0.00    -0.200 F 
ATOM     82  F   UNL A   1      33.421  32.952  27.279  1.00  0.00    -0.200 F 
ENDBRANCH  48  72
BRANCH  60  83
ATOM     83  C   UNL A   1      39.154  32.194  35.638  1.00  0.00     0.064 A 
ATOM     84  C   UNL A   1      38.288  31.700  36.625  1.00  0.00     0.173 A 
ATOM     85  C   UNL A   1      39.623  33.510  35.777  1.00  0.00     0.173 A 
ATOM     86  F   UNL A   1      37.800  30.454  36.534  1.00  0.00    -0.203 F 
ATOM     87  C   UNL A   1      37.883  32.502  37.689  1.00  0.00     0.198 A 
ATOM     88  C   UNL A   1      39.245  34.296  36.860  1.00  0.00     0.198 A 
ATOM     89  F   UNL A   1      40.461  34.028  34.867  1.00  0.00    -0.203 F 
ATOM     90  F   UNL A   1      37.011  32.028  38.589  1.00  0.00    -0.200 F 
ATOM     91  C   UNL A   1      38.368  33.796  37.811  1.00  0.00     0.200 A 
ATOM     92  F   UNL A   1      39.731  35.539  36.986  1.00  0.00    -0.200 F 
ATOM     93  F   UNL A   1      37.985  34.563  38.840  1.00  0.00    -0.200 F 
ENDBRANCH  60  83
ENDBRANCH  34  35
ENDBRANCH  27  29
ENDBRANCH  26  27
ENDBRANCH  25  26
ENDBRANCH  24  25
ENDBRANCH   1  24
TORSDOF 16
ENDMDL
MODEL 3
REMARK VINA RESULT:     -11.5      4.545      7.269
REMARK SMILES O=CN1CCN(S(=O)(=O)c2ccc(C(=O)OCCOCCOC(=O)c3ccc(-c4c5nc(c(-c6c(F)c(F)c(F)c(F)c6F)c6ccc([nH]6)c(-c6c(F)c(F)c(F)c(F)c6F)c6nc(c(-c7c(F)c(F)c(F)c(F)c7F)c7ccc4[nH]7)C=C6)C=C5)cc3)cc2)CC1
REMARK SMILES IDX 19 1 18 2 17 3 16 4 14 5 15 6 13 7 10 8 11 9 89 10 12 11
REMARK SMILES IDX 88 12 7 13 8 14 9 15 6 16 1 17 2 18 3 19 4 20 91 21 5 22
REMARK SMILES IDX 90 23 20 24 21 25 22 26 23 27 24 28 25 29 26 30 87 31 27 32
REMARK SMILES IDX 86 33 28 34 29 35 30 36 80 37 31 38 85 39 79 40 81 41 32 42
REMARK SMILES IDX 84 43 78 44 77 45 33 47 65 48 45 49 64 50 46 51 49 52 63 53
REMARK SMILES IDX 82 54 47 55 48 56 62 58 83 59 50 60 34 61 35 62 43 63 36 64
REMARK SMILES IDX 37 65 41 66 44 67 38 68 39 69 42 70 40 71 66 72 67 73 75 74
REMARK SMILES IDX 68 75 69 76 73 77 76 78 70 79 71 80 74 81 72 82 51 83 52 84
REMARK SMILES IDX 60 85 53 86 54 87 58 88 61 89 55 90 56 91 59 92 57 93
REMARK H PARENT 81 46 49 57
REMARK Flexibility Score: inf
ROOT
ATOM      1  O   UNL A   1      37.393  21.358  24.879  1.00  0.00    -0.374 OA
ENDROOT
BRANCH   1   2
ATOM      2  C   UNL A   1      36.052  21.813  24.719  1.00  0.00     0.202 C 
BRANCH   2   3
ATOM      3  C   UNL A   1      34.927  20.942  25.286  1.00  0.00     0.261 C 
BRANCH   3   4
ATOM      4  O   UNL A   1      33.903  20.693  24.316  1.00  0.00    -0.460 OA
BRANCH   4   5
ATOM      5  C   UNL A   1      32.655  20.600  24.837  1.00  0.00     0.338 C 
ATOM      6  O   UNL A   1      32.090  19.581  25.202  1.00  0.00    -0.246 OA
BRANCH   5   7
ATOM      7  C   UNL A   1      32.067  21.947  25.028  1.00  0.00     0.060 A 
ATOM      8  C   UNL A   1      31.161  24.567  25.248  1.00  0.00     0.082 A 
ATOM      9  C   UNL A   1      31.398  24.031  23.983  1.00  0.00     0.022 A 
ATOM     10  C   UNL A   1      31.241  23.761  26.392  1.00  0.00     0.022 A 
ATOM     11  C   UNL A   1      31.847  22.717  23.876  1.00  0.00     0.017 A 
ATOM     12  C   UNL A   1      31.726  22.457  26.286  1.00  0.00     0.017 A 
BRANCH   8  13
ATOM     13  S   UNL A   1      30.758  26.289  25.411  1.00  0.00     0.243 S 
ATOM     14  O   UNL A   1      30.703  26.591  26.822  1.00  0.00    -0.207 OA
ATOM     15  O   UNL A   1      29.619  26.561  24.557  1.00  0.00    -0.207 OA
BRANCH  13  16
ATOM     16  N   UNL A   1      32.105  27.086  24.713  1.00  0.00    -0.194 NA
ATOM     17  O   UNL A   1      34.652  30.275  27.669  1.00  0.00    -0.279 OA
ATOM     18  C   UNL A   1      33.674  30.350  26.937  1.00  0.00     0.340 C 
ATOM     19  N   UNL A   1      33.026  29.282  26.362  1.00  0.00    -0.343 N 
ATOM     20  C   UNL A   1      31.823  29.447  25.542  1.00  0.00     0.136 C 
ATOM     21  C   UNL A   1      33.436  27.916  26.680  1.00  0.00     0.136 C 
ATOM     22  C   UNL A   1      31.826  28.512  24.319  1.00  0.00     0.124 C 
ATOM     23  C   UNL A   1      33.423  27.033  25.428  1.00  0.00     0.124 C 
ENDBRANCH  13  16
ENDBRANCH   8  13
ENDBRANCH   5   7
ENDBRANCH   4   5
ENDBRANCH   3   4
ENDBRANCH   2   3
ENDBRANCH   1   2
BRANCH   1  24
ATOM     24  C   UNL A   1      37.637  19.951  24.847  1.00  0.00     0.202 C 
BRANCH  24  25
ATOM     25  C   UNL A   1      38.871  19.412  25.584  1.00  0.00     0.261 C 
BRANCH  25  26
ATOM     26  O   UNL A   1      39.917  20.390  25.726  1.00  0.00    -0.460 OA
BRANCH  26  27
ATOM     27  C   UNL A   1      40.485  20.431  26.957  1.00  0.00     0.338 C 
ATOM     28  O   UNL A   1      40.874  19.491  27.627  1.00  0.00    -0.246 OA
BRANCH  27  29
ATOM     29  C   UNL A   1      40.757  21.830  27.334  1.00  0.00     0.060 A 
ATOM     30  C   UNL A   1      40.120  22.837  26.598  1.00  0.00     0.016 A 
ATOM     31  C   UNL A   1      41.678  22.151  28.331  1.00  0.00     0.016 A 
ATOM     32  C   UNL A   1      40.427  24.175  26.835  1.00  0.00     0.010 A 
ATOM     33  C   UNL A   1      41.993  23.495  28.561  1.00  0.00     0.010 A 
ATOM     34  C   UNL A   1      41.391  24.511  27.795  1.00  0.00    -0.014 A 
BRANCH  34  35
ATOM     35  C   UNL A   1      41.849  25.916  27.919  1.00  0.00     0.031 A 
ATOM     36  C   UNL A   1      43.185  26.308  27.350  1.00  0.00     0.074 A 
ATOM     37  C   UNL A   1      41.074  26.835  28.526  1.00  0.00     0.049 A 
ATOM     38  N   UNL A   1      43.806  27.459  27.407  1.00  0.00    -0.248 NA
ATOM     39  C   UNL A   1      43.922  25.263  26.623  1.00  0.00     0.031 C 
ATOM     40  C   UNL A   1      39.749  26.582  29.087  1.00  0.00     0.029 A 
ATOM     41  N   UNL A   1      41.302  28.164  28.784  1.00  0.00    -0.354 N 
ATOM     42  C   UNL A   1      45.009  27.271  26.740  1.00  0.00     0.074 A 
ATOM     43  C   UNL A   1      45.044  25.893  26.304  1.00  0.00     0.031 C 
ATOM     44  C   UNL A   1      39.287  27.716  29.642  1.00  0.00     0.029 A 
ATOM     45  C   UNL A   1      40.301  28.760  29.511  1.00  0.00     0.049 A 
ATOM     46  H   UNL A   1      42.105  28.644  28.477  1.00  0.00     0.167 HD
ATOM     47  C   UNL A   1      45.993  28.174  26.510  1.00  0.00     0.037 A 
ATOM     48  C   UNL A   1      40.227  29.998  30.038  1.00  0.00     0.037 A 
ATOM     49  C   UNL A   1      45.945  29.550  26.932  1.00  0.00     0.049 A 
ATOM     50  C   UNL A   1      41.365  30.963  29.814  1.00  0.00     0.074 A 
ATOM     51  C   UNL A   1      46.872  30.552  26.703  1.00  0.00     0.029 A 
ATOM     52  N   UNL A   1      44.922  30.114  27.676  1.00  0.00    -0.354 N 
ATOM     53  N   UNL A   1      42.479  30.791  29.144  1.00  0.00    -0.248 NA
ATOM     54  C   UNL A   1      41.233  32.296  30.418  1.00  0.00     0.031 C 
ATOM     55  C   UNL A   1      46.443  31.705  27.368  1.00  0.00     0.029 A 
ATOM     56  C   UNL A   1      45.214  31.441  27.949  1.00  0.00     0.049 A 
ATOM     57  H   UNL A   1      44.108  29.643  27.969  1.00  0.00     0.167 HD
ATOM     58  C   UNL A   1      43.161  32.000  29.219  1.00  0.00     0.074 A 
ATOM     59  C   UNL A   1      42.328  32.903  29.983  1.00  0.00     0.031 C 
ATOM     60  C   UNL A   1      44.369  32.332  28.703  1.00  0.00     0.037 A 
BRANCH  47  61
ATOM     61  C   UNL A   1      47.226  27.707  25.792  1.00  0.00     0.064 A 
ATOM     62  C   UNL A   1      47.323  27.730  24.393  1.00  0.00     0.173 A 
ATOM     63  C   UNL A   1      48.357  27.312  26.522  1.00  0.00     0.173 A 
ATOM     64  F   UNL A   1      46.267  28.089  23.649  1.00  0.00    -0.203 F 
ATOM     65  C   UNL A   1      48.504  27.362  23.752  1.00  0.00     0.198 A 
ATOM     66  C   UNL A   1      49.545  26.975  25.879  1.00  0.00     0.198 A 
ATOM     67  F   UNL A   1      48.319  27.278  27.863  1.00  0.00    -0.203 F 
ATOM     68  F   UNL A   1      48.565  27.363  22.414  1.00  0.00    -0.200 F 
ATOM     69  C   UNL A   1      49.617  26.997  24.495  1.00  0.00     0.200 A 
ATOM     70  F   UNL A   1      50.623  26.639  26.600  1.00  0.00    -0.200 F 
ATOM     71  F   UNL A   1      50.759  26.667  23.877  1.00  0.00    -0.200 F 
ENDBRANCH  47  61
BRANCH  48  72
ATOM     72  C   UNL A   1      39.054  30.393  30.866  1.00  0.00     0.064 A 
ATOM     73  C   UNL A   1      37.923  30.987  30.289  1.00  0.00     0.173 A 
ATOM     74  C   UNL A   1      39.062  30.227  32.259  1.00  0.00     0.173 A 
ATOM     75  F   UNL A   1      37.876  31.191  28.964  1.00  0.00    -0.203 F 
ATOM     76  C   UNL A   1      36.863  31.434  31.076  1.00  0.00     0.198 A 
ATOM     77  C   UNL A   1      37.985  30.639  33.041  1.00  0.00     0.198 A 
ATOM     78  F   UNL A   1      40.117  29.661  32.864  1.00  0.00    -0.203 F 
ATOM     79  F   UNL A   1      35.827  32.062  30.505  1.00  0.00    -0.200 F 
ATOM     80  C   UNL A   1      36.893  31.256  32.451  1.00  0.00     0.200 A 
ATOM     81  F   UNL A   1      38.012  30.449  34.367  1.00  0.00    -0.200 F 
ATOM     82  F   UNL A   1      35.876  31.689  33.208  1.00  0.00    -0.200 F 
ENDBRANCH  48  72
BRANCH  60  83
ATOM     83  C   UNL A   1      44.847  33.743  28.908  1.00  0.00     0.064 A 
ATOM     84  C   UNL A   1      44.514  34.774  28.017  1.00  0.00     0.173 A 
ATOM     85  C   UNL A   1      45.614  34.075  30.037  1.00  0.00     0.173 A 
ATOM     86  F   UNL A   1      43.795  34.509  26.916  1.00  0.00    -0.203 F 
ATOM     87  C   UNL A   1      44.957  36.077  28.231  1.00  0.00     0.198 A 
ATOM     88  C   UNL A   1      46.024  35.384  30.266  1.00  0.00     0.198 A 
ATOM     89  F   UNL A   1      45.952  33.129  30.926  1.00  0.00    -0.203 F 
ATOM     90  F   UNL A   1      44.674  37.034  27.338  1.00  0.00    -0.200 F 
ATOM     91  C   UNL A   1      45.704  36.382  29.359  1.00  0.00     0.200 A 
ATOM     92  F   UNL A   1      46.729  35.681  31.367  1.00  0.00    -0.200 F 
ATOM     93  F   UNL A   1      46.122  37.639  29.569  1.00  0.00    -0.200 F 
ENDBRANCH  60  83
ENDBRANCH  34  35
ENDBRANCH  27  29
ENDBRANCH  26  27
ENDBRANCH  25  26
ENDBRANCH  24  25
ENDBRANCH   1  24
TORSDOF 16
ENDMDL
