MODEL 1
REMARK VINA RESULT:     -10.9      0.000      0.000
REMARK SMILES CCNC(=O)c1ccc(N[C@@H]2COC[C@@]2(C)C(=O)OCCOCCOC(=O)c2ccc(-c3c4nc(c(-c5c(F)c(F)c(F)c(F)c5F)c5ccc([nH]5)c(-c5c(F)c(F)c(F)c(F)c5F)c5nc(c(-c6c(F)c(F)c(F)c(F)c6F)c6ccc3[nH]6)C=C5)C=C4)cc2)nn1
REMARK SMILES IDX 21 1 20 2 19 3 17 4 18 5 15 6 11 7 12 8 13 9 14 10 16 11
REMARK SMILES IDX 10 12 9 14 6 15 7 16 92 17 8 18 91 19 4 20 3 21 5 23 2 24
REMARK SMILES IDX 1 25 22 26 23 27 24 28 25 29 26 30 27 31 28 32 29 33 90 34
REMARK SMILES IDX 30 35 89 36 31 37 32 38 33 39 83 40 34 41 88 42 82 43 84 44
REMARK SMILES IDX 35 45 87 46 81 47 80 48 36 50 68 51 48 52 67 53 49 54 52 55
REMARK SMILES IDX 66 56 85 57 50 58 51 59 65 61 86 62 53 63 37 64 38 65 46 66
REMARK SMILES IDX 39 67 40 68 44 69 47 70 41 71 42 72 45 73 43 74 69 75 70 76
REMARK SMILES IDX 78 77 71 78 72 79 76 80 79 81 73 82 74 83 77 84 75 85 54 86
REMARK SMILES IDX 55 87 63 88 56 89 57 90 61 91 64 92 58 93 59 94 62 95 60 96
REMARK H PARENT 10 13 3 22 84 49 52 60
REMARK Flexibility Score: inf
ROOT
ATOM      1  C   UNL A   1      37.193  23.135  24.772  1.00  0.00     0.202 C 
ENDROOT
BRANCH   1   2
ATOM      2  C   UNL A   1      36.277  22.766  23.603  1.00  0.00     0.261 C 
BRANCH   2   3
ATOM      3  O   UNL A   1      35.461  23.878  23.182  1.00  0.00    -0.463 OA
BRANCH   3   4
ATOM      4  C   UNL A   1      34.148  23.590  22.976  1.00  0.00     0.316 C 
ATOM      5  O   UNL A   1      33.733  22.940  22.022  1.00  0.00    -0.251 OA
BRANCH   4   6
ATOM      6  C   UNL A   1      33.229  24.090  24.082  1.00  0.00     0.111 C 
ATOM      7  C   UNL A   1      33.373  23.379  25.435  1.00  0.00     0.126 C 
ATOM      8  C   UNL A   1      33.300  24.494  26.482  1.00  0.00     0.186 C 
ATOM      9  O   UNL A   1      33.461  25.746  25.808  1.00  0.00    -0.378 OA
ATOM     10  C   UNL A   1      33.762  25.484  24.436  1.00  0.00     0.181 C 
ATOM     11  C   UNL A   1      31.812  24.223  23.509  1.00  0.00     0.028 C 
BRANCH   7  12
ATOM     12  N   UNL A   1      32.520  22.210  25.701  1.00  0.00    -0.362 N 
ATOM     13  H   UNL A   1      31.679  22.366  26.187  1.00  0.00     0.162 HD
BRANCH  12  14
ATOM     14  C   UNL A   1      32.803  20.908  25.321  1.00  0.00     0.149 A 
ATOM     15  C   UNL A   1      33.405  18.464  24.225  1.00  0.00     0.150 A 
ATOM     16  C   UNL A   1      34.446  19.267  24.652  1.00  0.00     0.040 A 
ATOM     17  N   UNL A   1      32.121  18.835  24.362  1.00  0.00    -0.143 NA
ATOM     18  C   UNL A   1      34.132  20.506  25.213  1.00  0.00     0.051 A 
ATOM     19  N   UNL A   1      31.834  20.063  24.922  1.00  0.00    -0.132 NA
BRANCH  15  20
ATOM     20  C   UNL A   1      33.656  17.203  23.495  1.00  0.00     0.271 C 
ATOM     21  N   UNL A   1      33.818  16.026  24.188  1.00  0.00    -0.351 N 
ATOM     22  H   UNL A   1      34.102  15.252  23.650  1.00  0.00     0.163 HD
ATOM     23  O   UNL A   1      33.761  17.212  22.271  1.00  0.00    -0.267 OA
BRANCH  21  24
ATOM     24  C   UNL A   1      33.626  15.769  25.603  1.00  0.00     0.113 C 
ATOM     25  C   UNL A   1      32.314  15.051  25.853  1.00  0.00     0.027 C 
ENDBRANCH  21  24
ENDBRANCH  15  20
ENDBRANCH  12  14
ENDBRANCH   7  12
ENDBRANCH   4   6
ENDBRANCH   3   4
ENDBRANCH   2   3
ENDBRANCH   1   2
BRANCH   1  26
ATOM     26  O   UNL A   1      38.046  22.115  25.286  1.00  0.00    -0.374 OA
BRANCH  26  27
ATOM     27  C   UNL A   1      37.768  20.773  24.892  1.00  0.00     0.202 C 
BRANCH  27  28
ATOM     28  C   UNL A   1      38.893  19.743  25.054  1.00  0.00     0.261 C 
BRANCH  28  29
ATOM     29  O   UNL A   1      39.675  19.957  26.245  1.00  0.00    -0.460 OA
BRANCH  29  30
ATOM     30  C   UNL A   1      41.012  19.836  26.070  1.00  0.00     0.338 C 
ATOM     31  O   UNL A   1      41.611  18.949  25.478  1.00  0.00    -0.246 OA
BRANCH  30  32
ATOM     32  C   UNL A   1      41.686  21.053  26.551  1.00  0.00     0.060 A 
ATOM     33  C   UNL A   1      41.602  21.349  27.918  1.00  0.00     0.016 A 
ATOM     34  C   UNL A   1      42.348  21.915  25.676  1.00  0.00     0.016 A 
ATOM     35  C   UNL A   1      42.169  22.520  28.417  1.00  0.00     0.010 A 
ATOM     36  C   UNL A   1      42.900  23.099  26.174  1.00  0.00     0.010 A 
ATOM     37  C   UNL A   1      42.795  23.416  27.542  1.00  0.00    -0.014 A 
BRANCH  37  38
ATOM     38  C   UNL A   1      43.244  24.739  28.033  1.00  0.00     0.031 A 
ATOM     39  C   UNL A   1      42.216  25.792  28.336  1.00  0.00     0.074 A 
ATOM     40  C   UNL A   1      44.553  24.998  28.196  1.00  0.00     0.049 A 
ATOM     41  N   UNL A   1      42.386  27.046  28.667  1.00  0.00    -0.248 NA
ATOM     42  C   UNL A   1      40.807  25.377  28.246  1.00  0.00     0.031 C 
ATOM     43  C   UNL A   1      45.635  24.041  27.975  1.00  0.00     0.029 A 
ATOM     44  N   UNL A   1      45.195  26.154  28.564  1.00  0.00    -0.354 N 
ATOM     45  C   UNL A   1      41.109  27.573  28.810  1.00  0.00     0.074 A 
ATOM     46  C   UNL A   1      40.173  26.510  28.515  1.00  0.00     0.031 C 
ATOM     47  C   UNL A   1      46.811  24.658  28.182  1.00  0.00     0.029 A 
ATOM     48  C   UNL A   1      46.563  26.060  28.511  1.00  0.00     0.049 A 
ATOM     49  H   UNL A   1      44.720  26.971  28.840  1.00  0.00     0.167 HD
ATOM     50  C   UNL A   1      40.755  28.833  29.159  1.00  0.00     0.037 A 
ATOM     51  C   UNL A   1      47.506  27.010  28.668  1.00  0.00     0.037 A 
ATOM     52  C   UNL A   1      41.693  29.881  29.463  1.00  0.00     0.049 A 
ATOM     53  C   UNL A   1      47.081  28.421  28.990  1.00  0.00     0.074 A 
ATOM     54  C   UNL A   1      41.434  31.179  29.869  1.00  0.00     0.029 A 
ATOM     55  N   UNL A   1      43.072  29.755  29.382  1.00  0.00    -0.354 N 
ATOM     56  N   UNL A   1      45.874  28.906  29.157  1.00  0.00    -0.248 NA
ATOM     57  C   UNL A   1      48.150  29.419  29.141  1.00  0.00     0.031 C 
ATOM     58  C   UNL A   1      42.652  31.855  29.973  1.00  0.00     0.029 A 
ATOM     59  C   UNL A   1      43.675  30.963  29.693  1.00  0.00     0.049 A 
ATOM     60  H   UNL A   1      43.550  28.930  29.140  1.00  0.00     0.167 HD
ATOM     61  C   UNL A   1      46.039  30.252  29.456  1.00  0.00     0.074 A 
ATOM     62  C   UNL A   1      47.464  30.505  29.466  1.00  0.00     0.031 C 
ATOM     63  C   UNL A   1      45.097  31.196  29.698  1.00  0.00     0.037 A 
BRANCH  50  64
ATOM     64  C   UNL A   1      39.292  29.165  29.200  1.00  0.00     0.064 A 
ATOM     65  C   UNL A   1      38.574  29.204  30.404  1.00  0.00     0.173 A 
ATOM     66  C   UNL A   1      38.617  29.514  28.021  1.00  0.00     0.173 A 
ATOM     67  F   UNL A   1      39.170  28.865  31.557  1.00  0.00    -0.203 F 
ATOM     68  C   UNL A   1      37.229  29.567  30.422  1.00  0.00     0.198 A 
ATOM     69  C   UNL A   1      37.281  29.903  28.047  1.00  0.00     0.198 A 
ATOM     70  F   UNL A   1      39.259  29.495  26.843  1.00  0.00    -0.203 F 
ATOM     71  F   UNL A   1      36.553  29.564  31.580  1.00  0.00    -0.200 F 
ATOM     72  C   UNL A   1      36.587  29.926  29.247  1.00  0.00     0.200 A 
ATOM     73  F   UNL A   1      36.666  30.262  26.910  1.00  0.00    -0.200 F 
ATOM     74  F   UNL A   1      35.298  30.290  29.270  1.00  0.00    -0.200 F 
ENDBRANCH  50  64
BRANCH  51  75
ATOM     75  C   UNL A   1      48.943  26.677  28.479  1.00  0.00     0.064 A 
ATOM     76  C   UNL A   1      49.764  26.347  29.565  1.00  0.00     0.173 A 
ATOM     77  C   UNL A   1      49.534  26.718  27.207  1.00  0.00     0.173 A 
ATOM     78  F   UNL A   1      49.253  26.319  30.806  1.00  0.00    -0.203 F 
ATOM     79  C   UNL A   1      51.124  26.098  29.391  1.00  0.00     0.198 A 
ATOM     80  C   UNL A   1      50.886  26.436  27.029  1.00  0.00     0.198 A 
ATOM     81  F   UNL A   1      48.794  27.029  26.131  1.00  0.00    -0.203 F 
ATOM     82  F   UNL A   1      51.897  25.842  30.456  1.00  0.00    -0.200 F 
ATOM     83  C   UNL A   1      51.683  26.137  28.123  1.00  0.00     0.200 A 
ATOM     84  F   UNL A   1      51.418  26.461  25.799  1.00  0.00    -0.200 F 
ATOM     85  F   UNL A   1      52.991  25.898  27.957  1.00  0.00    -0.200 F 
ENDBRANCH  51  75
BRANCH  63  86
ATOM     86  C   UNL A   1      45.575  32.584  30.019  1.00  0.00     0.064 A 
ATOM     87  C   UNL A   1      45.640  33.584  29.038  1.00  0.00     0.173 A 
ATOM     88  C   UNL A   1      45.931  32.926  31.332  1.00  0.00     0.173 A 
ATOM     89  F   UNL A   1      45.325  33.304  27.765  1.00  0.00    -0.203 F 
ATOM     90  C   UNL A   1      46.067  34.871  29.357  1.00  0.00     0.198 A 
ATOM     91  C   UNL A   1      46.327  34.222  31.653  1.00  0.00     0.198 A 
ATOM     92  F   UNL A   1      45.879  32.008  32.310  1.00  0.00    -0.203 F 
ATOM     93  F   UNL A   1      46.168  35.797  28.394  1.00  0.00    -0.200 F 
ATOM     94  C   UNL A   1      46.402  35.190  30.664  1.00  0.00     0.200 A 
ATOM     95  F   UNL A   1      46.634  34.533  32.920  1.00  0.00    -0.200 F 
ATOM     96  F   UNL A   1      46.805  36.432  30.970  1.00  0.00    -0.200 F 
ENDBRANCH  63  86
ENDBRANCH  37  38
ENDBRANCH  30  32
ENDBRANCH  29  30
ENDBRANCH  28  29
ENDBRANCH  27  28
ENDBRANCH  26  27
ENDBRANCH   1  26
TORSDOF 18
ENDMDL
MODEL 2
REMARK VINA RESULT:     -10.9      5.246     10.187
REMARK SMILES CCNC(=O)c1ccc(N[C@@H]2COC[C@@]2(C)C(=O)OCCOCCOC(=O)c2ccc(-c3c4nc(c(-c5c(F)c(F)c(F)c(F)c5F)c5ccc([nH]5)c(-c5c(F)c(F)c(F)c(F)c5F)c5nc(c(-c6c(F)c(F)c(F)c(F)c6F)c6ccc3[nH]6)C=C5)C=C4)cc2)nn1
REMARK SMILES IDX 21 1 20 2 19 3 17 4 18 5 15 6 11 7 12 8 13 9 14 10 16 11
REMARK SMILES IDX 10 12 9 14 6 15 7 16 92 17 8 18 91 19 4 20 3 21 5 23 2 24
REMARK SMILES IDX 1 25 22 26 23 27 24 28 25 29 26 30 27 31 28 32 29 33 90 34
REMARK SMILES IDX 30 35 89 36 31 37 32 38 33 39 83 40 34 41 88 42 82 43 84 44
REMARK SMILES IDX 35 45 87 46 81 47 80 48 36 50 68 51 48 52 67 53 49 54 52 55
REMARK SMILES IDX 66 56 85 57 50 58 51 59 65 61 86 62 53 63 37 64 38 65 46 66
REMARK SMILES IDX 39 67 40 68 44 69 47 70 41 71 42 72 45 73 43 74 69 75 70 76
REMARK SMILES IDX 78 77 71 78 72 79 76 80 79 81 73 82 74 83 77 84 75 85 54 86
REMARK SMILES IDX 55 87 63 88 56 89 57 90 61 91 64 92 58 93 59 94 62 95 60 96
REMARK H PARENT 10 13 3 22 84 49 52 60
REMARK Flexibility Score: inf
ROOT
ATOM      1  C   UNL A   1      34.863  29.857  27.487  1.00  0.00     0.202 C 
ENDROOT
BRANCH   1   2
ATOM      2  C   UNL A   1      33.761  28.888  27.051  1.00  0.00     0.261 C 
BRANCH   2   3
ATOM      3  O   UNL A   1      33.674  28.776  25.616  1.00  0.00    -0.463 OA
BRANCH   3   4
ATOM      4  C   UNL A   1      32.412  28.717  25.113  1.00  0.00     0.316 C 
ATOM      5  O   UNL A   1      31.406  28.990  25.759  1.00  0.00    -0.251 OA
BRANCH   4   6
ATOM      6  C   UNL A   1      32.356  28.348  23.637  1.00  0.00     0.111 C 
ATOM      7  C   UNL A   1      31.966  26.895  23.331  1.00  0.00     0.126 C 
ATOM      8  C   UNL A   1      31.009  26.981  22.139  1.00  0.00     0.186 C 
ATOM      9  O   UNL A   1      30.601  28.345  21.995  1.00  0.00    -0.378 OA
ATOM     10  C   UNL A   1      31.130  29.092  23.093  1.00  0.00     0.181 C 
ATOM     11  C   UNL A   1      33.618  28.892  22.955  1.00  0.00     0.028 C 
BRANCH   7  12
ATOM     12  N   UNL A   1      33.040  25.898  23.205  1.00  0.00    -0.362 N 
ATOM     13  H   UNL A   1      33.586  25.924  22.387  1.00  0.00     0.162 HD
BRANCH  12  14
ATOM     14  C   UNL A   1      33.347  24.927  24.145  1.00  0.00     0.149 A 
ATOM     15  C   UNL A   1      34.265  22.947  25.809  1.00  0.00     0.150 A 
ATOM     16  C   UNL A   1      34.672  24.247  26.047  1.00  0.00     0.040 A 
ATOM     17  N   UNL A   1      33.417  22.641  24.813  1.00  0.00    -0.143 NA
ATOM     18  C   UNL A   1      34.196  25.249  25.200  1.00  0.00     0.051 A 
ATOM     19  N   UNL A   1      32.958  23.648  23.990  1.00  0.00    -0.132 NA
BRANCH  15  20
ATOM     20  C   UNL A   1      34.831  21.813  26.570  1.00  0.00     0.271 C 
ATOM     21  N   UNL A   1      36.013  21.235  26.169  1.00  0.00    -0.351 N 
ATOM     22  H   UNL A   1      36.267  20.412  26.645  1.00  0.00     0.163 HD
ATOM     23  O   UNL A   1      34.226  21.358  27.538  1.00  0.00    -0.267 OA
BRANCH  21  24
ATOM     24  C   UNL A   1      36.937  21.673  25.140  1.00  0.00     0.113 C 
ATOM     25  C   UNL A   1      38.330  21.869  25.706  1.00  0.00     0.027 C 
ENDBRANCH  21  24
ENDBRANCH  15  20
ENDBRANCH  12  14
ENDBRANCH   7  12
ENDBRANCH   4   6
ENDBRANCH   3   4
ENDBRANCH   2   3
ENDBRANCH   1   2
BRANCH   1  26
ATOM     26  O   UNL A   1      34.512  31.231  27.627  1.00  0.00    -0.374 OA
BRANCH  26  27
ATOM     27  C   UNL A   1      33.225  31.626  27.158  1.00  0.00     0.202 C 
BRANCH  27  28
ATOM     28  C   UNL A   1      32.503  32.735  27.934  1.00  0.00     0.261 C 
BRANCH  28  29
ATOM     29  O   UNL A   1      32.936  34.054  27.553  1.00  0.00    -0.460 OA
BRANCH  29  30
ATOM     30  C   UNL A   1      33.142  34.901  28.589  1.00  0.00     0.338 C 
ATOM     31  O   UNL A   1      32.422  35.818  28.959  1.00  0.00    -0.246 OA
BRANCH  30  32
ATOM     32  C   UNL A   1      34.311  34.457  29.366  1.00  0.00     0.060 A 
ATOM     33  C   UNL A   1      35.566  34.509  28.745  1.00  0.00     0.016 A 
ATOM     34  C   UNL A   1      34.178  33.956  30.661  1.00  0.00     0.016 A 
ATOM     35  C   UNL A   1      36.696  34.042  29.412  1.00  0.00     0.010 A 
ATOM     36  C   UNL A   1      35.310  33.471  31.323  1.00  0.00     0.010 A 
ATOM     37  C   UNL A   1      36.570  33.494  30.694  1.00  0.00    -0.014 A 
BRANCH  37  38
ATOM     38  C   UNL A   1      37.732  32.840  31.338  1.00  0.00     0.031 A 
ATOM     39  C   UNL A   1      38.363  31.651  30.670  1.00  0.00     0.074 A 
ATOM     40  C   UNL A   1      38.210  33.297  32.509  1.00  0.00     0.049 A 
ATOM     41  N   UNL A   1      39.311  30.862  31.105  1.00  0.00    -0.248 NA
ATOM     42  C   UNL A   1      37.851  31.302  29.335  1.00  0.00     0.031 C 
ATOM     43  C   UNL A   1      37.706  34.466  33.226  1.00  0.00     0.029 A 
ATOM     44  N   UNL A   1      39.213  32.816  33.312  1.00  0.00    -0.354 N 
ATOM     45  C   UNL A   1      39.498  29.914  30.107  1.00  0.00     0.074 A 
ATOM     46  C   UNL A   1      38.557  30.217  29.050  1.00  0.00     0.031 C 
ATOM     47  C   UNL A   1      38.383  34.595  34.379  1.00  0.00     0.029 A 
ATOM     48  C   UNL A   1      39.338  33.495  34.498  1.00  0.00     0.049 A 
ATOM     49  H   UNL A   1      39.789  32.056  33.061  1.00  0.00     0.167 HD
ATOM     50  C   UNL A   1      40.381  28.888  30.078  1.00  0.00     0.037 A 
ATOM     51  C   UNL A   1      40.106  33.231  35.573  1.00  0.00     0.037 A 
ATOM     52  C   UNL A   1      41.322  28.602  31.129  1.00  0.00     0.049 A 
ATOM     53  C   UNL A   1      41.031  32.041  35.542  1.00  0.00     0.074 A 
ATOM     54  C   UNL A   1      42.286  27.610  31.176  1.00  0.00     0.029 A 
ATOM     55  N   UNL A   1      41.407  29.301  32.324  1.00  0.00    -0.354 N 
ATOM     56  N   UNL A   1      41.228  31.169  34.583  1.00  0.00    -0.248 NA
ATOM     57  C   UNL A   1      41.838  31.794  36.746  1.00  0.00     0.031 C 
ATOM     58  C   UNL A   1      42.914  27.671  32.423  1.00  0.00     0.029 A 
ATOM     59  C   UNL A   1      42.383  28.737  33.131  1.00  0.00     0.049 A 
ATOM     60  H   UNL A   1      40.857  30.081  32.563  1.00  0.00     0.167 HD
ATOM     61  C   UNL A   1      42.195  30.291  35.055  1.00  0.00     0.074 A 
ATOM     62  C   UNL A   1      42.560  30.745  36.380  1.00  0.00     0.031 C 
ATOM     63  C   UNL A   1      42.733  29.204  34.448  1.00  0.00     0.037 A 
BRANCH  50  64
ATOM     64  C   UNL A   1      40.353  27.970  28.891  1.00  0.00     0.064 A 
ATOM     65  C   UNL A   1      41.097  28.235  27.732  1.00  0.00     0.173 A 
ATOM     66  C   UNL A   1      39.620  26.775  28.943  1.00  0.00     0.173 A 
ATOM     67  F   UNL A   1      41.803  29.370  27.628  1.00  0.00    -0.203 F 
ATOM     68  C   UNL A   1      41.097  27.341  26.664  1.00  0.00     0.198 A 
ATOM     69  C   UNL A   1      39.644  25.871  27.884  1.00  0.00     0.198 A 
ATOM     70  F   UNL A   1      38.893  26.474  30.030  1.00  0.00    -0.203 F 
ATOM     71  F   UNL A   1      41.788  27.630  25.552  1.00  0.00    -0.200 F 
ATOM     72  C   UNL A   1      40.380  26.157  26.745  1.00  0.00     0.200 A 
ATOM     73  F   UNL A   1      38.959  24.722  27.970  1.00  0.00    -0.200 F 
ATOM     74  F   UNL A   1      40.394  25.292  25.721  1.00  0.00    -0.200 F 
ENDBRANCH  50  64
BRANCH  51  75
ATOM     75  C   UNL A   1      40.003  34.079  36.791  1.00  0.00     0.064 A 
ATOM     76  C   UNL A   1      39.119  33.758  37.830  1.00  0.00     0.173 A 
ATOM     77  C   UNL A   1      40.765  35.250  36.924  1.00  0.00     0.173 A 
ATOM     78  F   UNL A   1      38.351  32.662  37.740  1.00  0.00    -0.203 F 
ATOM     79  C   UNL A   1      38.980  34.590  38.941  1.00  0.00     0.198 A 
ATOM     80  C   UNL A   1      40.650  36.063  38.049  1.00  0.00     0.198 A 
ATOM     81  F   UNL A   1      41.626  35.606  35.958  1.00  0.00    -0.203 F 
ATOM     82  F   UNL A   1      38.085  34.289  39.891  1.00  0.00    -0.200 F 
ATOM     83  C   UNL A   1      39.750  35.738  39.052  1.00  0.00     0.200 A 
ATOM     84  F   UNL A   1      41.406  37.164  38.157  1.00  0.00    -0.200 F 
ATOM     85  F   UNL A   1      39.615  36.537  40.119  1.00  0.00    -0.200 F 
ENDBRANCH  51  75
BRANCH  63  86
ATOM     86  C   UNL A   1      43.788  28.445  35.200  1.00  0.00     0.064 A 
ATOM     87  C   UNL A   1      43.463  27.377  36.048  1.00  0.00     0.173 A 
ATOM     88  C   UNL A   1      45.145  28.763  35.035  1.00  0.00     0.173 A 
ATOM     89  F   UNL A   1      42.180  27.042  36.251  1.00  0.00    -0.203 F 
ATOM     90  C   UNL A   1      44.456  26.670  36.722  1.00  0.00     0.198 A 
ATOM     91  C   UNL A   1      46.137  28.034  35.686  1.00  0.00     0.198 A 
ATOM     92  F   UNL A   1      45.511  29.771  34.228  1.00  0.00    -0.203 F 
ATOM     93  F   UNL A   1      44.117  25.685  37.566  1.00  0.00    -0.200 F 
ATOM     94  C   UNL A   1      45.791  26.995  36.535  1.00  0.00     0.200 A 
ATOM     95  F   UNL A   1      47.427  28.338  35.489  1.00  0.00    -0.200 F 
ATOM     96  F   UNL A   1      46.746  26.307  37.178  1.00  0.00    -0.200 F 
ENDBRANCH  63  86
ENDBRANCH  37  38
ENDBRANCH  30  32
ENDBRANCH  29  30
ENDBRANCH  28  29
ENDBRANCH  27  28
ENDBRANCH  26  27
ENDBRANCH   1  26
TORSDOF 18
ENDMDL
MODEL 3
REMARK VINA RESULT:     -10.9      2.203      4.645
REMARK SMILES CCNC(=O)c1ccc(N[C@@H]2COC[C@@]2(C)C(=O)OCCOCCOC(=O)c2ccc(-c3c4nc(c(-c5c(F)c(F)c(F)c(F)c5F)c5ccc([nH]5)c(-c5c(F)c(F)c(F)c(F)c5F)c5nc(c(-c6c(F)c(F)c(F)c(F)c6F)c6ccc3[nH]6)C=C5)C=C4)cc2)nn1
REMARK SMILES IDX 21 1 20 2 19 3 17 4 18 5 15 6 11 7 12 8 13 9 14 10 16 11
REMARK SMILES IDX 10 12 9 14 6 15 7 16 92 17 8 18 91 19 4 20 3 21 5 23 2 24
REMARK SMILES IDX 1 25 22 26 23 27 24 28 25 29 26 30 27 31 28 32 29 33 90 34
REMARK SMILES IDX 30 35 89 36 31 37 32 38 33 39 83 40 34 41 88 42 82 43 84 44
REMARK SMILES IDX 35 45 87 46 81 47 80 48 36 50 68 51 48 52 67 53 49 54 52 55
REMARK SMILES IDX 66 56 85 57 50 58 51 59 65 61 86 62 53 63 37 64 38 65 46 66
REMARK SMILES IDX 39 67 40 68 44 69 47 70 41 71 42 72 45 73 43 74 69 75 70 76
REMARK SMILES IDX 78 77 71 78 72 79 76 80 79 81 73 82 74 83 77 84 75 85 54 86
REMARK SMILES IDX 55 87 63 88 56 89 57 90 61 91 64 92 58 93 59 94 62 95 60 96
REMARK H PARENT 10 13 3 22 84 49 52 60
REMARK Flexibility Score: inf
ROOT
ATOM      1  C   UNL A   1      36.968  22.822  24.898  1.00  0.00     0.202 C 
ENDROOT
BRANCH   1   2
ATOM      2  C   UNL A   1      35.781  23.512  25.574  1.00  0.00     0.261 C 
BRANCH   2   3
ATOM      3  O   UNL A   1      34.655  22.625  25.728  1.00  0.00    -0.463 OA
BRANCH   3   4
ATOM      4  C   UNL A   1      33.433  23.220  25.670  1.00  0.00     0.316 C 
ATOM      5  O   UNL A   1      33.182  24.313  26.167  1.00  0.00    -0.251 OA
BRANCH   4   6
ATOM      6  C   UNL A   1      32.407  22.439  24.862  1.00  0.00     0.111 C 
ATOM      7  C   UNL A   1      32.279  22.841  23.386  1.00  0.00     0.126 C 
ATOM      8  C   UNL A   1      32.151  21.521  22.621  1.00  0.00     0.186 C 
ATOM      9  O   UNL A   1      32.526  20.459  23.504  1.00  0.00    -0.378 OA
ATOM     10  C   UNL A   1      33.006  21.033  24.722  1.00  0.00     0.181 C 
ATOM     11  C   UNL A   1      31.111  22.354  25.679  1.00  0.00     0.028 C 
BRANCH   7  12
ATOM     12  N   UNL A   1      31.293  23.873  23.029  1.00  0.00    -0.362 N 
ATOM     13  H   UNL A   1      30.559  23.607  22.429  1.00  0.00     0.162 HD
BRANCH  12  14
ATOM     14  C   UNL A   1      31.311  25.186  23.470  1.00  0.00     0.149 A 
ATOM     15  C   UNL A   1      31.108  27.857  24.068  1.00  0.00     0.150 A 
ATOM     16  C   UNL A   1      30.193  26.986  24.630  1.00  0.00     0.040 A 
ATOM     17  N   UNL A   1      32.100  27.426  23.271  1.00  0.00    -0.143 NA
ATOM     18  C   UNL A   1      30.307  25.629  24.325  1.00  0.00     0.051 A 
ATOM     19  N   UNL A   1      32.195  26.080  22.986  1.00  0.00    -0.132 NA
BRANCH  15  20
ATOM     20  C   UNL A   1      30.973  29.321  24.227  1.00  0.00     0.271 C 
ATOM     21  N   UNL A   1      30.293  30.057  23.284  1.00  0.00    -0.351 N 
ATOM     22  H   UNL A   1      30.347  31.034  23.388  1.00  0.00     0.163 HD
ATOM     23  O   UNL A   1      31.504  29.888  25.179  1.00  0.00    -0.267 OA
BRANCH  21  24
ATOM     24  C   UNL A   1      29.506  29.589  22.159  1.00  0.00     0.113 C 
ATOM     25  C   UNL A   1      28.030  29.552  22.505  1.00  0.00     0.027 C 
ENDBRANCH  21  24
ENDBRANCH  15  20
ENDBRANCH  12  14
ENDBRANCH   7  12
ENDBRANCH   4   6
ENDBRANCH   3   4
ENDBRANCH   2   3
ENDBRANCH   1   2
BRANCH   1  26
ATOM     26  O   UNL A   1      37.357  21.545  25.398  1.00  0.00    -0.374 OA
BRANCH  26  27
ATOM     27  C   UNL A   1      38.727  21.376  25.756  1.00  0.00     0.202 C 
BRANCH  27  28
ATOM     28  C   UNL A   1      39.343  19.987  25.546  1.00  0.00     0.261 C 
BRANCH  28  29
ATOM     29  O   UNL A   1      40.305  19.645  26.561  1.00  0.00    -0.460 OA
BRANCH  29  30
ATOM     30  C   UNL A   1      41.586  19.585  26.126  1.00  0.00     0.338 C 
ATOM     31  O   UNL A   1      42.110  18.698  25.466  1.00  0.00    -0.246 OA
BRANCH  30  32
ATOM     32  C   UNL A   1      42.264  20.861  26.406  1.00  0.00     0.060 A 
ATOM     33  C   UNL A   1      42.424  21.235  27.747  1.00  0.00     0.016 A 
ATOM     34  C   UNL A   1      42.697  21.699  25.378  1.00  0.00     0.016 A 
ATOM     35  C   UNL A   1      43.004  22.461  28.067  1.00  0.00     0.010 A 
ATOM     36  C   UNL A   1      43.261  22.937  25.700  1.00  0.00     0.010 A 
ATOM     37  C   UNL A   1      43.398  23.331  27.044  1.00  0.00    -0.014 A 
BRANCH  37  38
ATOM     38  C   UNL A   1      43.852  24.702  27.372  1.00  0.00     0.031 A 
ATOM     39  C   UNL A   1      42.840  25.718  27.820  1.00  0.00     0.074 A 
ATOM     40  C   UNL A   1      45.150  25.036  27.261  1.00  0.00     0.049 A 
ATOM     41  N   UNL A   1      42.994  26.997  28.050  1.00  0.00    -0.248 NA
ATOM     42  C   UNL A   1      41.469  25.228  28.031  1.00  0.00     0.031 C 
ATOM     43  C   UNL A   1      46.225  24.124  26.878  1.00  0.00     0.029 A 
ATOM     44  N   UNL A   1      45.779  26.243  27.439  1.00  0.00    -0.354 N 
ATOM     45  C   UNL A   1      41.739  27.466  28.417  1.00  0.00     0.074 A 
ATOM     46  C   UNL A   1      40.831  26.341  28.364  1.00  0.00     0.031 C 
ATOM     47  C   UNL A   1      47.378  24.811  26.819  1.00  0.00     0.029 A 
ATOM     48  C   UNL A   1      47.114  26.216  27.121  1.00  0.00     0.049 A 
ATOM     49  H   UNL A   1      45.317  27.051  27.763  1.00  0.00     0.167 HD
ATOM     50  C   UNL A   1      41.383  28.725  28.767  1.00  0.00     0.037 A 
ATOM     51  C   UNL A   1      48.008  27.220  27.043  1.00  0.00     0.037 A 
ATOM     52  C   UNL A   1      42.296  29.835  28.828  1.00  0.00     0.049 A 
ATOM     53  C   UNL A   1      47.569  28.624  27.373  1.00  0.00     0.074 A 
ATOM     54  C   UNL A   1      42.041  31.140  29.214  1.00  0.00     0.029 A 
ATOM     55  N   UNL A   1      43.638  29.774  28.483  1.00  0.00    -0.354 N 
ATOM     56  N   UNL A   1      46.390  29.056  27.751  1.00  0.00    -0.248 NA
ATOM     57  C   UNL A   1      48.584  29.682  27.261  1.00  0.00     0.031 C 
ATOM     58  C   UNL A   1      43.213  31.882  29.043  1.00  0.00     0.029 A 
ATOM     59  C   UNL A   1      44.215  31.028  28.610  1.00  0.00     0.049 A 
ATOM     60  H   UNL A   1      44.110  28.961  28.192  1.00  0.00     0.167 HD
ATOM     61  C   UNL A   1      46.527  30.425  27.946  1.00  0.00     0.074 A 
ATOM     62  C   UNL A   1      47.909  30.750  27.663  1.00  0.00     0.031 C 
ATOM     63  C   UNL A   1      45.594  31.332  28.323  1.00  0.00     0.037 A 
BRANCH  50  64
ATOM     64  C   UNL A   1      39.938  28.985  29.079  1.00  0.00     0.064 A 
ATOM     65  C   UNL A   1      39.013  29.321  28.080  1.00  0.00     0.173 A 
ATOM     66  C   UNL A   1      39.463  28.830  30.390  1.00  0.00     0.173 A 
ATOM     67  F   UNL A   1      39.420  29.493  26.814  1.00  0.00    -0.203 F 
ATOM     68  C   UNL A   1      37.667  29.505  28.387  1.00  0.00     0.198 A 
ATOM     69  C   UNL A   1      38.113  28.988  30.687  1.00  0.00     0.198 A 
ATOM     70  F   UNL A   1      40.308  28.508  31.382  1.00  0.00    -0.203 F 
ATOM     71  F   UNL A   1      36.805  29.859  27.422  1.00  0.00    -0.200 F 
ATOM     72  C   UNL A   1      37.216  29.328  29.686  1.00  0.00     0.200 A 
ATOM     73  F   UNL A   1      37.678  28.806  31.943  1.00  0.00    -0.200 F 
ATOM     74  F   UNL A   1      35.918  29.492  29.975  1.00  0.00    -0.200 F 
ENDBRANCH  50  64
BRANCH  51  75
ATOM     75  C   UNL A   1      49.399  26.949  26.590  1.00  0.00     0.064 A 
ATOM     76  C   UNL A   1      49.751  27.014  25.235  1.00  0.00     0.173 A 
ATOM     77  C   UNL A   1      50.399  26.583  27.504  1.00  0.00     0.173 A 
ATOM     78  F   UNL A   1      48.824  27.335  24.319  1.00  0.00    -0.203 F 
ATOM     79  C   UNL A   1      51.039  26.697  24.809  1.00  0.00     0.198 A 
ATOM     80  C   UNL A   1      51.695  26.299  27.081  1.00  0.00     0.198 A 
ATOM     81  F   UNL A   1      50.118  26.504  28.814  1.00  0.00    -0.203 F 
ATOM     82  F   UNL A   1      51.331  26.711  23.501  1.00  0.00    -0.200 F 
ATOM     83  C   UNL A   1      52.012  26.345  25.732  1.00  0.00     0.200 A 
ATOM     84  F   UNL A   1      52.635  25.973  27.979  1.00  0.00    -0.200 F 
ATOM     85  F   UNL A   1      53.250  26.039  25.321  1.00  0.00    -0.200 F 
ENDBRANCH  51  75
BRANCH  63  86
ATOM     86  C   UNL A   1      46.039  32.759  28.475  1.00  0.00     0.064 A 
ATOM     87  C   UNL A   1      46.576  33.238  29.679  1.00  0.00     0.173 A 
ATOM     88  C   UNL A   1      45.967  33.645  27.389  1.00  0.00     0.173 A 
ATOM     89  F   UNL A   1      46.652  32.436  30.751  1.00  0.00    -0.203 F 
ATOM     90  C   UNL A   1      47.002  34.559  29.796  1.00  0.00     0.198 A 
ATOM     91  C   UNL A   1      46.425  34.955  27.501  1.00  0.00     0.198 A 
ATOM     92  F   UNL A   1      45.470  33.234  26.212  1.00  0.00    -0.203 F 
ATOM     93  F   UNL A   1      47.465  35.008  30.971  1.00  0.00    -0.200 F 
ATOM     94  C   UNL A   1      46.933  35.413  28.705  1.00  0.00     0.200 A 
ATOM     95  F   UNL A   1      46.373  35.773  26.440  1.00  0.00    -0.200 F 
ATOM     96  F   UNL A   1      47.353  36.681  28.819  1.00  0.00    -0.200 F 
ENDBRANCH  63  86
ENDBRANCH  37  38
ENDBRANCH  30  32
ENDBRANCH  29  30
ENDBRANCH  28  29
ENDBRANCH  27  28
ENDBRANCH  26  27
ENDBRANCH   1  26
TORSDOF 18
ENDMDL
