MODEL 1
REMARK VINA RESULT:     -10.9      0.000      0.000
REMARK SMILES CC(C)(C)[N@@H+](CCC(=O)OCCOCCOC(=O)c1ccc(-c2c3nc(c(-c4c(F)c(F)c(F)c(F)c4F)c4ccc([nH]4)c(-c4c(F)c(F)c(F)c(F)c4F)c4nc(c(-c5c(F)c(F)c(F)c(F)c5F)c5ccc2[nH]5)C=C4)C=C3)cc1)C[C@H]1COc2ccccc21
REMARK SMILES IDX 12 1 11 2 10 3 8 4 9 5 7 6 6 7 5 8 2 10 1 11 3 12 4 13 82 14
REMARK SMILES IDX 83 15 84 16 91 17 85 18 86 19 90 20 87 21 89 22 88 23 13 24
REMARK SMILES IDX 14 25 15 26 16 27 17 28 18 29 19 30 20 31 81 32 21 33 80 34
REMARK SMILES IDX 22 35 23 36 24 37 74 38 25 39 79 40 73 41 75 42 26 43 78 44
REMARK SMILES IDX 72 45 71 46 27 48 59 49 39 50 58 51 40 52 43 53 57 54 76 55
REMARK SMILES IDX 41 56 42 57 56 59 77 60 44 61 28 62 29 63 37 64 30 65 31 66
REMARK SMILES IDX 35 67 38 68 32 69 33 70 36 71 34 72 60 73 61 74 69 75 62 76
REMARK SMILES IDX 63 77 67 78 70 79 64 80 65 81 68 82 66 83 45 84 46 85 54 86
REMARK SMILES IDX 47 87 48 88 52 89 55 90 49 91 50 92 53 93 51 94
REMARK H PARENT 5 9 75 47 43 58
REMARK Flexibility Score: inf
ROOT
ATOM      1  C   UNL A   1      32.984  29.053  26.886  1.00  0.00     0.202 C 
ENDROOT
BRANCH   1   2
ATOM      2  C   UNL A   1      31.668  28.262  27.034  1.00  0.00     0.261 C 
BRANCH   2   3
ATOM      3  O   UNL A   1      31.290  27.549  25.836  1.00  0.00    -0.463 OA
BRANCH   3   4
ATOM      4  C   UNL A   1      30.826  26.283  25.992  1.00  0.00     0.311 C 
ATOM      5  O   UNL A   1      31.302  25.456  26.762  1.00  0.00    -0.252 OA
BRANCH   4   6
ATOM      6  C   UNL A   1      29.708  25.942  25.028  1.00  0.00     0.184 C 
BRANCH   6   7
ATOM      7  C   UNL A   1      30.084  25.138  23.778  1.00  0.00     0.274 C 
BRANCH   7   8
ATOM      8  N   UNL A   1      31.502  24.954  23.425  1.00  0.00    -0.330 N 
ATOM      9  H   UNL A   1      31.976  25.358  24.233  1.00  0.00     0.348 HD
BRANCH   8  10
ATOM     10  C   UNL A   1      32.210  25.980  22.634  1.00  0.00     0.089 C 
ATOM     11  C   UNL A   1      33.464  26.498  23.384  1.00  0.00     0.078 C 
ATOM     12  C   UNL A   1      31.316  27.195  22.331  1.00  0.00     0.078 C 
ATOM     13  C   UNL A   1      32.758  25.400  21.308  1.00  0.00     0.078 C 
ENDBRANCH   8  10
BRANCH   8  14
ATOM     14  C   UNL A   1      32.013  23.576  23.520  1.00  0.00     0.274 C 
BRANCH  14  15
ATOM     15  C   UNL A   1      32.984  23.232  24.662  1.00  0.00     0.116 C 
ATOM     16  C   UNL A   1      32.653  22.003  25.517  1.00  0.00     0.244 C 
ATOM     17  C   UNL A   1      34.361  22.794  24.273  1.00  0.00     0.006 A 
ATOM     18  O   UNL A   1      33.884  21.542  26.140  1.00  0.00    -0.492 OA
ATOM     19  C   UNL A   1      34.837  21.908  25.224  1.00  0.00     0.123 A 
ATOM     20  C   UNL A   1      35.188  23.215  23.256  1.00  0.00     0.008 A 
ATOM     21  C   UNL A   1      36.148  21.475  25.239  1.00  0.00     0.047 A 
ATOM     22  C   UNL A   1      36.519  22.790  23.239  1.00  0.00     0.001 A 
ATOM     23  C   UNL A   1      37.001  21.932  24.234  1.00  0.00     0.004 A 
ENDBRANCH  14  15
ENDBRANCH   8  14
ENDBRANCH   7   8
ENDBRANCH   6   7
ENDBRANCH   4   6
ENDBRANCH   3   4
ENDBRANCH   2   3
ENDBRANCH   1   2
BRANCH   1  24
ATOM     24  O   UNL A   1      32.918  30.434  27.255  1.00  0.00    -0.374 OA
BRANCH  24  25
ATOM     25  C   UNL A   1      31.840  31.145  26.644  1.00  0.00     0.202 C 
BRANCH  25  26
ATOM     26  C   UNL A   1      31.654  32.574  27.155  1.00  0.00     0.261 C 
BRANCH  26  27
ATOM     27  O   UNL A   1      32.904  33.303  27.016  1.00  0.00    -0.460 OA
BRANCH  27  28
ATOM     28  C   UNL A   1      33.422  33.799  28.169  1.00  0.00     0.338 C 
ATOM     29  O   UNL A   1      32.885  34.602  28.902  1.00  0.00    -0.246 OA
BRANCH  28  30
ATOM     30  C   UNL A   1      34.708  33.127  28.528  1.00  0.00     0.060 A 
ATOM     31  C   UNL A   1      34.603  31.911  29.219  1.00  0.00     0.016 A 
ATOM     32  C   UNL A   1      35.978  33.624  28.214  1.00  0.00     0.016 A 
ATOM     33  C   UNL A   1      35.740  31.192  29.588  1.00  0.00     0.010 A 
ATOM     34  C   UNL A   1      37.127  32.919  28.620  1.00  0.00     0.010 A 
ATOM     35  C   UNL A   1      37.013  31.707  29.326  1.00  0.00    -0.014 A 
BRANCH  35  36
ATOM     36  C   UNL A   1      38.178  31.061  29.984  1.00  0.00     0.031 A 
ATOM     37  C   UNL A   1      38.451  31.394  31.427  1.00  0.00     0.074 A 
ATOM     38  C   UNL A   1      38.915  30.118  29.367  1.00  0.00     0.049 A 
ATOM     39  N   UNL A   1      39.349  30.903  32.245  1.00  0.00    -0.248 NA
ATOM     40  C   UNL A   1      37.575  32.407  32.036  1.00  0.00     0.031 C 
ATOM     41  C   UNL A   1      38.706  29.638  28.004  1.00  0.00     0.029 A 
ATOM     42  N   UNL A   1      39.983  29.382  29.824  1.00  0.00    -0.354 N 
ATOM     43  C   UNL A   1      39.133  31.534  33.463  1.00  0.00     0.074 A 
ATOM     44  C   UNL A   1      38.041  32.463  33.274  1.00  0.00     0.031 C 
ATOM     45  C   UNL A   1      39.621  28.690  27.732  1.00  0.00     0.029 A 
ATOM     46  C   UNL A   1      40.494  28.510  28.894  1.00  0.00     0.049 A 
ATOM     47  H   UNL A   1      40.347  29.471  30.735  1.00  0.00     0.167 HD
ATOM     48  C   UNL A   1      39.782  31.354  34.638  1.00  0.00     0.037 A 
ATOM     49  C   UNL A   1      41.549  27.673  28.971  1.00  0.00     0.037 A 
ATOM     50  C   UNL A   1      40.887  30.453  34.828  1.00  0.00     0.049 A 
ATOM     51  C   UNL A   1      42.334  27.581  30.260  1.00  0.00     0.074 A 
ATOM     52  C   UNL A   1      41.622  30.219  35.977  1.00  0.00     0.029 A 
ATOM     53  N   UNL A   1      41.429  29.650  33.835  1.00  0.00    -0.354 N 
ATOM     54  N   UNL A   1      42.112  28.165  31.412  1.00  0.00    -0.248 NA
ATOM     55  C   UNL A   1      43.517  26.706  30.257  1.00  0.00     0.031 C 
ATOM     56  C   UNL A   1      42.647  29.320  35.665  1.00  0.00     0.029 A 
ATOM     57  C   UNL A   1      42.512  28.946  34.337  1.00  0.00     0.049 A 
ATOM     58  H   UNL A   1      41.094  29.590  32.912  1.00  0.00     0.167 HD
ATOM     59  C   UNL A   1      43.101  27.705  32.275  1.00  0.00     0.074 A 
ATOM     60  C   UNL A   1      43.919  26.783  31.518  1.00  0.00     0.031 C 
ATOM     61  C   UNL A   1      43.311  28.019  33.578  1.00  0.00     0.037 A 
BRANCH  48  62
ATOM     62  C   UNL A   1      39.339  32.192  35.801  1.00  0.00     0.064 A 
ATOM     63  C   UNL A   1      38.397  31.727  36.732  1.00  0.00     0.173 A 
ATOM     64  C   UNL A   1      39.874  33.475  35.991  1.00  0.00     0.173 A 
ATOM     65  F   UNL A   1      37.843  30.514  36.582  1.00  0.00    -0.203 F 
ATOM     66  C   UNL A   1      37.986  32.529  37.794  1.00  0.00     0.198 A 
ATOM     67  C   UNL A   1      39.482  34.262  37.071  1.00  0.00     0.198 A 
ATOM     68  F   UNL A   1      40.779  33.965  35.130  1.00  0.00    -0.203 F 
ATOM     69  F   UNL A   1      37.047  32.086  38.641  1.00  0.00    -0.200 F 
ATOM     70  C   UNL A   1      38.533  33.792  37.965  1.00  0.00     0.200 A 
ATOM     71  F   UNL A   1      40.019  35.478  37.240  1.00  0.00    -0.200 F 
ATOM     72  F   UNL A   1      38.137  34.561  38.989  1.00  0.00    -0.200 F 
ENDBRANCH  48  62
BRANCH  49  73
ATOM     73  C   UNL A   1      41.956  26.861  27.790  1.00  0.00     0.064 A 
ATOM     74  C   UNL A   1      41.465  25.563  27.591  1.00  0.00     0.173 A 
ATOM     75  C   UNL A   1      42.894  27.348  26.867  1.00  0.00     0.173 A 
ATOM     76  F   UNL A   1      40.594  25.035  28.464  1.00  0.00    -0.203 F 
ATOM     77  C   UNL A   1      41.914  24.775  26.532  1.00  0.00     0.198 A 
ATOM     78  C   UNL A   1      43.319  26.572  25.791  1.00  0.00     0.198 A 
ATOM     79  F   UNL A   1      43.408  28.578  27.016  1.00  0.00    -0.203 F 
ATOM     80  F   UNL A   1      41.475  23.515  26.403  1.00  0.00    -0.200 F 
ATOM     81  C   UNL A   1      42.836  25.282  25.630  1.00  0.00     0.200 A 
ATOM     82  F   UNL A   1      44.208  27.067  24.918  1.00  0.00    -0.200 F 
ATOM     83  F   UNL A   1      43.274  24.522  24.616  1.00  0.00    -0.200 F 
ENDBRANCH  49  73
BRANCH  61  84
ATOM     84  C   UNL A   1      44.445  27.332  34.289  1.00  0.00     0.064 A 
ATOM     85  C   UNL A   1      45.721  27.908  34.375  1.00  0.00     0.173 A 
ATOM     86  C   UNL A   1      44.233  26.109  34.943  1.00  0.00     0.173 A 
ATOM     87  F   UNL A   1      45.980  29.071  33.760  1.00  0.00    -0.203 F 
ATOM     88  C   UNL A   1      46.748  27.274  35.071  1.00  0.00     0.198 A 
ATOM     89  C   UNL A   1      45.253  25.492  35.664  1.00  0.00     0.198 A 
ATOM     90  F   UNL A   1      43.029  25.518  34.901  1.00  0.00    -0.203 F 
ATOM     91  F   UNL A   1      47.971  27.821  35.103  1.00  0.00    -0.200 F 
ATOM     92  C   UNL A   1      46.511  26.072  35.720  1.00  0.00     0.200 A 
ATOM     93  F   UNL A   1      45.017  24.340  36.306  1.00  0.00    -0.200 F 
ATOM     94  F   UNL A   1      47.498  25.469  36.399  1.00  0.00    -0.200 F 
ENDBRANCH  61  84
ENDBRANCH  35  36
ENDBRANCH  28  30
ENDBRANCH  27  28
ENDBRANCH  26  27
ENDBRANCH  25  26
ENDBRANCH  24  25
ENDBRANCH   1  24
TORSDOF 19
ENDMDL
MODEL 2
REMARK VINA RESULT:     -10.8      3.312      8.728
REMARK SMILES CC(C)(C)[N@@H+](CCC(=O)OCCOCCOC(=O)c1ccc(-c2c3nc(c(-c4c(F)c(F)c(F)c(F)c4F)c4ccc([nH]4)c(-c4c(F)c(F)c(F)c(F)c4F)c4nc(c(-c5c(F)c(F)c(F)c(F)c5F)c5ccc2[nH]5)C=C4)C=C3)cc1)C[C@H]1COc2ccccc21
REMARK SMILES IDX 12 1 11 2 10 3 8 4 9 5 7 6 6 7 5 8 2 10 1 11 3 12 4 13 82 14
REMARK SMILES IDX 83 15 84 16 91 17 85 18 86 19 90 20 87 21 89 22 88 23 13 24
REMARK SMILES IDX 14 25 15 26 16 27 17 28 18 29 19 30 20 31 81 32 21 33 80 34
REMARK SMILES IDX 22 35 23 36 24 37 74 38 25 39 79 40 73 41 75 42 26 43 78 44
REMARK SMILES IDX 72 45 71 46 27 48 59 49 39 50 58 51 40 52 43 53 57 54 76 55
REMARK SMILES IDX 41 56 42 57 56 59 77 60 44 61 28 62 29 63 37 64 30 65 31 66
REMARK SMILES IDX 35 67 38 68 32 69 33 70 36 71 34 72 60 73 61 74 69 75 62 76
REMARK SMILES IDX 63 77 67 78 70 79 64 80 65 81 68 82 66 83 45 84 46 85 54 86
REMARK SMILES IDX 47 87 48 88 52 89 55 90 49 91 50 92 53 93 51 94
REMARK H PARENT 5 9 75 47 43 58
REMARK Flexibility Score: inf
ROOT
ATOM      1  C   UNL A   1      41.255  20.182  26.335  1.00  0.00     0.202 C 
ENDROOT
BRANCH   1   2
ATOM      2  C   UNL A   1      40.312  21.351  26.686  1.00  0.00     0.261 C 
BRANCH   2   3
ATOM      3  O   UNL A   1      39.133  21.405  25.855  1.00  0.00    -0.463 OA
BRANCH   3   4
ATOM      4  C   UNL A   1      38.455  22.581  25.822  1.00  0.00     0.311 C 
ATOM      5  O   UNL A   1      38.723  23.559  26.511  1.00  0.00    -0.252 OA
BRANCH   4   6
ATOM      6  C   UNL A   1      37.244  22.538  24.913  1.00  0.00     0.184 C 
BRANCH   6   7
ATOM      7  C   UNL A   1      35.965  23.215  25.418  1.00  0.00     0.274 C 
BRANCH   7   8
ATOM      8  N   UNL A   1      34.720  23.101  24.638  1.00  0.00    -0.330 N 
ATOM      9  H   UNL A   1      34.973  23.563  23.765  1.00  0.00     0.348 HD
BRANCH   8  10
ATOM     10  C   UNL A   1      33.673  24.135  24.755  1.00  0.00     0.089 C 
ATOM     11  C   UNL A   1      32.962  24.060  26.131  1.00  0.00     0.078 C 
ATOM     12  C   UNL A   1      32.593  23.988  23.667  1.00  0.00     0.078 C 
ATOM     13  C   UNL A   1      34.270  25.561  24.698  1.00  0.00     0.078 C 
ENDBRANCH   8  10
BRANCH   8  14
ATOM     14  C   UNL A   1      34.414  21.760  24.111  1.00  0.00     0.274 C 
BRANCH  14  15
ATOM     15  C   UNL A   1      33.691  20.760  25.028  1.00  0.00     0.116 C 
ATOM     16  C   UNL A   1      32.174  20.621  24.853  1.00  0.00     0.244 C 
ATOM     17  C   UNL A   1      34.011  19.311  24.838  1.00  0.00     0.006 A 
ATOM     18  O   UNL A   1      31.777  19.323  25.377  1.00  0.00    -0.492 OA
ATOM     19  C   UNL A   1      32.893  18.558  25.155  1.00  0.00     0.123 A 
ATOM     20  C   UNL A   1      35.198  18.681  24.539  1.00  0.00     0.008 A 
ATOM     21  C   UNL A   1      32.935  17.181  25.256  1.00  0.00     0.047 A 
ATOM     22  C   UNL A   1      35.271  17.288  24.626  1.00  0.00     0.001 A 
ATOM     23  C   UNL A   1      34.147  16.541  24.994  1.00  0.00     0.004 A 
ENDBRANCH  14  15
ENDBRANCH   8  14
ENDBRANCH   7   8
ENDBRANCH   6   7
ENDBRANCH   4   6
ENDBRANCH   3   4
ENDBRANCH   2   3
ENDBRANCH   1   2
BRANCH   1  24
ATOM     24  O   UNL A   1      42.308  20.493  25.418  1.00  0.00    -0.374 OA
BRANCH  24  25
ATOM     25  C   UNL A   1      43.417  21.165  26.018  1.00  0.00     0.202 C 
BRANCH  25  26
ATOM     26  C   UNL A   1      44.227  22.033  25.055  1.00  0.00     0.261 C 
BRANCH  26  27
ATOM     27  O   UNL A   1      43.458  23.217  24.708  1.00  0.00    -0.460 OA
BRANCH  27  28
ATOM     28  C   UNL A   1      44.052  24.405  24.995  1.00  0.00     0.338 C 
ATOM     29  O   UNL A   1      45.038  24.855  24.452  1.00  0.00    -0.246 OA
BRANCH  28  30
ATOM     30  C   UNL A   1      43.258  25.191  25.987  1.00  0.00     0.060 A 
ATOM     31  C   UNL A   1      43.771  26.448  26.340  1.00  0.00     0.016 A 
ATOM     32  C   UNL A   1      42.057  24.760  26.563  1.00  0.00     0.016 A 
ATOM     33  C   UNL A   1      43.101  27.270  27.246  1.00  0.00     0.010 A 
ATOM     34  C   UNL A   1      41.400  25.572  27.506  1.00  0.00     0.010 A 
ATOM     35  C   UNL A   1      41.929  26.825  27.865  1.00  0.00    -0.014 A 
BRANCH  35  36
ATOM     36  C   UNL A   1      41.413  27.601  29.024  1.00  0.00     0.031 A 
ATOM     37  C   UNL A   1      42.168  27.520  30.324  1.00  0.00     0.074 A 
ATOM     38  C   UNL A   1      40.371  28.446  28.909  1.00  0.00     0.049 A 
ATOM     39  N   UNL A   1      41.971  28.162  31.449  1.00  0.00    -0.248 NA
ATOM     40  C   UNL A   1      43.317  26.600  30.350  1.00  0.00     0.031 C 
ATOM     41  C   UNL A   1      39.606  28.687  27.690  1.00  0.00     0.029 A 
ATOM     42  N   UNL A   1      39.791  29.274  29.842  1.00  0.00    -0.354 N 
ATOM     43  C   UNL A   1      42.979  27.737  32.305  1.00  0.00     0.074 A 
ATOM     44  C   UNL A   1      43.768  26.763  31.584  1.00  0.00     0.031 C 
ATOM     45  C   UNL A   1      38.651  29.599  27.948  1.00  0.00     0.029 A 
ATOM     46  C   UNL A   1      38.724  29.992  29.357  1.00  0.00     0.049 A 
ATOM     47  H   UNL A   1      40.111  29.347  30.770  1.00  0.00     0.167 HD
ATOM     48  C   UNL A   1      43.229  28.126  33.578  1.00  0.00     0.037 A 
ATOM     49  C   UNL A   1      37.899  30.855  29.984  1.00  0.00     0.037 A 
ATOM     50  C   UNL A   1      42.433  29.073  34.311  1.00  0.00     0.049 A 
ATOM     51  C   UNL A   1      38.128  31.180  31.442  1.00  0.00     0.074 A 
ATOM     52  C   UNL A   1      42.597  29.513  35.613  1.00  0.00     0.029 A 
ATOM     53  N   UNL A   1      41.309  29.713  33.810  1.00  0.00    -0.354 N 
ATOM     54  N   UNL A   1      39.093  30.791  32.239  1.00  0.00    -0.248 NA
ATOM     55  C   UNL A   1      37.150  32.072  32.087  1.00  0.00     0.031 C 
ATOM     56  C   UNL A   1      41.538  30.373  35.920  1.00  0.00     0.029 A 
ATOM     57  C   UNL A   1      40.749  30.517  34.790  1.00  0.00     0.049 A 
ATOM     58  H   UNL A   1      40.961  29.610  32.896  1.00  0.00     0.167 HD
ATOM     59  C   UNL A   1      38.859  31.412  33.461  1.00  0.00     0.074 A 
ATOM     60  C   UNL A   1      37.667  32.216  33.299  1.00  0.00     0.031 C 
ATOM     61  C   UNL A   1      39.569  31.325  34.613  1.00  0.00     0.037 A 
BRANCH  48  62
ATOM     62  C   UNL A   1      44.391  27.482  34.275  1.00  0.00     0.064 A 
ATOM     63  C   UNL A   1      45.667  28.068  34.282  1.00  0.00     0.173 A 
ATOM     64  C   UNL A   1      44.223  26.266  34.954  1.00  0.00     0.173 A 
ATOM     65  F   UNL A   1      45.883  29.221  33.630  1.00  0.00    -0.203 F 
ATOM     66  C   UNL A   1      46.736  27.444  34.919  1.00  0.00     0.198 A 
ATOM     67  C   UNL A   1      45.288  25.661  35.615  1.00  0.00     0.198 A 
ATOM     68  F   UNL A   1      43.023  25.667  34.978  1.00  0.00    -0.203 F 
ATOM     69  F   UNL A   1      47.957  27.994  34.869  1.00  0.00    -0.200 F 
ATOM     70  C   UNL A   1      46.544  26.246  35.589  1.00  0.00     0.200 A 
ATOM     71  F   UNL A   1      45.097  24.508  36.270  1.00  0.00    -0.200 F 
ATOM     72  F   UNL A   1      47.575  25.647  36.204  1.00  0.00    -0.200 F 
ENDBRANCH  48  62
BRANCH  49  73
ATOM     73  C   UNL A   1      36.754  31.469  29.254  1.00  0.00     0.064 A 
ATOM     74  C   UNL A   1      36.729  32.839  28.953  1.00  0.00     0.173 A 
ATOM     75  C   UNL A   1      35.633  30.707  28.894  1.00  0.00     0.173 A 
ATOM     76  F   UNL A   1      37.760  33.622  29.306  1.00  0.00    -0.203 F 
ATOM     77  C   UNL A   1      35.619  33.425  28.346  1.00  0.00     0.198 A 
ATOM     78  C   UNL A   1      34.537  31.287  28.260  1.00  0.00     0.198 A 
ATOM     79  F   UNL A   1      35.596  29.394  29.170  1.00  0.00    -0.203 F 
ATOM     80  F   UNL A   1      35.597  34.747  28.128  1.00  0.00    -0.200 F 
ATOM     81  C   UNL A   1      34.526  32.648  27.995  1.00  0.00     0.200 A 
ATOM     82  F   UNL A   1      33.484  30.531  27.919  1.00  0.00    -0.200 F 
ATOM     83  F   UNL A   1      33.455  33.212  27.419  1.00  0.00    -0.200 F 
ENDBRANCH  49  73
BRANCH  61  84
ATOM     84  C   UNL A   1      39.107  32.148  35.785  1.00  0.00     0.064 A 
ATOM     85  C   UNL A   1      38.257  31.623  36.768  1.00  0.00     0.173 A 
ATOM     86  C   UNL A   1      39.571  33.462  35.953  1.00  0.00     0.173 A 
ATOM     87  F   UNL A   1      37.776  30.376  36.651  1.00  0.00    -0.203 F 
ATOM     88  C   UNL A   1      37.870  32.390  37.865  1.00  0.00     0.198 A 
ATOM     89  C   UNL A   1      39.208  34.216  37.067  1.00  0.00     0.198 A 
ATOM     90  F   UNL A   1      40.394  34.011  35.047  1.00  0.00    -0.203 F 
ATOM     91  F   UNL A   1      37.021  31.882  38.771  1.00  0.00    -0.200 F 
ATOM     92  C   UNL A   1      38.352  33.681  38.018  1.00  0.00     0.200 A 
ATOM     93  F   UNL A   1      39.690  35.457  37.222  1.00  0.00    -0.200 F 
ATOM     94  F   UNL A   1      37.989  34.413  39.080  1.00  0.00    -0.200 F 
ENDBRANCH  61  84
ENDBRANCH  35  36
ENDBRANCH  28  30
ENDBRANCH  27  28
ENDBRANCH  26  27
ENDBRANCH  25  26
ENDBRANCH  24  25
ENDBRANCH   1  24
TORSDOF 19
ENDMDL
MODEL 3
REMARK VINA RESULT:     -10.7      2.314      3.772
REMARK SMILES CC(C)(C)[N@@H+](CCC(=O)OCCOCCOC(=O)c1ccc(-c2c3nc(c(-c4c(F)c(F)c(F)c(F)c4F)c4ccc([nH]4)c(-c4c(F)c(F)c(F)c(F)c4F)c4nc(c(-c5c(F)c(F)c(F)c(F)c5F)c5ccc2[nH]5)C=C4)C=C3)cc1)C[C@H]1COc2ccccc21
REMARK SMILES IDX 12 1 11 2 10 3 8 4 9 5 7 6 6 7 5 8 2 10 1 11 3 12 4 13 82 14
REMARK SMILES IDX 83 15 84 16 91 17 85 18 86 19 90 20 87 21 89 22 88 23 13 24
REMARK SMILES IDX 14 25 15 26 16 27 17 28 18 29 19 30 20 31 81 32 21 33 80 34
REMARK SMILES IDX 22 35 23 36 24 37 74 38 25 39 79 40 73 41 75 42 26 43 78 44
REMARK SMILES IDX 72 45 71 46 27 48 59 49 39 50 58 51 40 52 43 53 57 54 76 55
REMARK SMILES IDX 41 56 42 57 56 59 77 60 44 61 28 62 29 63 37 64 30 65 31 66
REMARK SMILES IDX 35 67 38 68 32 69 33 70 36 71 34 72 60 73 61 74 69 75 62 76
REMARK SMILES IDX 63 77 67 78 70 79 64 80 65 81 68 82 66 83 45 84 46 85 54 86
REMARK SMILES IDX 47 87 48 88 52 89 55 90 49 91 50 92 53 93 51 94
REMARK H PARENT 5 9 75 47 43 58
REMARK Flexibility Score: inf
ROOT
ATOM      1  C   UNL A   1      35.046  33.134  28.708  1.00  0.00     0.202 C 
ENDROOT
BRANCH   1   2
ATOM      2  C   UNL A   1      34.899  31.785  27.974  1.00  0.00     0.261 C 
BRANCH   2   3
ATOM      3  O   UNL A   1      33.526  31.392  27.766  1.00  0.00    -0.463 OA
BRANCH   3   4
ATOM      4  C   UNL A   1      33.299  30.378  26.892  1.00  0.00     0.311 C 
ATOM      5  O   UNL A   1      34.103  29.490  26.633  1.00  0.00    -0.252 OA
BRANCH   4   6
ATOM      6  C   UNL A   1      31.973  30.507  26.171  1.00  0.00     0.184 C 
BRANCH   6   7
ATOM      7  C   UNL A   1      31.478  29.281  25.393  1.00  0.00     0.274 C 
BRANCH   7   8
ATOM      8  N   UNL A   1      31.409  29.328  23.922  1.00  0.00    -0.330 N 
ATOM      9  H   UNL A   1      31.576  30.317  23.733  1.00  0.00     0.348 HD
BRANCH   8  10
ATOM     10  C   UNL A   1      30.113  29.530  23.245  1.00  0.00     0.089 C 
ATOM     11  C   UNL A   1      30.308  29.771  21.725  1.00  0.00     0.078 C 
ATOM     12  C   UNL A   1      29.347  30.739  23.811  1.00  0.00     0.078 C 
ATOM     13  C   UNL A   1      29.222  28.268  23.331  1.00  0.00     0.078 C 
ENDBRANCH   8  10
BRANCH   8  14
ATOM     14  C   UNL A   1      32.564  28.757  23.207  1.00  0.00     0.274 C 
BRANCH  14  15
ATOM     15  C   UNL A   1      32.551  27.255  22.878  1.00  0.00     0.116 C 
ATOM     16  C   UNL A   1      33.132  26.831  21.524  1.00  0.00     0.244 C 
ATOM     17  C   UNL A   1      33.421  26.370  23.713  1.00  0.00     0.006 A 
ATOM     18  O   UNL A   1      33.519  25.432  21.618  1.00  0.00    -0.492 OA
ATOM     19  C   UNL A   1      33.848  25.302  22.943  1.00  0.00     0.123 A 
ATOM     20  C   UNL A   1      33.722  26.408  25.057  1.00  0.00     0.008 A 
ATOM     21  C   UNL A   1      34.512  24.219  23.485  1.00  0.00     0.047 A 
ATOM     22  C   UNL A   1      34.399  25.330  25.635  1.00  0.00     0.001 A 
ATOM     23  C   UNL A   1      34.782  24.234  24.854  1.00  0.00     0.004 A 
ENDBRANCH  14  15
ENDBRANCH   8  14
ENDBRANCH   7   8
ENDBRANCH   6   7
ENDBRANCH   4   6
ENDBRANCH   3   4
ENDBRANCH   2   3
ENDBRANCH   1   2
BRANCH   1  24
ATOM     24  O   UNL A   1      33.821  33.798  29.029  1.00  0.00    -0.374 OA
BRANCH  24  25
ATOM     25  C   UNL A   1      33.777  35.164  28.613  1.00  0.00     0.202 C 
BRANCH  25  26
ATOM     26  C   UNL A   1      32.894  36.062  29.479  1.00  0.00     0.261 C 
BRANCH  26  27
ATOM     27  O   UNL A   1      32.341  35.284  30.576  1.00  0.00    -0.460 OA
BRANCH  27  28
ATOM     28  C   UNL A   1      32.695  35.694  31.821  1.00  0.00     0.338 C 
ATOM     29  O   UNL A   1      32.090  36.492  32.504  1.00  0.00    -0.246 OA
BRANCH  28  30
ATOM     30  C   UNL A   1      33.871  34.931  32.338  1.00  0.00     0.060 A 
ATOM     31  C   UNL A   1      35.127  35.534  32.173  1.00  0.00     0.016 A 
ATOM     32  C   UNL A   1      33.793  33.684  32.970  1.00  0.00     0.016 A 
ATOM     33  C   UNL A   1      36.289  34.915  32.633  1.00  0.00     0.010 A 
ATOM     34  C   UNL A   1      34.969  33.041  33.400  1.00  0.00     0.010 A 
ATOM     35  C   UNL A   1      36.226  33.646  33.216  1.00  0.00    -0.014 A 
BRANCH  35  36
ATOM     36  C   UNL A   1      37.499  32.908  33.425  1.00  0.00     0.031 A 
ATOM     37  C   UNL A   1      38.264  33.160  34.697  1.00  0.00     0.074 A 
ATOM     38  C   UNL A   1      37.918  31.954  32.573  1.00  0.00     0.049 A 
ATOM     39  N   UNL A   1      39.350  32.585  35.150  1.00  0.00    -0.248 NA
ATOM     40  C   UNL A   1      37.714  34.193  35.590  1.00  0.00     0.031 C 
ATOM     41  C   UNL A   1      37.231  31.548  31.351  1.00  0.00     0.029 A 
ATOM     42  N   UNL A   1      39.026  31.140  32.624  1.00  0.00    -0.354 N 
ATOM     43  C   UNL A   1      39.601  33.172  36.384  1.00  0.00     0.074 A 
ATOM     44  C   UNL A   1      38.573  34.168  36.597  1.00  0.00     0.031 C 
ATOM     45  C   UNL A   1      37.934  30.563  30.763  1.00  0.00     0.029 A 
ATOM     46  C   UNL A   1      39.133  30.283  31.555  1.00  0.00     0.049 A 
ATOM     47  H   UNL A   1      39.681  31.168  33.358  1.00  0.00     0.167 HD
ATOM     48  C   UNL A   1      40.594  32.904  37.264  1.00  0.00     0.037 A 
ATOM     49  C   UNL A   1      40.094  29.387  31.251  1.00  0.00     0.037 A 
ATOM     50  C   UNL A   1      41.635  31.936  37.046  1.00  0.00     0.049 A 
ATOM     51  C   UNL A   1      41.260  29.194  32.194  1.00  0.00     0.074 A 
ATOM     52  C   UNL A   1      42.697  31.611  37.872  1.00  0.00     0.029 A 
ATOM     53  N   UNL A   1      41.755  31.149  35.911  1.00  0.00    -0.354 N 
ATOM     54  N   UNL A   1      41.479  29.738  33.366  1.00  0.00    -0.248 NA
ATOM     55  C   UNL A   1      42.311  28.256  31.770  1.00  0.00     0.031 C 
ATOM     56  C   UNL A   1      43.493  30.671  37.210  1.00  0.00     0.029 A 
ATOM     57  C   UNL A   1      42.893  30.364  35.999  1.00  0.00     0.049 A 
ATOM     58  H   UNL A   1      41.125  31.149  35.155  1.00  0.00     0.167 HD
ATOM     59  C   UNL A   1      42.668  29.186  33.832  1.00  0.00     0.074 A 
ATOM     60  C   UNL A   1      43.118  28.254  32.820  1.00  0.00     0.031 C 
ATOM     61  C   UNL A   1      43.326  29.429  34.993  1.00  0.00     0.037 A 
BRANCH  48  62
ATOM     62  C   UNL A   1      40.627  33.713  38.527  1.00  0.00     0.064 A 
ATOM     63  C   UNL A   1      39.845  33.375  39.642  1.00  0.00     0.173 A 
ATOM     64  C   UNL A   1      41.460  34.837  38.625  1.00  0.00     0.173 A 
ATOM     65  F   UNL A   1      39.016  32.320  39.591  1.00  0.00    -0.203 F 
ATOM     66  C   UNL A   1      39.876  34.150  40.799  1.00  0.00     0.198 A 
ATOM     67  C   UNL A   1      41.511  35.592  39.793  1.00  0.00     0.198 A 
ATOM     68  F   UNL A   1      42.229  35.201  37.587  1.00  0.00    -0.203 F 
ATOM     69  F   UNL A   1      39.083  33.841  41.833  1.00  0.00    -0.200 F 
ATOM     70  C   UNL A   1      40.713  35.254  40.875  1.00  0.00     0.200 A 
ATOM     71  F   UNL A   1      42.328  36.652  39.868  1.00  0.00    -0.200 F 
ATOM     72  F   UNL A   1      40.743  35.998  41.989  1.00  0.00    -0.200 F 
ENDBRANCH  48  62
BRANCH  49  73
ATOM     73  C   UNL A   1      40.023  28.607  29.983  1.00  0.00     0.064 A 
ATOM     74  C   UNL A   1      39.429  27.337  29.938  1.00  0.00     0.173 A 
ATOM     75  C   UNL A   1      40.604  29.092  28.802  1.00  0.00     0.173 A 
ATOM     76  F   UNL A   1      38.891  26.810  31.048  1.00  0.00    -0.203 F 
ATOM     77  C   UNL A   1      39.441  26.575  28.770  1.00  0.00     0.198 A 
ATOM     78  C   UNL A   1      40.589  28.343  27.627  1.00  0.00     0.198 A 
ATOM     79  F   UNL A   1      41.199  30.295  28.790  1.00  0.00    -0.203 F 
ATOM     80  F   UNL A   1      38.922  25.340  28.773  1.00  0.00    -0.200 F 
ATOM     81  C   UNL A   1      40.016  27.081  27.615  1.00  0.00     0.200 A 
ATOM     82  F   UNL A   1      41.142  28.838  26.511  1.00  0.00    -0.200 F 
ATOM     83  F   UNL A   1      40.035  26.345  26.495  1.00  0.00    -0.200 F 
ENDBRANCH  49  73
BRANCH  61  84
ATOM     84  C   UNL A   1      44.584  28.650  35.261  1.00  0.00     0.064 A 
ATOM     85  C   UNL A   1      45.848  29.138  34.898  1.00  0.00     0.173 A 
ATOM     86  C   UNL A   1      44.526  27.425  35.944  1.00  0.00     0.173 A 
ATOM     87  F   UNL A   1      45.959  30.298  34.234  1.00  0.00    -0.203 F 
ATOM     88  C   UNL A   1      47.005  28.417  35.188  1.00  0.00     0.198 A 
ATOM     89  C   UNL A   1      45.687  26.722  36.260  1.00  0.00     0.198 A 
ATOM     90  F   UNL A   1      43.344  26.916  36.323  1.00  0.00    -0.203 F 
ATOM     91  F   UNL A   1      48.199  28.882  34.793  1.00  0.00    -0.200 F 
ATOM     92  C   UNL A   1      46.923  27.216  35.876  1.00  0.00     0.200 A 
ATOM     93  F   UNL A   1      45.607  25.571  36.941  1.00  0.00    -0.200 F 
ATOM     94  F   UNL A   1      48.039  26.531  36.165  1.00  0.00    -0.200 F 
ENDBRANCH  61  84
ENDBRANCH  35  36
ENDBRANCH  28  30
ENDBRANCH  27  28
ENDBRANCH  26  27
ENDBRANCH  25  26
ENDBRANCH  24  25
ENDBRANCH   1  24
TORSDOF 19
ENDMDL
