MODEL 1
REMARK VINA RESULT:     -11.6      0.000      0.000
REMARK SMILES NC(=O)c1cccc(NC2(CC(=O)OCCOCCOC(=O)c3ccc(-c4c5nc(c(-c6c(F)c(F)c(F)c(F)c6F)c6ccc([nH]6)c(-c6c(F)c(F)c(F)c(F)c6F)c6nc(c(-c7c(F)c(F)c(F)c(F)c7F)c7ccc4[nH]7)C=C6)C=C5)cc3)CCC2)n1
REMARK SMILES IDX 16 1 15 2 14 3 12 4 13 5 11 6 10 7 86 8 88 9 87 10 9 11 8 13
REMARK SMILES IDX 4 14 5 15 89 16 6 17 7 18 2 19 1 20 3 23 17 24 18 25 19 26
REMARK SMILES IDX 20 27 21 28 22 29 23 30 24 31 85 32 25 33 84 34 26 35 27 36
REMARK SMILES IDX 28 37 78 38 29 39 83 40 77 41 79 42 30 43 82 44 76 45 75 46
REMARK SMILES IDX 31 48 63 49 43 50 62 51 44 52 47 53 61 54 80 55 45 56 46 57
REMARK SMILES IDX 60 59 81 60 48 61 32 62 33 63 41 64 34 65 35 66 39 67 42 68
REMARK SMILES IDX 36 69 37 70 40 71 38 72 64 73 65 74 73 75 66 76 67 77 71 78
REMARK SMILES IDX 74 79 68 80 69 81 72 82 70 83 49 84 50 85 58 86 51 87 52 88
REMARK SMILES IDX 56 89 59 90 53 91 54 92 57 93 55 94
REMARK H PARENT 9 12 1 21 1 22 79 47 47 58
REMARK Flexibility Score: inf
ROOT
ATOM      1  C   UNL A   1      34.518  23.040  23.334  1.00  0.00     0.202 C 
ENDROOT
BRANCH   1   2
ATOM      2  C   UNL A   1      33.989  24.459  23.555  1.00  0.00     0.261 C 
BRANCH   2   3
ATOM      3  O   UNL A   1      34.000  25.253  22.353  1.00  0.00    -0.463 OA
BRANCH   3   4
ATOM      4  C   UNL A   1      33.635  26.552  22.497  1.00  0.00     0.308 C 
ATOM      5  O   UNL A   1      33.741  27.410  21.627  1.00  0.00    -0.252 OA
BRANCH   4   6
ATOM      6  C   UNL A   1      33.180  26.887  23.890  1.00  0.00     0.151 C 
BRANCH   6   7
ATOM      7  C   UNL A   1      32.157  28.013  24.112  1.00  0.00     0.049 C 
ATOM      8  C   UNL A   1      32.911  29.331  24.473  1.00  0.00     0.029 C 
ATOM      9  C   UNL A   1      31.467  28.096  25.504  1.00  0.00     0.029 C 
ATOM     10  C   UNL A   1      32.575  29.068  25.952  1.00  0.00     0.005 C 
BRANCH   7  11
ATOM     11  N   UNL A   1      31.264  28.179  22.978  1.00  0.00    -0.364 N 
ATOM     12  H   UNL A   1      31.585  27.816  22.121  1.00  0.00     0.162 HD
BRANCH  11  13
ATOM     13  C   UNL A   1      29.990  28.797  22.946  1.00  0.00     0.127 A 
ATOM     14  C   UNL A   1      28.653  30.695  22.808  1.00  0.00     0.130 A 
ATOM     15  C   UNL A   1      27.481  29.973  22.973  1.00  0.00     0.034 A 
ATOM     16  N   UNL A   1      29.883  30.129  22.818  1.00  0.00    -0.226 NA
ATOM     17  C   UNL A   1      27.590  28.597  23.128  1.00  0.00     0.006 A 
ATOM     18  C   UNL A   1      28.854  28.005  23.104  1.00  0.00     0.047 A 
BRANCH  14  19
ATOM     19  C   UNL A   1      28.623  32.171  22.561  1.00  0.00     0.267 C 
ATOM     20  N   UNL A   1      29.528  32.947  23.243  1.00  0.00    -0.364 N 
ATOM     21  H   UNL A   1      29.541  33.921  23.108  1.00  0.00     0.160 HD
ATOM     22  H   UNL A   1      30.164  32.527  23.866  1.00  0.00     0.160 HD
ATOM     23  O   UNL A   1      27.835  32.694  21.781  1.00  0.00    -0.268 OA
ENDBRANCH  14  19
ENDBRANCH  11  13
ENDBRANCH   7  11
ENDBRANCH   6   7
ENDBRANCH   4   6
ENDBRANCH   3   4
ENDBRANCH   2   3
ENDBRANCH   1   2
BRANCH   1  24
ATOM     24  O   UNL A   1      35.812  22.953  22.741  1.00  0.00    -0.374 OA
BRANCH  24  25
ATOM     25  C   UNL A   1      36.920  22.896  23.640  1.00  0.00     0.202 C 
BRANCH  25  26
ATOM     26  C   UNL A   1      37.044  21.587  24.420  1.00  0.00     0.261 C 
BRANCH  26  27
ATOM     27  O   UNL A   1      37.415  21.844  25.787  1.00  0.00    -0.460 OA
BRANCH  27  28
ATOM     28  C   UNL A   1      38.713  21.614  26.075  1.00  0.00     0.338 C 
ATOM     29  O   UNL A   1      39.387  20.644  25.748  1.00  0.00    -0.246 OA
BRANCH  28  30
ATOM     30  C   UNL A   1      39.302  22.792  26.731  1.00  0.00     0.060 A 
ATOM     31  C   UNL A   1      38.733  24.038  26.440  1.00  0.00     0.016 A 
ATOM     32  C   UNL A   1      40.434  22.697  27.545  1.00  0.00     0.016 A 
ATOM     33  C   UNL A   1      39.339  25.203  26.896  1.00  0.00     0.010 A 
ATOM     34  C   UNL A   1      41.046  23.869  27.999  1.00  0.00     0.010 A 
ATOM     35  C   UNL A   1      40.525  25.126  27.638  1.00  0.00    -0.014 A 
BRANCH  35  36
ATOM     36  C   UNL A   1      41.304  26.360  27.891  1.00  0.00     0.031 A 
ATOM     37  C   UNL A   1      40.649  27.488  28.639  1.00  0.00     0.074 A 
ATOM     38  C   UNL A   1      42.581  26.460  27.488  1.00  0.00     0.049 A 
ATOM     39  N   UNL A   1      41.119  28.671  28.939  1.00  0.00    -0.248 NA
ATOM     40  C   UNL A   1      39.275  27.248  29.110  1.00  0.00     0.031 C 
ATOM     41  C   UNL A   1      43.329  25.415  26.792  1.00  0.00     0.029 A 
ATOM     42  N   UNL A   1      43.472  27.497  27.600  1.00  0.00    -0.354 N 
ATOM     43  C   UNL A   1      40.098  29.319  29.623  1.00  0.00     0.074 A 
ATOM     44  C   UNL A   1      38.975  28.409  29.673  1.00  0.00     0.031 C 
ATOM     45  C   UNL A   1      44.565  25.869  26.525  1.00  0.00     0.029 A 
ATOM     46  C   UNL A   1      44.682  27.246  27.003  1.00  0.00     0.049 A 
ATOM     47  H   UNL A   1      43.264  28.340  28.064  1.00  0.00     0.167 HD
ATOM     48  C   UNL A   1      40.102  30.560  30.166  1.00  0.00     0.037 A 
ATOM     49  C   UNL A   1      45.752  28.048  26.842  1.00  0.00     0.037 A 
ATOM     50  C   UNL A   1      41.227  31.457  30.115  1.00  0.00     0.049 A 
ATOM     51  C   UNL A   1      45.713  29.444  27.405  1.00  0.00     0.074 A 
ATOM     52  C   UNL A   1      41.343  32.729  30.647  1.00  0.00     0.029 A 
ATOM     53  N   UNL A   1      42.431  31.174  29.487  1.00  0.00    -0.354 N 
ATOM     54  N   UNL A   1      44.754  30.044  28.069  1.00  0.00    -0.248 NA
ATOM     55  C   UNL A   1      46.908  30.275  27.202  1.00  0.00     0.031 C 
ATOM     56  C   UNL A   1      42.599  33.234  30.300  1.00  0.00     0.029 A 
ATOM     57  C   UNL A   1      43.288  32.257  29.598  1.00  0.00     0.049 A 
ATOM     58  H   UNL A   1      42.644  30.329  29.028  1.00  0.00     0.167 HD
ATOM     59  C   UNL A   1      45.237  31.306  28.388  1.00  0.00     0.074 A 
ATOM     60  C   UNL A   1      46.580  31.385  27.850  1.00  0.00     0.031 C 
ATOM     61  C   UNL A   1      44.626  32.308  29.066  1.00  0.00     0.037 A 
BRANCH  48  62
ATOM     62  C   UNL A   1      38.844  31.029  30.834  1.00  0.00     0.064 A 
ATOM     63  C   UNL A   1      38.663  30.932  32.222  1.00  0.00     0.173 A 
ATOM     64  C   UNL A   1      37.811  31.605  30.078  1.00  0.00     0.173 A 
ATOM     65  F   UNL A   1      39.612  30.374  32.989  1.00  0.00    -0.203 F 
ATOM     66  C   UNL A   1      37.486  31.369  32.824  1.00  0.00     0.198 A 
ATOM     67  C   UNL A   1      36.648  32.068  30.686  1.00  0.00     0.198 A 
ATOM     68  F   UNL A   1      37.934  31.724  28.747  1.00  0.00    -0.203 F 
ATOM     69  F   UNL A   1      37.316  31.222  34.145  1.00  0.00    -0.200 F 
ATOM     70  C   UNL A   1      36.483  31.943  32.058  1.00  0.00     0.200 A 
ATOM     71  F   UNL A   1      35.684  32.631  29.945  1.00  0.00    -0.200 F 
ATOM     72  F   UNL A   1      35.352  32.367  32.639  1.00  0.00    -0.200 F 
ENDBRANCH  48  62
BRANCH  49  73
ATOM     73  C   UNL A   1      46.944  27.550  26.111  1.00  0.00     0.064 A 
ATOM     74  C   UNL A   1      48.019  26.962  26.791  1.00  0.00     0.173 A 
ATOM     75  C   UNL A   1      47.031  27.648  24.714  1.00  0.00     0.173 A 
ATOM     76  F   UNL A   1      47.993  26.868  28.129  1.00  0.00    -0.203 F 
ATOM     77  C   UNL A   1      49.140  26.502  26.103  1.00  0.00     0.198 A 
ATOM     78  C   UNL A   1      48.140  27.164  24.025  1.00  0.00     0.198 A 
ATOM     79  F   UNL A   1      46.029  28.203  24.016  1.00  0.00    -0.203 F 
ATOM     80  F   UNL A   1      50.171  25.979  26.782  1.00  0.00    -0.200 F 
ATOM     81  C   UNL A   1      49.197  26.596  24.721  1.00  0.00     0.200 A 
ATOM     82  F   UNL A   1      48.186  27.245  22.688  1.00  0.00    -0.200 F 
ATOM     83  F   UNL A   1      50.273  26.146  24.060  1.00  0.00    -0.200 F 
ENDBRANCH  49  73
BRANCH  61  84
ATOM     84  C   UNL A   1      45.417  33.560  29.306  1.00  0.00     0.064 A 
ATOM     85  C   UNL A   1      45.408  34.625  28.394  1.00  0.00     0.173 A 
ATOM     86  C   UNL A   1      46.150  33.715  30.493  1.00  0.00     0.173 A 
ATOM     87  F   UNL A   1      44.732  34.519  27.240  1.00  0.00    -0.203 F 
ATOM     88  C   UNL A   1      46.121  35.792  28.651  1.00  0.00     0.198 A 
ATOM     89  C   UNL A   1      46.839  34.895  30.760  1.00  0.00     0.198 A 
ATOM     90  F   UNL A   1      46.184  32.729  31.401  1.00  0.00    -0.203 F 
ATOM     91  F   UNL A   1      46.132  36.782  27.749  1.00  0.00    -0.200 F 
ATOM     92  C   UNL A   1      46.829  35.930  29.837  1.00  0.00     0.200 A 
ATOM     93  F   UNL A   1      47.512  35.031  31.911  1.00  0.00    -0.200 F 
ATOM     94  F   UNL A   1      47.507  37.059  30.087  1.00  0.00    -0.200 F 
ENDBRANCH  61  84
ENDBRANCH  35  36
ENDBRANCH  28  30
ENDBRANCH  27  28
ENDBRANCH  26  27
ENDBRANCH  25  26
ENDBRANCH  24  25
ENDBRANCH   1  24
TORSDOF 18
ENDMDL
MODEL 2
REMARK VINA RESULT:     -11.4      2.707      7.525
REMARK SMILES NC(=O)c1cccc(NC2(CC(=O)OCCOCCOC(=O)c3ccc(-c4c5nc(c(-c6c(F)c(F)c(F)c(F)c6F)c6ccc([nH]6)c(-c6c(F)c(F)c(F)c(F)c6F)c6nc(c(-c7c(F)c(F)c(F)c(F)c7F)c7ccc4[nH]7)C=C6)C=C5)cc3)CCC2)n1
REMARK SMILES IDX 16 1 15 2 14 3 12 4 13 5 11 6 10 7 86 8 88 9 87 10 9 11 8 13
REMARK SMILES IDX 4 14 5 15 89 16 6 17 7 18 2 19 1 20 3 23 17 24 18 25 19 26
REMARK SMILES IDX 20 27 21 28 22 29 23 30 24 31 85 32 25 33 84 34 26 35 27 36
REMARK SMILES IDX 28 37 78 38 29 39 83 40 77 41 79 42 30 43 82 44 76 45 75 46
REMARK SMILES IDX 31 48 63 49 43 50 62 51 44 52 47 53 61 54 80 55 45 56 46 57
REMARK SMILES IDX 60 59 81 60 48 61 32 62 33 63 41 64 34 65 35 66 39 67 42 68
REMARK SMILES IDX 36 69 37 70 40 71 38 72 64 73 65 74 73 75 66 76 67 77 71 78
REMARK SMILES IDX 74 79 68 80 69 81 72 82 70 83 49 84 50 85 58 86 51 87 52 88
REMARK SMILES IDX 56 89 59 90 53 91 54 92 57 93 55 94
REMARK H PARENT 9 12 1 21 1 22 79 47 47 58
REMARK Flexibility Score: inf
ROOT
ATOM      1  C   UNL A   1      33.669  23.453  22.435  1.00  0.00     0.202 C 
ENDROOT
BRANCH   1   2
ATOM      2  C   UNL A   1      32.872  24.744  22.228  1.00  0.00     0.261 C 
BRANCH   2   3
ATOM      3  O   UNL A   1      33.637  25.773  21.572  1.00  0.00    -0.463 OA
BRANCH   3   4
ATOM      4  C   UNL A   1      33.600  27.000  22.152  1.00  0.00     0.308 C 
ATOM      5  O   UNL A   1      34.103  28.013  21.679  1.00  0.00    -0.252 OA
BRANCH   4   6
ATOM      6  C   UNL A   1      32.967  26.990  23.516  1.00  0.00     0.151 C 
BRANCH   6   7
ATOM      7  C   UNL A   1      31.939  28.069  23.891  1.00  0.00     0.049 C 
ATOM      8  C   UNL A   1      32.678  29.291  24.519  1.00  0.00     0.029 C 
ATOM      9  C   UNL A   1      31.183  27.906  25.242  1.00  0.00     0.029 C 
ATOM     10  C   UNL A   1      32.273  28.767  25.909  1.00  0.00     0.005 C 
BRANCH   7  11
ATOM     11  N   UNL A   1      31.100  28.448  22.766  1.00  0.00    -0.364 N 
ATOM     12  H   UNL A   1      31.435  28.192  21.876  1.00  0.00     0.162 HD
BRANCH  11  13
ATOM     13  C   UNL A   1      29.865  29.139  22.785  1.00  0.00     0.127 A 
ATOM     14  C   UNL A   1      28.637  31.113  22.729  1.00  0.00     0.130 A 
ATOM     15  C   UNL A   1      27.430  30.456  22.911  1.00  0.00     0.034 A 
ATOM     16  N   UNL A   1      29.833  30.477  22.690  1.00  0.00    -0.226 NA
ATOM     17  C   UNL A   1      27.463  29.073  23.032  1.00  0.00     0.006 A 
ATOM     18  C   UNL A   1      28.689  28.410  22.958  1.00  0.00     0.047 A 
BRANCH  14  19
ATOM     19  C   UNL A   1      28.686  32.594  22.516  1.00  0.00     0.267 C 
ATOM     20  N   UNL A   1      29.535  33.322  23.313  1.00  0.00    -0.364 N 
ATOM     21  H   UNL A   1      29.597  34.298  23.205  1.00  0.00     0.160 HD
ATOM     22  H   UNL A   1      30.082  32.867  23.994  1.00  0.00     0.160 HD
ATOM     23  O   UNL A   1      28.011  33.162  21.665  1.00  0.00    -0.268 OA
ENDBRANCH  14  19
ENDBRANCH  11  13
ENDBRANCH   7  11
ENDBRANCH   6   7
ENDBRANCH   4   6
ENDBRANCH   3   4
ENDBRANCH   2   3
ENDBRANCH   1   2
BRANCH   1  24
ATOM     24  O   UNL A   1      35.051  23.627  22.736  1.00  0.00    -0.374 OA
BRANCH  24  25
ATOM     25  C   UNL A   1      35.398  23.678  24.121  1.00  0.00     0.202 C 
BRANCH  25  26
ATOM     26  C   UNL A   1      36.809  23.186  24.445  1.00  0.00     0.261 C 
BRANCH  26  27
ATOM     27  O   UNL A   1      37.434  24.043  25.417  1.00  0.00    -0.460 OA
BRANCH  27  28
ATOM     28  C   UNL A   1      38.466  23.487  26.084  1.00  0.00     0.338 C 
ATOM     29  O   UNL A   1      38.835  22.319  26.042  1.00  0.00    -0.246 OA
BRANCH  28  30
ATOM     30  C   UNL A   1      39.235  24.527  26.786  1.00  0.00     0.060 A 
ATOM     31  C   UNL A   1      39.036  24.645  28.167  1.00  0.00     0.016 A 
ATOM     32  C   UNL A   1      40.065  25.422  26.105  1.00  0.00     0.016 A 
ATOM     33  C   UNL A   1      39.605  25.707  28.863  1.00  0.00     0.010 A 
ATOM     34  C   UNL A   1      40.631  26.491  26.804  1.00  0.00     0.010 A 
ATOM     35  C   UNL A   1      40.366  26.661  28.175  1.00  0.00    -0.014 A 
BRANCH  35  36
ATOM     36  C   UNL A   1      40.743  27.920  28.860  1.00  0.00     0.031 A 
ATOM     37  C   UNL A   1      42.154  28.081  29.350  1.00  0.00     0.074 A 
ATOM     38  C   UNL A   1      39.849  28.910  29.016  1.00  0.00     0.049 A 
ATOM     39  N   UNL A   1      42.699  29.072  30.009  1.00  0.00    -0.248 NA
ATOM     40  C   UNL A   1      43.079  26.973  29.058  1.00  0.00     0.031 C 
ATOM     41  C   UNL A   1      38.466  28.877  28.544  1.00  0.00     0.029 A 
ATOM     42  N   UNL A   1      39.972  30.134  29.623  1.00  0.00    -0.354 N 
ATOM     43  C   UNL A   1      44.021  28.703  30.219  1.00  0.00     0.074 A 
ATOM     44  C   UNL A   1      44.193  27.389  29.640  1.00  0.00     0.031 C 
ATOM     45  C   UNL A   1      37.861  30.026  28.893  1.00  0.00     0.029 A 
ATOM     46  C   UNL A   1      38.806  30.857  29.637  1.00  0.00     0.049 A 
ATOM     47  H   UNL A   1      40.816  30.462  30.009  1.00  0.00     0.167 HD
ATOM     48  C   UNL A   1      45.004  29.403  30.834  1.00  0.00     0.037 A 
ATOM     49  C   UNL A   1      38.531  32.045  30.210  1.00  0.00     0.037 A 
ATOM     50  C   UNL A   1      44.824  30.713  31.402  1.00  0.00     0.049 A 
ATOM     51  C   UNL A   1      39.625  32.780  30.937  1.00  0.00     0.074 A 
ATOM     52  C   UNL A   1      45.757  31.517  32.033  1.00  0.00     0.029 A 
ATOM     53  N   UNL A   1      43.624  31.408  31.414  1.00  0.00    -0.354 N 
ATOM     54  N   UNL A   1      40.878  32.436  31.114  1.00  0.00    -0.248 NA
ATOM     55  C   UNL A   1      39.269  34.072  31.541  1.00  0.00     0.031 C 
ATOM     56  C   UNL A   1      45.110  32.678  32.467  1.00  0.00     0.029 A 
ATOM     57  C   UNL A   1      43.786  32.622  32.061  1.00  0.00     0.049 A 
ATOM     58  H   UNL A   1      42.780  31.085  31.021  1.00  0.00     0.167 HD
ATOM     59  C   UNL A   1      41.467  33.477  31.820  1.00  0.00     0.074 A 
ATOM     60  C   UNL A   1      40.434  34.470  32.034  1.00  0.00     0.031 C 
ATOM     61  C   UNL A   1      42.746  33.602  32.251  1.00  0.00     0.037 A 
BRANCH  48  62
ATOM     62  C   UNL A   1      46.351  28.754  30.948  1.00  0.00     0.064 A 
ATOM     63  C   UNL A   1      46.687  27.931  32.033  1.00  0.00     0.173 A 
ATOM     64  C   UNL A   1      47.315  28.939  29.943  1.00  0.00     0.173 A 
ATOM     65  F   UNL A   1      45.808  27.735  33.028  1.00  0.00    -0.203 F 
ATOM     66  C   UNL A   1      47.945  27.340  32.123  1.00  0.00     0.198 A 
ATOM     67  C   UNL A   1      48.561  28.322  30.022  1.00  0.00     0.198 A 
ATOM     68  F   UNL A   1      47.045  29.713  28.882  1.00  0.00    -0.203 F 
ATOM     69  F   UNL A   1      48.259  26.597  33.194  1.00  0.00    -0.200 F 
ATOM     70  C   UNL A   1      48.877  27.530  31.116  1.00  0.00     0.200 A 
ATOM     71  F   UNL A   1      49.457  28.499  29.042  1.00  0.00    -0.200 F 
ATOM     72  F   UNL A   1      50.086  26.957  31.201  1.00  0.00    -0.200 F 
ENDBRANCH  48  62
BRANCH  49  73
ATOM     73  C   UNL A   1      37.159  32.605  30.121  1.00  0.00     0.064 A 
ATOM     74  C   UNL A   1      36.214  32.371  31.129  1.00  0.00     0.173 A 
ATOM     75  C   UNL A   1      36.764  33.390  29.027  1.00  0.00     0.173 A 
ATOM     76  F   UNL A   1      36.535  31.606  32.183  1.00  0.00    -0.203 F 
ATOM     77  C   UNL A   1      34.923  32.890  31.040  1.00  0.00     0.198 A 
ATOM     78  C   UNL A   1      35.483  33.931  28.953  1.00  0.00     0.198 A 
ATOM     79  F   UNL A   1      37.631  33.643  28.035  1.00  0.00    -0.203 F 
ATOM     80  F   UNL A   1      34.027  32.619  32.000  1.00  0.00    -0.200 F 
ATOM     81  C   UNL A   1      34.562  33.676  29.956  1.00  0.00     0.200 A 
ATOM     82  F   UNL A   1      35.142  34.700  27.909  1.00  0.00    -0.200 F 
ATOM     83  F   UNL A   1      33.323  34.182  29.876  1.00  0.00    -0.200 F 
ENDBRANCH  49  73
BRANCH  61  84
ATOM     84  C   UNL A   1      43.116  34.873  32.956  1.00  0.00     0.064 A 
ATOM     85  C   UNL A   1      43.502  36.022  32.251  1.00  0.00     0.173 A 
ATOM     86  C   UNL A   1      43.029  34.956  34.354  1.00  0.00     0.173 A 
ATOM     87  F   UNL A   1      43.612  35.988  30.914  1.00  0.00    -0.203 F 
ATOM     88  C   UNL A   1      43.808  37.202  32.921  1.00  0.00     0.198 A 
ATOM     89  C   UNL A   1      43.308  36.147  35.020  1.00  0.00     0.198 A 
ATOM     90  F   UNL A   1      42.656  33.888  35.074  1.00  0.00    -0.203 F 
ATOM     91  F   UNL A   1      44.214  38.277  32.232  1.00  0.00    -0.200 F 
ATOM     92  C   UNL A   1      43.703  37.266  34.303  1.00  0.00     0.200 A 
ATOM     93  F   UNL A   1      43.193  36.210  36.353  1.00  0.00    -0.200 F 
ATOM     94  F   UNL A   1      43.989  38.407  34.947  1.00  0.00    -0.200 F 
ENDBRANCH  61  84
ENDBRANCH  35  36
ENDBRANCH  28  30
ENDBRANCH  27  28
ENDBRANCH  26  27
ENDBRANCH  25  26
ENDBRANCH  24  25
ENDBRANCH   1  24
TORSDOF 18
ENDMDL
MODEL 3
REMARK VINA RESULT:     -11.4      1.421      2.125
REMARK SMILES NC(=O)c1cccc(NC2(CC(=O)OCCOCCOC(=O)c3ccc(-c4c5nc(c(-c6c(F)c(F)c(F)c(F)c6F)c6ccc([nH]6)c(-c6c(F)c(F)c(F)c(F)c6F)c6nc(c(-c7c(F)c(F)c(F)c(F)c7F)c7ccc4[nH]7)C=C6)C=C5)cc3)CCC2)n1
REMARK SMILES IDX 16 1 15 2 14 3 12 4 13 5 11 6 10 7 86 8 88 9 87 10 9 11 8 13
REMARK SMILES IDX 4 14 5 15 89 16 6 17 7 18 2 19 1 20 3 23 17 24 18 25 19 26
REMARK SMILES IDX 20 27 21 28 22 29 23 30 24 31 85 32 25 33 84 34 26 35 27 36
REMARK SMILES IDX 28 37 78 38 29 39 83 40 77 41 79 42 30 43 82 44 76 45 75 46
REMARK SMILES IDX 31 48 63 49 43 50 62 51 44 52 47 53 61 54 80 55 45 56 46 57
REMARK SMILES IDX 60 59 81 60 48 61 32 62 33 63 41 64 34 65 35 66 39 67 42 68
REMARK SMILES IDX 36 69 37 70 40 71 38 72 64 73 65 74 73 75 66 76 67 77 71 78
REMARK SMILES IDX 74 79 68 80 69 81 72 82 70 83 49 84 50 85 58 86 51 87 52 88
REMARK SMILES IDX 56 89 59 90 53 91 54 92 57 93 55 94
REMARK H PARENT 9 12 1 21 1 22 79 47 47 58
REMARK Flexibility Score: inf
ROOT
ATOM      1  C   UNL A   1      33.940  20.423  25.784  1.00  0.00     0.202 C 
ENDROOT
BRANCH   1   2
ATOM      2  C   UNL A   1      33.914  21.659  26.686  1.00  0.00     0.261 C 
BRANCH   2   3
ATOM      3  O   UNL A   1      32.591  21.979  27.157  1.00  0.00    -0.463 OA
BRANCH   3   4
ATOM      4  C   UNL A   1      32.218  23.279  27.040  1.00  0.00     0.308 C 
ATOM      5  O   UNL A   1      31.102  23.714  27.305  1.00  0.00    -0.252 OA
BRANCH   4   6
ATOM      6  C   UNL A   1      33.286  24.147  26.436  1.00  0.00     0.151 C 
BRANCH   6   7
ATOM      7  C   UNL A   1      32.915  25.181  25.361  1.00  0.00     0.049 C 
ATOM      8  C   UNL A   1      32.635  24.447  24.013  1.00  0.00     0.029 C 
ATOM      9  C   UNL A   1      34.078  25.927  24.645  1.00  0.00     0.029 C 
ATOM     10  C   UNL A   1      34.051  24.840  23.553  1.00  0.00     0.005 C 
BRANCH   7  11
ATOM     11  N   UNL A   1      31.808  26.030  25.769  1.00  0.00    -0.364 N 
ATOM     12  H   UNL A   1      31.145  25.613  26.366  1.00  0.00     0.162 HD
BRANCH  11  13
ATOM     13  C   UNL A   1      31.560  27.379  25.418  1.00  0.00     0.127 A 
ATOM     14  C   UNL A   1      30.858  28.988  23.892  1.00  0.00     0.130 A 
ATOM     15  C   UNL A   1      31.167  30.038  24.744  1.00  0.00     0.034 A 
ATOM     16  N   UNL A   1      31.070  27.688  24.207  1.00  0.00    -0.226 NA
ATOM     17  C   UNL A   1      31.695  29.722  25.988  1.00  0.00     0.006 A 
ATOM     18  C   UNL A   1      31.882  28.382  26.331  1.00  0.00     0.047 A 
BRANCH  14  19
ATOM     19  C   UNL A   1      30.218  29.234  22.562  1.00  0.00     0.267 C 
ATOM     20  N   UNL A   1      30.840  30.115  21.711  1.00  0.00    -0.364 N 
ATOM     21  H   UNL A   1      30.452  30.304  20.827  1.00  0.00     0.160 HD
ATOM     22  H   UNL A   1      31.676  30.556  21.986  1.00  0.00     0.160 HD
ATOM     23  O   UNL A   1      29.180  28.681  22.216  1.00  0.00    -0.268 OA
ENDBRANCH  14  19
ENDBRANCH  11  13
ENDBRANCH   7  11
ENDBRANCH   6   7
ENDBRANCH   4   6
ENDBRANCH   3   4
ENDBRANCH   2   3
ENDBRANCH   1   2
BRANCH   1  24
ATOM     24  O   UNL A   1      34.741  20.537  24.610  1.00  0.00    -0.374 OA
BRANCH  24  25
ATOM     25  C   UNL A   1      35.657  21.633  24.570  1.00  0.00     0.202 C 
BRANCH  25  26
ATOM     26  C   UNL A   1      37.131  21.239  24.672  1.00  0.00     0.261 C 
BRANCH  26  27
ATOM     27  O   UNL A   1      37.638  21.515  25.990  1.00  0.00    -0.460 OA
BRANCH  27  28
ATOM     28  C   UNL A   1      38.977  21.407  26.116  1.00  0.00     0.338 C 
ATOM     29  O   UNL A   1      39.699  20.527  25.661  1.00  0.00    -0.246 OA
BRANCH  28  30
ATOM     30  C   UNL A   1      39.523  22.610  26.764  1.00  0.00     0.060 A 
ATOM     31  C   UNL A   1      38.921  23.835  26.448  1.00  0.00     0.016 A 
ATOM     32  C   UNL A   1      40.646  22.560  27.594  1.00  0.00     0.016 A 
ATOM     33  C   UNL A   1      39.487  25.024  26.897  1.00  0.00     0.010 A 
ATOM     34  C   UNL A   1      41.216  23.756  28.040  1.00  0.00     0.010 A 
ATOM     35  C   UNL A   1      40.664  24.991  27.655  1.00  0.00    -0.014 A 
BRANCH  35  36
ATOM     36  C   UNL A   1      41.403  26.251  27.903  1.00  0.00     0.031 A 
ATOM     37  C   UNL A   1      40.711  27.362  28.642  1.00  0.00     0.074 A 
ATOM     38  C   UNL A   1      42.677  26.389  27.501  1.00  0.00     0.049 A 
ATOM     39  N   UNL A   1      41.142  28.562  28.936  1.00  0.00    -0.248 NA
ATOM     40  C   UNL A   1      39.345  27.081  29.113  1.00  0.00     0.031 C 
ATOM     41  C   UNL A   1      43.459  25.364  26.813  1.00  0.00     0.029 A 
ATOM     42  N   UNL A   1      43.534  27.455  27.608  1.00  0.00    -0.354 N 
ATOM     43  C   UNL A   1      40.100  29.181  29.614  1.00  0.00     0.074 A 
ATOM     44  C   UNL A   1      39.006  28.236  29.667  1.00  0.00     0.031 C 
ATOM     45  C   UNL A   1      44.680  25.856  26.545  1.00  0.00     0.029 A 
ATOM     46  C   UNL A   1      44.753  27.238  27.015  1.00  0.00     0.049 A 
ATOM     47  H   UNL A   1      43.298  28.293  28.066  1.00  0.00     0.167 HD
ATOM     48  C   UNL A   1      40.064  30.424  30.150  1.00  0.00     0.037 A 
ATOM     49  C   UNL A   1      45.797  28.074  26.851  1.00  0.00     0.037 A 
ATOM     50  C   UNL A   1      41.160  31.356  30.095  1.00  0.00     0.049 A 
ATOM     51  C   UNL A   1      45.713  29.471  27.405  1.00  0.00     0.074 A 
ATOM     52  C   UNL A   1      41.234  32.634  30.620  1.00  0.00     0.029 A 
ATOM     53  N   UNL A   1      42.373  31.108  29.471  1.00  0.00    -0.354 N 
ATOM     54  N   UNL A   1      44.733  30.044  28.064  1.00  0.00    -0.248 NA
ATOM     55  C   UNL A   1      46.881  30.338  27.199  1.00  0.00     0.031 C 
ATOM     56  C   UNL A   1      42.475  33.177  30.272  1.00  0.00     0.029 A 
ATOM     57  C   UNL A   1      43.195  32.218  29.576  1.00  0.00     0.049 A 
ATOM     58  H   UNL A   1      42.614  30.267  29.018  1.00  0.00     0.167 HD
ATOM     59  C   UNL A   1      45.176  31.323  28.375  1.00  0.00     0.074 A 
ATOM     60  C   UNL A   1      46.516  31.441  27.840  1.00  0.00     0.031 C 
ATOM     61  C   UNL A   1      44.532  32.309  29.047  1.00  0.00     0.037 A 
BRANCH  48  62
ATOM     62  C   UNL A   1      38.790  30.857  30.813  1.00  0.00     0.064 A 
ATOM     63  C   UNL A   1      38.613  30.772  32.202  1.00  0.00     0.173 A 
ATOM     64  C   UNL A   1      37.737  31.386  30.050  1.00  0.00     0.173 A 
ATOM     65  F   UNL A   1      39.582  30.259  32.975  1.00  0.00    -0.203 F 
ATOM     66  C   UNL A   1      37.422  31.175  32.799  1.00  0.00     0.198 A 
ATOM     67  C   UNL A   1      36.558  31.815  30.653  1.00  0.00     0.198 A 
ATOM     68  F   UNL A   1      37.854  31.492  28.718  1.00  0.00    -0.203 F 
ATOM     69  F   UNL A   1      37.258  31.040  34.123  1.00  0.00    -0.200 F 
ATOM     70  C   UNL A   1      36.399  31.702  32.027  1.00  0.00     0.200 A 
ATOM     71  F   UNL A   1      35.574  32.333  29.906  1.00  0.00    -0.200 F 
ATOM     72  F   UNL A   1      35.254  32.093  32.603  1.00  0.00    -0.200 F 
ENDBRANCH  48  62
BRANCH  49  73
ATOM     73  C   UNL A   1      47.005  27.609  26.124  1.00  0.00     0.064 A 
ATOM     74  C   UNL A   1      48.110  27.091  26.812  1.00  0.00     0.173 A 
ATOM     75  C   UNL A   1      47.079  27.670  24.725  1.00  0.00     0.173 A 
ATOM     76  F   UNL A   1      48.098  27.033  28.152  1.00  0.00    -0.203 F 
ATOM     77  C   UNL A   1      49.247  26.662  26.129  1.00  0.00     0.198 A 
ATOM     78  C   UNL A   1      48.204  27.217  24.041  1.00  0.00     0.198 A 
ATOM     79  F   UNL A   1      46.048  28.159  24.019  1.00  0.00    -0.203 F 
ATOM     80  F   UNL A   1      50.305  26.206  26.814  1.00  0.00    -0.200 F 
ATOM     81  C   UNL A   1      49.291  26.719  24.744  1.00  0.00     0.200 A 
ATOM     82  F   UNL A   1      48.237  27.262  22.702  1.00  0.00    -0.200 F 
ATOM     83  F   UNL A   1      50.381  26.299  24.088  1.00  0.00    -0.200 F 
ENDBRANCH  49  73
BRANCH  61  84
ATOM     84  C   UNL A   1      45.282  33.587  29.281  1.00  0.00     0.064 A 
ATOM     85  C   UNL A   1      45.205  34.662  28.385  1.00  0.00     0.173 A 
ATOM     86  C   UNL A   1      46.046  33.754  30.446  1.00  0.00     0.173 A 
ATOM     87  F   UNL A   1      44.498  34.546  27.250  1.00  0.00    -0.203 F 
ATOM     88  C   UNL A   1      45.881  35.852  28.637  1.00  0.00     0.198 A 
ATOM     89  C   UNL A   1      46.698  34.956  30.709  1.00  0.00     0.198 A 
ATOM     90  F   UNL A   1      46.145  32.758  31.339  1.00  0.00    -0.203 F 
ATOM     91  F   UNL A   1      45.826  36.854  27.749  1.00  0.00    -0.200 F 
ATOM     92  C   UNL A   1      46.620  36.001  29.802  1.00  0.00     0.200 A 
ATOM     93  F   UNL A   1      47.400  35.102  31.842  1.00  0.00    -0.200 F 
ATOM     94  F   UNL A   1      47.262  37.152  30.048  1.00  0.00    -0.200 F 
ENDBRANCH  61  84
ENDBRANCH  35  36
ENDBRANCH  28  30
ENDBRANCH  27  28
ENDBRANCH  26  27
ENDBRANCH  25  26
ENDBRANCH  24  25
ENDBRANCH   1  24
TORSDOF 18
ENDMDL
