MODEL 1
REMARK VINA RESULT:     -13.3      0.000      0.000
REMARK SMILES CC(=O)Nc1ccc(/C=C2/CCc3oc(C(=O)OCCOCCOC(=O)c4ccc(-c5c6nc(c(-c7c(F)c(F)c(F)c(F)c7F)c7ccc([nH]7)c(-c7c(F)c(F)c(F)c(F)c7F)c7nc(c(-c8c(F)c(F)c(F)c(F)c8F)c8ccc5[nH]8)C=C7)C=C6)cc4)c(C)c3C2=O)cc1
REMARK SMILES IDX 21 1 20 2 19 3 18 4 16 5 17 6 15 7 9 8 10 9 11 10 93 11
REMARK SMILES IDX 12 12 92 13 94 14 13 15 90 16 14 17 91 18 8 19 5 20 6 21
REMARK SMILES IDX 96 22 7 23 95 24 4 25 1 26 2 27 3 28 22 30 23 31 24 32 25 33
REMARK SMILES IDX 26 34 27 35 28 36 89 37 29 38 88 39 30 40 31 41 32 42 82 43
REMARK SMILES IDX 33 44 87 45 81 46 83 47 34 48 86 49 80 50 79 51 35 53 67 54
REMARK SMILES IDX 47 55 66 56 48 57 51 58 65 59 84 60 49 61 50 62 64 64 85 65
REMARK SMILES IDX 52 66 36 67 37 68 45 69 38 70 39 71 43 72 46 73 40 74 41 75
REMARK SMILES IDX 44 76 42 77 68 78 69 79 77 80 70 81 71 82 75 83 78 84 72 85
REMARK SMILES IDX 73 86 76 87 74 88 53 89 54 90 62 91 55 92 56 93 60 94 63 95
REMARK SMILES IDX 57 96 58 97 61 98 59 99
REMARK H PARENT 4 29 83 52 51 63
REMARK Flexibility Score: inf
ROOT
ATOM      1  O   UNL A   1      34.453  32.289  28.021  1.00  0.00    -0.374 OA
ENDROOT
BRANCH   1   2
ATOM      2  C   UNL A   1      33.256  31.681  27.534  1.00  0.00     0.202 C 
BRANCH   2   3
ATOM      3  C   UNL A   1      33.243  30.160  27.372  1.00  0.00     0.261 C 
BRANCH   3   4
ATOM      4  O   UNL A   1      32.018  29.686  26.787  1.00  0.00    -0.457 OA
BRANCH   4   5
ATOM      5  C   UNL A   1      31.783  28.356  26.952  1.00  0.00     0.374 C 
ATOM      6  O   UNL A   1      31.490  27.823  28.027  1.00  0.00    -0.242 OA
BRANCH   5   7
ATOM      7  C   UNL A   1      31.754  27.678  25.681  1.00  0.00     0.215 A 
ATOM      8  C   UNL A   1      33.180  23.741  22.115  1.00  0.00     0.016 C 
ATOM      9  C   UNL A   1      32.450  24.870  22.209  1.00  0.00     0.001 C 
ATOM     10  C   UNL A   1      32.813  26.149  21.458  1.00  0.00     0.048 C 
ATOM     11  C   UNL A   1      31.299  25.068  23.146  1.00  0.00     0.192 C 
ATOM     12  C   UNL A   1      33.231  27.289  22.422  1.00  0.00     0.081 C 
ATOM     13  C   UNL A   1      31.539  26.200  24.011  1.00  0.00     0.067 A 
ATOM     14  O   UNL A   1      30.280  24.388  23.152  1.00  0.00    -0.289 OA
ATOM     15  C   UNL A   1      32.414  27.200  23.657  1.00  0.00     0.116 A 
ATOM     16  C   UNL A   1      31.058  26.531  25.303  1.00  0.00     0.014 A 
ATOM     17  O   UNL A   1      32.541  28.122  24.642  1.00  0.00    -0.453 OA
ATOM     18  C   UNL A   1      30.075  25.760  26.108  1.00  0.00     0.049 C 
BRANCH   8  19
ATOM     19  C   UNL A   1      33.173  22.468  22.878  1.00  0.00    -0.025 A 
ATOM     20  C   UNL A   1      33.211  20.188  24.583  1.00  0.00     0.041 A 
ATOM     21  C   UNL A   1      32.290  20.288  23.544  1.00  0.00     0.027 A 
ATOM     22  C   UNL A   1      34.160  21.195  24.728  1.00  0.00     0.027 A 
ATOM     23  C   UNL A   1      32.254  21.426  22.725  1.00  0.00     0.010 A 
ATOM     24  C   UNL A   1      34.144  22.313  23.881  1.00  0.00     0.010 A 
BRANCH  20  25
ATOM     25  N   UNL A   1      33.148  19.048  25.394  1.00  0.00    -0.326 N 
ATOM     26  C   UNL A   1      34.234  17.407  23.876  1.00  0.00     0.114 C 
ATOM     27  C   UNL A   1      33.457  17.745  25.121  1.00  0.00     0.221 C 
ATOM     28  O   UNL A   1      33.165  16.873  25.941  1.00  0.00    -0.275 OA
ATOM     29  H   UNL A   1      32.831  19.212  26.311  1.00  0.00     0.169 HD
ENDBRANCH  20  25
ENDBRANCH   8  19
ENDBRANCH   5   7
ENDBRANCH   4   5
ENDBRANCH   3   4
ENDBRANCH   2   3
ENDBRANCH   1   2
BRANCH   1  30
ATOM     30  C   UNL A   1      34.381  33.508  28.754  1.00  0.00     0.202 C 
BRANCH  30  31
ATOM     31  C   UNL A   1      34.658  33.455  30.250  1.00  0.00     0.261 C 
BRANCH  31  32
ATOM     32  O   UNL A   1      34.705  32.112  30.706  1.00  0.00    -0.460 OA
BRANCH  32  33
ATOM     33  C   UNL A   1      35.850  31.755  31.319  1.00  0.00     0.338 C 
ATOM     34  O   UNL A   1      36.204  32.031  32.462  1.00  0.00    -0.246 OA
BRANCH  33  35
ATOM     35  C   UNL A   1      36.698  31.080  30.332  1.00  0.00     0.060 A 
ATOM     36  C   UNL A   1      36.580  29.690  30.290  1.00  0.00     0.016 A 
ATOM     37  C   UNL A   1      37.806  31.757  29.800  1.00  0.00     0.016 A 
ATOM     38  C   UNL A   1      37.710  28.963  30.014  1.00  0.00     0.010 A 
ATOM     39  C   UNL A   1      38.944  31.033  29.558  1.00  0.00     0.010 A 
ATOM     40  C   UNL A   1      38.900  29.659  29.780  1.00  0.00    -0.014 A 
BRANCH  40  41
ATOM     41  C   UNL A   1      40.129  28.906  29.848  1.00  0.00     0.031 A 
ATOM     42  C   UNL A   1      40.688  28.793  31.204  1.00  0.00     0.074 A 
ATOM     43  C   UNL A   1      40.628  28.291  28.761  1.00  0.00     0.049 A 
ATOM     44  N   UNL A   1      41.774  29.310  31.671  1.00  0.00    -0.248 NA
ATOM     45  C   UNL A   1      39.843  28.133  32.211  1.00  0.00     0.031 C 
ATOM     46  C   UNL A   1      39.968  28.049  27.473  1.00  0.00     0.029 A 
ATOM     47  N   UNL A   1      41.819  27.654  28.626  1.00  0.00    -0.354 N 
ATOM     48  C   UNL A   1      41.829  28.899  32.998  1.00  0.00     0.074 A 
ATOM     49  C   UNL A   1      40.538  28.359  33.323  1.00  0.00     0.031 C 
ATOM     50  C   UNL A   1      40.684  27.138  26.775  1.00  0.00     0.029 A 
ATOM     51  C   UNL A   1      41.904  26.843  27.507  1.00  0.00     0.049 A 
ATOM     52  H   UNL A   1      42.558  27.759  29.267  1.00  0.00     0.167 HD
ATOM     53  C   UNL A   1      43.010  28.789  33.661  1.00  0.00     0.037 A 
ATOM     54  C   UNL A   1      42.874  25.927  27.279  1.00  0.00     0.037 A 
ATOM     55  C   UNL A   1      44.065  29.493  32.986  1.00  0.00     0.049 A 
ATOM     56  C   UNL A   1      44.020  26.256  28.166  1.00  0.00     0.074 A 
ATOM     57  C   UNL A   1      44.360  30.818  32.741  1.00  0.00     0.029 A 
ATOM     58  N   UNL A   1      44.842  28.754  32.133  1.00  0.00    -0.354 N 
ATOM     59  N   UNL A   1      44.754  27.330  28.055  1.00  0.00    -0.248 NA
ATOM     60  C   UNL A   1      44.129  25.563  29.441  1.00  0.00     0.031 C 
ATOM     61  C   UNL A   1      45.042  30.831  31.488  1.00  0.00     0.029 A 
ATOM     62  C   UNL A   1      45.145  29.514  31.034  1.00  0.00     0.049 A 
ATOM     63  H   UNL A   1      45.136  27.827  32.286  1.00  0.00     0.167 HD
ATOM     64  C   UNL A   1      45.101  27.663  29.356  1.00  0.00     0.074 A 
ATOM     65  C   UNL A   1      44.812  26.472  30.141  1.00  0.00     0.031 C 
ATOM     66  C   UNL A   1      45.325  28.963  29.707  1.00  0.00     0.037 A 
BRANCH  53  67
ATOM     67  C   UNL A   1      43.280  27.734  34.702  1.00  0.00     0.064 A 
ATOM     68  C   UNL A   1      43.583  28.128  36.018  1.00  0.00     0.173 A 
ATOM     69  C   UNL A   1      43.520  26.374  34.403  1.00  0.00     0.173 A 
ATOM     70  F   UNL A   1      43.436  29.405  36.398  1.00  0.00    -0.203 F 
ATOM     71  C   UNL A   1      44.120  27.234  36.948  1.00  0.00     0.198 A 
ATOM     72  C   UNL A   1      43.992  25.471  35.350  1.00  0.00     0.198 A 
ATOM     73  F   UNL A   1      43.417  25.887  33.159  1.00  0.00    -0.203 F 
ATOM     74  F   UNL A   1      44.500  27.678  38.154  1.00  0.00    -0.200 F 
ATOM     75  C   UNL A   1      44.320  25.906  36.616  1.00  0.00     0.200 A 
ATOM     76  F   UNL A   1      44.199  24.194  34.998  1.00  0.00    -0.200 F 
ATOM     77  F   UNL A   1      44.874  25.058  37.491  1.00  0.00    -0.200 F 
ENDBRANCH  53  67
BRANCH  54  78
ATOM     78  C   UNL A   1      42.714  24.596  26.649  1.00  0.00     0.064 A 
ATOM     79  C   UNL A   1      43.373  24.278  25.452  1.00  0.00     0.173 A 
ATOM     80  C   UNL A   1      42.135  23.522  27.353  1.00  0.00     0.173 A 
ATOM     81  F   UNL A   1      43.992  25.238  24.749  1.00  0.00    -0.203 F 
ATOM     82  C   UNL A   1      43.466  22.958  24.998  1.00  0.00     0.198 A 
ATOM     83  C   UNL A   1      42.222  22.207  26.895  1.00  0.00     0.198 A 
ATOM     84  F   UNL A   1      41.561  23.713  28.550  1.00  0.00    -0.203 F 
ATOM     85  F   UNL A   1      44.159  22.682  23.884  1.00  0.00    -0.200 F 
ATOM     86  C   UNL A   1      42.900  21.924  25.725  1.00  0.00     0.200 A 
ATOM     87  F   UNL A   1      41.704  21.213  27.631  1.00  0.00    -0.200 F 
ATOM     88  F   UNL A   1      43.044  20.653  25.324  1.00  0.00    -0.200 F 
ENDBRANCH  54  78
BRANCH  66  89
ATOM     89  C   UNL A   1      45.550  29.944  28.591  1.00  0.00     0.064 A 
ATOM     90  C   UNL A   1      44.519  30.638  27.939  1.00  0.00     0.173 A 
ATOM     91  C   UNL A   1      46.870  30.285  28.264  1.00  0.00     0.173 A 
ATOM     92  F   UNL A   1      43.237  30.433  28.267  1.00  0.00    -0.203 F 
ATOM     93  C   UNL A   1      44.798  31.603  26.972  1.00  0.00     0.198 A 
ATOM     94  C   UNL A   1      47.146  31.275  27.326  1.00  0.00     0.198 A 
ATOM     95  F   UNL A   1      47.894  29.692  28.897  1.00  0.00    -0.203 F 
ATOM     96  F   UNL A   1      43.797  32.245  26.353  1.00  0.00    -0.200 F 
ATOM     97  C   UNL A   1      46.112  31.926  26.673  1.00  0.00     0.200 A 
ATOM     98  F   UNL A   1      48.417  31.620  27.077  1.00  0.00    -0.200 F 
ATOM     99  F   UNL A   1      46.382  32.885  25.776  1.00  0.00    -0.200 F 
ENDBRANCH  66  89
ENDBRANCH  40  41
ENDBRANCH  33  35
ENDBRANCH  32  33
ENDBRANCH  31  32
ENDBRANCH  30  31
ENDBRANCH   1  30
TORSDOF 16
ENDMDL
MODEL 2
REMARK VINA RESULT:     -13.1      0.440      1.165
REMARK SMILES CC(=O)Nc1ccc(/C=C2/CCc3oc(C(=O)OCCOCCOC(=O)c4ccc(-c5c6nc(c(-c7c(F)c(F)c(F)c(F)c7F)c7ccc([nH]7)c(-c7c(F)c(F)c(F)c(F)c7F)c7nc(c(-c8c(F)c(F)c(F)c(F)c8F)c8ccc5[nH]8)C=C7)C=C6)cc4)c(C)c3C2=O)cc1
REMARK SMILES IDX 21 1 20 2 19 3 18 4 16 5 17 6 15 7 9 8 10 9 11 10 93 11
REMARK SMILES IDX 12 12 92 13 94 14 13 15 90 16 14 17 91 18 8 19 5 20 6 21
REMARK SMILES IDX 96 22 7 23 95 24 4 25 1 26 2 27 3 28 22 30 23 31 24 32 25 33
REMARK SMILES IDX 26 34 27 35 28 36 89 37 29 38 88 39 30 40 31 41 32 42 82 43
REMARK SMILES IDX 33 44 87 45 81 46 83 47 34 48 86 49 80 50 79 51 35 53 67 54
REMARK SMILES IDX 47 55 66 56 48 57 51 58 65 59 84 60 49 61 50 62 64 64 85 65
REMARK SMILES IDX 52 66 36 67 37 68 45 69 38 70 39 71 43 72 46 73 40 74 41 75
REMARK SMILES IDX 44 76 42 77 68 78 69 79 77 80 70 81 71 82 75 83 78 84 72 85
REMARK SMILES IDX 73 86 76 87 74 88 53 89 54 90 62 91 55 92 56 93 60 94 63 95
REMARK SMILES IDX 57 96 58 97 61 98 59 99
REMARK H PARENT 4 29 83 52 51 63
REMARK Flexibility Score: inf
ROOT
ATOM      1  O   UNL A   1      34.355  32.277  27.994  1.00  0.00    -0.374 OA
ENDROOT
BRANCH   1   2
ATOM      2  C   UNL A   1      33.247  31.667  27.330  1.00  0.00     0.202 C 
BRANCH   2   3
ATOM      3  C   UNL A   1      33.192  30.140  27.291  1.00  0.00     0.261 C 
BRANCH   3   4
ATOM      4  O   UNL A   1      31.934  29.653  26.794  1.00  0.00    -0.457 OA
BRANCH   4   5
ATOM      5  C   UNL A   1      31.731  28.318  26.959  1.00  0.00     0.374 C 
ATOM      6  O   UNL A   1      31.443  27.779  28.032  1.00  0.00    -0.242 OA
BRANCH   5   7
ATOM      7  C   UNL A   1      31.729  27.637  25.688  1.00  0.00     0.215 A 
ATOM      8  C   UNL A   1      33.194  23.667  22.175  1.00  0.00     0.016 C 
ATOM      9  C   UNL A   1      32.482  24.809  22.245  1.00  0.00     0.001 C 
ATOM     10  C   UNL A   1      32.892  26.080  21.503  1.00  0.00     0.048 C 
ATOM     11  C   UNL A   1      31.306  25.031  23.145  1.00  0.00     0.192 C 
ATOM     12  C   UNL A   1      33.301  27.214  22.478  1.00  0.00     0.081 C 
ATOM     13  C   UNL A   1      31.539  26.160  24.015  1.00  0.00     0.067 A 
ATOM     14  O   UNL A   1      30.275  24.369  23.120  1.00  0.00    -0.289 OA
ATOM     15  C   UNL A   1      32.444  27.143  23.687  1.00  0.00     0.116 A 
ATOM     16  C   UNL A   1      31.025  26.503  25.291  1.00  0.00     0.014 A 
ATOM     17  O   UNL A   1      32.556  28.064  24.674  1.00  0.00    -0.453 OA
ATOM     18  C   UNL A   1      30.003  25.751  26.066  1.00  0.00     0.049 C 
BRANCH   8  19
ATOM     19  C   UNL A   1      33.140  22.396  22.940  1.00  0.00    -0.025 A 
ATOM     20  C   UNL A   1      33.098  20.118  24.647  1.00  0.00     0.041 A 
ATOM     21  C   UNL A   1      32.165  20.261  23.624  1.00  0.00     0.027 A 
ATOM     22  C   UNL A   1      34.097  21.079  24.775  1.00  0.00     0.027 A 
ATOM     23  C   UNL A   1      32.170  21.398  22.804  1.00  0.00     0.010 A 
ATOM     24  C   UNL A   1      34.119  22.196  23.927  1.00  0.00     0.010 A 
BRANCH  20  25
ATOM     25  N   UNL A   1      32.996  18.982  25.461  1.00  0.00    -0.326 N 
ATOM     26  C   UNL A   1      33.927  17.281  23.907  1.00  0.00     0.114 C 
ATOM     27  C   UNL A   1      33.216  17.664  25.178  1.00  0.00     0.221 C 
ATOM     28  O   UNL A   1      32.901  16.809  26.008  1.00  0.00    -0.275 OA
ATOM     29  H   UNL A   1      32.721  19.164  26.388  1.00  0.00     0.169 HD
ENDBRANCH  20  25
ENDBRANCH   8  19
ENDBRANCH   5   7
ENDBRANCH   4   5
ENDBRANCH   3   4
ENDBRANCH   2   3
ENDBRANCH   1   2
BRANCH   1  30
ATOM     30  C   UNL A   1      34.164  33.483  28.728  1.00  0.00     0.202 C 
BRANCH  30  31
ATOM     31  C   UNL A   1      34.680  33.533  30.159  1.00  0.00     0.261 C 
BRANCH  31  32
ATOM     32  O   UNL A   1      34.639  32.246  30.754  1.00  0.00    -0.460 OA
BRANCH  32  33
ATOM     33  C   UNL A   1      35.769  31.871  31.386  1.00  0.00     0.338 C 
ATOM     34  O   UNL A   1      36.099  32.127  32.541  1.00  0.00    -0.246 OA
BRANCH  33  35
ATOM     35  C   UNL A   1      36.634  31.207  30.408  1.00  0.00     0.060 A 
ATOM     36  C   UNL A   1      36.441  29.832  30.272  1.00  0.00     0.016 A 
ATOM     37  C   UNL A   1      37.807  31.847  29.980  1.00  0.00     0.016 A 
ATOM     38  C   UNL A   1      37.543  29.056  30.014  1.00  0.00     0.010 A 
ATOM     39  C   UNL A   1      38.916  31.072  29.757  1.00  0.00     0.010 A 
ATOM     40  C   UNL A   1      38.781  29.693  29.891  1.00  0.00    -0.014 A 
BRANCH  40  41
ATOM     41  C   UNL A   1      39.960  28.865  29.979  1.00  0.00     0.031 A 
ATOM     42  C   UNL A   1      40.458  28.675  31.350  1.00  0.00     0.074 A 
ATOM     43  C   UNL A   1      40.465  28.256  28.891  1.00  0.00     0.049 A 
ATOM     44  N   UNL A   1      41.553  29.111  31.876  1.00  0.00    -0.248 NA
ATOM     45  C   UNL A   1      39.536  28.036  32.302  1.00  0.00     0.031 C 
ATOM     46  C   UNL A   1      39.843  28.095  27.572  1.00  0.00     0.029 A 
ATOM     47  N   UNL A   1      41.620  27.553  28.779  1.00  0.00    -0.354 N 
ATOM     48  C   UNL A   1      41.531  28.656  33.189  1.00  0.00     0.074 A 
ATOM     49  C   UNL A   1      40.198  28.184  33.446  1.00  0.00     0.031 C 
ATOM     50  C   UNL A   1      40.532  27.165  26.870  1.00  0.00     0.029 A 
ATOM     51  C   UNL A   1      41.702  26.775  27.638  1.00  0.00     0.049 A 
ATOM     52  H   UNL A   1      42.338  27.593  29.452  1.00  0.00     0.167 HD
ATOM     53  C   UNL A   1      42.676  28.454  33.891  1.00  0.00     0.037 A 
ATOM     54  C   UNL A   1      42.625  25.809  27.415  1.00  0.00     0.037 A 
ATOM     55  C   UNL A   1      43.796  29.114  33.281  1.00  0.00     0.049 A 
ATOM     56  C   UNL A   1      43.752  26.040  28.355  1.00  0.00     0.074 A 
ATOM     57  C   UNL A   1      44.179  30.426  33.093  1.00  0.00     0.029 A 
ATOM     58  N   UNL A   1      44.562  28.357  32.433  1.00  0.00    -0.354 N 
ATOM     59  N   UNL A   1      44.552  27.071  28.309  1.00  0.00    -0.248 NA
ATOM     60  C   UNL A   1      43.769  25.302  29.610  1.00  0.00     0.031 C 
ATOM     61  C   UNL A   1      44.909  30.437  31.867  1.00  0.00     0.029 A 
ATOM     62  C   UNL A   1      44.952  29.132  31.373  1.00  0.00     0.049 A 
ATOM     63  H   UNL A   1      44.794  27.410  32.565  1.00  0.00     0.167 HD
ATOM     64  C   UNL A   1      44.866  27.341  29.633  1.00  0.00     0.074 A 
ATOM     65  C   UNL A   1      44.476  26.145  30.366  1.00  0.00     0.031 C 
ATOM     66  C   UNL A   1      45.152  28.613  30.036  1.00  0.00     0.037 A 
BRANCH  53  67
ATOM     67  C   UNL A   1      42.842  27.352  34.906  1.00  0.00     0.064 A 
ATOM     68  C   UNL A   1      43.120  27.685  36.244  1.00  0.00     0.173 A 
ATOM     69  C   UNL A   1      43.007  25.989  34.570  1.00  0.00     0.173 A 
ATOM     70  F   UNL A   1      43.039  28.957  36.661  1.00  0.00    -0.203 F 
ATOM     71  C   UNL A   1      43.566  26.730  37.161  1.00  0.00     0.198 A 
ATOM     72  C   UNL A   1      43.388  25.030  35.502  1.00  0.00     0.198 A 
ATOM     73  F   UNL A   1      42.920  25.549  33.308  1.00  0.00    -0.203 F 
ATOM     74  F   UNL A   1      43.929  27.111  38.393  1.00  0.00    -0.200 F 
ATOM     75  C   UNL A   1      43.695  25.403  36.792  1.00  0.00     0.200 A 
ATOM     76  F   UNL A   1      43.528  23.753  35.115  1.00  0.00    -0.200 F 
ATOM     77  F   UNL A   1      44.164  24.495  37.657  1.00  0.00    -0.200 F 
ENDBRANCH  53  67
BRANCH  54  78
ATOM     78  C   UNL A   1      42.411  24.511  26.734  1.00  0.00     0.064 A 
ATOM     79  C   UNL A   1      43.206  24.127  25.644  1.00  0.00     0.173 A 
ATOM     80  C   UNL A   1      41.611  23.507  27.315  1.00  0.00     0.173 A 
ATOM     81  F   UNL A   1      44.033  25.012  25.069  1.00  0.00    -0.203 F 
ATOM     82  C   UNL A   1      43.216  22.808  25.177  1.00  0.00     0.198 A 
ATOM     83  C   UNL A   1      41.615  22.195  26.843  1.00  0.00     0.198 A 
ATOM     84  F   UNL A   1      40.885  23.756  28.414  1.00  0.00    -0.203 F 
ATOM     85  F   UNL A   1      44.036  22.461  24.175  1.00  0.00    -0.200 F 
ATOM     86  C   UNL A   1      42.429  21.843  25.782  1.00  0.00     0.200 A 
ATOM     87  F   UNL A   1      40.879  21.264  27.465  1.00  0.00    -0.200 F 
ATOM     88  F   UNL A   1      42.486  20.566  25.376  1.00  0.00    -0.200 F 
ENDBRANCH  54  78
BRANCH  66  89
ATOM     89  C   UNL A   1      45.479  29.614  28.964  1.00  0.00     0.064 A 
ATOM     90  C   UNL A   1      46.762  29.789  28.422  1.00  0.00     0.173 A 
ATOM     91  C   UNL A   1      44.425  30.326  28.376  1.00  0.00     0.173 A 
ATOM     92  F   UNL A   1      47.801  29.073  28.869  1.00  0.00    -0.203 F 
ATOM     93  C   UNL A   1      46.985  30.672  27.366  1.00  0.00     0.198 A 
ATOM     94  C   UNL A   1      44.644  31.178  27.297  1.00  0.00     0.198 A 
ATOM     95  F   UNL A   1      43.169  30.154  28.819  1.00  0.00    -0.203 F 
ATOM     96  F   UNL A   1      48.222  30.833  26.873  1.00  0.00    -0.200 F 
ATOM     97  C   UNL A   1      45.924  31.358  26.799  1.00  0.00     0.200 A 
ATOM     98  F   UNL A   1      43.606  31.801  26.720  1.00  0.00    -0.200 F 
ATOM     99  F   UNL A   1      46.129  32.173  25.755  1.00  0.00    -0.200 F 
ENDBRANCH  66  89
ENDBRANCH  40  41
ENDBRANCH  33  35
ENDBRANCH  32  33
ENDBRANCH  31  32
ENDBRANCH  30  31
ENDBRANCH   1  30
TORSDOF 16
ENDMDL
MODEL 3
REMARK VINA RESULT:     -13.1      2.343      3.515
REMARK SMILES CC(=O)Nc1ccc(/C=C2/CCc3oc(C(=O)OCCOCCOC(=O)c4ccc(-c5c6nc(c(-c7c(F)c(F)c(F)c(F)c7F)c7ccc([nH]7)c(-c7c(F)c(F)c(F)c(F)c7F)c7nc(c(-c8c(F)c(F)c(F)c(F)c8F)c8ccc5[nH]8)C=C7)C=C6)cc4)c(C)c3C2=O)cc1
REMARK SMILES IDX 21 1 20 2 19 3 18 4 16 5 17 6 15 7 9 8 10 9 11 10 93 11
REMARK SMILES IDX 12 12 92 13 94 14 13 15 90 16 14 17 91 18 8 19 5 20 6 21
REMARK SMILES IDX 96 22 7 23 95 24 4 25 1 26 2 27 3 28 22 30 23 31 24 32 25 33
REMARK SMILES IDX 26 34 27 35 28 36 89 37 29 38 88 39 30 40 31 41 32 42 82 43
REMARK SMILES IDX 33 44 87 45 81 46 83 47 34 48 86 49 80 50 79 51 35 53 67 54
REMARK SMILES IDX 47 55 66 56 48 57 51 58 65 59 84 60 49 61 50 62 64 64 85 65
REMARK SMILES IDX 52 66 36 67 37 68 45 69 38 70 39 71 43 72 46 73 40 74 41 75
REMARK SMILES IDX 44 76 42 77 68 78 69 79 77 80 70 81 71 82 75 83 78 84 72 85
REMARK SMILES IDX 73 86 76 87 74 88 53 89 54 90 62 91 55 92 56 93 60 94 63 95
REMARK SMILES IDX 57 96 58 97 61 98 59 99
REMARK H PARENT 4 29 83 52 51 63
REMARK Flexibility Score: inf
ROOT
ATOM      1  O   UNL A   1      34.557  32.476  27.617  1.00  0.00    -0.374 OA
ENDROOT
BRANCH   1   2
ATOM      2  C   UNL A   1      33.647  31.408  27.886  1.00  0.00     0.202 C 
BRANCH   2   3
ATOM      3  C   UNL A   1      33.635  30.222  26.921  1.00  0.00     0.261 C 
BRANCH   3   4
ATOM      4  O   UNL A   1      32.301  29.844  26.542  1.00  0.00    -0.457 OA
BRANCH   4   5
ATOM      5  C   UNL A   1      31.977  28.549  26.804  1.00  0.00     0.374 C 
ATOM      6  O   UNL A   1      31.620  28.124  27.907  1.00  0.00    -0.242 OA
BRANCH   5   7
ATOM      7  C   UNL A   1      31.943  27.771  25.590  1.00  0.00     0.215 A 
ATOM      8  C   UNL A   1      33.317  23.538  22.359  1.00  0.00     0.016 C 
ATOM      9  C   UNL A   1      32.606  24.684  22.358  1.00  0.00     0.001 C 
ATOM     10  C   UNL A   1      32.997  25.892  21.510  1.00  0.00     0.048 C 
ATOM     11  C   UNL A   1      31.455  24.977  23.268  1.00  0.00     0.192 C 
ATOM     12  C   UNL A   1      33.430  27.098  22.383  1.00  0.00     0.081 C 
ATOM     13  C   UNL A   1      31.710  26.169  24.042  1.00  0.00     0.067 A 
ATOM     14  O   UNL A   1      30.423  24.317  23.321  1.00  0.00    -0.289 OA
ATOM     15  C   UNL A   1      32.605  27.123  23.616  1.00  0.00     0.116 A 
ATOM     16  C   UNL A   1      31.228  26.611  25.300  1.00  0.00     0.014 A 
ATOM     17  O   UNL A   1      32.743  28.117  24.525  1.00  0.00    -0.453 OA
ATOM     18  C   UNL A   1      30.228  25.923  26.157  1.00  0.00     0.049 C 
BRANCH   8  19
ATOM     19  C   UNL A   1      33.283  22.330  23.221  1.00  0.00    -0.025 A 
ATOM     20  C   UNL A   1      33.171  19.858  24.628  1.00  0.00     0.041 A 
ATOM     21  C   UNL A   1      34.098  20.836  24.975  1.00  0.00     0.027 A 
ATOM     22  C   UNL A   1      32.252  20.141  23.622  1.00  0.00     0.027 A 
ATOM     23  C   UNL A   1      34.171  22.040  24.261  1.00  0.00     0.010 A 
ATOM     24  C   UNL A   1      32.305  21.363  22.936  1.00  0.00     0.010 A 
BRANCH  20  25
ATOM     25  N   UNL A   1      33.196  18.658  25.351  1.00  0.00    -0.326 N 
ATOM     26  C   UNL A   1      34.450  17.238  23.743  1.00  0.00     0.114 C 
ATOM     27  C   UNL A   1      33.624  17.412  24.990  1.00  0.00     0.221 C 
ATOM     28  O   UNL A   1      33.397  16.458  25.735  1.00  0.00    -0.275 OA
ATOM     29  H   UNL A   1      32.849  18.724  26.270  1.00  0.00     0.169 HD
ENDBRANCH  20  25
ENDBRANCH   8  19
ENDBRANCH   5   7
ENDBRANCH   4   5
ENDBRANCH   3   4
ENDBRANCH   2   3
ENDBRANCH   1   2
BRANCH   1  30
ATOM     30  C   UNL A   1      34.223  33.805  28.007  1.00  0.00     0.202 C 
BRANCH  30  31
ATOM     31  C   UNL A   1      34.754  34.309  29.342  1.00  0.00     0.261 C 
BRANCH  31  32
ATOM     32  O   UNL A   1      33.786  34.143  30.364  1.00  0.00    -0.460 OA
BRANCH  32  33
ATOM     33  C   UNL A   1      34.022  34.835  31.496  1.00  0.00     0.338 C 
ATOM     34  O   UNL A   1      33.596  35.948  31.793  1.00  0.00    -0.246 OA
BRANCH  33  35
ATOM     35  C   UNL A   1      35.010  34.091  32.282  1.00  0.00     0.060 A 
ATOM     36  C   UNL A   1      36.203  34.766  32.541  1.00  0.00     0.016 A 
ATOM     37  C   UNL A   1      34.898  32.696  32.384  1.00  0.00     0.016 A 
ATOM     38  C   UNL A   1      37.358  34.026  32.579  1.00  0.00     0.010 A 
ATOM     39  C   UNL A   1      36.053  31.959  32.386  1.00  0.00     0.010 A 
ATOM     40  C   UNL A   1      37.263  32.647  32.370  1.00  0.00    -0.014 A 
BRANCH  40  41
ATOM     41  C   UNL A   1      38.483  31.942  32.057  1.00  0.00     0.031 A 
ATOM     42  C   UNL A   1      39.364  31.727  33.216  1.00  0.00     0.074 A 
ATOM     43  C   UNL A   1      38.705  31.450  30.825  1.00  0.00     0.049 A 
ATOM     44  N   UNL A   1      40.523  32.242  33.450  1.00  0.00    -0.248 NA
ATOM     45  C   UNL A   1      38.807  30.943  34.329  1.00  0.00     0.031 C 
ATOM     46  C   UNL A   1      37.749  31.302  29.722  1.00  0.00     0.029 A 
ATOM     47  N   UNL A   1      39.835  30.878  30.338  1.00  0.00    -0.354 N 
ATOM     48  C   UNL A   1      40.914  31.714  34.675  1.00  0.00     0.074 A 
ATOM     49  C   UNL A   1      39.753  31.093  35.252  1.00  0.00     0.031 C 
ATOM     50  C   UNL A   1      38.284  30.489  28.782  1.00  0.00     0.029 A 
ATOM     51  C   UNL A   1      39.653  30.178  29.158  1.00  0.00     0.049 A 
ATOM     52  H   UNL A   1      40.709  30.953  30.785  1.00  0.00     0.167 HD
ATOM     53  C   UNL A   1      42.225  31.591  35.012  1.00  0.00     0.037 A 
ATOM     54  C   UNL A   1      40.550  29.327  28.608  1.00  0.00     0.037 A 
ATOM     55  C   UNL A   1      43.066  32.397  34.172  1.00  0.00     0.049 A 
ATOM     56  C   UNL A   1      41.875  29.619  29.213  1.00  0.00     0.074 A 
ATOM     57  C   UNL A   1      43.269  33.749  33.994  1.00  0.00     0.029 A 
ATOM     58  N   UNL A   1      43.618  31.772  33.084  1.00  0.00    -0.354 N 
ATOM     59  N   UNL A   1      42.540  30.727  29.033  1.00  0.00    -0.248 NA
ATOM     60  C   UNL A   1      42.310  28.816  30.347  1.00  0.00     0.031 C 
ATOM     61  C   UNL A   1      43.617  33.905  32.620  1.00  0.00     0.029 A 
ATOM     62  C   UNL A   1      43.625  32.642  32.025  1.00  0.00     0.049 A 
ATOM     63  H   UNL A   1      43.956  30.847  33.067  1.00  0.00     0.167 HD
ATOM     64  C   UNL A   1      43.195  30.953  30.235  1.00  0.00     0.074 A 
ATOM     65  C   UNL A   1      43.131  29.684  30.944  1.00  0.00     0.031 C 
ATOM     66  C   UNL A   1      43.478  32.223  30.647  1.00  0.00     0.037 A 
BRANCH  53  67
ATOM     67  C   UNL A   1      42.763  30.456  35.844  1.00  0.00     0.064 A 
ATOM     68  C   UNL A   1      43.601  30.742  36.937  1.00  0.00     0.173 A 
ATOM     69  C   UNL A   1      42.711  29.099  35.454  1.00  0.00     0.173 A 
ATOM     70  F   UNL A   1      43.760  32.003  37.363  1.00  0.00    -0.203 F 
ATOM     71  C   UNL A   1      44.358  29.747  37.563  1.00  0.00     0.198 A 
ATOM     72  C   UNL A   1      43.415  28.101  36.122  1.00  0.00     0.198 A 
ATOM     73  F   UNL A   1      42.073  28.697  34.347  1.00  0.00    -0.203 F 
ATOM     74  F   UNL A   1      45.229  30.082  38.524  1.00  0.00    -0.200 F 
ATOM     75  C   UNL A   1      44.260  28.428  37.159  1.00  0.00     0.200 A 
ATOM     76  F   UNL A   1      43.321  26.832  35.698  1.00  0.00    -0.200 F 
ATOM     77  F   UNL A   1      45.016  27.481  37.729  1.00  0.00    -0.200 F 
ENDBRANCH  53  67
BRANCH  54  78
ATOM     78  C   UNL A   1      40.260  28.054  27.907  1.00  0.00     0.064 A 
ATOM     79  C   UNL A   1      40.897  27.732  26.700  1.00  0.00     0.173 A 
ATOM     80  C   UNL A   1      39.563  27.012  28.550  1.00  0.00     0.173 A 
ATOM     81  F   UNL A   1      41.621  28.656  26.053  1.00  0.00    -0.203 F 
ATOM     82  C   UNL A   1      40.858  26.434  26.178  1.00  0.00     0.198 A 
ATOM     83  C   UNL A   1      39.519  25.721  28.024  1.00  0.00     0.198 A 
ATOM     84  F   UNL A   1      38.997  27.200  29.751  1.00  0.00    -0.203 F 
ATOM     85  F   UNL A   1      41.532  26.145  25.056  1.00  0.00    -0.200 F 
ATOM     86  C   UNL A   1      40.178  25.429  26.845  1.00  0.00     0.200 A 
ATOM     87  F   UNL A   1      38.891  24.750  28.703  1.00  0.00    -0.200 F 
ATOM     88  F   UNL A   1      40.194  24.172  26.379  1.00  0.00    -0.200 F 
ENDBRANCH  54  78
BRANCH  66  89
ATOM     89  C   UNL A   1      43.402  33.311  29.614  1.00  0.00     0.064 A 
ATOM     90  C   UNL A   1      44.410  33.566  28.670  1.00  0.00     0.173 A 
ATOM     91  C   UNL A   1      42.207  34.034  29.497  1.00  0.00     0.173 A 
ATOM     92  F   UNL A   1      45.541  32.849  28.661  1.00  0.00    -0.203 F 
ATOM     93  C   UNL A   1      44.242  34.532  27.679  1.00  0.00     0.198 A 
ATOM     94  C   UNL A   1      42.028  34.971  28.483  1.00  0.00     0.198 A 
ATOM     95  F   UNL A   1      41.190  33.791  30.339  1.00  0.00    -0.203 F 
ATOM     96  F   UNL A   1      45.223  34.767  26.795  1.00  0.00    -0.200 F 
ATOM     97  C   UNL A   1      43.048  35.227  27.582  1.00  0.00     0.200 A 
ATOM     98  F   UNL A   1      40.853  35.605  28.363  1.00  0.00    -0.200 F 
ATOM     99  F   UNL A   1      42.868  36.124  26.602  1.00  0.00    -0.200 F 
ENDBRANCH  66  89
ENDBRANCH  40  41
ENDBRANCH  33  35
ENDBRANCH  32  33
ENDBRANCH  31  32
ENDBRANCH  30  31
ENDBRANCH   1  30
TORSDOF 16
ENDMDL
