MODEL 1
REMARK VINA RESULT:     -10.9      0.000      0.000
REMARK SMILES C[C@@H]1CCN(c2cncc(C(=O)OCCOCCOC(=O)c3ccc(-c4c5nc(c(-c6c(F)c(F)c(F)c(F)c6F)c6ccc([nH]6)c(-c6c(F)c(F)c(F)c(F)c6F)c6nc(c(-c7c(F)c(F)c(F)c(F)c7F)c7ccc4[nH]7)C=C6)C=C5)cc3)n2)[C@H](C)C1
REMARK SMILES IDX 17 1 16 2 15 3 14 4 13 5 11 6 12 7 10 8 6 9 7 10 85 11 8 12
REMARK SMILES IDX 9 13 5 14 1 15 2 16 3 17 88 18 4 19 86 20 87 21 18 22 19 23
REMARK SMILES IDX 20 24 21 25 22 26 23 27 84 28 24 29 83 30 25 31 26 32 27 33
REMARK SMILES IDX 77 34 28 35 82 36 76 37 78 38 29 39 81 40 75 41 74 42 30 44
REMARK SMILES IDX 62 45 42 46 61 47 43 48 46 49 60 50 79 51 44 52 45 53 59 55
REMARK SMILES IDX 80 56 47 57 31 58 32 59 40 60 33 61 34 62 38 63 41 64 35 65
REMARK SMILES IDX 36 66 39 67 37 68 63 69 64 70 72 71 65 72 66 73 70 74 73 75
REMARK SMILES IDX 67 76 68 77 71 78 69 79 48 80 49 81 57 82 50 83 51 84 55 85
REMARK SMILES IDX 58 86 52 87 53 88 56 89 54 90
REMARK H PARENT 78 43 46 54
REMARK Flexibility Score: inf
ROOT
ATOM      1  C   UNL A   1      34.451  34.213  29.550  1.00  0.00     0.202 C 
ENDROOT
BRANCH   1   2
ATOM      2  O   UNL A   1      33.076  34.603  29.503  1.00  0.00    -0.374 OA
BRANCH   2   3
ATOM      3  C   UNL A   1      32.810  35.933  29.051  1.00  0.00     0.202 C 
BRANCH   3   4
ATOM      4  C   UNL A   1      33.512  37.040  29.844  1.00  0.00     0.261 C 
BRANCH   4   5
ATOM      5  O   UNL A   1      32.816  37.309  31.074  1.00  0.00    -0.458 OA
BRANCH   5   6
ATOM      6  C   UNL A   1      33.594  37.385  32.185  1.00  0.00     0.358 C 
ATOM      7  O   UNL A   1      33.869  38.397  32.812  1.00  0.00    -0.244 OA
BRANCH   6   8
ATOM      8  C   UNL A   1      33.912  36.027  32.677  1.00  0.00     0.169 A 
ATOM      9  C   UNL A   1      35.438  34.416  33.351  1.00  0.00     0.148 A 
ATOM     10  C   UNL A   1      34.363  33.514  33.384  1.00  0.00     0.157 A 
ATOM     11  N   UNL A   1      35.201  35.696  32.967  1.00  0.00    -0.221 NA
ATOM     12  N   UNL A   1      33.073  33.827  33.082  1.00  0.00    -0.258 NA
ATOM     13  C   UNL A   1      32.872  35.117  32.742  1.00  0.00     0.147 A 
BRANCH   9  14
ATOM     14  N   UNL A   1      36.718  34.070  33.736  1.00  0.00    -0.353 N 
ATOM     15  C   UNL A   1      40.174  32.661  34.415  1.00  0.00     0.008 C 
ATOM     16  C   UNL A   1      39.034  32.340  33.446  1.00  0.00    -0.011 C 
ATOM     17  C   UNL A   1      38.745  33.501  32.482  1.00  0.00     0.025 C 
ATOM     18  C   UNL A   1      37.749  31.890  34.160  1.00  0.00     0.028 C 
ATOM     19  C   UNL A   1      37.928  34.620  33.128  1.00  0.00     0.118 C 
ATOM     20  C   UNL A   1      36.877  33.017  34.747  1.00  0.00     0.081 C 
ATOM     21  C   UNL A   1      37.393  33.587  36.064  1.00  0.00     0.031 C 
ENDBRANCH   9  14
ENDBRANCH   6   8
ENDBRANCH   5   6
ENDBRANCH   4   5
ENDBRANCH   3   4
ENDBRANCH   2   3
ENDBRANCH   1   2
BRANCH   1  22
ATOM     22  C   UNL A   1      34.854  33.107  28.569  1.00  0.00     0.261 C 
BRANCH  22  23
ATOM     23  O   UNL A   1      34.838  31.817  29.205  1.00  0.00    -0.460 OA
BRANCH  23  24
ATOM     24  C   UNL A   1      34.882  30.763  28.362  1.00  0.00     0.338 C 
ATOM     25  O   UNL A   1      34.039  30.434  27.539  1.00  0.00    -0.246 OA
BRANCH  24  26
ATOM     26  C   UNL A   1      36.203  30.111  28.440  1.00  0.00     0.060 A 
ATOM     27  C   UNL A   1      36.561  29.527  29.662  1.00  0.00     0.016 A 
ATOM     28  C   UNL A   1      37.099  30.116  27.368  1.00  0.00     0.016 A 
ATOM     29  C   UNL A   1      37.837  28.995  29.834  1.00  0.00     0.010 A 
ATOM     30  C   UNL A   1      38.381  29.586  27.544  1.00  0.00     0.010 A 
ATOM     31  C   UNL A   1      38.768  29.056  28.789  1.00  0.00    -0.014 A 
BRANCH  31  32
ATOM     32  C   UNL A   1      40.181  28.692  29.049  1.00  0.00     0.031 A 
ATOM     33  C   UNL A   1      41.058  29.657  29.799  1.00  0.00     0.074 A 
ATOM     34  C   UNL A   1      40.669  27.504  28.653  1.00  0.00     0.049 A 
ATOM     35  N   UNL A   1      42.323  29.555  30.120  1.00  0.00    -0.248 NA
ATOM     36  C   UNL A   1      40.422  30.906  30.245  1.00  0.00     0.031 C 
ATOM     37  C   UNL A   1      39.909  26.473  27.950  1.00  0.00     0.029 A 
ATOM     38  N   UNL A   1      41.926  26.969  28.783  1.00  0.00    -0.354 N 
ATOM     39  C   UNL A   1      42.634  30.724  30.801  1.00  0.00     0.074 A 
ATOM     40  C   UNL A   1      41.436  31.537  30.819  1.00  0.00     0.031 C 
ATOM     41  C   UNL A   1      40.720  25.429  27.703  1.00  0.00     0.029 A 
ATOM     42  C   UNL A   1      42.060  25.732  28.204  1.00  0.00     0.049 A 
ATOM     43  H   UNL A   1      42.662  27.429  29.249  1.00  0.00     0.167 HD
ATOM     44  C   UNL A   1      43.811  31.084  31.368  1.00  0.00     0.037 A 
ATOM     45  C   UNL A   1      43.145  24.946  28.076  1.00  0.00     0.037 A 
ATOM     46  C   UNL A   1      45.000  30.274  31.351  1.00  0.00     0.049 A 
ATOM     47  C   UNL A   1      44.460  25.397  28.659  1.00  0.00     0.074 A 
ATOM     48  C   UNL A   1      46.234  30.541  31.918  1.00  0.00     0.029 A 
ATOM     49  N   UNL A   1      45.105  29.039  30.727  1.00  0.00    -0.354 N 
ATOM     50  N   UNL A   1      44.738  26.490  29.327  1.00  0.00    -0.248 NA
ATOM     51  C   UNL A   1      45.610  24.501  28.473  1.00  0.00     0.031 C 
ATOM     52  C   UNL A   1      47.101  29.491  31.594  1.00  0.00     0.029 A 
ATOM     53  C   UNL A   1      46.392  28.545  30.871  1.00  0.00     0.049 A 
ATOM     54  H   UNL A   1      44.375  28.583  30.252  1.00  0.00     0.167 HD
ATOM     55  C   UNL A   1      46.084  26.401  29.663  1.00  0.00     0.074 A 
ATOM     56  C   UNL A   1      46.562  25.140  29.138  1.00  0.00     0.031 C 
ATOM     57  C   UNL A   1      46.852  27.284  30.349  1.00  0.00     0.037 A 
BRANCH  44  58
ATOM     58  C   UNL A   1      43.875  32.425  32.036  1.00  0.00     0.064 A 
ATOM     59  C   UNL A   1      43.665  32.573  33.416  1.00  0.00     0.173 A 
ATOM     60  C   UNL A   1      44.186  33.574  31.293  1.00  0.00     0.173 A 
ATOM     61  F   UNL A   1      43.352  31.508  34.169  1.00  0.00    -0.203 F 
ATOM     62  C   UNL A   1      43.741  33.825  34.022  1.00  0.00     0.198 A 
ATOM     63  C   UNL A   1      44.288  34.820  31.906  1.00  0.00     0.198 A 
ATOM     64  F   UNL A   1      44.400  33.487  29.971  1.00  0.00    -0.203 F 
ATOM     65  F   UNL A   1      43.492  33.949  35.333  1.00  0.00    -0.200 F 
ATOM     66  C   UNL A   1      44.058  34.945  33.268  1.00  0.00     0.200 A 
ATOM     67  F   UNL A   1      44.606  35.900  31.179  1.00  0.00    -0.200 F 
ATOM     68  F   UNL A   1      44.136  36.149  33.853  1.00  0.00    -0.200 F 
ENDBRANCH  44  58
BRANCH  45  69
ATOM     69  C   UNL A   1      43.042  23.649  27.356  1.00  0.00     0.064 A 
ATOM     70  C   UNL A   1      43.446  23.529  26.020  1.00  0.00     0.173 A 
ATOM     71  C   UNL A   1      42.519  22.509  27.985  1.00  0.00     0.173 A 
ATOM     72  F   UNL A   1      43.926  24.597  25.367  1.00  0.00    -0.203 F 
ATOM     73  C   UNL A   1      43.314  22.323  25.334  1.00  0.00     0.198 A 
ATOM     74  C   UNL A   1      42.414  21.297  27.308  1.00  0.00     0.198 A 
ATOM     75  F   UNL A   1      42.115  22.573  29.262  1.00  0.00    -0.203 F 
ATOM     76  F   UNL A   1      43.664  22.248  24.043  1.00  0.00    -0.200 F 
ATOM     77  C   UNL A   1      42.804  21.206  25.981  1.00  0.00     0.200 A 
ATOM     78  F   UNL A   1      41.931  20.219  27.939  1.00  0.00    -0.200 F 
ATOM     79  F   UNL A   1      42.679  20.048  25.320  1.00  0.00    -0.200 F 
ENDBRANCH  45  69
BRANCH  57  80
ATOM     80  C   UNL A   1      48.283  26.903  30.599  1.00  0.00     0.064 A 
ATOM     81  C   UNL A   1      48.654  26.108  31.692  1.00  0.00     0.173 A 
ATOM     82  C   UNL A   1      49.291  27.308  29.709  1.00  0.00     0.173 A 
ATOM     83  F   UNL A   1      47.731  25.707  32.580  1.00  0.00    -0.203 F 
ATOM     84  C   UNL A   1      49.985  25.752  31.900  1.00  0.00     0.198 A 
ATOM     85  C   UNL A   1      50.615  26.925  29.904  1.00  0.00     0.198 A 
ATOM     86  F   UNL A   1      48.988  28.063  28.642  1.00  0.00    -0.203 F 
ATOM     87  F   UNL A   1      50.323  25.031  32.979  1.00  0.00    -0.200 F 
ATOM     88  C   UNL A   1      50.962  26.155  31.003  1.00  0.00     0.200 A 
ATOM     89  F   UNL A   1      51.556  27.304  29.027  1.00  0.00    -0.200 F 
ATOM     90  F   UNL A   1      52.241  25.806  31.202  1.00  0.00    -0.200 F 
ENDBRANCH  57  80
ENDBRANCH  31  32
ENDBRANCH  24  26
ENDBRANCH  23  24
ENDBRANCH  22  23
ENDBRANCH   1  22
TORSDOF 15
ENDMDL
MODEL 2
REMARK VINA RESULT:     -10.6      4.583      7.592
REMARK SMILES C[C@@H]1CCN(c2cncc(C(=O)OCCOCCOC(=O)c3ccc(-c4c5nc(c(-c6c(F)c(F)c(F)c(F)c6F)c6ccc([nH]6)c(-c6c(F)c(F)c(F)c(F)c6F)c6nc(c(-c7c(F)c(F)c(F)c(F)c7F)c7ccc4[nH]7)C=C6)C=C5)cc3)n2)[C@H](C)C1
REMARK SMILES IDX 17 1 16 2 15 3 14 4 13 5 11 6 12 7 10 8 6 9 7 10 85 11 8 12
REMARK SMILES IDX 9 13 5 14 1 15 2 16 3 17 88 18 4 19 86 20 87 21 18 22 19 23
REMARK SMILES IDX 20 24 21 25 22 26 23 27 84 28 24 29 83 30 25 31 26 32 27 33
REMARK SMILES IDX 77 34 28 35 82 36 76 37 78 38 29 39 81 40 75 41 74 42 30 44
REMARK SMILES IDX 62 45 42 46 61 47 43 48 46 49 60 50 79 51 44 52 45 53 59 55
REMARK SMILES IDX 80 56 47 57 31 58 32 59 40 60 33 61 34 62 38 63 41 64 35 65
REMARK SMILES IDX 36 66 39 67 37 68 63 69 64 70 72 71 65 72 66 73 70 74 73 75
REMARK SMILES IDX 67 76 68 77 71 78 69 79 48 80 49 81 57 82 50 83 51 84 55 85
REMARK SMILES IDX 58 86 52 87 53 88 56 89 54 90
REMARK H PARENT 78 43 46 54
REMARK Flexibility Score: inf
ROOT
ATOM      1  C   UNL A   1      30.946  31.070  25.379  1.00  0.00     0.202 C 
ENDROOT
BRANCH   1   2
ATOM      2  O   UNL A   1      31.407  29.720  25.469  1.00  0.00    -0.374 OA
BRANCH   2   3
ATOM      3  C   UNL A   1      32.235  29.261  24.398  1.00  0.00     0.202 C 
BRANCH   3   4
ATOM      4  C   UNL A   1      31.480  28.821  23.138  1.00  0.00     0.261 C 
BRANCH   4   5
ATOM      5  O   UNL A   1      31.354  27.389  23.091  1.00  0.00    -0.458 OA
BRANCH   5   6
ATOM      6  C   UNL A   1      30.283  26.872  23.746  1.00  0.00     0.358 C 
ATOM      7  O   UNL A   1      29.106  27.086  23.498  1.00  0.00    -0.244 OA
BRANCH   6   8
ATOM      8  C   UNL A   1      30.723  25.826  24.696  1.00  0.00     0.169 A 
ATOM      9  C   UNL A   1      32.162  24.115  25.310  1.00  0.00     0.148 A 
ATOM     10  C   UNL A   1      31.298  23.872  26.390  1.00  0.00     0.157 A 
ATOM     11  N   UNL A   1      31.848  25.104  24.436  1.00  0.00    -0.221 NA
ATOM     12  N   UNL A   1      30.163  24.576  26.653  1.00  0.00    -0.258 NA
ATOM     13  C   UNL A   1      29.906  25.574  25.783  1.00  0.00     0.147 A 
BRANCH   9  14
ATOM     14  N   UNL A   1      33.341  23.421  25.124  1.00  0.00    -0.353 N 
ATOM     15  C   UNL A   1      36.731  21.962  24.250  1.00  0.00     0.008 C 
ATOM     16  C   UNL A   1      35.996  23.270  23.954  1.00  0.00    -0.011 C 
ATOM     17  C   UNL A   1      35.701  24.073  25.230  1.00  0.00     0.025 C 
ATOM     18  C   UNL A   1      34.714  23.064  23.130  1.00  0.00     0.028 C 
ATOM     19  C   UNL A   1      34.500  23.533  26.007  1.00  0.00     0.118 C 
ATOM     20  C   UNL A   1      33.477  22.595  23.918  1.00  0.00     0.081 C 
ATOM     21  C   UNL A   1      33.478  21.108  24.262  1.00  0.00     0.031 C 
ENDBRANCH   9  14
ENDBRANCH   6   8
ENDBRANCH   5   6
ENDBRANCH   4   5
ENDBRANCH   3   4
ENDBRANCH   2   3
ENDBRANCH   1   2
BRANCH   1  22
ATOM     22  C   UNL A   1      31.416  32.001  26.502  1.00  0.00     0.261 C 
BRANCH  22  23
ATOM     23  O   UNL A   1      32.664  31.553  27.060  1.00  0.00    -0.460 OA
BRANCH  23  24
ATOM     24  C   UNL A   1      33.422  32.522  27.618  1.00  0.00     0.338 C 
ATOM     25  O   UNL A   1      33.087  33.671  27.877  1.00  0.00    -0.246 OA
BRANCH  24  26
ATOM     26  C   UNL A   1      34.717  31.963  28.050  1.00  0.00     0.060 A 
ATOM     27  C   UNL A   1      34.761  30.594  28.342  1.00  0.00     0.016 A 
ATOM     28  C   UNL A   1      35.849  32.761  28.225  1.00  0.00     0.016 A 
ATOM     29  C   UNL A   1      35.923  30.028  28.861  1.00  0.00     0.010 A 
ATOM     30  C   UNL A   1      37.014  32.193  28.751  1.00  0.00     0.010 A 
ATOM     31  C   UNL A   1      37.044  30.831  29.105  1.00  0.00    -0.014 A 
BRANCH  31  32
ATOM     32  C   UNL A   1      38.192  30.272  29.858  1.00  0.00     0.031 A 
ATOM     33  C   UNL A   1      38.405  30.694  31.286  1.00  0.00     0.074 A 
ATOM     34  C   UNL A   1      39.015  29.374  29.289  1.00  0.00     0.049 A 
ATOM     35  N   UNL A   1      39.350  30.348  32.123  1.00  0.00    -0.248 NA
ATOM     36  C   UNL A   1      37.421  31.634  31.843  1.00  0.00     0.031 C 
ATOM     37  C   UNL A   1      38.892  28.861  27.927  1.00  0.00     0.029 A 
ATOM     38  N   UNL A   1      40.123  28.739  29.791  1.00  0.00    -0.354 N 
ATOM     39  C   UNL A   1      39.076  31.029  33.302  1.00  0.00     0.074 A 
ATOM     40  C   UNL A   1      37.896  31.834  33.063  1.00  0.00     0.031 C 
ATOM     41  C   UNL A   1      39.893  27.994  27.697  1.00  0.00     0.029 A 
ATOM     42  C   UNL A   1      40.741  27.913  28.885  1.00  0.00     0.049 A 
ATOM     43  H   UNL A   1      40.445  28.862  30.714  1.00  0.00     0.167 HD
ATOM     44  C   UNL A   1      39.742  30.981  34.480  1.00  0.00     0.037 A 
ATOM     45  C   UNL A   1      41.873  27.192  28.997  1.00  0.00     0.037 A 
ATOM     46  C   UNL A   1      40.914  30.179  34.717  1.00  0.00     0.049 A 
ATOM     47  C   UNL A   1      42.634  27.206  30.299  1.00  0.00     0.074 A 
ATOM     48  C   UNL A   1      41.646  30.044  35.884  1.00  0.00     0.029 A 
ATOM     49  N   UNL A   1      41.528  29.379  33.765  1.00  0.00    -0.354 N 
ATOM     50  N   UNL A   1      42.351  27.829  31.417  1.00  0.00    -0.248 NA
ATOM     51  C   UNL A   1      43.869  26.411  30.352  1.00  0.00     0.031 C 
ATOM     52  C   UNL A   1      42.733  29.202  35.624  1.00  0.00     0.029 A 
ATOM     53  C   UNL A   1      42.647  28.770  34.309  1.00  0.00     0.049 A 
ATOM     54  H   UNL A   1      41.215  29.262  32.839  1.00  0.00     0.167 HD
ATOM     55  C   UNL A   1      43.355  27.481  32.313  1.00  0.00     0.074 A 
ATOM     56  C   UNL A   1      44.245  26.580  31.612  1.00  0.00     0.031 C 
ATOM     57  C   UNL A   1      43.521  27.870  33.601  1.00  0.00     0.037 A 
BRANCH  44  58
ATOM     58  C   UNL A   1      39.232  31.840  35.600  1.00  0.00     0.064 A 
ATOM     59  C   UNL A   1      38.351  31.339  36.571  1.00  0.00     0.173 A 
ATOM     60  C   UNL A   1      39.657  33.171  35.723  1.00  0.00     0.173 A 
ATOM     61  F   UNL A   1      37.905  30.077  36.491  1.00  0.00    -0.203 F 
ATOM     62  C   UNL A   1      37.898  32.148  37.610  1.00  0.00     0.198 A 
ATOM     63  C   UNL A   1      39.223  33.968  36.778  1.00  0.00     0.198 A 
ATOM     64  F   UNL A   1      40.502  33.698  34.823  1.00  0.00    -0.203 F 
ATOM     65  F   UNL A   1      37.022  31.662  38.502  1.00  0.00    -0.200 F 
ATOM     66  C   UNL A   1      38.338  33.459  37.716  1.00  0.00     0.200 A 
ATOM     67  F   UNL A   1      39.659  35.231  36.887  1.00  0.00    -0.200 F 
ATOM     68  F   UNL A   1      37.905  34.234  38.721  1.00  0.00    -0.200 F 
ENDBRANCH  44  58
BRANCH  45  69
ATOM     69  C   UNL A   1      42.366  26.401  27.840  1.00  0.00     0.064 A 
ATOM     70  C   UNL A   1      43.315  26.929  26.954  1.00  0.00     0.173 A 
ATOM     71  C   UNL A   1      41.885  25.108  27.587  1.00  0.00     0.173 A 
ATOM     72  F   UNL A   1      43.785  28.171  27.138  1.00  0.00    -0.203 F 
ATOM     73  C   UNL A   1      43.750  26.200  25.848  1.00  0.00     0.198 A 
ATOM     74  C   UNL A   1      42.342  24.370  26.498  1.00  0.00     0.198 A 
ATOM     75  F   UNL A   1      40.973  24.559  28.403  1.00  0.00    -0.203 F 
ATOM     76  F   UNL A   1      44.622  26.747  24.990  1.00  0.00    -0.200 F 
ATOM     77  C   UNL A   1      43.268  24.919  25.624  1.00  0.00     0.200 A 
ATOM     78  F   UNL A   1      41.880  23.130  26.291  1.00  0.00    -0.200 F 
ATOM     79  F   UNL A   1      43.687  24.220  24.562  1.00  0.00    -0.200 F 
ENDBRANCH  45  69
BRANCH  57  80
ATOM     80  C   UNL A   1      44.692  27.299  34.349  1.00  0.00     0.064 A 
ATOM     81  C   UNL A   1      44.607  26.075  35.027  1.00  0.00     0.173 A 
ATOM     82  C   UNL A   1      45.926  27.968  34.351  1.00  0.00     0.173 A 
ATOM     83  F   UNL A   1      43.447  25.404  35.067  1.00  0.00    -0.203 F 
ATOM     84  C   UNL A   1      45.708  25.554  35.703  1.00  0.00     0.198 A 
ATOM     85  C   UNL A   1      47.032  27.429  35.002  1.00  0.00     0.198 A 
ATOM     86  F   UNL A   1      46.063  29.139  33.710  1.00  0.00    -0.203 F 
ATOM     87  F   UNL A   1      45.592  24.406  36.385  1.00  0.00    -0.200 F 
ATOM     88  C   UNL A   1      46.921  26.227  35.683  1.00  0.00     0.200 A 
ATOM     89  F   UNL A   1      48.206  28.074  34.970  1.00  0.00    -0.200 F 
ATOM     90  F   UNL A   1      47.980  25.720  36.329  1.00  0.00    -0.200 F 
ENDBRANCH  57  80
ENDBRANCH  31  32
ENDBRANCH  24  26
ENDBRANCH  23  24
ENDBRANCH  22  23
ENDBRANCH   1  22
TORSDOF 15
ENDMDL
MODEL 3
REMARK VINA RESULT:     -10.6      5.252     10.737
REMARK SMILES C[C@@H]1CCN(c2cncc(C(=O)OCCOCCOC(=O)c3ccc(-c4c5nc(c(-c6c(F)c(F)c(F)c(F)c6F)c6ccc([nH]6)c(-c6c(F)c(F)c(F)c(F)c6F)c6nc(c(-c7c(F)c(F)c(F)c(F)c7F)c7ccc4[nH]7)C=C6)C=C5)cc3)n2)[C@H](C)C1
REMARK SMILES IDX 17 1 16 2 15 3 14 4 13 5 11 6 12 7 10 8 6 9 7 10 85 11 8 12
REMARK SMILES IDX 9 13 5 14 1 15 2 16 3 17 88 18 4 19 86 20 87 21 18 22 19 23
REMARK SMILES IDX 20 24 21 25 22 26 23 27 84 28 24 29 83 30 25 31 26 32 27 33
REMARK SMILES IDX 77 34 28 35 82 36 76 37 78 38 29 39 81 40 75 41 74 42 30 44
REMARK SMILES IDX 62 45 42 46 61 47 43 48 46 49 60 50 79 51 44 52 45 53 59 55
REMARK SMILES IDX 80 56 47 57 31 58 32 59 40 60 33 61 34 62 38 63 41 64 35 65
REMARK SMILES IDX 36 66 39 67 37 68 63 69 64 70 72 71 65 72 66 73 70 74 73 75
REMARK SMILES IDX 67 76 68 77 71 78 69 79 48 80 49 81 57 82 50 83 51 84 55 85
REMARK SMILES IDX 58 86 52 87 53 88 56 89 54 90
REMARK H PARENT 78 43 46 54
REMARK Flexibility Score: inf
ROOT
ATOM      1  C   UNL A   1      37.621  19.883  24.993  1.00  0.00     0.202 C 
ENDROOT
BRANCH   1   2
ATOM      2  O   UNL A   1      37.510  21.283  24.725  1.00  0.00    -0.374 OA
BRANCH   2   3
ATOM      3  C   UNL A   1      36.314  21.922  25.177  1.00  0.00     0.202 C 
BRANCH   3   4
ATOM      4  C   UNL A   1      35.103  20.997  25.331  1.00  0.00     0.261 C 
BRANCH   4   5
ATOM      5  O   UNL A   1      34.129  21.253  24.304  1.00  0.00    -0.458 OA
BRANCH   5   6
ATOM      6  C   UNL A   1      33.103  22.069  24.658  1.00  0.00     0.358 C 
ATOM      7  O   UNL A   1      32.266  21.851  25.522  1.00  0.00    -0.244 OA
BRANCH   6   8
ATOM      8  C   UNL A   1      33.243  23.383  23.993  1.00  0.00     0.169 A 
ATOM      9  C   UNL A   1      32.989  25.687  23.973  1.00  0.00     0.148 A 
ATOM     10  C   UNL A   1      33.378  25.648  22.625  1.00  0.00     0.157 A 
ATOM     11  N   UNL A   1      32.902  24.520  24.660  1.00  0.00    -0.221 NA
ATOM     12  N   UNL A   1      33.707  24.517  21.942  1.00  0.00    -0.258 NA
ATOM     13  C   UNL A   1      33.644  23.383  22.669  1.00  0.00     0.147 A 
BRANCH   9  14
ATOM     14  N   UNL A   1      32.735  26.867  24.644  1.00  0.00    -0.353 N 
ATOM     15  C   UNL A   1      32.049  29.774  26.982  1.00  0.00     0.008 C 
ATOM     16  C   UNL A   1      32.392  28.293  27.152  1.00  0.00    -0.011 C 
ATOM     17  C   UNL A   1      33.776  27.947  26.582  1.00  0.00     0.025 C 
ATOM     18  C   UNL A   1      31.315  27.359  26.576  1.00  0.00     0.028 C 
ATOM     19  C   UNL A   1      33.773  27.807  25.060  1.00  0.00     0.118 C 
ATOM     20  C   UNL A   1      31.352  27.150  25.050  1.00  0.00     0.081 C 
ATOM     21  C   UNL A   1      30.763  28.303  24.244  1.00  0.00     0.031 C 
ENDBRANCH   9  14
ENDBRANCH   6   8
ENDBRANCH   5   6
ENDBRANCH   4   5
ENDBRANCH   3   4
ENDBRANCH   2   3
ENDBRANCH   1   2
BRANCH   1  22
ATOM     22  C   UNL A   1      38.969  19.428  25.562  1.00  0.00     0.261 C 
BRANCH  22  23
ATOM     23  O   UNL A   1      39.865  20.541  25.729  1.00  0.00    -0.460 OA
BRANCH  23  24
ATOM     24  C   UNL A   1      40.584  20.531  26.872  1.00  0.00     0.338 C 
ATOM     25  O   UNL A   1      41.086  19.562  27.426  1.00  0.00    -0.246 OA
BRANCH  24  26
ATOM     26  C   UNL A   1      40.842  21.913  27.317  1.00  0.00     0.060 A 
ATOM     27  C   UNL A   1      40.201  22.944  26.619  1.00  0.00     0.016 A 
ATOM     28  C   UNL A   1      41.732  22.206  28.353  1.00  0.00     0.016 A 
ATOM     29  C   UNL A   1      40.490  24.274  26.916  1.00  0.00     0.010 A 
ATOM     30  C   UNL A   1      42.026  23.542  28.648  1.00  0.00     0.010 A 
ATOM     31  C   UNL A   1      41.433  24.580  27.906  1.00  0.00    -0.014 A 
BRANCH  31  32
ATOM     32  C   UNL A   1      41.896  25.980  28.064  1.00  0.00     0.031 A 
ATOM     33  C   UNL A   1      43.233  26.375  27.501  1.00  0.00     0.074 A 
ATOM     34  C   UNL A   1      41.122  26.896  28.671  1.00  0.00     0.049 A 
ATOM     35  N   UNL A   1      43.843  27.533  27.539  1.00  0.00    -0.248 NA
ATOM     36  C   UNL A   1      43.984  25.322  26.801  1.00  0.00     0.031 C 
ATOM     37  C   UNL A   1      39.794  26.643  29.226  1.00  0.00     0.029 A 
ATOM     38  N   UNL A   1      41.348  28.226  28.925  1.00  0.00    -0.354 N 
ATOM     39  C   UNL A   1      45.048  27.346  26.874  1.00  0.00     0.074 A 
ATOM     40  C   UNL A   1      45.099  25.957  26.470  1.00  0.00     0.031 C 
ATOM     41  C   UNL A   1      39.324  27.782  29.765  1.00  0.00     0.029 A 
ATOM     42  C   UNL A   1      40.330  28.833  29.617  1.00  0.00     0.049 A 
ATOM     43  H   UNL A   1      42.162  28.699  28.638  1.00  0.00     0.167 HD
ATOM     44  C   UNL A   1      46.019  28.254  26.615  1.00  0.00     0.037 A 
ATOM     45  C   UNL A   1      40.233  30.089  30.094  1.00  0.00     0.037 A 
ATOM     46  C   UNL A   1      45.966  29.636  27.015  1.00  0.00     0.049 A 
ATOM     47  C   UNL A   1      41.356  31.064  29.849  1.00  0.00     0.074 A 
ATOM     48  C   UNL A   1      46.889  30.639  26.779  1.00  0.00     0.029 A 
ATOM     49  N   UNL A   1      44.932  30.207  27.742  1.00  0.00    -0.354 N 
ATOM     50  N   UNL A   1      42.477  30.887  29.194  1.00  0.00    -0.248 NA
ATOM     51  C   UNL A   1      41.196  32.414  30.408  1.00  0.00     0.031 C 
ATOM     52  C   UNL A   1      46.439  31.805  27.406  1.00  0.00     0.029 A 
ATOM     53  C   UNL A   1      45.208  31.542  27.987  1.00  0.00     0.049 A 
ATOM     54  H   UNL A   1      44.122  29.734  28.039  1.00  0.00     0.167 HD
ATOM     55  C   UNL A   1      43.142  32.107  29.238  1.00  0.00     0.074 A 
ATOM     56  C   UNL A   1      42.292  33.019  29.972  1.00  0.00     0.031 C 
ATOM     57  C   UNL A   1      44.348  32.441  28.714  1.00  0.00     0.037 A 
BRANCH  44  58
ATOM     58  C   UNL A   1      47.237  27.774  25.882  1.00  0.00     0.064 A 
ATOM     59  C   UNL A   1      48.369  27.298  26.563  1.00  0.00     0.173 A 
ATOM     60  C   UNL A   1      47.260  27.757  24.480  1.00  0.00     0.173 A 
ATOM     61  F   UNL A   1      48.402  27.306  27.904  1.00  0.00    -0.203 F 
ATOM     62  C   UNL A   1      49.486  26.845  25.865  1.00  0.00     0.198 A 
ATOM     63  C   UNL A   1      48.368  27.278  23.786  1.00  0.00     0.198 A 
ATOM     64  F   UNL A   1      46.203  28.198  23.780  1.00  0.00    -0.203 F 
ATOM     65  F   UNL A   1      50.572  26.437  26.536  1.00  0.00    -0.200 F 
ATOM     66  C   UNL A   1      49.482  26.830  24.479  1.00  0.00     0.200 A 
ATOM     67  F   UNL A   1      48.359  27.253  22.446  1.00  0.00    -0.200 F 
ATOM     68  F   UNL A   1      50.556  26.389  23.809  1.00  0.00    -0.200 F 
ENDBRANCH  44  58
BRANCH  45  69
ATOM     69  C   UNL A   1      39.028  30.500  30.862  1.00  0.00     0.064 A 
ATOM     70  C   UNL A   1      37.922  31.073  30.221  1.00  0.00     0.173 A 
ATOM     71  C   UNL A   1      38.967  30.344  32.255  1.00  0.00     0.173 A 
ATOM     72  F   UNL A   1      37.943  31.269  28.894  1.00  0.00    -0.203 F 
ATOM     73  C   UNL A   1      36.808  31.492  30.946  1.00  0.00     0.198 A 
ATOM     74  C   UNL A   1      37.842  30.736  32.975  1.00  0.00     0.198 A 
ATOM     75  F   UNL A   1      40.002  29.804  32.915  1.00  0.00    -0.203 F 
ATOM     76  F   UNL A   1      35.783  32.081  30.314  1.00  0.00    -0.200 F 
ATOM     77  C   UNL A   1      36.766  31.318  32.322  1.00  0.00     0.200 A 
ATOM     78  F   UNL A   1      37.802  30.557  34.301  1.00  0.00    -0.200 F 
ATOM     79  F   UNL A   1      35.694  31.720  33.017  1.00  0.00    -0.200 F 
ENDBRANCH  45  69
BRANCH  57  80
ATOM     80  C   UNL A   1      44.806  33.861  28.887  1.00  0.00     0.064 A 
ATOM     81  C   UNL A   1      45.604  34.251  29.970  1.00  0.00     0.173 A 
ATOM     82  C   UNL A   1      44.472  34.834  27.932  1.00  0.00     0.173 A 
ATOM     83  F   UNL A   1      45.939  33.363  30.918  1.00  0.00    -0.203 F 
ATOM     84  C   UNL A   1      46.032  35.570  30.106  1.00  0.00     0.198 A 
ATOM     85  C   UNL A   1      44.926  36.144  28.055  1.00  0.00     0.198 A 
ATOM     86  F   UNL A   1      43.717  34.511  26.871  1.00  0.00    -0.203 F 
ATOM     87  F   UNL A   1      46.755  35.932  31.175  1.00  0.00    -0.200 F 
ATOM     88  C   UNL A   1      45.699  36.513  29.145  1.00  0.00     0.200 A 
ATOM     89  F   UNL A   1      44.615  37.050  27.118  1.00  0.00    -0.200 F 
ATOM     90  F   UNL A   1      46.116  37.780  29.275  1.00  0.00    -0.200 F 
ENDBRANCH  57  80
ENDBRANCH  31  32
ENDBRANCH  24  26
ENDBRANCH  23  24
ENDBRANCH  22  23
ENDBRANCH   1  22
TORSDOF 15
ENDMDL
