MODEL 1
REMARK VINA RESULT:     -12.4      0.000      0.000
REMARK SMILES O=C(OCCOCCOC(=O)[C@@H](Cc1ccccc1)N1C(=O)/C(=C/c2ccncc2)SC1=S)c1ccc(-c2c3nc(c(-c4c(F)c(F)c(F)c(F)c4F)c4ccc([nH]4)c(-c4c(F)c(F)c(F)c(F)c4F)c4nc(c(-c5c(F)c(F)c(F)c(F)c5F)c5ccc2[nH]5)C=C4)C=C3)cc1
REMARK SMILES IDX 6 1 5 2 4 3 3 4 2 5 1 6 34 7 35 8 96 9 36 10 95 11 37 12
REMARK SMILES IDX 38 13 39 14 89 15 40 16 94 17 88 18 90 19 41 20 93 21 87 22
REMARK SMILES IDX 86 23 42 25 74 26 54 27 73 28 55 29 58 30 72 31 91 32 56 33
REMARK SMILES IDX 57 34 71 36 92 37 59 38 43 39 44 40 52 41 45 42 46 43 50 44
REMARK SMILES IDX 53 45 47 46 48 47 51 48 49 49 75 50 76 51 84 52 77 53 78 54
REMARK SMILES IDX 82 55 85 56 79 57 80 58 83 59 81 60 60 61 61 62 69 63 62 64
REMARK SMILES IDX 63 65 67 66 70 67 64 68 65 69 68 70 66 71 7 72 8 73 9 74
REMARK SMILES IDX 10 75 11 76 12 77 13 78 14 79 15 80 19 81 16 82 18 83 17 84
REMARK SMILES IDX 20 85 21 86 32 87 22 88 23 89 31 90 33 91 24 92 25 93 26 94
REMARK SMILES IDX 30 95 27 96 29 97 28 98
REMARK H PARENT 90 24 58 35
REMARK Flexibility Score: inf
ROOT
ATOM      1  O   UNL A   1      33.305  29.403  24.893  1.00  0.00    -0.374 OA
ENDROOT
BRANCH   1   2
ATOM      2  C   UNL A   1      31.923  29.570  25.198  1.00  0.00     0.202 C 
BRANCH   2   3
ATOM      3  C   UNL A   1      31.555  30.814  26.006  1.00  0.00     0.261 C 
BRANCH   3   4
ATOM      4  O   UNL A   1      32.344  30.890  27.203  1.00  0.00    -0.460 OA
BRANCH   4   5
ATOM      5  C   UNL A   1      33.318  31.767  27.531  1.00  0.00     0.338 C 
ATOM      6  O   UNL A   1      33.094  32.965  27.372  1.00  0.00    -0.246 OA
BRANCH   5   7
ATOM      7  C   UNL A   1      34.654  31.377  28.079  1.00  0.00     0.060 A 
ATOM      8  C   UNL A   1      35.038  30.088  28.443  1.00  0.00     0.016 A 
ATOM      9  C   UNL A   1      35.624  32.393  28.176  1.00  0.00     0.016 A 
ATOM     10  C   UNL A   1      36.328  29.784  28.816  1.00  0.00     0.010 A 
ATOM     11  C   UNL A   1      36.923  32.115  28.614  1.00  0.00     0.010 A 
ATOM     12  C   UNL A   1      37.263  30.801  28.931  1.00  0.00    -0.014 A 
BRANCH  12  13
ATOM     13  C   UNL A   1      38.498  30.413  29.615  1.00  0.00     0.031 A 
ATOM     14  C   UNL A   1      38.624  30.813  31.050  1.00  0.00     0.074 A 
ATOM     15  C   UNL A   1      39.287  29.490  29.046  1.00  0.00     0.049 A 
ATOM     16  N   UNL A   1      39.544  30.505  31.919  1.00  0.00    -0.248 NA
ATOM     17  C   UNL A   1      37.525  31.632  31.598  1.00  0.00     0.031 C 
ATOM     18  C   UNL A   1      39.063  28.891  27.728  1.00  0.00     0.029 A 
ATOM     19  N   UNL A   1      40.386  28.839  29.531  1.00  0.00    -0.354 N 
ATOM     20  C   UNL A   1      39.152  31.111  33.103  1.00  0.00     0.074 A 
ATOM     21  C   UNL A   1      37.895  31.777  32.858  1.00  0.00     0.031 C 
ATOM     22  C   UNL A   1      39.984  27.936  27.521  1.00  0.00     0.029 A 
ATOM     23  C   UNL A   1      40.893  27.906  28.661  1.00  0.00     0.049 A 
ATOM     24  H   UNL A   1      40.774  29.020  30.417  1.00  0.00     0.167 HD
ATOM     25  C   UNL A   1      39.814  31.127  34.280  1.00  0.00     0.037 A 
ATOM     26  C   UNL A   1      41.993  27.142  28.786  1.00  0.00     0.037 A 
ATOM     27  C   UNL A   1      41.075  30.468  34.465  1.00  0.00     0.049 A 
ATOM     28  C   UNL A   1      42.788  27.285  30.057  1.00  0.00     0.074 A 
ATOM     29  C   UNL A   1      41.933  30.511  35.545  1.00  0.00     0.029 A 
ATOM     30  N   UNL A   1      41.659  29.637  33.514  1.00  0.00    -0.354 N 
ATOM     31  N   UNL A   1      42.500  27.972  31.138  1.00  0.00    -0.248 NA
ATOM     32  C   UNL A   1      44.069  26.574  30.118  1.00  0.00     0.031 C 
ATOM     33  C   UNL A   1      43.057  29.739  35.229  1.00  0.00     0.029 A 
ATOM     34  C   UNL A   1      42.876  29.173  33.973  1.00  0.00     0.049 A 
ATOM     35  H   UNL A   1      41.262  29.413  32.642  1.00  0.00     0.167 HD
ATOM     36  C   UNL A   1      43.553  27.768  32.016  1.00  0.00     0.074 A 
ATOM     37  C   UNL A   1      44.479  26.875  31.342  1.00  0.00     0.031 C 
ATOM     38  C   UNL A   1      43.750  28.273  33.259  1.00  0.00     0.037 A 
BRANCH  25  39
ATOM     39  C   UNL A   1      39.237  31.990  35.361  1.00  0.00     0.064 A 
ATOM     40  C   UNL A   1      39.559  33.350  35.489  1.00  0.00     0.173 A 
ATOM     41  C   UNL A   1      38.428  31.412  36.350  1.00  0.00     0.173 A 
ATOM     42  F   UNL A   1      40.368  33.940  34.595  1.00  0.00    -0.203 F 
ATOM     43  C   UNL A   1      39.117  34.090  36.585  1.00  0.00     0.198 A 
ATOM     44  C   UNL A   1      37.969  32.159  37.431  1.00  0.00     0.198 A 
ATOM     45  F   UNL A   1      38.109  30.110  36.287  1.00  0.00    -0.203 F 
ATOM     46  F   UNL A   1      39.496  35.368  36.726  1.00  0.00    -0.200 F 
ATOM     47  C   UNL A   1      38.323  33.494  37.554  1.00  0.00     0.200 A 
ATOM     48  F   UNL A   1      37.209  31.579  38.370  1.00  0.00    -0.200 F 
ATOM     49  F   UNL A   1      37.919  34.200  38.619  1.00  0.00    -0.200 F 
ENDBRANCH  25  39
BRANCH  26  50
ATOM     50  C   UNL A   1      42.421  26.249  27.678  1.00  0.00     0.064 A 
ATOM     51  C   UNL A   1      43.379  26.653  26.738  1.00  0.00     0.173 A 
ATOM     52  C   UNL A   1      41.874  24.963  27.531  1.00  0.00     0.173 A 
ATOM     53  F   UNL A   1      43.918  27.878  26.815  1.00  0.00    -0.203 F 
ATOM     54  C   UNL A   1      43.766  25.812  25.694  1.00  0.00     0.198 A 
ATOM     55  C   UNL A   1      42.283  24.113  26.507  1.00  0.00     0.198 A 
ATOM     56  F   UNL A   1      40.947  24.524  28.396  1.00  0.00    -0.203 F 
ATOM     57  F   UNL A   1      44.654  26.239  24.786  1.00  0.00    -0.200 F 
ATOM     58  C   UNL A   1      43.223  24.540  25.584  1.00  0.00     0.200 A 
ATOM     59  F   UNL A   1      41.764  22.881  26.414  1.00  0.00    -0.200 F 
ATOM     60  F   UNL A   1      43.599  23.731  24.583  1.00  0.00    -0.200 F 
ENDBRANCH  26  50
BRANCH  38  61
ATOM     61  C   UNL A   1      44.991  27.836  33.971  1.00  0.00     0.064 A 
ATOM     62  C   UNL A   1      46.189  28.554  33.864  1.00  0.00     0.173 A 
ATOM     63  C   UNL A   1      44.960  26.712  34.809  1.00  0.00     0.173 A 
ATOM     64  F   UNL A   1      46.264  29.628  33.062  1.00  0.00    -0.203 F 
ATOM     65  C   UNL A   1      47.323  28.148  34.557  1.00  0.00     0.198 A 
ATOM     66  C   UNL A   1      46.089  26.326  35.522  1.00  0.00     0.198 A 
ATOM     67  F   UNL A   1      43.831  26.001  34.946  1.00  0.00    -0.203 F 
ATOM     68  F   UNL A   1      48.473  28.823  34.410  1.00  0.00    -0.200 F 
ATOM     69  C   UNL A   1      47.270  27.040  35.391  1.00  0.00     0.200 A 
ATOM     70  F   UNL A   1      46.033  25.264  36.336  1.00  0.00    -0.200 F 
ATOM     71  F   UNL A   1      48.363  26.656  36.064  1.00  0.00    -0.200 F 
ENDBRANCH  38  61
ENDBRANCH  12  13
ENDBRANCH   5   7
ENDBRANCH   4   5
ENDBRANCH   3   4
ENDBRANCH   2   3
ENDBRANCH   1   2
BRANCH   1  72
ATOM     72  C   UNL A   1      33.757  28.060  24.723  1.00  0.00     0.202 C 
BRANCH  72  73
ATOM     73  C   UNL A   1      33.561  27.228  25.995  1.00  0.00     0.261 C 
BRANCH  73  74
ATOM     74  O   UNL A   1      32.928  25.964  25.719  1.00  0.00    -0.462 OA
BRANCH  74  75
ATOM     75  C   UNL A   1      31.583  25.888  25.880  1.00  0.00     0.329 C 
ATOM     76  O   UNL A   1      30.967  26.297  26.859  1.00  0.00    -0.250 OA
BRANCH  75  77
ATOM     77  C   UNL A   1      30.874  25.334  24.639  1.00  0.00     0.206 C 
BRANCH  77  78
ATOM     78  C   UNL A   1      30.778  26.482  23.572  1.00  0.00     0.073 C 
BRANCH  78  79
ATOM     79  C   UNL A   1      29.485  27.269  23.332  1.00  0.00    -0.045 A 
ATOM     80  C   UNL A   1      29.420  28.541  22.748  1.00  0.00     0.004 A 
ATOM     81  C   UNL A   1      28.283  26.754  23.845  1.00  0.00     0.004 A 
ATOM     82  C   UNL A   1      28.235  29.286  22.710  1.00  0.00     0.000 A 
ATOM     83  C   UNL A   1      27.087  27.483  23.786  1.00  0.00     0.000 A 
ATOM     84  C   UNL A   1      27.064  28.757  23.230  1.00  0.00     0.000 A 
ENDBRANCH  78  79
ENDBRANCH  77  78
BRANCH  77  85
ATOM     85  N   UNL A   1      31.383  24.061  24.101  1.00  0.00    -0.278 N 
ATOM     86  C   UNL A   1      31.277  22.941  24.913  1.00  0.00     0.267 C 
ATOM     87  C   UNL A   1      32.375  23.931  23.145  1.00  0.00     0.149 C 
ATOM     88  O   UNL A   1      30.851  22.905  26.067  1.00  0.00    -0.268 OA
ATOM     89  C   UNL A   1      31.959  21.786  24.302  1.00  0.00     0.081 C 
ATOM     90  S   UNL A   1      32.583  22.230  22.770  1.00  0.00    -0.054 SA
ATOM     91  S   UNL A   1      33.366  25.072  22.438  1.00  0.00    -0.052 S 
ATOM     92  C   UNL A   1      32.142  20.637  24.964  1.00  0.00     0.029 C 
BRANCH  92  93
ATOM     93  C   UNL A   1      32.913  19.534  24.400  1.00  0.00    -0.021 A 
ATOM     94  C   UNL A   1      32.313  18.622  23.530  1.00  0.00     0.028 A 
ATOM     95  C   UNL A   1      34.220  19.327  24.824  1.00  0.00     0.028 A 
ATOM     96  C   UNL A   1      33.038  17.507  23.160  1.00  0.00     0.111 A 
ATOM     97  C   UNL A   1      34.865  18.185  24.387  1.00  0.00     0.111 A 
ATOM     98  N   UNL A   1      34.302  17.268  23.570  1.00  0.00    -0.265 NA
ENDBRANCH  92  93
ENDBRANCH  77  85
ENDBRANCH  75  77
ENDBRANCH  74  75
ENDBRANCH  73  74
ENDBRANCH  72  73
ENDBRANCH   1  72
TORSDOF 18
ENDMDL
MODEL 2
REMARK VINA RESULT:     -12.3      1.738      2.349
REMARK SMILES O=C(OCCOCCOC(=O)[C@@H](Cc1ccccc1)N1C(=O)/C(=C/c2ccncc2)SC1=S)c1ccc(-c2c3nc(c(-c4c(F)c(F)c(F)c(F)c4F)c4ccc([nH]4)c(-c4c(F)c(F)c(F)c(F)c4F)c4nc(c(-c5c(F)c(F)c(F)c(F)c5F)c5ccc2[nH]5)C=C4)C=C3)cc1
REMARK SMILES IDX 6 1 5 2 4 3 3 4 2 5 1 6 34 7 35 8 96 9 36 10 95 11 37 12
REMARK SMILES IDX 38 13 39 14 89 15 40 16 94 17 88 18 90 19 41 20 93 21 87 22
REMARK SMILES IDX 86 23 42 25 74 26 54 27 73 28 55 29 58 30 72 31 91 32 56 33
REMARK SMILES IDX 57 34 71 36 92 37 59 38 43 39 44 40 52 41 45 42 46 43 50 44
REMARK SMILES IDX 53 45 47 46 48 47 51 48 49 49 75 50 76 51 84 52 77 53 78 54
REMARK SMILES IDX 82 55 85 56 79 57 80 58 83 59 81 60 60 61 61 62 69 63 62 64
REMARK SMILES IDX 63 65 67 66 70 67 64 68 65 69 68 70 66 71 7 72 8 73 9 74
REMARK SMILES IDX 10 75 11 76 12 77 13 78 14 79 15 80 19 81 16 82 18 83 17 84
REMARK SMILES IDX 20 85 21 86 32 87 22 88 23 89 31 90 33 91 24 92 25 93 26 94
REMARK SMILES IDX 30 95 27 96 29 97 28 98
REMARK H PARENT 90 24 58 35
REMARK Flexibility Score: inf
ROOT
ATOM      1  O   UNL A   1      31.335  29.407  26.954  1.00  0.00    -0.374 OA
ENDROOT
BRANCH   1   2
ATOM      2  C   UNL A   1      32.266  30.479  26.818  1.00  0.00     0.202 C 
BRANCH   2   3
ATOM      3  C   UNL A   1      31.707  31.888  27.012  1.00  0.00     0.261 C 
BRANCH   3   4
ATOM      4  O   UNL A   1      32.763  32.859  26.979  1.00  0.00    -0.460 OA
BRANCH   4   5
ATOM      5  C   UNL A   1      33.486  33.372  27.998  1.00  0.00     0.338 C 
ATOM      6  O   UNL A   1      33.091  34.412  28.522  1.00  0.00    -0.246 OA
BRANCH   5   7
ATOM      7  C   UNL A   1      34.738  32.756  28.538  1.00  0.00     0.060 A 
ATOM      8  C   UNL A   1      34.839  31.488  29.105  1.00  0.00     0.016 A 
ATOM      9  C   UNL A   1      35.925  33.502  28.402  1.00  0.00     0.016 A 
ATOM     10  C   UNL A   1      36.050  30.937  29.460  1.00  0.00     0.010 A 
ATOM     11  C   UNL A   1      37.157  32.984  28.816  1.00  0.00     0.010 A 
ATOM     12  C   UNL A   1      37.205  31.695  29.344  1.00  0.00    -0.014 A 
BRANCH  12  13
ATOM     13  C   UNL A   1      38.372  31.128  30.021  1.00  0.00     0.031 A 
ATOM     14  C   UNL A   1      38.495  31.400  31.486  1.00  0.00     0.074 A 
ATOM     15  C   UNL A   1      39.079  30.173  29.399  1.00  0.00     0.049 A 
ATOM     16  N   UNL A   1      39.353  30.931  32.349  1.00  0.00    -0.248 NA
ATOM     17  C   UNL A   1      37.471  32.285  32.074  1.00  0.00     0.031 C 
ATOM     18  C   UNL A   1      38.834  29.704  28.032  1.00  0.00     0.029 A 
ATOM     19  N   UNL A   1      40.089  29.375  29.854  1.00  0.00    -0.354 N 
ATOM     20  C   UNL A   1      38.989  31.482  33.568  1.00  0.00     0.074 A 
ATOM     21  C   UNL A   1      37.816  32.293  33.350  1.00  0.00     0.031 C 
ATOM     22  C   UNL A   1      39.657  28.677  27.770  1.00  0.00     0.029 A 
ATOM     23  C   UNL A   1      40.523  28.463  28.924  1.00  0.00     0.049 A 
ATOM     24  H   UNL A   1      40.467  29.445  30.760  1.00  0.00     0.167 HD
ATOM     25  C   UNL A   1      39.614  31.337  34.757  1.00  0.00     0.037 A 
ATOM     26  C   UNL A   1      41.534  27.580  29.012  1.00  0.00     0.037 A 
ATOM     27  C   UNL A   1      40.794  30.536  34.916  1.00  0.00     0.049 A 
ATOM     28  C   UNL A   1      42.301  27.540  30.306  1.00  0.00     0.074 A 
ATOM     29  C   UNL A   1      41.618  30.405  36.015  1.00  0.00     0.029 A 
ATOM     30  N   UNL A   1      41.316  29.724  33.915  1.00  0.00    -0.354 N 
ATOM     31  N   UNL A   1      42.053  28.168  31.432  1.00  0.00    -0.248 NA
ATOM     32  C   UNL A   1      43.499  26.695  30.339  1.00  0.00     0.031 C 
ATOM     33  C   UNL A   1      42.666  29.545  35.663  1.00  0.00     0.029 A 
ATOM     34  C   UNL A   1      42.465  29.100  34.362  1.00  0.00     0.049 A 
ATOM     35  H   UNL A   1      40.926  29.611  33.019  1.00  0.00     0.167 HD
ATOM     36  C   UNL A   1      43.052  27.787  32.315  1.00  0.00     0.074 A 
ATOM     37  C   UNL A   1      43.901  26.856  31.592  1.00  0.00     0.031 C 
ATOM     38  C   UNL A   1      43.262  28.171  33.598  1.00  0.00     0.037 A 
BRANCH  25  39
ATOM     39  C   UNL A   1      39.096  32.170  35.890  1.00  0.00     0.064 A 
ATOM     40  C   UNL A   1      39.512  33.494  36.100  1.00  0.00     0.173 A 
ATOM     41  C   UNL A   1      38.247  31.589  36.844  1.00  0.00     0.173 A 
ATOM     42  F   UNL A   1      40.361  34.079  35.242  1.00  0.00    -0.203 F 
ATOM     43  C   UNL A   1      39.121  34.193  37.241  1.00  0.00     0.198 A 
ATOM     44  C   UNL A   1      37.840  32.299  37.970  1.00  0.00     0.198 A 
ATOM     45  F   UNL A   1      37.839  30.319  36.702  1.00  0.00    -0.203 F 
ATOM     46  F   UNL A   1      39.587  35.431  37.459  1.00  0.00    -0.200 F 
ATOM     47  C   UNL A   1      38.286  33.595  38.174  1.00  0.00     0.200 A 
ATOM     48  F   UNL A   1      37.040  31.716  38.874  1.00  0.00    -0.200 F 
ATOM     49  F   UNL A   1      37.930  34.261  39.281  1.00  0.00    -0.200 F 
ENDBRANCH  25  39
BRANCH  26  50
ATOM     50  C   UNL A   1      41.901  26.735  27.845  1.00  0.00     0.064 A 
ATOM     51  C   UNL A   1      42.885  27.134  26.931  1.00  0.00     0.173 A 
ATOM     52  C   UNL A   1      41.267  25.502  27.616  1.00  0.00     0.173 A 
ATOM     53  F   UNL A   1      43.507  28.311  27.087  1.00  0.00    -0.203 F 
ATOM     54  C   UNL A   1      43.215  26.340  25.831  1.00  0.00     0.198 A 
ATOM     55  C   UNL A   1      41.618  24.696  26.536  1.00  0.00     0.198 A 
ATOM     56  F   UNL A   1      40.312  25.072  28.452  1.00  0.00    -0.203 F 
ATOM     57  F   UNL A   1      44.131  26.764  24.950  1.00  0.00    -0.200 F 
ATOM     58  C   UNL A   1      42.586  25.118  25.640  1.00  0.00     0.200 A 
ATOM     59  F   UNL A   1      41.015  23.511  26.363  1.00  0.00    -0.200 F 
ATOM     60  F   UNL A   1      42.906  24.353  24.586  1.00  0.00    -0.200 F 
ENDBRANCH  26  50
BRANCH  38  61
ATOM     61  C   UNL A   1      44.430  27.552  34.300  1.00  0.00     0.064 A 
ATOM     62  C   UNL A   1      44.320  26.318  34.955  1.00  0.00     0.173 A 
ATOM     63  C   UNL A   1      45.682  28.181  34.268  1.00  0.00     0.173 A 
ATOM     64  F   UNL A   1      43.136  25.690  35.020  1.00  0.00    -0.203 F 
ATOM     65  C   UNL A   1      45.424  25.745  35.576  1.00  0.00     0.198 A 
ATOM     66  C   UNL A   1      46.789  27.591  34.866  1.00  0.00     0.198 A 
ATOM     67  F   UNL A   1      45.832  29.359  33.644  1.00  0.00    -0.203 F 
ATOM     68  F   UNL A   1      45.292  24.584  36.235  1.00  0.00    -0.200 F 
ATOM     69  C   UNL A   1      46.658  26.377  35.524  1.00  0.00     0.200 A 
ATOM     70  F   UNL A   1      47.983  28.195  34.803  1.00  0.00    -0.200 F 
ATOM     71  F   UNL A   1      47.722  25.818  36.116  1.00  0.00    -0.200 F 
ENDBRANCH  38  61
ENDBRANCH  12  13
ENDBRANCH   5   7
ENDBRANCH   4   5
ENDBRANCH   3   4
ENDBRANCH   2   3
ENDBRANCH   1   2
BRANCH   1  72
ATOM     72  C   UNL A   1      31.856  28.179  27.459  1.00  0.00     0.202 C 
BRANCH  72  73
ATOM     73  C   UNL A   1      31.173  26.965  26.820  1.00  0.00     0.261 C 
BRANCH  73  74
ATOM     74  O   UNL A   1      31.960  25.768  26.962  1.00  0.00    -0.462 OA
BRANCH  74  75
ATOM     75  C   UNL A   1      31.591  24.684  26.233  1.00  0.00     0.329 C 
ATOM     76  O   UNL A   1      30.512  24.108  26.325  1.00  0.00    -0.250 OA
BRANCH  75  77
ATOM     77  C   UNL A   1      32.633  24.309  25.173  1.00  0.00     0.206 C 
BRANCH  77  78
ATOM     78  C   UNL A   1      33.771  25.390  25.196  1.00  0.00     0.073 C 
BRANCH  78  79
ATOM     79  C   UNL A   1      33.824  26.544  24.189  1.00  0.00    -0.045 A 
ATOM     80  C   UNL A   1      33.914  27.899  24.530  1.00  0.00     0.004 A 
ATOM     81  C   UNL A   1      33.638  26.252  22.827  1.00  0.00     0.004 A 
ATOM     82  C   UNL A   1      33.784  28.919  23.579  1.00  0.00     0.000 A 
ATOM     83  C   UNL A   1      33.534  27.268  21.866  1.00  0.00     0.000 A 
ATOM     84  C   UNL A   1      33.594  28.605  22.243  1.00  0.00     0.000 A 
ENDBRANCH  78  79
ENDBRANCH  77  78
BRANCH  77  85
ATOM     85  N   UNL A   1      33.127  22.922  25.194  1.00  0.00    -0.278 N 
ATOM     86  C   UNL A   1      32.574  22.037  24.279  1.00  0.00     0.267 C 
ATOM     87  C   UNL A   1      33.669  22.278  26.292  1.00  0.00     0.149 C 
ATOM     88  O   UNL A   1      31.669  22.274  23.480  1.00  0.00    -0.268 OA
ATOM     89  C   UNL A   1      33.057  20.666  24.520  1.00  0.00     0.081 C 
ATOM     90  S   UNL A   1      34.183  20.670  25.811  1.00  0.00    -0.054 SA
ATOM     91  S   UNL A   1      33.804  22.759  27.884  1.00  0.00    -0.052 S 
ATOM     92  C   UNL A   1      32.543  19.608  23.880  1.00  0.00     0.029 C 
BRANCH  92  93
ATOM     93  C   UNL A   1      32.943  18.242  24.199  1.00  0.00    -0.021 A 
ATOM     94  C   UNL A   1      33.835  17.554  23.376  1.00  0.00     0.028 A 
ATOM     95  C   UNL A   1      32.340  17.586  25.265  1.00  0.00     0.028 A 
ATOM     96  C   UNL A   1      34.048  16.213  23.630  1.00  0.00     0.111 A 
ATOM     97  C   UNL A   1      32.629  16.246  25.442  1.00  0.00     0.111 A 
ATOM     98  N   UNL A   1      33.464  15.543  24.646  1.00  0.00    -0.265 NA
ENDBRANCH  92  93
ENDBRANCH  77  85
ENDBRANCH  75  77
ENDBRANCH  74  75
ENDBRANCH  73  74
ENDBRANCH  72  73
ENDBRANCH   1  72
TORSDOF 18
ENDMDL
MODEL 3
REMARK VINA RESULT:     -12.2      1.661      2.596
REMARK SMILES O=C(OCCOCCOC(=O)[C@@H](Cc1ccccc1)N1C(=O)/C(=C/c2ccncc2)SC1=S)c1ccc(-c2c3nc(c(-c4c(F)c(F)c(F)c(F)c4F)c4ccc([nH]4)c(-c4c(F)c(F)c(F)c(F)c4F)c4nc(c(-c5c(F)c(F)c(F)c(F)c5F)c5ccc2[nH]5)C=C4)C=C3)cc1
REMARK SMILES IDX 6 1 5 2 4 3 3 4 2 5 1 6 34 7 35 8 96 9 36 10 95 11 37 12
REMARK SMILES IDX 38 13 39 14 89 15 40 16 94 17 88 18 90 19 41 20 93 21 87 22
REMARK SMILES IDX 86 23 42 25 74 26 54 27 73 28 55 29 58 30 72 31 91 32 56 33
REMARK SMILES IDX 57 34 71 36 92 37 59 38 43 39 44 40 52 41 45 42 46 43 50 44
REMARK SMILES IDX 53 45 47 46 48 47 51 48 49 49 75 50 76 51 84 52 77 53 78 54
REMARK SMILES IDX 82 55 85 56 79 57 80 58 83 59 81 60 60 61 61 62 69 63 62 64
REMARK SMILES IDX 63 65 67 66 70 67 64 68 65 69 68 70 66 71 7 72 8 73 9 74
REMARK SMILES IDX 10 75 11 76 12 77 13 78 14 79 15 80 19 81 16 82 18 83 17 84
REMARK SMILES IDX 20 85 21 86 32 87 22 88 23 89 31 90 33 91 24 92 25 93 26 94
REMARK SMILES IDX 30 95 27 96 29 97 28 98
REMARK H PARENT 90 24 58 35
REMARK Flexibility Score: inf
ROOT
ATOM      1  O   UNL A   1      31.841  30.591  27.195  1.00  0.00    -0.374 OA
ENDROOT
BRANCH   1   2
ATOM      2  C   UNL A   1      31.416  31.914  26.876  1.00  0.00     0.202 C 
BRANCH   2   3
ATOM      3  C   UNL A   1      32.504  32.988  26.865  1.00  0.00     0.261 C 
BRANCH   3   4
ATOM      4  O   UNL A   1      32.153  34.070  27.740  1.00  0.00    -0.460 OA
BRANCH   4   5
ATOM      5  C   UNL A   1      32.931  34.756  28.606  1.00  0.00     0.338 C 
ATOM      6  O   UNL A   1      32.605  35.907  28.891  1.00  0.00    -0.246 OA
BRANCH   5   7
ATOM      7  C   UNL A   1      34.166  34.207  29.248  1.00  0.00     0.060 A 
ATOM      8  C   UNL A   1      35.464  34.346  28.761  1.00  0.00     0.016 A 
ATOM      9  C   UNL A   1      34.004  33.548  30.482  1.00  0.00     0.016 A 
ATOM     10  C   UNL A   1      36.564  33.926  29.475  1.00  0.00     0.010 A 
ATOM     11  C   UNL A   1      35.106  33.059  31.192  1.00  0.00     0.010 A 
ATOM     12  C   UNL A   1      36.385  33.256  30.675  1.00  0.00    -0.014 A 
BRANCH  12  13
ATOM     13  C   UNL A   1      37.589  32.602  31.188  1.00  0.00     0.031 A 
ATOM     14  C   UNL A   1      37.980  32.926  32.595  1.00  0.00     0.074 A 
ATOM     15  C   UNL A   1      38.088  31.552  30.520  1.00  0.00     0.049 A 
ATOM     16  N   UNL A   1      38.921  32.410  33.335  1.00  0.00    -0.248 NA
ATOM     17  C   UNL A   1      37.157  33.939  33.284  1.00  0.00     0.031 C 
ATOM     18  C   UNL A   1      37.575  31.049  29.243  1.00  0.00     0.029 A 
ATOM     19  N   UNL A   1      39.079  30.674  30.855  1.00  0.00    -0.354 N 
ATOM     20  C   UNL A   1      38.820  33.051  34.560  1.00  0.00     0.074 A 
ATOM     21  C   UNL A   1      37.709  33.969  34.484  1.00  0.00     0.031 C 
ATOM     22  C   UNL A   1      38.242  29.931  28.915  1.00  0.00     0.029 A 
ATOM     23  C   UNL A   1      39.263  29.681  29.925  1.00  0.00     0.049 A 
ATOM     24  H   UNL A   1      39.609  30.746  31.682  1.00  0.00     0.167 HD
ATOM     25  C   UNL A   1      39.617  32.896  35.639  1.00  0.00     0.037 A 
ATOM     26  C   UNL A   1      40.187  28.703  29.903  1.00  0.00     0.037 A 
ATOM     27  C   UNL A   1      40.726  31.985  35.655  1.00  0.00     0.049 A 
ATOM     28  C   UNL A   1      41.151  28.641  31.057  1.00  0.00     0.074 A 
ATOM     29  C   UNL A   1      41.705  31.818  36.613  1.00  0.00     0.029 A 
ATOM     30  N   UNL A   1      40.994  31.078  34.635  1.00  0.00    -0.354 N 
ATOM     31  N   UNL A   1      41.155  29.343  32.168  1.00  0.00    -0.248 NA
ATOM     32  C   UNL A   1      42.252  27.679  30.948  1.00  0.00     0.031 C 
ATOM     33  C   UNL A   1      42.593  30.839  36.150  1.00  0.00     0.029 A 
ATOM     34  C   UNL A   1      42.137  30.359  34.929  1.00  0.00     0.049 A 
ATOM     35  H   UNL A   1      40.451  30.965  33.823  1.00  0.00     0.167 HD
ATOM     36  C   UNL A   1      42.247  28.901  32.899  1.00  0.00     0.074 A 
ATOM     37  C   UNL A   1      42.871  27.854  32.108  1.00  0.00     0.031 C 
ATOM     38  C   UNL A   1      42.704  29.318  34.105  1.00  0.00     0.037 A 
BRANCH  25  39
ATOM     39  C   UNL A   1      39.378  33.828  36.788  1.00  0.00     0.064 A 
ATOM     40  C   UNL A   1      39.935  35.115  36.839  1.00  0.00     0.173 A 
ATOM     41  C   UNL A   1      38.660  33.379  37.906  1.00  0.00     0.173 A 
ATOM     42  F   UNL A   1      40.670  35.575  35.815  1.00  0.00    -0.203 F 
ATOM     43  C   UNL A   1      39.810  35.904  37.982  1.00  0.00     0.198 A 
ATOM     44  C   UNL A   1      38.517  34.179  39.036  1.00  0.00     0.198 A 
ATOM     45  F   UNL A   1      38.126  32.148  37.917  1.00  0.00    -0.203 F 
ATOM     46  F   UNL A   1      40.411  37.100  38.039  1.00  0.00    -0.200 F 
ATOM     47  C   UNL A   1      39.101  35.435  39.078  1.00  0.00     0.200 A 
ATOM     48  F   UNL A   1      37.838  33.720  40.097  1.00  0.00    -0.200 F 
ATOM     49  F   UNL A   1      39.002  36.184  40.185  1.00  0.00    -0.200 F 
ENDBRANCH  25  39
BRANCH  26  50
ATOM     50  C   UNL A   1      40.272  27.772  28.747  1.00  0.00     0.064 A 
ATOM     51  C   UNL A   1      39.622  26.531  28.755  1.00  0.00     0.173 A 
ATOM     52  C   UNL A   1      41.013  28.107  27.601  1.00  0.00     0.173 A 
ATOM     53  F   UNL A   1      38.919  26.149  29.830  1.00  0.00    -0.203 F 
ATOM     54  C   UNL A   1      39.717  25.659  27.669  1.00  0.00     0.198 A 
ATOM     55  C   UNL A   1      41.083  27.250  26.506  1.00  0.00     0.198 A 
ATOM     56  F   UNL A   1      41.663  29.279  27.539  1.00  0.00    -0.203 F 
ATOM     57  F   UNL A   1      39.120  24.461  27.720  1.00  0.00    -0.200 F 
ATOM     58  C   UNL A   1      40.441  26.023  26.543  1.00  0.00     0.200 A 
ATOM     59  F   UNL A   1      41.773  27.613  25.416  1.00  0.00    -0.200 F 
ATOM     60  F   UNL A   1      40.528  25.187  25.498  1.00  0.00    -0.200 F 
ENDBRANCH  26  50
BRANCH  38  61
ATOM     61  C   UNL A   1      43.907  28.613  34.646  1.00  0.00     0.064 A 
ATOM     62  C   UNL A   1      45.205  29.081  34.398  1.00  0.00     0.173 A 
ATOM     63  C   UNL A   1      43.750  27.486  35.465  1.00  0.00     0.173 A 
ATOM     64  F   UNL A   1      45.398  30.149  33.608  1.00  0.00    -0.203 F 
ATOM     65  C   UNL A   1      46.308  28.429  34.934  1.00  0.00     0.198 A 
ATOM     66  C   UNL A   1      44.856  26.854  36.023  1.00  0.00     0.198 A 
ATOM     67  F   UNL A   1      42.526  27.010  35.735  1.00  0.00    -0.203 F 
ATOM     68  F   UNL A   1      47.544  28.865  34.652  1.00  0.00    -0.200 F 
ATOM     69  C   UNL A   1      46.133  27.321  35.752  1.00  0.00     0.200 A 
ATOM     70  F   UNL A   1      44.684  25.793  36.823  1.00  0.00    -0.200 F 
ATOM     71  F   UNL A   1      47.198  26.700  36.275  1.00  0.00    -0.200 F 
ENDBRANCH  38  61
ENDBRANCH  12  13
ENDBRANCH   5   7
ENDBRANCH   4   5
ENDBRANCH   3   4
ENDBRANCH   2   3
ENDBRANCH   1   2
BRANCH   1  72
ATOM     72  C   UNL A   1      33.137  30.214  26.732  1.00  0.00     0.202 C 
BRANCH  72  73
ATOM     73  C   UNL A   1      33.245  28.702  26.509  1.00  0.00     0.261 C 
BRANCH  73  74
ATOM     74  O   UNL A   1      32.381  28.252  25.448  1.00  0.00    -0.462 OA
BRANCH  74  75
ATOM     75  C   UNL A   1      31.424  27.342  25.762  1.00  0.00     0.329 C 
ATOM     76  O   UNL A   1      31.010  27.118  26.894  1.00  0.00    -0.250 OA
BRANCH  75  77
ATOM     77  C   UNL A   1      30.810  26.686  24.520  1.00  0.00     0.206 C 
BRANCH  77  78
ATOM     78  C   UNL A   1      30.771  27.752  23.367  1.00  0.00     0.073 C 
BRANCH  78  79
ATOM     79  C   UNL A   1      29.675  28.819  23.276  1.00  0.00    -0.045 A 
ATOM     80  C   UNL A   1      29.869  30.187  23.504  1.00  0.00     0.004 A 
ATOM     81  C   UNL A   1      28.347  28.399  23.081  1.00  0.00     0.004 A 
ATOM     82  C   UNL A   1      28.802  31.091  23.577  1.00  0.00     0.000 A 
ATOM     83  C   UNL A   1      27.277  29.303  23.126  1.00  0.00     0.000 A 
ATOM     84  C   UNL A   1      27.503  30.650  23.388  1.00  0.00     0.000 A 
ENDBRANCH  78  79
ENDBRANCH  77  78
BRANCH  77  85
ATOM     85  N   UNL A   1      31.372  25.387  24.112  1.00  0.00    -0.278 N 
ATOM     86  C   UNL A   1      31.089  24.293  24.916  1.00  0.00     0.267 C 
ATOM     87  C   UNL A   1      32.519  25.208  23.358  1.00  0.00     0.149 C 
ATOM     88  O   UNL A   1      30.458  24.298  25.973  1.00  0.00    -0.268 OA
ATOM     89  C   UNL A   1      31.837  23.105  24.466  1.00  0.00     0.081 C 
ATOM     90  S   UNL A   1      32.743  23.493  23.065  1.00  0.00    -0.054 SA
ATOM     91  S   UNL A   1      33.653  26.306  22.819  1.00  0.00    -0.052 S 
ATOM     92  C   UNL A   1      31.864  21.971  25.176  1.00  0.00     0.029 C 
BRANCH  92  93
ATOM     93  C   UNL A   1      32.693  20.835  24.787  1.00  0.00    -0.021 A 
ATOM     94  C   UNL A   1      32.154  19.785  24.043  1.00  0.00     0.028 A 
ATOM     95  C   UNL A   1      33.997  20.747  25.262  1.00  0.00     0.028 A 
ATOM     96  C   UNL A   1      32.933  18.662  23.847  1.00  0.00     0.111 A 
ATOM     97  C   UNL A   1      34.699  19.586  25.001  1.00  0.00     0.111 A 
ATOM     98  N   UNL A   1      34.195  18.540  24.310  1.00  0.00    -0.265 NA
ENDBRANCH  92  93
ENDBRANCH  77  85
ENDBRANCH  75  77
ENDBRANCH  74  75
ENDBRANCH  73  74
ENDBRANCH  72  73
ENDBRANCH   1  72
TORSDOF 18
ENDMDL
