MODEL 1
REMARK VINA RESULT:     -11.6      0.000      0.000
REMARK SMILES Cc1cc2nc(SCC(=O)OCCOCCOC(=O)c3ccc(-c4c5nc(c(-c6c(F)c(F)c(F)c(F)c6F)c6ccc([nH]6)c(-c6c(F)c(F)c(F)c(F)c6F)c6nc(c(-c7c(F)c(F)c(F)c(F)c7F)c7ccc4[nH]7)C=C6)C=C5)cc3)n(CC(C)C)c(=O)c2[nH]1
REMARK SMILES IDX 13 1 12 2 11 3 9 4 10 5 8 6 7 7 6 8 1 9 2 10 3 11 91 12 4 13
REMARK SMILES IDX 90 14 5 16 88 17 83 18 89 19 84 20 85 21 86 22 87 23 14 24
REMARK SMILES IDX 15 25 16 26 17 27 18 28 19 29 20 30 21 31 82 32 22 33 81 34
REMARK SMILES IDX 23 35 24 36 25 37 75 38 26 39 80 40 74 41 76 42 27 43 79 44
REMARK SMILES IDX 73 45 72 46 28 48 60 49 40 50 59 51 41 52 44 53 58 54 77 55
REMARK SMILES IDX 42 56 43 57 57 59 78 60 45 61 29 62 30 63 38 64 31 65 32 66
REMARK SMILES IDX 36 67 39 68 33 69 34 70 37 71 35 72 61 73 62 74 70 75 63 76
REMARK SMILES IDX 64 77 68 78 71 79 65 80 66 81 69 82 67 83 46 84 47 85 55 86
REMARK SMILES IDX 48 87 49 88 53 89 56 90 50 91 51 92 54 93 52 94
REMARK H PARENT 91 15 76 47 44 58
REMARK Flexibility Score: inf
ROOT
ATOM      1  C   UNL A   1      40.661  20.903  26.986  1.00  0.00     0.202 C 
ENDROOT
BRANCH   1   2
ATOM      2  C   UNL A   1      39.702  22.073  26.709  1.00  0.00     0.261 C 
BRANCH   2   3
ATOM      3  O   UNL A   1      39.100  22.021  25.384  1.00  0.00    -0.463 OA
BRANCH   3   4
ATOM      4  C   UNL A   1      37.734  21.997  25.340  1.00  0.00     0.316 C 
ATOM      5  O   UNL A   1      37.067  20.984  25.532  1.00  0.00    -0.251 OA
BRANCH   4   6
ATOM      6  C   UNL A   1      37.068  23.310  24.959  1.00  0.00     0.200 C 
BRANCH   6   7
ATOM      7  S   UNL A   1      35.535  23.278  24.066  1.00  0.00    -0.076 SA
BRANCH   7   8
ATOM      8  C   UNL A   1      34.017  23.820  24.787  1.00  0.00     0.172 A 
ATOM      9  C   UNL A   1      31.539  28.357  27.655  1.00  0.00     0.064 C 
ATOM     10  C   UNL A   1      31.969  27.235  26.780  1.00  0.00     0.014 A 
ATOM     11  C   UNL A   1      33.044  27.128  25.908  1.00  0.00     0.052 A 
ATOM     12  N   UNL A   1      31.312  26.019  26.778  1.00  0.00    -0.353 N 
ATOM     13  C   UNL A   1      33.076  25.790  25.487  1.00  0.00     0.097 A 
ATOM     14  C   UNL A   1      32.006  25.136  25.995  1.00  0.00     0.131 A 
ATOM     15  H   UNL A   1      30.478  25.819  27.262  1.00  0.00     0.166 HD
ATOM     16  N   UNL A   1      34.068  25.130  24.786  1.00  0.00    -0.222 NA
ATOM     17  C   UNL A   1      31.793  23.749  25.785  1.00  0.00     0.278 A 
ATOM     18  N   UNL A   1      32.951  23.064  25.342  1.00  0.00    -0.286 N 
ATOM     19  O   UNL A   1      30.707  23.224  26.003  1.00  0.00    -0.267 OA
BRANCH  18  20
ATOM     20  C   UNL A   1      32.827  21.598  25.495  1.00  0.00     0.131 C 
BRANCH  20  21
ATOM     21  C   UNL A   1      32.192  20.830  24.282  1.00  0.00     0.003 C 
ATOM     22  C   UNL A   1      32.322  21.437  22.884  1.00  0.00     0.009 C 
ATOM     23  C   UNL A   1      32.634  19.369  24.256  1.00  0.00     0.009 C 
ENDBRANCH  20  21
ENDBRANCH  18  20
ENDBRANCH   7   8
ENDBRANCH   6   7
ENDBRANCH   4   6
ENDBRANCH   3   4
ENDBRANCH   2   3
ENDBRANCH   1   2
BRANCH   1  24
ATOM     24  O   UNL A   1      41.534  20.617  25.898  1.00  0.00    -0.374 OA
BRANCH  24  25
ATOM     25  C   UNL A   1      42.131  19.334  26.019  1.00  0.00     0.202 C 
BRANCH  25  26
ATOM     26  C   UNL A   1      43.488  19.273  25.347  1.00  0.00     0.261 C 
BRANCH  26  27
ATOM     27  O   UNL A   1      43.785  20.557  24.882  1.00  0.00    -0.460 OA
BRANCH  27  28
ATOM     28  C   UNL A   1      45.089  20.800  24.641  1.00  0.00     0.338 C 
ATOM     29  O   UNL A   1      46.006  20.024  24.510  1.00  0.00    -0.246 OA
BRANCH  28  30
ATOM     30  C   UNL A   1      45.143  22.248  24.801  1.00  0.00     0.060 A 
ATOM     31  C   UNL A   1      45.887  22.645  25.901  1.00  0.00     0.016 A 
ATOM     32  C   UNL A   1      44.090  23.006  24.244  1.00  0.00     0.016 A 
ATOM     33  C   UNL A   1      45.394  23.700  26.620  1.00  0.00     0.010 A 
ATOM     34  C   UNL A   1      43.555  24.003  25.007  1.00  0.00     0.010 A 
ATOM     35  C   UNL A   1      44.190  24.300  26.206  1.00  0.00    -0.014 A 
BRANCH  35  36
ATOM     36  C   UNL A   1      43.797  25.498  26.894  1.00  0.00     0.031 A 
ATOM     37  C   UNL A   1      44.792  26.548  26.620  1.00  0.00     0.074 A 
ATOM     38  C   UNL A   1      42.702  25.611  27.653  1.00  0.00     0.049 A 
ATOM     39  N   UNL A   1      45.813  26.814  27.360  1.00  0.00    -0.248 NA
ATOM     40  C   UNL A   1      44.867  27.109  25.261  1.00  0.00     0.031 C 
ATOM     41  C   UNL A   1      41.561  24.714  27.771  1.00  0.00     0.029 A 
ATOM     42  N   UNL A   1      42.382  26.640  28.475  1.00  0.00    -0.354 N 
ATOM     43  C   UNL A   1      46.533  27.763  26.653  1.00  0.00     0.074 A 
ATOM     44  C   UNL A   1      46.069  27.687  25.297  1.00  0.00     0.031 C 
ATOM     45  C   UNL A   1      40.571  25.341  28.453  1.00  0.00     0.029 A 
ATOM     46  C   UNL A   1      41.073  26.614  28.939  1.00  0.00     0.049 A 
ATOM     47  H   UNL A   1      43.022  27.346  28.722  1.00  0.00     0.167 HD
ATOM     48  C   UNL A   1      47.173  28.749  27.332  1.00  0.00     0.037 A 
ATOM     49  C   UNL A   1      40.480  27.639  29.600  1.00  0.00     0.037 A 
ATOM     50  C   UNL A   1      47.328  28.377  28.721  1.00  0.00     0.049 A 
ATOM     51  C   UNL A   1      41.580  28.456  30.192  1.00  0.00     0.074 A 
ATOM     52  C   UNL A   1      47.996  27.373  29.395  1.00  0.00     0.029 A 
ATOM     53  N   UNL A   1      46.376  28.855  29.588  1.00  0.00    -0.354 N 
ATOM     54  N   UNL A   1      42.373  28.018  31.133  1.00  0.00    -0.248 NA
ATOM     55  C   UNL A   1      42.106  29.562  29.404  1.00  0.00     0.031 C 
ATOM     56  C   UNL A   1      47.154  27.029  30.493  1.00  0.00     0.029 A 
ATOM     57  C   UNL A   1      46.044  27.877  30.485  1.00  0.00     0.049 A 
ATOM     58  H   UNL A   1      45.992  29.762  29.568  1.00  0.00     0.167 HD
ATOM     59  C   UNL A   1      43.633  28.490  30.788  1.00  0.00     0.074 A 
ATOM     60  C   UNL A   1      43.390  29.507  29.769  1.00  0.00     0.031 C 
ATOM     61  C   UNL A   1      44.755  27.796  31.142  1.00  0.00     0.037 A 
BRANCH  48  62
ATOM     62  C   UNL A   1      47.182  30.192  26.881  1.00  0.00     0.064 A 
ATOM     63  C   UNL A   1      48.394  30.903  26.977  1.00  0.00     0.173 A 
ATOM     64  C   UNL A   1      46.031  30.987  26.672  1.00  0.00     0.173 A 
ATOM     65  F   UNL A   1      49.552  30.256  27.179  1.00  0.00    -0.203 F 
ATOM     66  C   UNL A   1      48.432  32.299  26.975  1.00  0.00     0.198 A 
ATOM     67  C   UNL A   1      46.081  32.377  26.621  1.00  0.00     0.198 A 
ATOM     68  F   UNL A   1      44.795  30.486  26.612  1.00  0.00    -0.203 F 
ATOM     69  F   UNL A   1      49.590  32.929  27.210  1.00  0.00    -0.200 F 
ATOM     70  C   UNL A   1      47.274  33.034  26.808  1.00  0.00     0.200 A 
ATOM     71  F   UNL A   1      44.941  33.067  26.477  1.00  0.00    -0.200 F 
ATOM     72  F   UNL A   1      47.299  34.371  26.875  1.00  0.00    -0.200 F 
ENDBRANCH  48  62
BRANCH  49  73
ATOM     73  C   UNL A   1      39.109  28.171  29.391  1.00  0.00     0.064 A 
ATOM     74  C   UNL A   1      38.244  28.372  30.480  1.00  0.00     0.173 A 
ATOM     75  C   UNL A   1      38.721  28.761  28.172  1.00  0.00     0.173 A 
ATOM     76  F   UNL A   1      38.560  27.885  31.689  1.00  0.00    -0.203 F 
ATOM     77  C   UNL A   1      37.081  29.142  30.365  1.00  0.00     0.198 A 
ATOM     78  C   UNL A   1      37.558  29.525  28.056  1.00  0.00     0.198 A 
ATOM     79  F   UNL A   1      39.509  28.693  27.090  1.00  0.00    -0.203 F 
ATOM     80  F   UNL A   1      36.316  29.365  31.443  1.00  0.00    -0.200 F 
ATOM     81  C   UNL A   1      36.745  29.727  29.155  1.00  0.00     0.200 A 
ATOM     82  F   UNL A   1      37.265  30.116  26.889  1.00  0.00    -0.200 F 
ATOM     83  F   UNL A   1      35.666  30.516  29.059  1.00  0.00    -0.200 F 
ENDBRANCH  49  73
BRANCH  61  84
ATOM     84  C   UNL A   1      44.614  26.706  32.170  1.00  0.00     0.064 A 
ATOM     85  C   UNL A   1      44.403  25.351  31.862  1.00  0.00     0.173 A 
ATOM     86  C   UNL A   1      44.906  27.029  33.502  1.00  0.00     0.173 A 
ATOM     87  F   UNL A   1      44.197  24.954  30.600  1.00  0.00    -0.203 F 
ATOM     88  C   UNL A   1      44.476  24.369  32.852  1.00  0.00     0.198 A 
ATOM     89  C   UNL A   1      45.014  26.044  34.479  1.00  0.00     0.198 A 
ATOM     90  F   UNL A   1      45.161  28.303  33.842  1.00  0.00    -0.203 F 
ATOM     91  F   UNL A   1      44.282  23.080  32.536  1.00  0.00    -0.200 F 
ATOM     92  C   UNL A   1      44.797  24.716  34.155  1.00  0.00     0.200 A 
ATOM     93  F   UNL A   1      45.374  26.381  35.725  1.00  0.00    -0.200 F 
ATOM     94  F   UNL A   1      44.929  23.767  35.092  1.00  0.00    -0.200 F 
ENDBRANCH  61  84
ENDBRANCH  35  36
ENDBRANCH  28  30
ENDBRANCH  27  28
ENDBRANCH  26  27
ENDBRANCH  25  26
ENDBRANCH  24  25
ENDBRANCH   1  24
TORSDOF 18
ENDMDL
MODEL 2
REMARK VINA RESULT:     -11.3      3.026      4.626
REMARK SMILES Cc1cc2nc(SCC(=O)OCCOCCOC(=O)c3ccc(-c4c5nc(c(-c6c(F)c(F)c(F)c(F)c6F)c6ccc([nH]6)c(-c6c(F)c(F)c(F)c(F)c6F)c6nc(c(-c7c(F)c(F)c(F)c(F)c7F)c7ccc4[nH]7)C=C6)C=C5)cc3)n(CC(C)C)c(=O)c2[nH]1
REMARK SMILES IDX 13 1 12 2 11 3 9 4 10 5 8 6 7 7 6 8 1 9 2 10 3 11 91 12 4 13
REMARK SMILES IDX 90 14 5 16 88 17 83 18 89 19 84 20 85 21 86 22 87 23 14 24
REMARK SMILES IDX 15 25 16 26 17 27 18 28 19 29 20 30 21 31 82 32 22 33 81 34
REMARK SMILES IDX 23 35 24 36 25 37 75 38 26 39 80 40 74 41 76 42 27 43 79 44
REMARK SMILES IDX 73 45 72 46 28 48 60 49 40 50 59 51 41 52 44 53 58 54 77 55
REMARK SMILES IDX 42 56 43 57 57 59 78 60 45 61 29 62 30 63 38 64 31 65 32 66
REMARK SMILES IDX 36 67 39 68 33 69 34 70 37 71 35 72 61 73 62 74 70 75 63 76
REMARK SMILES IDX 64 77 68 78 71 79 65 80 66 81 69 82 67 83 46 84 47 85 55 86
REMARK SMILES IDX 48 87 49 88 53 89 56 90 50 91 51 92 54 93 52 94
REMARK H PARENT 91 15 76 47 44 58
REMARK Flexibility Score: inf
ROOT
ATOM      1  C   UNL A   1      35.160  21.729  26.301  1.00  0.00     0.202 C 
ENDROOT
BRANCH   1   2
ATOM      2  C   UNL A   1      33.892  22.395  25.740  1.00  0.00     0.261 C 
BRANCH   2   3
ATOM      3  O   UNL A   1      32.705  22.137  26.542  1.00  0.00    -0.463 OA
BRANCH   3   4
ATOM      4  C   UNL A   1      31.887  23.207  26.773  1.00  0.00     0.316 C 
ATOM      5  O   UNL A   1      30.915  23.169  27.522  1.00  0.00    -0.251 OA
BRANCH   4   6
ATOM      6  C   UNL A   1      32.209  24.462  25.975  1.00  0.00     0.200 C 
BRANCH   6   7
ATOM      7  S   UNL A   1      30.888  25.362  25.204  1.00  0.00    -0.076 SA
BRANCH   7   8
ATOM      8  C   UNL A   1      31.183  26.793  24.212  1.00  0.00     0.172 A 
ATOM      9  C   UNL A   1      28.432  30.935  21.014  1.00  0.00     0.064 C 
ATOM     10  C   UNL A   1      29.233  30.084  21.932  1.00  0.00     0.014 A 
ATOM     11  C   UNL A   1      28.842  29.280  22.995  1.00  0.00     0.052 A 
ATOM     12  N   UNL A   1      30.599  29.933  21.779  1.00  0.00    -0.353 N 
ATOM     13  C   UNL A   1      29.984  28.563  23.385  1.00  0.00     0.097 A 
ATOM     14  C   UNL A   1      31.047  28.988  22.663  1.00  0.00     0.131 A 
ATOM     15  H   UNL A   1      31.160  30.425  21.137  1.00  0.00     0.166 HD
ATOM     16  N   UNL A   1      30.073  27.490  24.251  1.00  0.00    -0.222 NA
ATOM     17  C   UNL A   1      32.335  28.411  22.798  1.00  0.00     0.278 A 
ATOM     18  N   UNL A   1      32.322  27.150  23.443  1.00  0.00    -0.286 N 
ATOM     19  O   UNL A   1      33.338  28.965  22.361  1.00  0.00    -0.267 OA
BRANCH  18  20
ATOM     20  C   UNL A   1      33.581  26.402  23.238  1.00  0.00     0.131 C 
BRANCH  20  21
ATOM     21  C   UNL A   1      33.559  25.316  22.104  1.00  0.00     0.003 C 
ATOM     22  C   UNL A   1      33.351  23.853  22.497  1.00  0.00     0.009 C 
ATOM     23  C   UNL A   1      32.590  25.697  20.987  1.00  0.00     0.009 C 
ENDBRANCH  20  21
ENDBRANCH  18  20
ENDBRANCH   7   8
ENDBRANCH   6   7
ENDBRANCH   4   6
ENDBRANCH   3   4
ENDBRANCH   2   3
ENDBRANCH   1   2
BRANCH   1  24
ATOM     24  O   UNL A   1      36.106  21.375  25.297  1.00  0.00    -0.374 OA
BRANCH  24  25
ATOM     25  C   UNL A   1      37.150  22.331  25.190  1.00  0.00     0.202 C 
BRANCH  25  26
ATOM     26  C   UNL A   1      38.438  21.839  25.820  1.00  0.00     0.261 C 
BRANCH  26  27
ATOM     27  O   UNL A   1      38.830  22.787  26.769  1.00  0.00    -0.460 OA
BRANCH  27  28
ATOM     28  C   UNL A   1      40.068  22.622  27.277  1.00  0.00     0.338 C 
ATOM     29  O   UNL A   1      40.546  21.672  27.848  1.00  0.00    -0.246 OA
BRANCH  28  30
ATOM     30  C   UNL A   1      40.608  23.970  27.153  1.00  0.00     0.060 A 
ATOM     31  C   UNL A   1      41.575  24.257  28.104  1.00  0.00     0.016 A 
ATOM     32  C   UNL A   1      39.795  24.945  26.535  1.00  0.00     0.016 A 
ATOM     33  C   UNL A   1      41.547  25.516  28.639  1.00  0.00     0.010 A 
ATOM     34  C   UNL A   1      39.715  26.171  27.128  1.00  0.00     0.010 A 
ATOM     35  C   UNL A   1      40.560  26.418  28.201  1.00  0.00    -0.014 A 
BRANCH  35  36
ATOM     36  C   UNL A   1      40.668  27.770  28.672  1.00  0.00     0.031 A 
ATOM     37  C   UNL A   1      41.889  28.371  28.110  1.00  0.00     0.074 A 
ATOM     38  C   UNL A   1      39.789  28.361  29.489  1.00  0.00     0.049 A 
ATOM     39  N   UNL A   1      43.041  28.392  28.690  1.00  0.00    -0.248 NA
ATOM     40  C   UNL A   1      41.934  28.654  26.666  1.00  0.00     0.031 C 
ATOM     41  C   UNL A   1      38.455  27.928  29.882  1.00  0.00     0.029 A 
ATOM     42  N   UNL A   1      39.932  29.553  30.118  1.00  0.00    -0.354 N 
ATOM     43  C   UNL A   1      43.908  28.922  27.749  1.00  0.00     0.074 A 
ATOM     44  C   UNL A   1      43.247  28.795  26.480  1.00  0.00     0.031 C 
ATOM     45  C   UNL A   1      37.824  28.948  30.513  1.00  0.00     0.029 A 
ATOM     46  C   UNL A   1      38.766  30.040  30.693  1.00  0.00     0.049 A 
ATOM     47  H   UNL A   1      40.791  30.034  30.163  1.00  0.00     0.167 HD
ATOM     48  C   UNL A   1      44.917  29.731  28.161  1.00  0.00     0.037 A 
ATOM     49  C   UNL A   1      38.628  31.294  31.189  1.00  0.00     0.037 A 
ATOM     50  C   UNL A   1      45.153  29.550  29.577  1.00  0.00     0.049 A 
ATOM     51  C   UNL A   1      40.003  31.778  31.508  1.00  0.00     0.074 A 
ATOM     52  C   UNL A   1      45.565  28.499  30.372  1.00  0.00     0.029 A 
ATOM     53  N   UNL A   1      44.538  30.450  30.414  1.00  0.00    -0.354 N 
ATOM     54  N   UNL A   1      40.750  31.252  32.443  1.00  0.00    -0.248 NA
ATOM     55  C   UNL A   1      40.725  32.507  30.475  1.00  0.00     0.031 C 
ATOM     56  C   UNL A   1      44.831  28.633  31.587  1.00  0.00     0.029 A 
ATOM     57  C   UNL A   1      44.054  29.792  31.512  1.00  0.00     0.049 A 
ATOM     58  H   UNL A   1      44.458  31.417  30.250  1.00  0.00     0.167 HD
ATOM     59  C   UNL A   1      42.029  31.215  31.902  1.00  0.00     0.074 A 
ATOM     60  C   UNL A   1      41.967  32.083  30.728  1.00  0.00     0.031 C 
ATOM     61  C   UNL A   1      42.917  30.250  32.284  1.00  0.00     0.037 A 
BRANCH  48  62
ATOM     62  C   UNL A   1      45.310  30.998  27.436  1.00  0.00     0.064 A 
ATOM     63  C   UNL A   1      46.656  31.143  27.046  1.00  0.00     0.173 A 
ATOM     64  C   UNL A   1      44.539  32.183  27.390  1.00  0.00     0.173 A 
ATOM     65  F   UNL A   1      47.486  30.088  27.053  1.00  0.00    -0.203 F 
ATOM     66  C   UNL A   1      47.207  32.389  26.745  1.00  0.00     0.198 A 
ATOM     67  C   UNL A   1      45.081  33.416  27.041  1.00  0.00     0.198 A 
ATOM     68  F   UNL A   1      43.262  32.242  27.777  1.00  0.00    -0.203 F 
ATOM     69  F   UNL A   1      48.523  32.495  26.519  1.00  0.00    -0.200 F 
ATOM     70  C   UNL A   1      46.421  33.526  26.754  1.00  0.00     0.200 A 
ATOM     71  F   UNL A   1      44.302  34.506  27.076  1.00  0.00    -0.200 F 
ATOM     72  F   UNL A   1      46.961  34.731  26.533  1.00  0.00    -0.200 F 
ENDBRANCH  48  62
BRANCH  49  73
ATOM     73  C   UNL A   1      37.478  32.215  31.003  1.00  0.00     0.064 A 
ATOM     74  C   UNL A   1      37.185  32.750  29.737  1.00  0.00     0.173 A 
ATOM     75  C   UNL A   1      36.478  32.361  31.985  1.00  0.00     0.173 A 
ATOM     76  F   UNL A   1      38.061  32.614  28.730  1.00  0.00    -0.203 F 
ATOM     77  C   UNL A   1      35.958  33.364  29.462  1.00  0.00     0.198 A 
ATOM     78  C   UNL A   1      35.256  32.978  31.712  1.00  0.00     0.198 A 
ATOM     79  F   UNL A   1      36.625  31.824  33.204  1.00  0.00    -0.203 F 
ATOM     80  F   UNL A   1      35.691  33.803  28.224  1.00  0.00    -0.200 F 
ATOM     81  C   UNL A   1      34.990  33.467  30.447  1.00  0.00     0.200 A 
ATOM     82  F   UNL A   1      34.314  33.037  32.664  1.00  0.00    -0.200 F 
ATOM     83  F   UNL A   1      33.791  33.997  30.168  1.00  0.00    -0.200 F 
ENDBRANCH  49  73
BRANCH  61  84
ATOM     84  C   UNL A   1      42.596  29.446  33.514  1.00  0.00     0.064 A 
ATOM     85  C   UNL A   1      41.871  28.242  33.505  1.00  0.00     0.173 A 
ATOM     86  C   UNL A   1      43.225  29.814  34.712  1.00  0.00     0.173 A 
ATOM     87  F   UNL A   1      41.308  27.784  32.380  1.00  0.00    -0.203 F 
ATOM     88  C   UNL A   1      41.777  27.451  34.651  1.00  0.00     0.198 A 
ATOM     89  C   UNL A   1      43.160  29.004  35.841  1.00  0.00     0.198 A 
ATOM     90  F   UNL A   1      43.968  30.931  34.762  1.00  0.00    -0.203 F 
ATOM     91  F   UNL A   1      41.089  26.299  34.620  1.00  0.00    -0.200 F 
ATOM     92  C   UNL A   1      42.434  27.825  35.812  1.00  0.00     0.200 A 
ATOM     93  F   UNL A   1      43.839  29.347  36.944  1.00  0.00    -0.200 F 
ATOM     94  F   UNL A   1      42.397  27.034  36.893  1.00  0.00    -0.200 F 
ENDBRANCH  61  84
ENDBRANCH  35  36
ENDBRANCH  28  30
ENDBRANCH  27  28
ENDBRANCH  26  27
ENDBRANCH  25  26
ENDBRANCH  24  25
ENDBRANCH   1  24
TORSDOF 18
ENDMDL
MODEL 3
REMARK VINA RESULT:     -10.7      4.775      9.392
REMARK SMILES Cc1cc2nc(SCC(=O)OCCOCCOC(=O)c3ccc(-c4c5nc(c(-c6c(F)c(F)c(F)c(F)c6F)c6ccc([nH]6)c(-c6c(F)c(F)c(F)c(F)c6F)c6nc(c(-c7c(F)c(F)c(F)c(F)c7F)c7ccc4[nH]7)C=C6)C=C5)cc3)n(CC(C)C)c(=O)c2[nH]1
REMARK SMILES IDX 13 1 12 2 11 3 9 4 10 5 8 6 7 7 6 8 1 9 2 10 3 11 91 12 4 13
REMARK SMILES IDX 90 14 5 16 88 17 83 18 89 19 84 20 85 21 86 22 87 23 14 24
REMARK SMILES IDX 15 25 16 26 17 27 18 28 19 29 20 30 21 31 82 32 22 33 81 34
REMARK SMILES IDX 23 35 24 36 25 37 75 38 26 39 80 40 74 41 76 42 27 43 79 44
REMARK SMILES IDX 73 45 72 46 28 48 60 49 40 50 59 51 41 52 44 53 58 54 77 55
REMARK SMILES IDX 42 56 43 57 57 59 78 60 45 61 29 62 30 63 38 64 31 65 32 66
REMARK SMILES IDX 36 67 39 68 33 69 34 70 37 71 35 72 61 73 62 74 70 75 63 76
REMARK SMILES IDX 64 77 68 78 71 79 65 80 66 81 69 82 67 83 46 84 47 85 55 86
REMARK SMILES IDX 48 87 49 88 53 89 56 90 50 91 51 92 54 93 52 94
REMARK H PARENT 91 15 76 47 44 58
REMARK Flexibility Score: inf
ROOT
ATOM      1  C   UNL A   1      31.745  28.136  26.739  1.00  0.00     0.202 C 
ENDROOT
BRANCH   1   2
ATOM      2  C   UNL A   1      30.937  26.827  26.774  1.00  0.00     0.261 C 
BRANCH   2   3
ATOM      3  O   UNL A   1      31.741  25.666  27.130  1.00  0.00    -0.463 OA
BRANCH   3   4
ATOM      4  C   UNL A   1      31.516  24.530  26.405  1.00  0.00     0.316 C 
ATOM      5  O   UNL A   1      32.314  23.600  26.336  1.00  0.00    -0.251 OA
BRANCH   4   6
ATOM      6  C   UNL A   1      30.221  24.508  25.606  1.00  0.00     0.200 C 
BRANCH   6   7
ATOM      7  S   UNL A   1      30.262  24.908  23.877  1.00  0.00    -0.076 SA
BRANCH   7   8
ATOM      8  C   UNL A   1      30.681  26.522  23.298  1.00  0.00     0.172 A 
ATOM      9  C   UNL A   1      28.356  31.397  20.893  1.00  0.00     0.064 C 
ATOM     10  C   UNL A   1      29.037  30.325  21.665  1.00  0.00     0.014 A 
ATOM     11  C   UNL A   1      28.518  29.306  22.452  1.00  0.00     0.052 A 
ATOM     12  N   UNL A   1      30.411  30.168  21.639  1.00  0.00    -0.353 N 
ATOM     13  C   UNL A   1      29.600  28.478  22.788  1.00  0.00     0.097 A 
ATOM     14  C   UNL A   1      30.744  29.026  22.316  1.00  0.00     0.131 A 
ATOM     15  H   UNL A   1      31.048  30.779  21.203  1.00  0.00     0.166 HD
ATOM     16  N   UNL A   1      29.579  27.228  23.376  1.00  0.00    -0.222 NA
ATOM     17  C   UNL A   1      32.004  28.389  22.455  1.00  0.00     0.278 A 
ATOM     18  N   UNL A   1      31.907  27.013  22.774  1.00  0.00    -0.286 N 
ATOM     19  O   UNL A   1      33.055  28.997  22.282  1.00  0.00    -0.267 OA
BRANCH  18  20
ATOM     20  C   UNL A   1      33.176  26.292  22.541  1.00  0.00     0.131 C 
BRANCH  20  21
ATOM     21  C   UNL A   1      33.707  25.427  23.738  1.00  0.00     0.003 C 
ATOM     22  C   UNL A   1      34.676  24.282  23.440  1.00  0.00     0.009 C 
ATOM     23  C   UNL A   1      34.270  26.306  24.853  1.00  0.00     0.009 C 
ENDBRANCH  20  21
ENDBRANCH  18  20
ENDBRANCH   7   8
ENDBRANCH   6   7
ENDBRANCH   4   6
ENDBRANCH   3   4
ENDBRANCH   2   3
ENDBRANCH   1   2
BRANCH   1  24
ATOM     24  O   UNL A   1      31.426  28.969  25.629  1.00  0.00    -0.374 OA
BRANCH  24  25
ATOM     25  C   UNL A   1      31.901  30.295  25.805  1.00  0.00     0.202 C 
BRANCH  25  26
ATOM     26  C   UNL A   1      32.136  30.625  27.265  1.00  0.00     0.261 C 
BRANCH  26  27
ATOM     27  O   UNL A   1      33.209  31.518  27.328  1.00  0.00    -0.460 OA
BRANCH  27  28
ATOM     28  C   UNL A   1      32.906  32.760  27.755  1.00  0.00     0.338 C 
ATOM     29  O   UNL A   1      31.976  33.471  27.460  1.00  0.00    -0.246 OA
BRANCH  28  30
ATOM     30  C   UNL A   1      34.112  33.107  28.497  1.00  0.00     0.060 A 
ATOM     31  C   UNL A   1      35.090  33.687  27.702  1.00  0.00     0.016 A 
ATOM     32  C   UNL A   1      34.382  32.385  29.679  1.00  0.00     0.016 A 
ATOM     33  C   UNL A   1      36.381  33.312  27.956  1.00  0.00     0.010 A 
ATOM     34  C   UNL A   1      35.660  31.948  29.878  1.00  0.00     0.010 A 
ATOM     35  C   UNL A   1      36.629  32.382  28.983  1.00  0.00    -0.014 A 
BRANCH  35  36
ATOM     36  C   UNL A   1      38.005  32.141  29.316  1.00  0.00     0.031 A 
ATOM     37  C   UNL A   1      38.312  30.724  29.061  1.00  0.00     0.074 A 
ATOM     38  C   UNL A   1      38.846  33.072  29.781  1.00  0.00     0.049 A 
ATOM     39  N   UNL A   1      38.245  29.781  29.938  1.00  0.00    -0.248 NA
ATOM     40  C   UNL A   1      38.355  30.253  27.667  1.00  0.00     0.031 C 
ATOM     41  C   UNL A   1      38.692  34.519  29.824  1.00  0.00     0.029 A 
ATOM     42  N   UNL A   1      40.085  32.870  30.292  1.00  0.00    -0.354 N 
ATOM     43  C   UNL A   1      38.480  28.614  29.229  1.00  0.00     0.074 A 
ATOM     44  C   UNL A   1      38.259  28.935  27.847  1.00  0.00     0.031 C 
ATOM     45  C   UNL A   1      39.885  35.084  30.136  1.00  0.00     0.029 A 
ATOM     46  C   UNL A   1      40.831  34.029  30.456  1.00  0.00     0.049 A 
ATOM     47  H   UNL A   1      40.427  31.977  30.526  1.00  0.00     0.167 HD
ATOM     48  C   UNL A   1      39.176  27.610  29.820  1.00  0.00     0.037 A 
ATOM     49  C   UNL A   1      42.154  34.047  30.754  1.00  0.00     0.037 A 
ATOM     50  C   UNL A   1      39.186  27.790  31.256  1.00  0.00     0.049 A 
ATOM     51  C   UNL A   1      42.462  32.736  31.396  1.00  0.00     0.074 A 
ATOM     52  C   UNL A   1      38.222  27.808  32.245  1.00  0.00     0.029 A 
ATOM     53  N   UNL A   1      40.290  28.416  31.782  1.00  0.00    -0.354 N 
ATOM     54  N   UNL A   1      41.980  32.373  32.555  1.00  0.00    -0.248 NA
ATOM     55  C   UNL A   1      42.898  31.643  30.537  1.00  0.00     0.031 C 
ATOM     56  C   UNL A   1      38.658  28.793  33.179  1.00  0.00     0.029 A 
ATOM     57  C   UNL A   1      39.896  29.286  32.762  1.00  0.00     0.049 A 
ATOM     58  H   UNL A   1      41.220  28.262  31.498  1.00  0.00     0.167 HD
ATOM     59  C   UNL A   1      41.660  31.029  32.405  1.00  0.00     0.074 A 
ATOM     60  C   UNL A   1      42.332  30.615  31.176  1.00  0.00     0.031 C 
ATOM     61  C   UNL A   1      40.641  30.474  33.126  1.00  0.00     0.037 A 
BRANCH  48  62
ATOM     62  C   UNL A   1      40.238  26.806  29.104  1.00  0.00     0.064 A 
ATOM     63  C   UNL A   1      41.407  27.476  28.694  1.00  0.00     0.173 A 
ATOM     64  C   UNL A   1      40.042  25.529  28.529  1.00  0.00     0.173 A 
ATOM     65  F   UNL A   1      41.697  28.697  29.171  1.00  0.00    -0.203 F 
ATOM     66  C   UNL A   1      42.246  26.958  27.707  1.00  0.00     0.198 A 
ATOM     67  C   UNL A   1      40.909  24.994  27.581  1.00  0.00     0.198 A 
ATOM     68  F   UNL A   1      38.962  24.778  28.761  1.00  0.00    -0.203 F 
ATOM     69  F   UNL A   1      43.266  27.696  27.250  1.00  0.00    -0.200 F 
ATOM     70  C   UNL A   1      41.990  25.723  27.143  1.00  0.00     0.200 A 
ATOM     71  F   UNL A   1      40.628  23.802  27.036  1.00  0.00    -0.200 F 
ATOM     72  F   UNL A   1      42.754  25.254  26.149  1.00  0.00    -0.200 F 
ENDBRANCH  48  62
BRANCH  49  73
ATOM     73  C   UNL A   1      43.201  34.910  30.151  1.00  0.00     0.064 A 
ATOM     74  C   UNL A   1      43.524  34.799  28.788  1.00  0.00     0.173 A 
ATOM     75  C   UNL A   1      43.699  36.048  30.817  1.00  0.00     0.173 A 
ATOM     76  F   UNL A   1      43.052  33.772  28.066  1.00  0.00    -0.203 F 
ATOM     77  C   UNL A   1      44.271  35.780  28.125  1.00  0.00     0.198 A 
ATOM     78  C   UNL A   1      44.448  37.023  30.157  1.00  0.00     0.198 A 
ATOM     79  F   UNL A   1      43.389  36.287  32.098  1.00  0.00    -0.203 F 
ATOM     80  F   UNL A   1      44.502  35.671  26.809  1.00  0.00    -0.200 F 
ATOM     81  C   UNL A   1      44.723  36.897  28.809  1.00  0.00     0.200 A 
ATOM     82  F   UNL A   1      44.847  38.118  30.822  1.00  0.00    -0.200 F 
ATOM     83  F   UNL A   1      45.382  37.868  28.162  1.00  0.00    -0.200 F 
ENDBRANCH  49  73
BRANCH  61  84
ATOM     84  C   UNL A   1      40.099  31.252  34.295  1.00  0.00     0.064 A 
ATOM     85  C   UNL A   1      40.717  31.317  35.555  1.00  0.00     0.173 A 
ATOM     86  C   UNL A   1      39.024  32.118  34.054  1.00  0.00     0.173 A 
ATOM     87  F   UNL A   1      41.798  30.577  35.834  1.00  0.00    -0.203 F 
ATOM     88  C   UNL A   1      40.267  32.208  36.530  1.00  0.00     0.198 A 
ATOM     89  C   UNL A   1      38.602  33.031  35.015  1.00  0.00     0.198 A 
ATOM     90  F   UNL A   1      38.428  32.128  32.851  1.00  0.00    -0.203 F 
ATOM     91  F   UNL A   1      40.876  32.264  37.724  1.00  0.00    -0.200 F 
ATOM     92  C   UNL A   1      39.221  33.075  36.253  1.00  0.00     0.200 A 
ATOM     93  F   UNL A   1      37.625  33.899  34.723  1.00  0.00    -0.200 F 
ATOM     94  F   UNL A   1      38.831  33.974  37.167  1.00  0.00    -0.200 F 
ENDBRANCH  61  84
ENDBRANCH  35  36
ENDBRANCH  28  30
ENDBRANCH  27  28
ENDBRANCH  26  27
ENDBRANCH  25  26
ENDBRANCH  24  25
ENDBRANCH   1  24
TORSDOF 18
ENDMDL
