MODEL 1
REMARK VINA RESULT:     -10.9      0.000      0.000
REMARK SMILES CCC(CC)(C(=O)OCCOCCOC(=O)c1ccc(-c2c3nc(c(-c4c(F)c(F)c(F)c(F)c4F)c4ccc([nH]4)c(-c4c(F)c(F)c(F)c(F)c4F)c4nc(c(-c5c(F)c(F)c(F)c(F)c5F)c5ccc2[nH]5)C=C4)C=C3)cc1)n1nnnc1C[C@@H](C)C(C)(C)C
REMARK SMILES IDX 10 1 9 2 8 3 6 4 7 5 3 6 2 7 1 8 4 9 5 10 80 11 81 12 84 13
REMARK SMILES IDX 82 14 83 15 85 16 86 17 87 18 88 19 89 20 90 21 91 22 11 23
REMARK SMILES IDX 12 24 13 25 14 26 15 27 16 28 17 29 18 30 79 31 19 32 78 33
REMARK SMILES IDX 20 34 21 35 22 36 72 37 23 38 77 39 71 40 73 41 24 42 76 43
REMARK SMILES IDX 70 44 69 45 25 47 57 48 37 49 56 50 38 51 41 52 55 53 74 54
REMARK SMILES IDX 39 55 40 56 54 58 75 59 42 60 26 61 27 62 35 63 28 64 29 65
REMARK SMILES IDX 33 66 36 67 30 68 31 69 34 70 32 71 58 72 59 73 67 74 60 75
REMARK SMILES IDX 61 76 65 77 68 78 62 79 63 80 66 81 64 82 43 83 44 84 52 85
REMARK SMILES IDX 45 86 46 87 50 88 53 89 47 90 48 91 51 92 49 93
REMARK H PARENT 73 46 41 57
REMARK Flexibility Score: inf
ROOT
ATOM      1  C   UNL A   1      37.326  22.339  24.560  1.00  0.00     0.202 C 
ENDROOT
BRANCH   1   2
ATOM      2  C   UNL A   1      36.155  22.731  23.646  1.00  0.00     0.261 C 
BRANCH   2   3
ATOM      3  O   UNL A   1      35.286  23.736  24.187  1.00  0.00    -0.461 OA
BRANCH   3   4
ATOM      4  C   UNL A   1      34.022  23.283  24.394  1.00  0.00     0.334 C 
ATOM      5  O   UNL A   1      33.774  22.483  25.284  1.00  0.00    -0.249 OA
BRANCH   4   6
ATOM      6  C   UNL A   1      32.963  23.755  23.402  1.00  0.00     0.163 C 
BRANCH   6   7
ATOM      7  C   UNL A   1      32.864  22.740  22.193  1.00  0.00     0.039 C 
ATOM      8  C   UNL A   1      32.192  21.391  22.463  1.00  0.00     0.007 C 
ENDBRANCH   6   7
BRANCH   6   9
ATOM      9  C   UNL A   1      31.624  23.802  24.193  1.00  0.00     0.039 C 
ATOM     10  C   UNL A   1      30.424  24.295  23.381  1.00  0.00     0.007 C 
ENDBRANCH   6   9
BRANCH   6  11
ATOM     11  N   UNL A   1      33.318  25.124  22.942  1.00  0.00    -0.212 N 
ATOM     12  N   UNL A   1      33.600  25.291  21.626  1.00  0.00    -0.044 NA
ATOM     13  C   UNL A   1      33.386  26.378  23.547  1.00  0.00     0.152 A 
ATOM     14  N   UNL A   1      33.708  26.588  21.421  1.00  0.00    -0.024 NA
ATOM     15  N   UNL A   1      33.558  27.268  22.584  1.00  0.00    -0.114 NA
BRANCH  13  16
ATOM     16  C   UNL A   1      33.303  26.786  24.997  1.00  0.00     0.083 C 
BRANCH  16  17
ATOM     17  C   UNL A   1      32.250  27.926  25.244  1.00  0.00    -0.001 C 
ATOM     18  C   UNL A   1      30.828  27.321  25.165  1.00  0.00     0.008 C 
BRANCH  17  19
ATOM     19  C   UNL A   1      32.454  28.753  26.585  1.00  0.00    -0.035 C 
ATOM     20  C   UNL A   1      31.573  28.224  27.734  1.00  0.00     0.011 C 
ATOM     21  C   UNL A   1      33.911  28.632  27.096  1.00  0.00     0.011 C 
ATOM     22  C   UNL A   1      32.122  30.243  26.397  1.00  0.00     0.011 C 
ENDBRANCH  17  19
ENDBRANCH  16  17
ENDBRANCH  13  16
ENDBRANCH   6  11
ENDBRANCH   4   6
ENDBRANCH   3   4
ENDBRANCH   2   3
ENDBRANCH   1   2
BRANCH   1  23
ATOM     23  O   UNL A   1      37.215  21.192  25.389  1.00  0.00    -0.374 OA
BRANCH  23  24
ATOM     24  C   UNL A   1      37.807  19.959  24.989  1.00  0.00     0.202 C 
BRANCH  24  25
ATOM     25  C   UNL A   1      39.124  19.485  25.619  1.00  0.00     0.261 C 
BRANCH  25  26
ATOM     26  O   UNL A   1      40.097  20.533  25.777  1.00  0.00    -0.460 OA
BRANCH  26  27
ATOM     27  C   UNL A   1      40.718  20.541  26.979  1.00  0.00     0.338 C 
ATOM     28  O   UNL A   1      41.238  19.591  27.555  1.00  0.00    -0.246 OA
BRANCH  27  29
ATOM     29  C   UNL A   1      40.887  21.918  27.464  1.00  0.00     0.060 A 
ATOM     30  C   UNL A   1      40.192  22.933  26.793  1.00  0.00     0.016 A 
ATOM     31  C   UNL A   1      41.810  22.223  28.465  1.00  0.00     0.016 A 
ATOM     32  C   UNL A   1      40.454  24.267  27.088  1.00  0.00     0.010 A 
ATOM     33  C   UNL A   1      42.080  23.565  28.749  1.00  0.00     0.010 A 
ATOM     34  C   UNL A   1      41.434  24.590  28.034  1.00  0.00    -0.014 A 
BRANCH  34  35
ATOM     35  C   UNL A   1      41.893  25.994  28.147  1.00  0.00     0.031 A 
ATOM     36  C   UNL A   1      43.223  26.374  27.561  1.00  0.00     0.074 A 
ATOM     37  C   UNL A   1      41.114  26.924  28.725  1.00  0.00     0.049 A 
ATOM     38  N   UNL A   1      43.844  27.526  27.581  1.00  0.00    -0.248 NA
ATOM     39  C   UNL A   1      43.956  25.310  26.855  1.00  0.00     0.031 C 
ATOM     40  C   UNL A   1      39.784  26.682  29.281  1.00  0.00     0.029 A 
ATOM     41  N   UNL A   1      41.336  28.260  28.946  1.00  0.00    -0.354 N 
ATOM     42  C   UNL A   1      45.038  27.324  26.901  1.00  0.00     0.074 A 
ATOM     43  C   UNL A   1      45.073  25.932  26.509  1.00  0.00     0.031 C 
ATOM     44  C   UNL A   1      39.313  27.831  29.794  1.00  0.00     0.029 A 
ATOM     45  C   UNL A   1      40.323  28.877  29.635  1.00  0.00     0.049 A 
ATOM     46  H   UNL A   1      42.145  28.730  28.638  1.00  0.00     0.167 HD
ATOM     47  C   UNL A   1      46.011  28.223  26.620  1.00  0.00     0.037 A 
ATOM     48  C   UNL A   1      40.236  30.134  30.110  1.00  0.00     0.037 A 
ATOM     49  C   UNL A   1      45.968  29.607  27.014  1.00  0.00     0.049 A 
ATOM     50  C   UNL A   1      41.370  31.095  29.855  1.00  0.00     0.074 A 
ATOM     51  C   UNL A   1      46.898  30.603  26.772  1.00  0.00     0.029 A 
ATOM     52  N   UNL A   1      44.940  30.189  27.742  1.00  0.00    -0.354 N 
ATOM     53  N   UNL A   1      42.489  30.902  29.198  1.00  0.00    -0.248 NA
ATOM     54  C   UNL A   1      41.224  32.451  30.402  1.00  0.00     0.031 C 
ATOM     55  C   UNL A   1      46.461  31.772  27.403  1.00  0.00     0.029 A 
ATOM     56  C   UNL A   1      45.227  31.524  27.982  1.00  0.00     0.049 A 
ATOM     57  H   UNL A   1      44.127  29.723  28.043  1.00  0.00     0.167 HD
ATOM     58  C   UNL A   1      43.165  32.116  29.228  1.00  0.00     0.074 A 
ATOM     59  C   UNL A   1      42.322  33.043  29.954  1.00  0.00     0.031 C 
ATOM     60  C   UNL A   1      44.372  32.435  28.700  1.00  0.00     0.037 A 
BRANCH  47  61
ATOM     61  C   UNL A   1      47.219  27.731  25.875  1.00  0.00     0.064 A 
ATOM     62  C   UNL A   1      47.276  27.731  24.473  1.00  0.00     0.173 A 
ATOM     63  C   UNL A   1      48.350  27.284  26.575  1.00  0.00     0.173 A 
ATOM     64  F   UNL A   1      46.217  28.134  23.754  1.00  0.00    -0.203 F 
ATOM     65  C   UNL A   1      48.408  27.278  23.801  1.00  0.00     0.198 A 
ATOM     66  C   UNL A   1      49.493  26.863  25.901  1.00  0.00     0.198 A 
ATOM     67  F   UNL A   1      48.352  27.267  27.917  1.00  0.00    -0.203 F 
ATOM     68  F   UNL A   1      48.420  27.240  22.461  1.00  0.00    -0.200 F 
ATOM     69  C   UNL A   1      49.519  26.851  24.515  1.00  0.00     0.200 A 
ATOM     70  F   UNL A   1      50.570  26.465  26.594  1.00  0.00    -0.200 F 
ATOM     71  F   UNL A   1      50.611  26.424  23.867  1.00  0.00    -0.200 F 
ENDBRANCH  47  61
BRANCH  48  72
ATOM     72  C   UNL A   1      39.044  30.552  30.893  1.00  0.00     0.064 A 
ATOM     73  C   UNL A   1      37.935  31.140  30.271  1.00  0.00     0.173 A 
ATOM     74  C   UNL A   1      38.997  30.384  32.286  1.00  0.00     0.173 A 
ATOM     75  F   UNL A   1      37.940  31.342  28.945  1.00  0.00    -0.203 F 
ATOM     76  C   UNL A   1      36.835  31.565  31.013  1.00  0.00     0.198 A 
ATOM     77  C   UNL A   1      37.883  30.780  33.022  1.00  0.00     0.198 A 
ATOM     78  F   UNL A   1      40.032  29.825  32.931  1.00  0.00    -0.203 F 
ATOM     79  F   UNL A   1      35.809  32.171  30.399  1.00  0.00    -0.200 F 
ATOM     80  C   UNL A   1      36.807  31.379  32.387  1.00  0.00     0.200 A 
ATOM     81  F   UNL A   1      37.855  30.582  34.348  1.00  0.00    -0.200 F 
ATOM     82  F   UNL A   1      35.747  31.784  33.100  1.00  0.00    -0.200 F 
ENDBRANCH  48  72
BRANCH  60  83
ATOM     83  C   UNL A   1      44.838  33.857  28.851  1.00  0.00     0.064 A 
ATOM     84  C   UNL A   1      44.505  34.849  27.919  1.00  0.00     0.173 A 
ATOM     85  C   UNL A   1      45.597  34.237  29.970  1.00  0.00     0.173 A 
ATOM     86  F   UNL A   1      43.793  34.536  26.825  1.00  0.00    -0.203 F 
ATOM     87  C   UNL A   1      44.938  36.162  28.084  1.00  0.00     0.198 A 
ATOM     88  C   UNL A   1      45.998  35.557  30.150  1.00  0.00     0.198 A 
ATOM     89  F   UNL A   1      45.938  33.329  30.897  1.00  0.00    -0.203 F 
ATOM     90  F   UNL A   1      44.653  37.082  27.152  1.00  0.00    -0.200 F 
ATOM     91  C   UNL A   1      45.677  36.517  29.203  1.00  0.00     0.200 A 
ATOM     92  F   UNL A   1      46.698  35.900  31.241  1.00  0.00    -0.200 F 
ATOM     93  F   UNL A   1      46.086  37.783  29.364  1.00  0.00    -0.200 F 
ENDBRANCH  60  83
ENDBRANCH  34  35
ENDBRANCH  27  29
ENDBRANCH  26  27
ENDBRANCH  25  26
ENDBRANCH  24  25
ENDBRANCH  23  24
ENDBRANCH   1  23
TORSDOF 20
ENDMDL
MODEL 2
REMARK VINA RESULT:     -10.5      1.415      7.399
REMARK SMILES CCC(CC)(C(=O)OCCOCCOC(=O)c1ccc(-c2c3nc(c(-c4c(F)c(F)c(F)c(F)c4F)c4ccc([nH]4)c(-c4c(F)c(F)c(F)c(F)c4F)c4nc(c(-c5c(F)c(F)c(F)c(F)c5F)c5ccc2[nH]5)C=C4)C=C3)cc1)n1nnnc1C[C@@H](C)C(C)(C)C
REMARK SMILES IDX 10 1 9 2 8 3 6 4 7 5 3 6 2 7 1 8 4 9 5 10 80 11 81 12 84 13
REMARK SMILES IDX 82 14 83 15 85 16 86 17 87 18 88 19 89 20 90 21 91 22 11 23
REMARK SMILES IDX 12 24 13 25 14 26 15 27 16 28 17 29 18 30 79 31 19 32 78 33
REMARK SMILES IDX 20 34 21 35 22 36 72 37 23 38 77 39 71 40 73 41 24 42 76 43
REMARK SMILES IDX 70 44 69 45 25 47 57 48 37 49 56 50 38 51 41 52 55 53 74 54
REMARK SMILES IDX 39 55 40 56 54 58 75 59 42 60 26 61 27 62 35 63 28 64 29 65
REMARK SMILES IDX 33 66 36 67 30 68 31 69 34 70 32 71 58 72 59 73 67 74 60 75
REMARK SMILES IDX 61 76 65 77 68 78 62 79 63 80 66 81 64 82 43 83 44 84 52 85
REMARK SMILES IDX 45 86 46 87 50 88 53 89 47 90 48 91 51 92 49 93
REMARK H PARENT 73 46 41 57
REMARK Flexibility Score: inf
ROOT
ATOM      1  C   UNL A   1      36.851  22.729  23.798  1.00  0.00     0.202 C 
ENDROOT
BRANCH   1   2
ATOM      2  C   UNL A   1      35.431  22.970  23.261  1.00  0.00     0.261 C 
BRANCH   2   3
ATOM      3  O   UNL A   1      34.531  23.571  24.203  1.00  0.00    -0.461 OA
BRANCH   3   4
ATOM      4  C   UNL A   1      33.279  23.045  24.143  1.00  0.00     0.334 C 
ATOM      5  O   UNL A   1      32.559  23.237  23.175  1.00  0.00    -0.249 OA
BRANCH   4   6
ATOM      6  C   UNL A   1      32.801  22.293  25.382  1.00  0.00     0.163 C 
BRANCH   6   7
ATOM      7  C   UNL A   1      32.462  20.794  25.005  1.00  0.00     0.039 C 
ATOM      8  C   UNL A   1      33.640  19.858  24.720  1.00  0.00     0.007 C 
ENDBRANCH   6   7
BRANCH   6   9
ATOM      9  C   UNL A   1      33.977  22.353  26.399  1.00  0.00     0.039 C 
ATOM     10  C   UNL A   1      33.591  21.993  27.836  1.00  0.00     0.007 C 
ENDBRANCH   6   9
BRANCH   6  11
ATOM     11  N   UNL A   1      31.620  23.000  25.942  1.00  0.00    -0.212 N 
ATOM     12  N   UNL A   1      30.507  22.265  26.190  1.00  0.00    -0.044 NA
ATOM     13  C   UNL A   1      31.362  24.304  26.361  1.00  0.00     0.152 A 
ATOM     14  N   UNL A   1      29.669  23.049  26.837  1.00  0.00    -0.024 NA
ATOM     15  N   UNL A   1      30.187  24.295  26.969  1.00  0.00    -0.114 NA
BRANCH  13  16
ATOM     16  C   UNL A   1      32.166  25.572  26.213  1.00  0.00     0.083 C 
BRANCH  16  17
ATOM     17  C   UNL A   1      31.262  26.851  26.101  1.00  0.00    -0.001 C 
ATOM     18  C   UNL A   1      31.557  27.781  27.301  1.00  0.00     0.008 C 
BRANCH  17  19
ATOM     19  C   UNL A   1      31.367  27.633  24.722  1.00  0.00    -0.035 C 
ATOM     20  C   UNL A   1      31.584  29.146  24.927  1.00  0.00     0.011 C 
ATOM     21  C   UNL A   1      32.590  27.152  23.903  1.00  0.00     0.011 C 
ATOM     22  C   UNL A   1      30.103  27.460  23.865  1.00  0.00     0.011 C 
ENDBRANCH  17  19
ENDBRANCH  16  17
ENDBRANCH  13  16
ENDBRANCH   6  11
ENDBRANCH   4   6
ENDBRANCH   3   4
ENDBRANCH   2   3
ENDBRANCH   1   2
BRANCH   1  23
ATOM     23  O   UNL A   1      37.033  21.961  24.979  1.00  0.00    -0.374 OA
BRANCH  23  24
ATOM     24  C   UNL A   1      37.295  20.564  24.890  1.00  0.00     0.202 C 
BRANCH  24  25
ATOM     25  C   UNL A   1      38.610  19.981  25.424  1.00  0.00     0.261 C 
BRANCH  25  26
ATOM     26  O   UNL A   1      39.636  20.968  25.629  1.00  0.00    -0.460 OA
BRANCH  26  27
ATOM     27  C   UNL A   1      40.240  20.903  26.839  1.00  0.00     0.338 C 
ATOM     28  O   UNL A   1      40.631  19.898  27.423  1.00  0.00    -0.246 OA
BRANCH  27  29
ATOM     29  C   UNL A   1      40.570  22.249  27.324  1.00  0.00     0.060 A 
ATOM     30  C   UNL A   1      40.039  23.341  26.624  1.00  0.00     0.016 A 
ATOM     31  C   UNL A   1      41.488  22.440  28.357  1.00  0.00     0.016 A 
ATOM     32  C   UNL A   1      40.462  24.632  26.923  1.00  0.00     0.010 A 
ATOM     33  C   UNL A   1      41.922  23.738  28.646  1.00  0.00     0.010 A 
ATOM     34  C   UNL A   1      41.442  24.832  27.903  1.00  0.00    -0.014 A 
BRANCH  34  35
ATOM     35  C   UNL A   1      42.077  26.165  28.027  1.00  0.00     0.031 A 
ATOM     36  C   UNL A   1      41.339  27.258  28.748  1.00  0.00     0.074 A 
ATOM     37  C   UNL A   1      43.311  26.382  27.543  1.00  0.00     0.049 A 
ATOM     38  N   UNL A   1      41.680  28.508  28.937  1.00  0.00    -0.248 NA
ATOM     39  C   UNL A   1      40.040  26.894  29.336  1.00  0.00     0.031 C 
ATOM     40  C   UNL A   1      44.142  25.383  26.873  1.00  0.00     0.029 A 
ATOM     41  N   UNL A   1      44.078  27.520  27.536  1.00  0.00    -0.354 N 
ATOM     42  C   UNL A   1      40.638  29.078  29.656  1.00  0.00     0.074 A 
ATOM     43  C   UNL A   1      39.637  28.050  29.840  1.00  0.00     0.031 C 
ATOM     44  C   UNL A   1      45.299  25.957  26.505  1.00  0.00     0.029 A 
ATOM     45  C   UNL A   1      45.274  27.370  26.880  1.00  0.00     0.049 A 
ATOM     46  H   UNL A   1      43.796  28.363  27.961  1.00  0.00     0.167 HD
ATOM     47  C   UNL A   1      40.532  30.344  30.128  1.00  0.00     0.037 A 
ATOM     48  C   UNL A   1      46.225  28.279  26.591  1.00  0.00     0.037 A 
ATOM     49  C   UNL A   1      41.533  31.361  29.939  1.00  0.00     0.049 A 
ATOM     50  C   UNL A   1      46.046  29.702  27.056  1.00  0.00     0.074 A 
ATOM     51  C   UNL A   1      41.527  32.671  30.384  1.00  0.00     0.029 A 
ATOM     52  N   UNL A   1      42.718  31.181  29.239  1.00  0.00    -0.354 N 
ATOM     53  N   UNL A   1      45.066  30.232  27.748  1.00  0.00    -0.248 NA
ATOM     54  C   UNL A   1      47.111  30.652  26.705  1.00  0.00     0.031 C 
ATOM     55  C   UNL A   1      42.680  33.301  29.904  1.00  0.00     0.029 A 
ATOM     56  C   UNL A   1      43.438  32.366  29.216  1.00  0.00     0.049 A 
ATOM     57  H   UNL A   1      43.005  30.338  28.821  1.00  0.00     0.167 HD
ATOM     58  C   UNL A   1      45.409  31.565  27.940  1.00  0.00     0.074 A 
ATOM     59  C   UNL A   1      46.695  31.758  27.305  1.00  0.00     0.031 C 
ATOM     60  C   UNL A   1      44.722  32.539  28.586  1.00  0.00     0.037 A 
BRANCH  47  61
ATOM     61  C   UNL A   1      39.277  30.707  30.869  1.00  0.00     0.064 A 
ATOM     62  C   UNL A   1      38.154  31.234  30.212  1.00  0.00     0.173 A 
ATOM     63  C   UNL A   1      39.184  30.494  32.253  1.00  0.00     0.173 A 
ATOM     64  F   UNL A   1      38.194  31.471  28.892  1.00  0.00    -0.203 F 
ATOM     65  C   UNL A   1      36.997  31.558  30.915  1.00  0.00     0.198 A 
ATOM     66  C   UNL A   1      38.014  30.788  32.948  1.00  0.00     0.198 A 
ATOM     67  F   UNL A   1      40.226  29.989  32.931  1.00  0.00    -0.203 F 
ATOM     68  F   UNL A   1      35.955  32.106  30.274  1.00  0.00    -0.200 F 
ATOM     69  C   UNL A   1      36.925  31.327  32.282  1.00  0.00     0.200 A 
ATOM     70  F   UNL A   1      37.942  30.551  34.266  1.00  0.00    -0.200 F 
ATOM     71  F   UNL A   1      35.808  31.631  32.956  1.00  0.00    -0.200 F 
ENDBRANCH  47  61
BRANCH  48  72
ATOM     72  C   UNL A   1      47.419  27.879  25.802  1.00  0.00     0.064 A 
ATOM     73  C   UNL A   1      47.374  27.800  24.404  1.00  0.00     0.173 A 
ATOM     74  C   UNL A   1      48.628  27.550  26.435  1.00  0.00     0.173 A 
ATOM     75  F   UNL A   1      46.236  28.082  23.754  1.00  0.00    -0.203 F 
ATOM     76  C   UNL A   1      48.484  27.387  23.670  1.00  0.00     0.198 A 
ATOM     77  C   UNL A   1      49.746  27.169  25.698  1.00  0.00     0.198 A 
ATOM     78  F   UNL A   1      48.725  27.610  27.771  1.00  0.00    -0.203 F 
ATOM     79  F   UNL A   1      48.398  27.271  22.338  1.00  0.00    -0.200 F 
ATOM     80  C   UNL A   1      49.671  27.077  24.317  1.00  0.00     0.200 A 
ATOM     81  F   UNL A   1      50.896  26.887  26.327  1.00  0.00    -0.200 F 
ATOM     82  F   UNL A   1      50.740  26.684  23.611  1.00  0.00    -0.200 F 
ENDBRANCH  48  72
BRANCH  60  83
ATOM     83  C   UNL A   1      45.366  33.895  28.675  1.00  0.00     0.064 A 
ATOM     84  C   UNL A   1      45.124  34.894  27.723  1.00  0.00     0.173 A 
ATOM     85  C   UNL A   1      46.206  34.209  29.755  1.00  0.00     0.173 A 
ATOM     86  F   UNL A   1      44.340  34.642  26.663  1.00  0.00    -0.203 F 
ATOM     87  C   UNL A   1      45.723  36.147  27.830  1.00  0.00     0.198 A 
ATOM     88  C   UNL A   1      46.774  35.473  29.880  1.00  0.00     0.198 A 
ATOM     89  F   UNL A   1      46.464  33.292  30.701  1.00  0.00    -0.203 F 
ATOM     90  F   UNL A   1      45.520  37.069  26.878  1.00  0.00    -0.200 F 
ATOM     91  C   UNL A   1      46.540  36.438  28.913  1.00  0.00     0.200 A 
ATOM     92  F   UNL A   1      47.549  35.757  30.936  1.00  0.00    -0.200 F 
ATOM     93  F   UNL A   1      47.108  37.647  29.019  1.00  0.00    -0.200 F 
ENDBRANCH  60  83
ENDBRANCH  34  35
ENDBRANCH  27  29
ENDBRANCH  26  27
ENDBRANCH  25  26
ENDBRANCH  24  25
ENDBRANCH  23  24
ENDBRANCH   1  23
TORSDOF 20
ENDMDL
MODEL 3
REMARK VINA RESULT:     -10.5      1.393      2.478
REMARK SMILES CCC(CC)(C(=O)OCCOCCOC(=O)c1ccc(-c2c3nc(c(-c4c(F)c(F)c(F)c(F)c4F)c4ccc([nH]4)c(-c4c(F)c(F)c(F)c(F)c4F)c4nc(c(-c5c(F)c(F)c(F)c(F)c5F)c5ccc2[nH]5)C=C4)C=C3)cc1)n1nnnc1C[C@@H](C)C(C)(C)C
REMARK SMILES IDX 10 1 9 2 8 3 6 4 7 5 3 6 2 7 1 8 4 9 5 10 80 11 81 12 84 13
REMARK SMILES IDX 82 14 83 15 85 16 86 17 87 18 88 19 89 20 90 21 91 22 11 23
REMARK SMILES IDX 12 24 13 25 14 26 15 27 16 28 17 29 18 30 79 31 19 32 78 33
REMARK SMILES IDX 20 34 21 35 22 36 72 37 23 38 77 39 71 40 73 41 24 42 76 43
REMARK SMILES IDX 70 44 69 45 25 47 57 48 37 49 56 50 38 51 41 52 55 53 74 54
REMARK SMILES IDX 39 55 40 56 54 58 75 59 42 60 26 61 27 62 35 63 28 64 29 65
REMARK SMILES IDX 33 66 36 67 30 68 31 69 34 70 32 71 58 72 59 73 67 74 60 75
REMARK SMILES IDX 61 76 65 77 68 78 62 79 63 80 66 81 64 82 43 83 44 84 52 85
REMARK SMILES IDX 45 86 46 87 50 88 53 89 47 90 48 91 51 92 49 93
REMARK H PARENT 73 46 41 57
REMARK Flexibility Score: inf
ROOT
ATOM      1  C   UNL A   1      36.842  22.649  23.709  1.00  0.00     0.202 C 
ENDROOT
BRANCH   1   2
ATOM      2  C   UNL A   1      35.377  22.707  23.249  1.00  0.00     0.261 C 
BRANCH   2   3
ATOM      3  O   UNL A   1      34.529  23.532  24.060  1.00  0.00    -0.461 OA
BRANCH   3   4
ATOM      4  C   UNL A   1      33.241  23.101  24.084  1.00  0.00     0.334 C 
ATOM      5  O   UNL A   1      32.454  23.410  23.203  1.00  0.00    -0.249 OA
BRANCH   4   6
ATOM      6  C   UNL A   1      32.820  22.297  25.311  1.00  0.00     0.163 C 
BRANCH   6   7
ATOM      7  C   UNL A   1      32.503  20.804  24.895  1.00  0.00     0.039 C 
ATOM      8  C   UNL A   1      33.504  19.728  25.324  1.00  0.00     0.007 C 
ENDBRANCH   6   7
BRANCH   6   9
ATOM      9  C   UNL A   1      34.025  22.351  26.293  1.00  0.00     0.039 C 
ATOM     10  C   UNL A   1      33.659  22.109  27.760  1.00  0.00     0.007 C 
ENDBRANCH   6   9
BRANCH   6  11
ATOM     11  N   UNL A   1      31.641  22.957  25.931  1.00  0.00    -0.212 N 
ATOM     12  N   UNL A   1      30.567  22.181  26.221  1.00  0.00    -0.044 NA
ATOM     13  C   UNL A   1      31.356  24.247  26.374  1.00  0.00     0.152 A 
ATOM     14  N   UNL A   1      29.731  22.929  26.912  1.00  0.00    -0.024 NA
ATOM     15  N   UNL A   1      30.211  24.191  27.033  1.00  0.00    -0.114 NA
BRANCH  13  16
ATOM     16  C   UNL A   1      32.109  25.544  26.204  1.00  0.00     0.083 C 
BRANCH  16  17
ATOM     17  C   UNL A   1      31.153  26.777  26.025  1.00  0.00    -0.001 C 
ATOM     18  C   UNL A   1      31.424  27.792  27.161  1.00  0.00     0.008 C 
BRANCH  17  19
ATOM     19  C   UNL A   1      31.211  27.475  24.599  1.00  0.00    -0.035 C 
ATOM     20  C   UNL A   1      29.883  27.334  23.828  1.00  0.00     0.011 C 
ATOM     21  C   UNL A   1      31.446  28.999  24.735  1.00  0.00     0.011 C 
ATOM     22  C   UNL A   1      32.323  26.884  23.715  1.00  0.00     0.011 C 
ENDBRANCH  17  19
ENDBRANCH  16  17
ENDBRANCH  13  16
ENDBRANCH   6  11
ENDBRANCH   4   6
ENDBRANCH   3   4
ENDBRANCH   2   3
ENDBRANCH   1   2
BRANCH   1  23
ATOM     23  O   UNL A   1      37.173  21.973  24.913  1.00  0.00    -0.374 OA
BRANCH  23  24
ATOM     24  C   UNL A   1      37.261  20.551  24.935  1.00  0.00     0.202 C 
BRANCH  24  25
ATOM     25  C   UNL A   1      38.551  19.856  25.391  1.00  0.00     0.261 C 
BRANCH  25  26
ATOM     26  O   UNL A   1      39.667  20.752  25.537  1.00  0.00    -0.460 OA
BRANCH  26  27
ATOM     27  C   UNL A   1      40.290  20.675  26.736  1.00  0.00     0.338 C 
ATOM     28  O   UNL A   1      40.754  19.675  27.272  1.00  0.00    -0.246 OA
BRANCH  27  29
ATOM     29  C   UNL A   1      40.540  22.019  27.275  1.00  0.00     0.060 A 
ATOM     30  C   UNL A   1      39.780  23.078  26.759  1.00  0.00     0.016 A 
ATOM     31  C   UNL A   1      41.586  22.258  28.167  1.00  0.00     0.016 A 
ATOM     32  C   UNL A   1      40.096  24.390  27.095  1.00  0.00     0.010 A 
ATOM     33  C   UNL A   1      41.910  23.578  28.492  1.00  0.00     0.010 A 
ATOM     34  C   UNL A   1      41.194  24.648  27.926  1.00  0.00    -0.014 A 
BRANCH  34  35
ATOM     35  C   UNL A   1      41.684  26.040  28.062  1.00  0.00     0.031 A 
ATOM     36  C   UNL A   1      43.035  26.392  27.506  1.00  0.00     0.074 A 
ATOM     37  C   UNL A   1      40.916  26.984  28.631  1.00  0.00     0.049 A 
ATOM     38  N   UNL A   1      43.683  27.529  27.550  1.00  0.00    -0.248 NA
ATOM     39  C   UNL A   1      43.757  25.317  26.807  1.00  0.00     0.031 C 
ATOM     40  C   UNL A   1      39.569  26.770  29.157  1.00  0.00     0.029 A 
ATOM     41  N   UNL A   1      41.165  28.312  28.868  1.00  0.00    -0.354 N 
ATOM     42  C   UNL A   1      44.886  27.304  26.893  1.00  0.00     0.074 A 
ATOM     43  C   UNL A   1      44.895  25.915  26.490  1.00  0.00     0.031 C 
ATOM     44  C   UNL A   1      39.115  27.925  29.670  1.00  0.00     0.029 A 
ATOM     45  C   UNL A   1      40.153  28.948  29.542  1.00  0.00     0.049 A 
ATOM     46  H   UNL A   1      41.992  28.765  28.582  1.00  0.00     0.167 HD
ATOM     47  C   UNL A   1      45.886  28.182  26.641  1.00  0.00     0.037 A 
ATOM     48  C   UNL A   1      40.087  30.203  30.026  1.00  0.00     0.037 A 
ATOM     49  C   UNL A   1      45.869  29.563  27.047  1.00  0.00     0.049 A 
ATOM     50  C   UNL A   1      41.248  31.138  29.804  1.00  0.00     0.074 A 
ATOM     51  C   UNL A   1      46.827  30.537  26.833  1.00  0.00     0.029 A 
ATOM     52  N   UNL A   1      44.840  30.163  27.758  1.00  0.00    -0.354 N 
ATOM     53  N   UNL A   1      42.376  30.923  29.169  1.00  0.00    -0.248 NA
ATOM     54  C   UNL A   1      41.124  32.492  30.360  1.00  0.00     0.031 C 
ATOM     55  C   UNL A   1      46.405  31.711  27.465  1.00  0.00     0.029 A 
ATOM     56  C   UNL A   1      45.153  31.488  28.016  1.00  0.00     0.049 A 
ATOM     57  H   UNL A   1      44.009  29.715  28.038  1.00  0.00     0.167 HD
ATOM     58  C   UNL A   1      43.080  32.120  29.224  1.00  0.00     0.074 A 
ATOM     59  C   UNL A   1      42.245  33.061  29.940  1.00  0.00     0.031 C 
ATOM     60  C   UNL A   1      44.306  32.414  28.724  1.00  0.00     0.037 A 
BRANCH  47  61
ATOM     61  C   UNL A   1      47.097  27.666  25.917  1.00  0.00     0.064 A 
ATOM     62  C   UNL A   1      47.182  27.672  24.516  1.00  0.00     0.173 A 
ATOM     63  C   UNL A   1      48.205  27.192  26.637  1.00  0.00     0.173 A 
ATOM     64  F   UNL A   1      46.146  28.101  23.779  1.00  0.00    -0.203 F 
ATOM     65  C   UNL A   1      48.317  27.197  23.864  1.00  0.00     0.198 A 
ATOM     66  C   UNL A   1      49.351  26.749  25.982  1.00  0.00     0.198 A 
ATOM     67  F   UNL A   1      48.180  27.168  27.978  1.00  0.00    -0.203 F 
ATOM     68  F   UNL A   1      48.354  27.165  22.524  1.00  0.00    -0.200 F 
ATOM     69  C   UNL A   1      49.403  26.743  24.597  1.00  0.00     0.200 A 
ATOM     70  F   UNL A   1      50.405  26.324  26.694  1.00  0.00    -0.200 F 
ATOM     71  F   UNL A   1      50.499  26.294  23.968  1.00  0.00    -0.200 F 
ENDBRANCH  47  61
BRANCH  48  72
ATOM     72  C   UNL A   1      38.888  30.642  30.788  1.00  0.00     0.064 A 
ATOM     73  C   UNL A   1      38.834  30.534  32.183  1.00  0.00     0.173 A 
ATOM     74  C   UNL A   1      37.764  31.166  30.130  1.00  0.00     0.173 A 
ATOM     75  F   UNL A   1      39.874  30.020  32.856  1.00  0.00    -0.203 F 
ATOM     76  C   UNL A   1      37.695  30.911  32.891  1.00  0.00     0.198 A 
ATOM     77  C   UNL A   1      36.638  31.573  30.841  1.00  0.00     0.198 A 
ATOM     78  F   UNL A   1      37.765  31.292  28.795  1.00  0.00    -0.203 F 
ATOM     79  F   UNL A   1      37.650  30.749  34.220  1.00  0.00    -0.200 F 
ATOM     80  C   UNL A   1      36.600  31.436  32.220  1.00  0.00     0.200 A 
ATOM     81  F   UNL A   1      35.589  32.095  30.190  1.00  0.00    -0.200 F 
ATOM     82  F   UNL A   1      35.506  31.802  32.901  1.00  0.00    -0.200 F 
ENDBRANCH  48  72
BRANCH  60  83
ATOM     83  C   UNL A   1      44.803  33.823  28.898  1.00  0.00     0.064 A 
ATOM     84  C   UNL A   1      45.589  34.201  29.995  1.00  0.00     0.173 A 
ATOM     85  C   UNL A   1      44.521  34.796  27.927  1.00  0.00     0.173 A 
ATOM     86  F   UNL A   1      45.876  33.312  30.958  1.00  0.00    -0.203 F 
ATOM     87  C   UNL A   1      46.048  35.509  30.131  1.00  0.00     0.198 A 
ATOM     88  C   UNL A   1      45.011  36.094  28.047  1.00  0.00     0.198 A 
ATOM     89  F   UNL A   1      43.780  34.486  26.852  1.00  0.00    -0.203 F 
ATOM     90  F   UNL A   1      46.752  35.861  31.216  1.00  0.00    -0.200 F 
ATOM     91  C   UNL A   1      45.766  36.452  29.153  1.00  0.00     0.200 A 
ATOM     92  F   UNL A   1      44.751  36.998  27.092  1.00  0.00    -0.200 F 
ATOM     93  F   UNL A   1      46.216  37.707  29.281  1.00  0.00    -0.200 F 
ENDBRANCH  60  83
ENDBRANCH  34  35
ENDBRANCH  27  29
ENDBRANCH  26  27
ENDBRANCH  25  26
ENDBRANCH  24  25
ENDBRANCH  23  24
ENDBRANCH   1  23
TORSDOF 20
ENDMDL
