MODEL 1
REMARK VINA RESULT:     -10.7      0.000      0.000
REMARK SMILES CCSc1nc(CC(=O)N[C@@H](C(=O)OCCOCCOC(=O)c2ccc(-c3c4nc(c(-c5c(F)c(F)c(F)c(F)c5F)c5ccc([nH]5)c(-c5c(F)c(F)c(F)c(F)c5F)c5nc(c(-c6c(F)c(F)c(F)c(F)c6F)c6ccc3[nH]6)C=C5)C=C4)cc2)C2=C(C)N=N[C@@H]2C)cs1
REMARK SMILES IDX 15 1 14 2 12 3 13 4 11 5 10 6 8 7 9 8 7 10 6 11 4 12 5 13
REMARK SMILES IDX 94 14 93 15 3 16 2 17 1 18 86 19 87 20 91 21 88 22 89 23
REMARK SMILES IDX 90 24 92 25 16 26 17 27 18 28 19 29 20 30 21 31 22 32 23 33
REMARK SMILES IDX 24 34 85 35 25 36 84 37 26 38 27 39 28 40 78 41 29 42 83 43
REMARK SMILES IDX 77 44 79 45 30 46 82 47 76 48 75 49 31 51 63 52 43 53 62 54
REMARK SMILES IDX 44 55 47 56 61 57 80 58 45 59 46 60 60 62 81 63 48 64 32 65
REMARK SMILES IDX 33 66 41 67 34 68 35 69 39 70 42 71 36 72 37 73 40 74 38 75
REMARK SMILES IDX 64 76 65 77 73 78 66 79 67 80 71 81 74 82 68 83 69 84 72 85
REMARK SMILES IDX 70 86 49 87 50 88 58 89 51 90 52 91 56 92 59 93 53 94 54 95
REMARK SMILES IDX 57 96 55 97
REMARK H PARENT 10 9 79 50 47 61
REMARK Flexibility Score: inf
ROOT
ATOM      1  C   UNL A   1      36.142  23.502  24.619  1.00  0.00     0.261 C 
ENDROOT
BRANCH   1   2
ATOM      2  O   UNL A   1      35.293  24.373  25.390  1.00  0.00    -0.461 OA
BRANCH   2   3
ATOM      3  C   UNL A   1      33.995  23.972  25.527  1.00  0.00     0.333 C 
ATOM      4  O   UNL A   1      33.634  23.041  26.240  1.00  0.00    -0.249 OA
BRANCH   3   5
ATOM      5  C   UNL A   1      33.019  24.846  24.688  1.00  0.00     0.223 C 
BRANCH   5   6
ATOM      6  N   UNL A   1      31.626  24.865  25.126  1.00  0.00    -0.339 N 
ATOM      7  C   UNL A   1      31.059  25.627  26.106  1.00  0.00     0.226 C 
ATOM      8  O   UNL A   1      29.873  25.440  26.382  1.00  0.00    -0.275 OA
ATOM      9  H   UNL A   1      31.017  24.251  24.653  1.00  0.00     0.164 HD
BRANCH   7  10
ATOM     10  C   UNL A   1      31.879  26.675  26.832  1.00  0.00     0.157 C 
BRANCH  10  11
ATOM     11  C   UNL A   1      31.684  28.014  26.208  1.00  0.00     0.062 A 
ATOM     12  C   UNL A   1      30.935  29.355  24.606  1.00  0.00     0.150 A 
ATOM     13  N   UNL A   1      31.038  28.097  24.983  1.00  0.00    -0.234 NA
ATOM     14  S   UNL A   1      31.641  30.494  25.674  1.00  0.00    -0.116 S 
ATOM     15  C   UNL A   1      32.091  29.227  26.728  1.00  0.00     0.092 A 
BRANCH  12  16
ATOM     16  S   UNL A   1      30.027  29.760  23.165  1.00  0.00    -0.096 SA
BRANCH  16  17
ATOM     17  C   UNL A   1      29.092  31.239  23.636  1.00  0.00     0.074 C 
ATOM     18  C   UNL A   1      27.595  31.072  23.448  1.00  0.00     0.016 C 
ENDBRANCH  16  17
ENDBRANCH  12  16
ENDBRANCH  10  11
ENDBRANCH   7  10
ENDBRANCH   5   6
BRANCH   5  19
ATOM     19  C   UNL A   1      33.032  24.502  23.231  1.00  0.00     0.012 C 
ATOM     20  C   UNL A   1      32.978  25.331  22.182  1.00  0.00     0.064 C 
ATOM     21  C   UNL A   1      33.264  23.151  22.634  1.00  0.00     0.156 C 
ATOM     22  C   UNL A   1      32.705  26.793  22.165  1.00  0.00     0.069 C 
ATOM     23  N   UNL A   1      33.238  24.696  20.995  1.00  0.00    -0.160 NA
ATOM     24  N   UNL A   1      33.497  23.478  21.200  1.00  0.00    -0.181 NA
ATOM     25  C   UNL A   1      32.051  22.225  22.674  1.00  0.00     0.040 C 
ENDBRANCH   5  19
ENDBRANCH   3   5
ENDBRANCH   2   3
ENDBRANCH   1   2
BRANCH   1  26
ATOM     26  C   UNL A   1      37.397  23.124  25.406  1.00  0.00     0.202 C 
BRANCH  26  27
ATOM     27  O   UNL A   1      38.022  21.890  25.047  1.00  0.00    -0.374 OA
BRANCH  27  28
ATOM     28  C   UNL A   1      39.124  21.469  25.840  1.00  0.00     0.202 C 
BRANCH  28  29
ATOM     29  C   UNL A   1      39.617  20.027  25.658  1.00  0.00     0.261 C 
BRANCH  29  30
ATOM     30  O   UNL A   1      40.580  19.636  26.642  1.00  0.00    -0.460 OA
BRANCH  30  31
ATOM     31  C   UNL A   1      41.845  19.599  26.164  1.00  0.00     0.338 C 
ATOM     32  O   UNL A   1      42.318  18.790  25.375  1.00  0.00    -0.246 OA
BRANCH  31  33
ATOM     33  C   UNL A   1      42.588  20.792  26.595  1.00  0.00     0.060 A 
ATOM     34  C   UNL A   1      42.487  21.139  27.947  1.00  0.00     0.016 A 
ATOM     35  C   UNL A   1      43.290  21.600  25.697  1.00  0.00     0.016 A 
ATOM     36  C   UNL A   1      43.010  22.345  28.393  1.00  0.00     0.010 A 
ATOM     37  C   UNL A   1      43.811  22.819  26.145  1.00  0.00     0.010 A 
ATOM     38  C   UNL A   1      43.620  23.217  27.481  1.00  0.00    -0.014 A 
BRANCH  38  39
ATOM     39  C   UNL A   1      43.850  24.616  27.908  1.00  0.00     0.031 A 
ATOM     40  C   UNL A   1      45.264  25.128  27.955  1.00  0.00     0.074 A 
ATOM     41  C   UNL A   1      42.816  25.441  28.142  1.00  0.00     0.049 A 
ATOM     42  N   UNL A   1      45.705  26.335  28.202  1.00  0.00    -0.248 NA
ATOM     43  C   UNL A   1      46.326  24.146  27.679  1.00  0.00     0.031 C 
ATOM     44  C   UNL A   1      41.406  25.062  28.086  1.00  0.00     0.029 A 
ATOM     45  N   UNL A   1      42.797  26.776  28.455  1.00  0.00    -0.354 N 
ATOM     46  C   UNL A   1      47.089  26.257  28.105  1.00  0.00     0.074 A 
ATOM     47  C   UNL A   1      47.419  24.879  27.818  1.00  0.00     0.031 C 
ATOM     48  C   UNL A   1      40.655  26.145  28.350  1.00  0.00     0.029 A 
ATOM     49  C   UNL A   1      41.533  27.285  28.609  1.00  0.00     0.049 A 
ATOM     50  H   UNL A   1      43.613  27.317  28.559  1.00  0.00     0.167 HD
ATOM     51  C   UNL A   1      48.001  27.251  28.228  1.00  0.00     0.037 A 
ATOM     52  C   UNL A   1      41.135  28.533  28.926  1.00  0.00     0.037 A 
ATOM     53  C   UNL A   1      47.667  28.621  28.512  1.00  0.00     0.049 A 
ATOM     54  C   UNL A   1      42.174  29.609  29.109  1.00  0.00     0.074 A 
ATOM     55  C   UNL A   1      48.512  29.706  28.652  1.00  0.00     0.029 A 
ATOM     56  N   UNL A   1      46.376  29.091  28.704  1.00  0.00    -0.354 N 
ATOM     57  N   UNL A   1      43.477  29.534  28.988  1.00  0.00    -0.248 NA
ATOM     58  C   UNL A   1      41.683  30.948  29.462  1.00  0.00     0.031 C 
ATOM     59  C   UNL A   1      47.736  30.824  28.976  1.00  0.00     0.029 A 
ATOM     60  C   UNL A   1      46.404  30.447  28.983  1.00  0.00     0.049 A 
ATOM     61  H   UNL A   1      45.560  28.541  28.649  1.00  0.00     0.167 HD
ATOM     62  C   UNL A   1      43.959  30.815  29.221  1.00  0.00     0.074 A 
ATOM     63  C   UNL A   1      42.805  31.653  29.474  1.00  0.00     0.031 C 
ATOM     64  C   UNL A   1      45.240  31.262  29.226  1.00  0.00     0.037 A 
BRANCH  51  65
ATOM     65  C   UNL A   1      49.447  26.881  28.079  1.00  0.00     0.064 A 
ATOM     66  C   UNL A   1      50.246  26.562  29.188  1.00  0.00     0.173 A 
ATOM     67  C   UNL A   1      50.039  26.825  26.808  1.00  0.00     0.173 A 
ATOM     68  F   UNL A   1      49.733  26.618  30.427  1.00  0.00    -0.203 F 
ATOM     69  C   UNL A   1      51.589  26.228  29.033  1.00  0.00     0.198 A 
ATOM     70  C   UNL A   1      51.374  26.463  26.654  1.00  0.00     0.198 A 
ATOM     71  F   UNL A   1      49.320  27.120  25.715  1.00  0.00    -0.203 F 
ATOM     72  F   UNL A   1      52.345  25.974  30.110  1.00  0.00    -0.200 F 
ATOM     73  C   UNL A   1      52.150  26.172  27.766  1.00  0.00     0.200 A 
ATOM     74  F   UNL A   1      51.912  26.401  25.428  1.00  0.00    -0.200 F 
ATOM     75  F   UNL A   1      53.441  25.845  27.616  1.00  0.00    -0.200 F 
ENDBRANCH  51  65
BRANCH  52  76
ATOM     76  C   UNL A   1      39.689  28.834  29.082  1.00  0.00     0.064 A 
ATOM     77  C   UNL A   1      38.921  29.295  28.003  1.00  0.00     0.173 A 
ATOM     78  C   UNL A   1      39.049  28.685  30.321  1.00  0.00     0.173 A 
ATOM     79  F   UNL A   1      39.491  29.474  26.803  1.00  0.00    -0.203 F 
ATOM     80  C   UNL A   1      37.574  29.614  28.164  1.00  0.00     0.198 A 
ATOM     81  C   UNL A   1      37.696  28.977  30.474  1.00  0.00     0.198 A 
ATOM     82  F   UNL A   1      39.739  28.247  31.385  1.00  0.00    -0.203 F 
ATOM     83  F   UNL A   1      36.874  30.097  27.128  1.00  0.00    -0.200 F 
ATOM     84  C   UNL A   1      36.961  29.450  29.397  1.00  0.00     0.200 A 
ATOM     85  F   UNL A   1      37.105  28.805  31.664  1.00  0.00    -0.200 F 
ATOM     86  F   UNL A   1      35.665  29.755  29.550  1.00  0.00    -0.200 F 
ENDBRANCH  52  76
BRANCH  64  87
ATOM     87  C   UNL A   1      45.455  32.726  29.482  1.00  0.00     0.064 A 
ATOM     88  C   UNL A   1      45.679  33.224  30.774  1.00  0.00     0.173 A 
ATOM     89  C   UNL A   1      45.464  33.638  28.415  1.00  0.00     0.173 A 
ATOM     90  F   UNL A   1      45.666  32.394  31.828  1.00  0.00    -0.203 F 
ATOM     91  C   UNL A   1      45.870  34.585  30.993  1.00  0.00     0.198 A 
ATOM     92  C   UNL A   1      45.688  34.994  28.634  1.00  0.00     0.198 A 
ATOM     93  F   UNL A   1      45.265  33.212  27.159  1.00  0.00    -0.203 F 
ATOM     94  F   UNL A   1      46.026  35.045  32.242  1.00  0.00    -0.200 F 
ATOM     95  C   UNL A   1      45.880  35.468  29.923  1.00  0.00     0.200 A 
ATOM     96  F   UNL A   1      45.712  35.844  27.598  1.00  0.00    -0.200 F 
ATOM     97  F   UNL A   1      46.068  36.778  30.135  1.00  0.00    -0.200 F 
ENDBRANCH  64  87
ENDBRANCH  38  39
ENDBRANCH  31  33
ENDBRANCH  30  31
ENDBRANCH  29  30
ENDBRANCH  28  29
ENDBRANCH  27  28
ENDBRANCH  26  27
ENDBRANCH   1  26
TORSDOF 20
ENDMDL
MODEL 2
REMARK VINA RESULT:     -10.6      2.073      2.880
REMARK SMILES CCSc1nc(CC(=O)N[C@@H](C(=O)OCCOCCOC(=O)c2ccc(-c3c4nc(c(-c5c(F)c(F)c(F)c(F)c5F)c5ccc([nH]5)c(-c5c(F)c(F)c(F)c(F)c5F)c5nc(c(-c6c(F)c(F)c(F)c(F)c6F)c6ccc3[nH]6)C=C5)C=C4)cc2)C2=C(C)N=N[C@@H]2C)cs1
REMARK SMILES IDX 15 1 14 2 12 3 13 4 11 5 10 6 8 7 9 8 7 10 6 11 4 12 5 13
REMARK SMILES IDX 94 14 93 15 3 16 2 17 1 18 86 19 87 20 91 21 88 22 89 23
REMARK SMILES IDX 90 24 92 25 16 26 17 27 18 28 19 29 20 30 21 31 22 32 23 33
REMARK SMILES IDX 24 34 85 35 25 36 84 37 26 38 27 39 28 40 78 41 29 42 83 43
REMARK SMILES IDX 77 44 79 45 30 46 82 47 76 48 75 49 31 51 63 52 43 53 62 54
REMARK SMILES IDX 44 55 47 56 61 57 80 58 45 59 46 60 60 62 81 63 48 64 32 65
REMARK SMILES IDX 33 66 41 67 34 68 35 69 39 70 42 71 36 72 37 73 40 74 38 75
REMARK SMILES IDX 64 76 65 77 73 78 66 79 67 80 71 81 74 82 68 83 69 84 72 85
REMARK SMILES IDX 70 86 49 87 50 88 58 89 51 90 52 91 56 92 59 93 53 94 54 95
REMARK SMILES IDX 57 96 55 97
REMARK H PARENT 10 9 79 50 47 61
REMARK Flexibility Score: inf
ROOT
ATOM      1  C   UNL A   1      36.759  23.463  24.760  1.00  0.00     0.261 C 
ENDROOT
BRANCH   1   2
ATOM      2  O   UNL A   1      35.477  24.106  24.890  1.00  0.00    -0.461 OA
BRANCH   2   3
ATOM      3  C   UNL A   1      34.614  23.539  25.784  1.00  0.00     0.333 C 
ATOM      4  O   UNL A   1      34.949  23.096  26.877  1.00  0.00    -0.249 OA
BRANCH   3   5
ATOM      5  C   UNL A   1      33.148  23.535  25.263  1.00  0.00     0.223 C 
BRANCH   5   6
ATOM      6  N   UNL A   1      32.100  23.429  26.275  1.00  0.00    -0.339 N 
ATOM      7  C   UNL A   1      30.874  24.028  26.288  1.00  0.00     0.226 C 
ATOM      8  O   UNL A   1      30.156  23.874  27.278  1.00  0.00    -0.275 OA
ATOM      9  H   UNL A   1      32.303  22.851  27.046  1.00  0.00     0.164 HD
BRANCH   7  10
ATOM     10  C   UNL A   1      30.415  24.860  25.107  1.00  0.00     0.157 C 
BRANCH  10  11
ATOM     11  C   UNL A   1      31.152  26.155  25.064  1.00  0.00     0.062 A 
ATOM     12  C   UNL A   1      31.818  28.077  25.950  1.00  0.00     0.150 A 
ATOM     13  N   UNL A   1      31.086  27.003  26.160  1.00  0.00    -0.234 NA
ATOM     14  S   UNL A   1      32.586  28.147  24.420  1.00  0.00    -0.116 S 
ATOM     15  C   UNL A   1      31.922  26.625  24.017  1.00  0.00     0.092 A 
BRANCH  12  16
ATOM     16  S   UNL A   1      32.033  29.248  27.233  1.00  0.00    -0.096 SA
BRANCH  16  17
ATOM     17  C   UNL A   1      33.514  30.170  26.744  1.00  0.00     0.074 C 
ATOM     18  C   UNL A   1      34.788  29.590  27.333  1.00  0.00     0.016 C 
ENDBRANCH  16  17
ENDBRANCH  12  16
ENDBRANCH  10  11
ENDBRANCH   7  10
ENDBRANCH   5   6
BRANCH   5  19
ATOM     19  C   UNL A   1      32.895  22.477  24.235  1.00  0.00     0.012 C 
ATOM     20  C   UNL A   1      32.980  21.149  24.372  1.00  0.00     0.064 C 
ATOM     21  C   UNL A   1      32.339  22.682  22.861  1.00  0.00     0.156 C 
ATOM     22  C   UNL A   1      33.523  20.365  25.513  1.00  0.00     0.069 C 
ATOM     23  N   UNL A   1      32.463  20.475  23.295  1.00  0.00    -0.160 NA
ATOM     24  N   UNL A   1      32.003  21.290  22.450  1.00  0.00    -0.181 NA
ATOM     25  C   UNL A   1      33.349  23.200  21.841  1.00  0.00     0.040 C 
ENDBRANCH   5  19
ENDBRANCH   3   5
ENDBRANCH   2   3
ENDBRANCH   1   2
BRANCH   1  26
ATOM     26  C   UNL A   1      36.661  22.220  23.876  1.00  0.00     0.202 C 
BRANCH  26  27
ATOM     27  O   UNL A   1      37.045  20.982  24.478  1.00  0.00    -0.374 OA
BRANCH  27  28
ATOM     28  C   UNL A   1      37.995  21.044  25.533  1.00  0.00     0.202 C 
BRANCH  28  29
ATOM     29  C   UNL A   1      39.152  20.036  25.503  1.00  0.00     0.261 C 
BRANCH  29  30
ATOM     30  O   UNL A   1      39.989  20.110  26.661  1.00  0.00    -0.460 OA
BRANCH  30  31
ATOM     31  C   UNL A   1      41.193  20.674  26.413  1.00  0.00     0.338 C 
ATOM     32  O   UNL A   1      42.068  20.259  25.664  1.00  0.00    -0.246 OA
BRANCH  31  33
ATOM     33  C   UNL A   1      41.280  21.995  27.053  1.00  0.00     0.060 A 
ATOM     34  C   UNL A   1      40.724  23.070  26.350  1.00  0.00     0.016 A 
ATOM     35  C   UNL A   1      41.959  22.199  28.257  1.00  0.00     0.016 A 
ATOM     36  C   UNL A   1      40.922  24.367  26.800  1.00  0.00     0.010 A 
ATOM     37  C   UNL A   1      42.164  23.508  28.707  1.00  0.00     0.010 A 
ATOM     38  C   UNL A   1      41.696  24.595  27.947  1.00  0.00    -0.014 A 
BRANCH  38  39
ATOM     39  C   UNL A   1      42.172  25.974  28.198  1.00  0.00     0.031 A 
ATOM     40  C   UNL A   1      43.497  26.391  27.618  1.00  0.00     0.074 A 
ATOM     41  C   UNL A   1      41.393  26.864  28.833  1.00  0.00     0.049 A 
ATOM     42  N   UNL A   1      44.073  27.566  27.621  1.00  0.00    -0.248 NA
ATOM     43  C   UNL A   1      44.274  25.343  26.937  1.00  0.00     0.031 C 
ATOM     44  C   UNL A   1      40.076  26.579  29.400  1.00  0.00     0.029 A 
ATOM     45  N   UNL A   1      41.592  28.197  29.090  1.00  0.00    -0.354 N 
ATOM     46  C   UNL A   1      45.273  27.398  26.940  1.00  0.00     0.074 A 
ATOM     47  C   UNL A   1      45.363  26.002  26.574  1.00  0.00     0.031 C 
ATOM     48  C   UNL A   1      39.580  27.709  29.934  1.00  0.00     0.029 A 
ATOM     49  C   UNL A   1      40.551  28.788  29.760  1.00  0.00     0.049 A 
ATOM     50  H   UNL A   1      42.404  28.683  28.819  1.00  0.00     0.167 HD
ATOM     51  C   UNL A   1      46.208  28.328  26.633  1.00  0.00     0.037 A 
ATOM     52  C   UNL A   1      40.406  30.057  30.186  1.00  0.00     0.037 A 
ATOM     53  C   UNL A   1      46.113  29.717  26.999  1.00  0.00     0.049 A 
ATOM     54  C   UNL A   1      41.486  31.062  29.877  1.00  0.00     0.074 A 
ATOM     55  C   UNL A   1      47.001  30.743  26.734  1.00  0.00     0.029 A 
ATOM     56  N   UNL A   1      45.062  30.270  27.716  1.00  0.00    -0.354 N 
ATOM     57  N   UNL A   1      42.602  30.902  29.208  1.00  0.00    -0.248 NA
ATOM     58  C   UNL A   1      41.277  32.430  30.373  1.00  0.00     0.031 C 
ATOM     59  C   UNL A   1      46.510  31.909  27.332  1.00  0.00     0.029 A 
ATOM     60  C   UNL A   1      45.290  31.620  27.922  1.00  0.00     0.049 A 
ATOM     61  H   UNL A   1      44.271  29.775  28.031  1.00  0.00     0.167 HD
ATOM     62  C   UNL A   1      43.215  32.148  29.179  1.00  0.00     0.074 A 
ATOM     63  C   UNL A   1      42.336  33.059  29.883  1.00  0.00     0.031 C 
ATOM     64  C   UNL A   1      44.397  32.509  28.621  1.00  0.00     0.037 A 
BRANCH  51  65
ATOM     65  C   UNL A   1      47.423  27.865  25.886  1.00  0.00     0.064 A 
ATOM     66  C   UNL A   1      48.611  27.520  26.549  1.00  0.00     0.173 A 
ATOM     67  C   UNL A   1      47.394  27.744  24.488  1.00  0.00     0.173 A 
ATOM     68  F   UNL A   1      48.696  27.635  27.883  1.00  0.00    -0.203 F 
ATOM     69  C   UNL A   1      49.732  27.098  25.839  1.00  0.00     0.198 A 
ATOM     70  C   UNL A   1      48.508  27.295  23.784  1.00  0.00     0.198 A 
ATOM     71  F   UNL A   1      46.284  28.060  23.806  1.00  0.00    -0.203 F 
ATOM     72  F   UNL A   1      50.871  26.820  26.489  1.00  0.00    -0.200 F 
ATOM     73  C   UNL A   1      49.678  26.979  24.458  1.00  0.00     0.200 A 
ATOM     74  F   UNL A   1      48.449  27.172  22.451  1.00  0.00    -0.200 F 
ATOM     75  F   UNL A   1      50.755  26.569  23.776  1.00  0.00    -0.200 F 
ENDBRANCH  51  65
BRANCH  52  76
ATOM     76  C   UNL A   1      39.190  30.453  30.942  1.00  0.00     0.064 A 
ATOM     77  C   UNL A   1      38.039  30.909  30.283  1.00  0.00     0.173 A 
ATOM     78  C   UNL A   1      39.161  30.401  32.343  1.00  0.00     0.173 A 
ATOM     79  F   UNL A   1      38.025  30.997  28.945  1.00  0.00    -0.203 F 
ATOM     80  C   UNL A   1      36.915  31.316  30.998  1.00  0.00     0.198 A 
ATOM     81  C   UNL A   1      38.026  30.781  33.055  1.00  0.00     0.198 A 
ATOM     82  F   UNL A   1      40.236  29.972  33.022  1.00  0.00    -0.203 F 
ATOM     83  F   UNL A   1      35.845  31.792  30.345  1.00  0.00    -0.200 F 
ATOM     84  C   UNL A   1      36.906  31.247  32.382  1.00  0.00     0.200 A 
ATOM     85  F   UNL A   1      38.018  30.700  34.393  1.00  0.00    -0.200 F 
ATOM     86  F   UNL A   1      35.823  31.637  33.069  1.00  0.00    -0.200 F 
ENDBRANCH  52  76
BRANCH  64  87
ATOM     87  C   UNL A   1      44.790  33.955  28.723  1.00  0.00     0.064 A 
ATOM     88  C   UNL A   1      45.608  34.426  29.760  1.00  0.00     0.173 A 
ATOM     89  C   UNL A   1      44.364  34.875  27.752  1.00  0.00     0.173 A 
ATOM     90  F   UNL A   1      46.031  33.588  30.719  1.00  0.00    -0.203 F 
ATOM     91  C   UNL A   1      45.957  35.771  29.841  1.00  0.00     0.198 A 
ATOM     92  C   UNL A   1      44.742  36.212  27.819  1.00  0.00     0.198 A 
ATOM     93  F   UNL A   1      43.588  34.474  26.734  1.00  0.00    -0.203 F 
ATOM     94  F   UNL A   1      46.694  36.209  30.872  1.00  0.00    -0.200 F 
ATOM     95  C   UNL A   1      45.529  36.662  28.868  1.00  0.00     0.200 A 
ATOM     96  F   UNL A   1      44.339  37.069  26.870  1.00  0.00    -0.200 F 
ATOM     97  F   UNL A   1      45.869  37.956  28.946  1.00  0.00    -0.200 F 
ENDBRANCH  64  87
ENDBRANCH  38  39
ENDBRANCH  31  33
ENDBRANCH  30  31
ENDBRANCH  29  30
ENDBRANCH  28  29
ENDBRANCH  27  28
ENDBRANCH  26  27
ENDBRANCH   1  26
TORSDOF 20
ENDMDL
MODEL 3
REMARK VINA RESULT:     -10.6      4.856      9.976
REMARK SMILES CCSc1nc(CC(=O)N[C@@H](C(=O)OCCOCCOC(=O)c2ccc(-c3c4nc(c(-c5c(F)c(F)c(F)c(F)c5F)c5ccc([nH]5)c(-c5c(F)c(F)c(F)c(F)c5F)c5nc(c(-c6c(F)c(F)c(F)c(F)c6F)c6ccc3[nH]6)C=C5)C=C4)cc2)C2=C(C)N=N[C@@H]2C)cs1
REMARK SMILES IDX 15 1 14 2 12 3 13 4 11 5 10 6 8 7 9 8 7 10 6 11 4 12 5 13
REMARK SMILES IDX 94 14 93 15 3 16 2 17 1 18 86 19 87 20 91 21 88 22 89 23
REMARK SMILES IDX 90 24 92 25 16 26 17 27 18 28 19 29 20 30 21 31 22 32 23 33
REMARK SMILES IDX 24 34 85 35 25 36 84 37 26 38 27 39 28 40 78 41 29 42 83 43
REMARK SMILES IDX 77 44 79 45 30 46 82 47 76 48 75 49 31 51 63 52 43 53 62 54
REMARK SMILES IDX 44 55 47 56 61 57 80 58 45 59 46 60 60 62 81 63 48 64 32 65
REMARK SMILES IDX 33 66 41 67 34 68 35 69 39 70 42 71 36 72 37 73 40 74 38 75
REMARK SMILES IDX 64 76 65 77 73 78 66 79 67 80 71 81 74 82 68 83 69 84 72 85
REMARK SMILES IDX 70 86 49 87 50 88 58 89 51 90 52 91 56 92 59 93 53 94 54 95
REMARK SMILES IDX 57 96 55 97
REMARK H PARENT 10 9 79 50 47 61
REMARK Flexibility Score: inf
ROOT
ATOM      1  C   UNL A   1      32.763  27.368  23.470  1.00  0.00     0.261 C 
ENDROOT
BRANCH   1   2
ATOM      2  O   UNL A   1      33.888  27.198  24.353  1.00  0.00    -0.461 OA
BRANCH   2   3
ATOM      3  C   UNL A   1      33.623  26.591  25.547  1.00  0.00     0.333 C 
ATOM      4  O   UNL A   1      33.514  27.189  26.612  1.00  0.00    -0.249 OA
BRANCH   3   5
ATOM      5  C   UNL A   1      33.458  25.051  25.400  1.00  0.00     0.223 C 
BRANCH   5   6
ATOM      6  N   UNL A   1      33.624  24.507  24.054  1.00  0.00    -0.339 N 
ATOM      7  C   UNL A   1      34.669  23.784  23.559  1.00  0.00     0.226 C 
ATOM      8  O   UNL A   1      34.659  23.480  22.364  1.00  0.00    -0.275 OA
ATOM      9  H   UNL A   1      32.887  24.684  23.424  1.00  0.00     0.164 HD
BRANCH   7  10
ATOM     10  C   UNL A   1      35.812  23.370  24.465  1.00  0.00     0.157 C 
BRANCH  10  11
ATOM     11  C   UNL A   1      35.814  21.893  24.659  1.00  0.00     0.062 A 
ATOM     12  C   UNL A   1      34.807  19.923  24.832  1.00  0.00     0.150 A 
ATOM     13  N   UNL A   1      34.603  21.215  24.679  1.00  0.00    -0.234 NA
ATOM     14  S   UNL A   1      36.447  19.459  25.001  1.00  0.00    -0.116 S 
ATOM     15  C   UNL A   1      36.926  21.091  24.830  1.00  0.00     0.092 A 
BRANCH  12  16
ATOM     16  S   UNL A   1      33.456  18.813  24.743  1.00  0.00    -0.096 SA
BRANCH  16  17
ATOM     17  C   UNL A   1      34.218  17.178  24.914  1.00  0.00     0.074 C 
ATOM     18  C   UNL A   1      33.289  16.051  24.499  1.00  0.00     0.016 C 
ENDBRANCH  16  17
ENDBRANCH  12  16
ENDBRANCH  10  11
ENDBRANCH   7  10
ENDBRANCH   5   6
BRANCH   5  19
ATOM     19  C   UNL A   1      32.153  24.549  25.934  1.00  0.00     0.012 C 
ATOM     20  C   UNL A   1      31.940  23.564  26.814  1.00  0.00     0.064 C 
ATOM     21  C   UNL A   1      30.804  25.153  25.707  1.00  0.00     0.156 C 
ATOM     22  C   UNL A   1      32.911  22.579  27.361  1.00  0.00     0.069 C 
ATOM     23  N   UNL A   1      30.640  23.520  27.250  1.00  0.00    -0.160 NA
ATOM     24  N   UNL A   1      29.973  24.453  26.726  1.00  0.00    -0.181 NA
ATOM     25  C   UNL A   1      30.185  24.827  24.350  1.00  0.00     0.040 C 
ENDBRANCH   5  19
ENDBRANCH   3   5
ENDBRANCH   2   3
ENDBRANCH   1   2
BRANCH   1  26
ATOM     26  C   UNL A   1      32.059  28.699  23.732  1.00  0.00     0.202 C 
BRANCH  26  27
ATOM     27  O   UNL A   1      32.585  29.496  24.795  1.00  0.00    -0.374 OA
BRANCH  27  28
ATOM     28  C   UNL A   1      31.724  30.479  25.353  1.00  0.00     0.202 C 
BRANCH  28  29
ATOM     29  C   UNL A   1      31.652  30.570  26.883  1.00  0.00     0.261 C 
BRANCH  29  30
ATOM     30  O   UNL A   1      32.917  30.358  27.517  1.00  0.00    -0.460 OA
BRANCH  30  31
ATOM     31  C   UNL A   1      33.658  31.484  27.618  1.00  0.00     0.338 C 
ATOM     32  O   UNL A   1      33.254  32.641  27.634  1.00  0.00    -0.246 OA
BRANCH  31  33
ATOM     33  C   UNL A   1      35.065  31.148  27.881  1.00  0.00     0.060 A 
ATOM     34  C   UNL A   1      35.379  29.787  27.962  1.00  0.00     0.016 A 
ATOM     35  C   UNL A   1      36.033  32.124  28.130  1.00  0.00     0.016 A 
ATOM     36  C   UNL A   1      36.642  29.393  28.382  1.00  0.00     0.010 A 
ATOM     37  C   UNL A   1      37.304  31.726  28.559  1.00  0.00     0.010 A 
ATOM     38  C   UNL A   1      37.589  30.361  28.741  1.00  0.00    -0.014 A 
BRANCH  38  39
ATOM     39  C   UNL A   1      38.779  29.917  29.501  1.00  0.00     0.031 A 
ATOM     40  C   UNL A   1      38.957  30.416  30.910  1.00  0.00     0.074 A 
ATOM     41  C   UNL A   1      39.621  29.005  28.988  1.00  0.00     0.049 A 
ATOM     42  N   UNL A   1      39.860  30.093  31.800  1.00  0.00    -0.248 NA
ATOM     43  C   UNL A   1      37.980  31.411  31.382  1.00  0.00     0.031 C 
ATOM     44  C   UNL A   1      39.521  28.425  27.650  1.00  0.00     0.029 A 
ATOM     45  N   UNL A   1      40.717  28.394  29.542  1.00  0.00    -0.354 N 
ATOM     46  C   UNL A   1      39.556  30.837  32.933  1.00  0.00     0.074 A 
ATOM     47  C   UNL A   1      38.412  31.659  32.608  1.00  0.00     0.031 C 
ATOM     48  C   UNL A   1      40.514  27.533  27.490  1.00  0.00     0.029 A 
ATOM     49  C   UNL A   1      41.326  27.495  28.705  1.00  0.00     0.049 A 
ATOM     50  H   UNL A   1      41.036  28.583  30.454  1.00  0.00     0.167 HD
ATOM     51  C   UNL A   1      40.167  30.823  34.142  1.00  0.00     0.037 A 
ATOM     52  C   UNL A   1      42.417  26.731  28.902  1.00  0.00     0.037 A 
ATOM     53  C   UNL A   1      41.304  30.003  34.461  1.00  0.00     0.049 A 
ATOM     54  C   UNL A   1      43.111  26.774  30.239  1.00  0.00     0.074 A 
ATOM     55  C   UNL A   1      41.996  29.909  35.655  1.00  0.00     0.029 A 
ATOM     56  N   UNL A   1      41.920  29.134  33.571  1.00  0.00    -0.354 N 
ATOM     57  N   UNL A   1      42.799  27.458  31.314  1.00  0.00    -0.248 NA
ATOM     58  C   UNL A   1      44.301  25.927  30.395  1.00  0.00     0.031 C 
ATOM     59  C   UNL A   1      43.059  29.019  35.473  1.00  0.00     0.029 A 
ATOM     60  C   UNL A   1      42.998  28.517  34.184  1.00  0.00     0.049 A 
ATOM     61  H   UNL A   1      41.633  28.980  32.641  1.00  0.00     0.167 HD
ATOM     62  C   UNL A   1      43.734  27.106  32.278  1.00  0.00     0.074 A 
ATOM     63  C   UNL A   1      44.615  26.131  31.666  1.00  0.00     0.031 C 
ATOM     64  C   UNL A   1      43.857  27.545  33.555  1.00  0.00     0.037 A 
BRANCH  51  65
ATOM     65  C   UNL A   1      39.627  31.743  35.197  1.00  0.00     0.064 A 
ATOM     66  C   UNL A   1      38.651  31.323  36.114  1.00  0.00     0.173 A 
ATOM     67  C   UNL A   1      40.107  33.057  35.307  1.00  0.00     0.173 A 
ATOM     68  F   UNL A   1      38.146  30.082  36.040  1.00  0.00    -0.203 F 
ATOM     69  C   UNL A   1      38.157  32.192  37.083  1.00  0.00     0.198 A 
ATOM     70  C   UNL A   1      39.631  33.914  36.295  1.00  0.00     0.198 A 
ATOM     71  F   UNL A   1      41.041  33.509  34.457  1.00  0.00    -0.203 F 
ATOM     72  F   UNL A   1      37.189  31.785  37.917  1.00  0.00    -0.200 F 
ATOM     73  C   UNL A   1      38.651  33.484  37.178  1.00  0.00     0.200 A 
ATOM     74  F   UNL A   1      40.118  35.159  36.391  1.00  0.00    -0.200 F 
ATOM     75  F   UNL A   1      38.178  34.318  38.114  1.00  0.00    -0.200 F 
ENDBRANCH  51  65
BRANCH  52  76
ATOM     76  C   UNL A   1      42.919  25.856  27.811  1.00  0.00     0.064 A 
ATOM     77  C   UNL A   1      43.904  26.300  26.917  1.00  0.00     0.173 A 
ATOM     78  C   UNL A   1      42.408  24.563  27.629  1.00  0.00     0.173 A 
ATOM     79  F   UNL A   1      44.409  27.536  27.037  1.00  0.00    -0.203 F 
ATOM     80  C   UNL A   1      44.343  25.491  25.871  1.00  0.00     0.198 A 
ATOM     81  C   UNL A   1      42.868  23.745  26.600  1.00  0.00     0.198 A 
ATOM     82  F   UNL A   1      41.464  24.091  28.456  1.00  0.00    -0.203 F 
ATOM     83  F   UNL A   1      45.252  25.956  25.003  1.00  0.00    -0.200 F 
ATOM     84  C   UNL A   1      43.830  24.212  25.716  1.00  0.00     0.200 A 
ATOM     85  F   UNL A   1      42.379  22.505  26.463  1.00  0.00    -0.200 F 
ATOM     86  F   UNL A   1      44.255  23.434  24.712  1.00  0.00    -0.200 F 
ENDBRANCH  52  76
BRANCH  64  87
ATOM     87  C   UNL A   1      44.962  26.952  34.382  1.00  0.00     0.064 A 
ATOM     88  C   UNL A   1      46.230  27.546  34.452  1.00  0.00     0.173 A 
ATOM     89  C   UNL A   1      44.737  25.790  35.136  1.00  0.00     0.173 A 
ATOM     90  F   UNL A   1      46.499  28.650  33.740  1.00  0.00    -0.203 F 
ATOM     91  C   UNL A   1      47.244  26.978  35.219  1.00  0.00     0.198 A 
ATOM     92  C   UNL A   1      45.743  25.244  35.927  1.00  0.00     0.198 A 
ATOM     93  F   UNL A   1      43.538  25.189  35.112  1.00  0.00    -0.203 F 
ATOM     94  F   UNL A   1      48.465  27.531  35.227  1.00  0.00    -0.200 F 
ATOM     95  C   UNL A   1      46.998  25.832  35.960  1.00  0.00     0.200 A 
ATOM     96  F   UNL A   1      45.500  24.145  36.654  1.00  0.00    -0.200 F 
ATOM     97  F   UNL A   1      47.974  25.289  36.701  1.00  0.00    -0.200 F 
ENDBRANCH  64  87
ENDBRANCH  38  39
ENDBRANCH  31  33
ENDBRANCH  30  31
ENDBRANCH  29  30
ENDBRANCH  28  29
ENDBRANCH  27  28
ENDBRANCH  26  27
ENDBRANCH   1  26
TORSDOF 20
ENDMDL
