MODEL 1
REMARK VINA RESULT:     -13.1      0.000      0.000
REMARK SMILES CC1(C)S[C@@H](c2cccc3c2sc2ccccc23)[NH2+][C@@H]1C(=O)OCCOCCOC(=O)c1ccc(-c2c3nc(c(-c4c(F)c(F)c(F)c(F)c4F)c4ccc([nH]4)c(-c4c(F)c(F)c(F)c(F)c4F)c4nc(c(-c5c(F)c(F)c(F)c(F)c5F)c5ccc2[nH]5)C=C4)C=C3)cc1
REMARK SMILES IDX 27 1 26 2 25 3 24 4 23 5 21 6 22 7 20 8 1 9 2 10 3 11 4 12
REMARK SMILES IDX 5 13 19 14 6 17 7 18 11 19 8 20 10 21 12 22 9 23 18 24 13 25
REMARK SMILES IDX 17 26 14 27 16 28 15 29 28 30 29 31 30 32 31 33 32 34 33 35
REMARK SMILES IDX 94 36 34 37 93 38 35 39 36 40 37 41 87 42 38 43 92 44 86 45
REMARK SMILES IDX 88 46 39 47 91 48 85 49 84 50 40 52 72 53 52 54 71 55 53 56
REMARK SMILES IDX 56 57 70 58 89 59 54 60 55 61 69 63 90 64 57 65 41 66 42 67
REMARK SMILES IDX 50 68 43 69 44 70 48 71 51 72 45 73 46 74 49 75 47 76 73 77
REMARK SMILES IDX 74 78 82 79 75 80 76 81 80 82 83 83 77 84 78 85 81 86 79 87
REMARK SMILES IDX 58 88 59 89 67 90 60 91 61 92 65 93 68 94 62 95 63 96 66 97
REMARK SMILES IDX 64 98
REMARK H PARENT 19 15 19 16 88 51 56 62
REMARK Flexibility Score: inf
ROOT
ATOM      1  C   UNL A   1      31.405  31.738  26.525  1.00  0.00     0.202 C 
ENDROOT
BRANCH   1   2
ATOM      2  O   UNL A   1      32.235  30.577  26.501  1.00  0.00    -0.374 OA
BRANCH   2   3
ATOM      3  C   UNL A   1      31.842  29.440  27.264  1.00  0.00     0.202 C 
BRANCH   3   4
ATOM      4  C   UNL A   1      32.343  28.063  26.813  1.00  0.00     0.261 C 
BRANCH   4   5
ATOM      5  O   UNL A   1      31.455  27.006  27.192  1.00  0.00    -0.459 OA
BRANCH   5   6
ATOM      6  C   UNL A   1      31.559  25.866  26.443  1.00  0.00     0.366 C 
ATOM      7  O   UNL A   1      30.833  24.889  26.566  1.00  0.00    -0.245 OA
BRANCH   6   8
ATOM      8  C   UNL A   1      32.737  25.988  25.448  1.00  0.00     0.310 C 
ATOM      9  C   UNL A   1      33.480  26.380  23.038  1.00  0.00     0.030 C 
ATOM     10  C   UNL A   1      32.365  25.832  23.952  1.00  0.00     0.079 C 
ATOM     11  C   UNL A   1      31.047  26.488  23.532  1.00  0.00     0.030 C 
ATOM     12  S   UNL A   1      32.333  24.020  23.722  1.00  0.00    -0.081 SA
ATOM     13  C   UNL A   1      33.215  23.683  25.288  1.00  0.00     0.276 C 
ATOM     14  N   UNL A   1      33.758  24.959  25.779  1.00  0.00    -0.319 N 
ATOM     15  H   UNL A   1      34.640  25.172  25.315  1.00  0.00     0.348 HD
ATOM     16  H   UNL A   1      33.946  24.926  26.781  1.00  0.00     0.348 HD
BRANCH  13  17
ATOM     17  C   UNL A   1      34.304  22.635  25.184  1.00  0.00     0.038 A 
ATOM     18  C   UNL A   1      35.669  22.990  25.281  1.00  0.00     0.012 A 
ATOM     19  C   UNL A   1      34.013  21.247  25.040  1.00  0.00     0.046 A 
ATOM     20  C   UNL A   1      36.681  22.053  25.162  1.00  0.00     0.001 A 
ATOM     21  C   UNL A   1      35.016  20.284  24.897  1.00  0.00     0.001 A 
ATOM     22  S   UNL A   1      32.457  20.499  25.026  1.00  0.00    -0.135 S 
ATOM     23  C   UNL A   1      36.366  20.714  24.951  1.00  0.00     0.010 A 
ATOM     24  C   UNL A   1      34.478  18.951  24.689  1.00  0.00     0.000 A 
ATOM     25  C   UNL A   1      33.087  18.931  24.764  1.00  0.00     0.036 A 
ATOM     26  C   UNL A   1      35.141  17.720  24.437  1.00  0.00     0.010 A 
ATOM     27  C   UNL A   1      32.352  17.737  24.626  1.00  0.00     0.019 A 
ATOM     28  C   UNL A   1      34.416  16.536  24.277  1.00  0.00     0.001 A 
ATOM     29  C   UNL A   1      33.034  16.545  24.378  1.00  0.00     0.002 A 
ENDBRANCH  13  17
ENDBRANCH   6   8
ENDBRANCH   5   6
ENDBRANCH   4   5
ENDBRANCH   3   4
ENDBRANCH   2   3
ENDBRANCH   1   2
BRANCH   1  30
ATOM     30  C   UNL A   1      32.043  33.090  26.873  1.00  0.00     0.261 C 
BRANCH  30  31
ATOM     31  O   UNL A   1      32.862  33.046  28.054  1.00  0.00    -0.460 OA
BRANCH  31  32
ATOM     32  C   UNL A   1      33.962  33.834  28.003  1.00  0.00     0.338 C 
ATOM     33  O   UNL A   1      34.001  35.051  27.880  1.00  0.00    -0.246 OA
BRANCH  32  34
ATOM     34  C   UNL A   1      35.173  33.050  28.289  1.00  0.00     0.060 A 
ATOM     35  C   UNL A   1      35.006  31.713  28.676  1.00  0.00     0.016 A 
ATOM     36  C   UNL A   1      36.434  33.648  28.317  1.00  0.00     0.016 A 
ATOM     37  C   UNL A   1      36.097  30.981  29.138  1.00  0.00     0.010 A 
ATOM     38  C   UNL A   1      37.526  32.915  28.794  1.00  0.00     0.010 A 
ATOM     39  C   UNL A   1      37.352  31.592  29.241  1.00  0.00    -0.014 A 
BRANCH  39  40
ATOM     40  C   UNL A   1      38.437  30.891  29.969  1.00  0.00     0.031 A 
ATOM     41  C   UNL A   1      38.665  31.210  31.421  1.00  0.00     0.074 A 
ATOM     42  C   UNL A   1      39.175  29.950  29.358  1.00  0.00     0.049 A 
ATOM     43  N   UNL A   1      39.547  30.717  32.253  1.00  0.00    -0.248 NA
ATOM     44  C   UNL A   1      37.774  32.220  32.016  1.00  0.00     0.031 C 
ATOM     45  C   UNL A   1      39.021  29.530  27.967  1.00  0.00     0.029 A 
ATOM     46  N   UNL A   1      40.204  29.178  29.834  1.00  0.00    -0.354 N 
ATOM     47  C   UNL A   1      39.319  31.355  33.465  1.00  0.00     0.074 A 
ATOM     48  C   UNL A   1      38.236  32.292  33.256  1.00  0.00     0.031 C 
ATOM     49  C   UNL A   1      39.931  28.578  27.698  1.00  0.00     0.029 A 
ATOM     50  C   UNL A   1      40.745  28.343  28.889  1.00  0.00     0.049 A 
ATOM     51  H   UNL A   1      40.525  29.219  30.763  1.00  0.00     0.167 HD
ATOM     52  C   UNL A   1      39.951  31.168  34.649  1.00  0.00     0.037 A 
ATOM     53  C   UNL A   1      41.789  27.496  28.976  1.00  0.00     0.037 A 
ATOM     54  C   UNL A   1      41.029  30.238  34.855  1.00  0.00     0.049 A 
ATOM     55  C   UNL A   1      42.515  27.353  30.288  1.00  0.00     0.074 A 
ATOM     56  C   UNL A   1      41.727  29.965  36.018  1.00  0.00     0.029 A 
ATOM     57  N   UNL A   1      41.571  29.430  33.864  1.00  0.00    -0.354 N 
ATOM     58  N   UNL A   1      42.278  27.939  31.436  1.00  0.00    -0.248 NA
ATOM     59  C   UNL A   1      43.653  26.421  30.316  1.00  0.00     0.031 C 
ATOM     60  C   UNL A   1      42.721  29.025  35.723  1.00  0.00     0.029 A 
ATOM     61  C   UNL A   1      42.610  28.676  34.386  1.00  0.00     0.049 A 
ATOM     62  H   UNL A   1      41.263  29.397  32.931  1.00  0.00     0.167 HD
ATOM     63  C   UNL A   1      43.214  27.431  32.327  1.00  0.00     0.074 A 
ATOM     64  C   UNL A   1      44.017  26.478  31.589  1.00  0.00     0.031 C 
ATOM     65  C   UNL A   1      43.394  27.727  33.638  1.00  0.00     0.037 A 
BRANCH  52  66
ATOM     66  C   UNL A   1      39.505  32.007  35.809  1.00  0.00     0.064 A 
ATOM     67  C   UNL A   1      40.081  33.258  36.077  1.00  0.00     0.173 A 
ATOM     68  C   UNL A   1      38.471  31.566  36.649  1.00  0.00     0.173 A 
ATOM     69  F   UNL A   1      41.083  33.718  35.312  1.00  0.00    -0.203 F 
ATOM     70  C   UNL A   1      39.652  34.028  37.156  1.00  0.00     0.198 A 
ATOM     71  C   UNL A   1      38.028  32.350  37.711  1.00  0.00     0.198 A 
ATOM     72  F   UNL A   1      37.886  30.378  36.434  1.00  0.00    -0.203 F 
ATOM     73  F   UNL A   1      40.245  35.200  37.419  1.00  0.00    -0.200 F 
ATOM     74  C   UNL A   1      38.623  33.576  37.969  1.00  0.00     0.200 A 
ATOM     75  F   UNL A   1      37.027  31.915  38.489  1.00  0.00    -0.200 F 
ATOM     76  F   UNL A   1      38.208  34.319  39.003  1.00  0.00    -0.200 F 
ENDBRANCH  52  66
BRANCH  53  77
ATOM     77  C   UNL A   1      42.215  26.721  27.782  1.00  0.00     0.064 A 
ATOM     78  C   UNL A   1      41.671  25.460  27.507  1.00  0.00     0.173 A 
ATOM     79  C   UNL A   1      43.185  27.221  26.902  1.00  0.00     0.173 A 
ATOM     80  F   UNL A   1      40.759  24.929  28.334  1.00  0.00    -0.203 F 
ATOM     81  C   UNL A   1      42.092  24.720  26.403  1.00  0.00     0.198 A 
ATOM     82  C   UNL A   1      43.586  26.492  25.784  1.00  0.00     0.198 A 
ATOM     83  F   UNL A   1      43.739  28.421  27.124  1.00  0.00    -0.203 F 
ATOM     84  F   UNL A   1      41.588  23.498  26.186  1.00  0.00    -0.200 F 
ATOM     85  C   UNL A   1      43.045  25.240  25.540  1.00  0.00     0.200 A 
ATOM     86  F   UNL A   1      44.500  27.002  24.946  1.00  0.00    -0.200 F 
ATOM     87  F   UNL A   1      43.448  24.529  24.477  1.00  0.00    -0.200 F 
ENDBRANCH  53  77
BRANCH  65  88
ATOM     88  C   UNL A   1      44.479  26.989  34.367  1.00  0.00     0.064 A 
ATOM     89  C   UNL A   1      44.245  25.746  34.970  1.00  0.00     0.173 A 
ATOM     90  C   UNL A   1      45.777  27.517  34.430  1.00  0.00     0.173 A 
ATOM     91  F   UNL A   1      43.017  25.205  34.950  1.00  0.00    -0.203 F 
ATOM     92  C   UNL A   1      45.266  25.070  35.634  1.00  0.00     0.198 A 
ATOM     93  C   UNL A   1      46.802  26.826  35.070  1.00  0.00     0.198 A 
ATOM     94  F   UNL A   1      46.055  28.700  33.861  1.00  0.00    -0.203 F 
ATOM     95  F   UNL A   1      45.010  23.904  36.244  1.00  0.00    -0.200 F 
ATOM     96  C   UNL A   1      46.545  25.607  35.677  1.00  0.00     0.200 A 
ATOM     97  F   UNL A   1      48.039  27.341  35.099  1.00  0.00    -0.200 F 
ATOM     98  F   UNL A   1      47.526  24.953  36.312  1.00  0.00    -0.200 F 
ENDBRANCH  65  88
ENDBRANCH  39  40
ENDBRANCH  32  34
ENDBRANCH  31  32
ENDBRANCH  30  31
ENDBRANCH   1  30
TORSDOF 15
ENDMDL
MODEL 2
REMARK VINA RESULT:     -13.1      0.129      1.555
REMARK SMILES CC1(C)S[C@@H](c2cccc3c2sc2ccccc23)[NH2+][C@@H]1C(=O)OCCOCCOC(=O)c1ccc(-c2c3nc(c(-c4c(F)c(F)c(F)c(F)c4F)c4ccc([nH]4)c(-c4c(F)c(F)c(F)c(F)c4F)c4nc(c(-c5c(F)c(F)c(F)c(F)c5F)c5ccc2[nH]5)C=C4)C=C3)cc1
REMARK SMILES IDX 27 1 26 2 25 3 24 4 23 5 21 6 22 7 20 8 1 9 2 10 3 11 4 12
REMARK SMILES IDX 5 13 19 14 6 17 7 18 11 19 8 20 10 21 12 22 9 23 18 24 13 25
REMARK SMILES IDX 17 26 14 27 16 28 15 29 28 30 29 31 30 32 31 33 32 34 33 35
REMARK SMILES IDX 94 36 34 37 93 38 35 39 36 40 37 41 87 42 38 43 92 44 86 45
REMARK SMILES IDX 88 46 39 47 91 48 85 49 84 50 40 52 72 53 52 54 71 55 53 56
REMARK SMILES IDX 56 57 70 58 89 59 54 60 55 61 69 63 90 64 57 65 41 66 42 67
REMARK SMILES IDX 50 68 43 69 44 70 48 71 51 72 45 73 46 74 49 75 47 76 73 77
REMARK SMILES IDX 74 78 82 79 75 80 76 81 80 82 83 83 77 84 78 85 81 86 79 87
REMARK SMILES IDX 58 88 59 89 67 90 60 91 61 92 65 93 68 94 62 95 63 96 66 97
REMARK SMILES IDX 64 98
REMARK H PARENT 19 15 19 16 88 51 56 62
REMARK Flexibility Score: inf
ROOT
ATOM      1  C   UNL A   1      31.401  31.727  26.484  1.00  0.00     0.202 C 
ENDROOT
BRANCH   1   2
ATOM      2  O   UNL A   1      32.194  30.541  26.446  1.00  0.00    -0.374 OA
BRANCH   2   3
ATOM      3  C   UNL A   1      31.791  29.422  27.229  1.00  0.00     0.202 C 
BRANCH   3   4
ATOM      4  C   UNL A   1      32.391  28.053  26.891  1.00  0.00     0.261 C 
BRANCH   4   5
ATOM      5  O   UNL A   1      31.525  26.971  27.254  1.00  0.00    -0.459 OA
BRANCH   5   6
ATOM      6  C   UNL A   1      31.612  25.867  26.451  1.00  0.00     0.366 C 
ATOM      7  O   UNL A   1      30.847  24.913  26.502  1.00  0.00    -0.245 OA
BRANCH   6   8
ATOM      8  C   UNL A   1      32.823  25.993  25.498  1.00  0.00     0.310 C 
ATOM      9  C   UNL A   1      33.651  26.428  23.123  1.00  0.00     0.030 C 
ATOM     10  C   UNL A   1      32.499  25.875  23.987  1.00  0.00     0.079 C 
ATOM     11  C   UNL A   1      31.205  26.559  23.539  1.00  0.00     0.030 C 
ATOM     12  S   UNL A   1      32.450  24.070  23.716  1.00  0.00    -0.081 SA
ATOM     13  C   UNL A   1      33.275  23.686  25.302  1.00  0.00     0.276 C 
ATOM     14  N   UNL A   1      33.819  24.944  25.840  1.00  0.00    -0.319 N 
ATOM     15  H   UNL A   1      34.719  25.154  25.409  1.00  0.00     0.348 HD
ATOM     16  H   UNL A   1      33.973  24.886  26.846  1.00  0.00     0.348 HD
BRANCH  13  17
ATOM     17  C   UNL A   1      34.353  22.626  25.211  1.00  0.00     0.038 A 
ATOM     18  C   UNL A   1      35.719  22.961  25.350  1.00  0.00     0.012 A 
ATOM     19  C   UNL A   1      34.049  21.244  25.037  1.00  0.00     0.046 A 
ATOM     20  C   UNL A   1      36.723  22.012  25.243  1.00  0.00     0.001 A 
ATOM     21  C   UNL A   1      35.043  20.270  24.905  1.00  0.00     0.001 A 
ATOM     22  S   UNL A   1      32.484  20.517  24.969  1.00  0.00    -0.135 S 
ATOM     23  C   UNL A   1      36.396  20.682  25.003  1.00  0.00     0.010 A 
ATOM     24  C   UNL A   1      34.494  18.948  24.662  1.00  0.00     0.000 A 
ATOM     25  C   UNL A   1      33.101  18.946  24.699  1.00  0.00     0.036 A 
ATOM     26  C   UNL A   1      35.147  17.713  24.408  1.00  0.00     0.010 A 
ATOM     27  C   UNL A   1      32.354  17.764  24.522  1.00  0.00     0.019 A 
ATOM     28  C   UNL A   1      34.412  16.541  24.210  1.00  0.00     0.001 A 
ATOM     29  C   UNL A   1      33.028  16.567  24.274  1.00  0.00     0.002 A 
ENDBRANCH  13  17
ENDBRANCH   6   8
ENDBRANCH   5   6
ENDBRANCH   4   5
ENDBRANCH   3   4
ENDBRANCH   2   3
ENDBRANCH   1   2
BRANCH   1  30
ATOM     30  C   UNL A   1      32.075  33.052  26.862  1.00  0.00     0.261 C 
BRANCH  30  31
ATOM     31  O   UNL A   1      32.899  32.955  28.037  1.00  0.00    -0.460 OA
BRANCH  31  32
ATOM     32  C   UNL A   1      34.006  33.736  28.012  1.00  0.00     0.338 C 
ATOM     33  O   UNL A   1      34.054  34.954  27.900  1.00  0.00    -0.246 OA
BRANCH  32  34
ATOM     34  C   UNL A   1      35.206  32.942  28.310  1.00  0.00     0.060 A 
ATOM     35  C   UNL A   1      35.021  31.624  28.750  1.00  0.00     0.016 A 
ATOM     36  C   UNL A   1      36.478  33.517  28.300  1.00  0.00     0.016 A 
ATOM     37  C   UNL A   1      36.104  30.889  29.224  1.00  0.00     0.010 A 
ATOM     38  C   UNL A   1      37.563  32.782  28.790  1.00  0.00     0.010 A 
ATOM     39  C   UNL A   1      37.372  31.481  29.288  1.00  0.00    -0.014 A 
BRANCH  39  40
ATOM     40  C   UNL A   1      38.454  30.788  30.028  1.00  0.00     0.031 A 
ATOM     41  C   UNL A   1      38.671  31.116  31.479  1.00  0.00     0.074 A 
ATOM     42  C   UNL A   1      39.199  29.845  29.427  1.00  0.00     0.049 A 
ATOM     43  N   UNL A   1      39.549  30.631  32.320  1.00  0.00    -0.248 NA
ATOM     44  C   UNL A   1      37.774  32.127  32.062  1.00  0.00     0.031 C 
ATOM     45  C   UNL A   1      39.056  29.416  28.038  1.00  0.00     0.029 A 
ATOM     46  N   UNL A   1      40.228  29.079  29.915  1.00  0.00    -0.354 N 
ATOM     47  C   UNL A   1      39.312  31.276  33.526  1.00  0.00     0.074 A 
ATOM     48  C   UNL A   1      38.227  32.208  33.304  1.00  0.00     0.031 C 
ATOM     49  C   UNL A   1      39.970  28.466  27.780  1.00  0.00     0.029 A 
ATOM     50  C   UNL A   1      40.778  28.240  28.978  1.00  0.00     0.049 A 
ATOM     51  H   UNL A   1      40.542  29.127  30.846  1.00  0.00     0.167 HD
ATOM     52  C   UNL A   1      39.936  31.098  34.716  1.00  0.00     0.037 A 
ATOM     53  C   UNL A   1      41.824  27.397  29.077  1.00  0.00     0.037 A 
ATOM     54  C   UNL A   1      41.015  30.172  34.934  1.00  0.00     0.049 A 
ATOM     55  C   UNL A   1      42.542  27.264  30.395  1.00  0.00     0.074 A 
ATOM     56  C   UNL A   1      41.707  29.909  36.103  1.00  0.00     0.029 A 
ATOM     57  N   UNL A   1      41.567  29.361  33.952  1.00  0.00    -0.354 N 
ATOM     58  N   UNL A   1      42.294  27.857  31.538  1.00  0.00    -0.248 NA
ATOM     59  C   UNL A   1      43.682  26.337  30.437  1.00  0.00     0.031 C 
ATOM     60  C   UNL A   1      42.705  28.971  35.821  1.00  0.00     0.029 A 
ATOM     61  C   UNL A   1      42.604  28.613  34.486  1.00  0.00     0.049 A 
ATOM     62  H   UNL A   1      41.265  29.321  33.017  1.00  0.00     0.167 HD
ATOM     63  C   UNL A   1      43.226  27.358  32.438  1.00  0.00     0.074 A 
ATOM     64  C   UNL A   1      44.037  26.403  31.712  1.00  0.00     0.031 C 
ATOM     65  C   UNL A   1      43.397  27.662  33.749  1.00  0.00     0.037 A 
BRANCH  52  66
ATOM     66  C   UNL A   1      39.480  31.943  35.868  1.00  0.00     0.064 A 
ATOM     67  C   UNL A   1      40.066  33.187  36.146  1.00  0.00     0.173 A 
ATOM     68  C   UNL A   1      38.425  31.515  36.689  1.00  0.00     0.173 A 
ATOM     69  F   UNL A   1      41.087  33.633  35.399  1.00  0.00    -0.203 F 
ATOM     70  C   UNL A   1      39.628  33.961  37.217  1.00  0.00     0.198 A 
ATOM     71  C   UNL A   1      37.973  32.304  37.743  1.00  0.00     0.198 A 
ATOM     72  F   UNL A   1      37.830  30.334  36.463  1.00  0.00    -0.203 F 
ATOM     73  F   UNL A   1      40.230  35.127  37.490  1.00  0.00    -0.200 F 
ATOM     74  C   UNL A   1      38.579  33.522  38.011  1.00  0.00     0.200 A 
ATOM     75  F   UNL A   1      36.953  31.882  38.503  1.00  0.00    -0.200 F 
ATOM     76  F   UNL A   1      38.154  34.271  39.038  1.00  0.00    -0.200 F 
ENDBRANCH  52  66
BRANCH  53  77
ATOM     77  C   UNL A   1      42.260  26.616  27.892  1.00  0.00     0.064 A 
ATOM     78  C   UNL A   1      43.206  27.131  26.995  1.00  0.00     0.173 A 
ATOM     79  C   UNL A   1      41.730  25.346  27.625  1.00  0.00     0.173 A 
ATOM     80  F   UNL A   1      43.722  28.352  27.194  1.00  0.00    -0.203 F 
ATOM     81  C   UNL A   1      43.593  26.410  25.866  1.00  0.00     0.198 A 
ATOM     82  C   UNL A   1      42.137  24.615  26.511  1.00  0.00     0.198 A 
ATOM     83  F   UNL A   1      40.818  24.812  28.451  1.00  0.00    -0.203 F 
ATOM     84  F   UNL A   1      44.466  26.942  25.001  1.00  0.00    -0.200 F 
ATOM     85  C   UNL A   1      43.063  25.151  25.629  1.00  0.00     0.200 A 
ATOM     86  F   UNL A   1      41.631  23.394  26.291  1.00  0.00    -0.200 F 
ATOM     87  F   UNL A   1      43.438  24.457  24.545  1.00  0.00    -0.200 F 
ENDBRANCH  53  77
BRANCH  65  88
ATOM     88  C   UNL A   1      44.479  26.932  34.489  1.00  0.00     0.064 A 
ATOM     89  C   UNL A   1      45.772  27.459  34.609  1.00  0.00     0.173 A 
ATOM     90  C   UNL A   1      44.207  25.707  35.116  1.00  0.00     0.173 A 
ATOM     91  F   UNL A   1      46.087  28.620  34.015  1.00  0.00    -0.203 F 
ATOM     92  C   UNL A   1      46.762  26.772  35.308  1.00  0.00     0.198 A 
ATOM     93  C   UNL A   1      45.191  25.037  35.839  1.00  0.00     0.198 A 
ATOM     94  F   UNL A   1      42.982  25.163  35.039  1.00  0.00    -0.203 F 
ATOM     95  F   UNL A   1      48.005  27.272  35.371  1.00  0.00    -0.200 F 
ATOM     96  C   UNL A   1      46.469  25.566  35.928  1.00  0.00     0.200 A 
ATOM     97  F   UNL A   1      44.902  23.878  36.447  1.00  0.00    -0.200 F 
ATOM     98  F   UNL A   1      47.422  24.910  36.604  1.00  0.00    -0.200 F 
ENDBRANCH  65  88
ENDBRANCH  39  40
ENDBRANCH  32  34
ENDBRANCH  31  32
ENDBRANCH  30  31
ENDBRANCH   1  30
TORSDOF 15
ENDMDL
MODEL 3
REMARK VINA RESULT:     -12.9      0.317      1.582
REMARK SMILES CC1(C)S[C@@H](c2cccc3c2sc2ccccc23)[NH2+][C@@H]1C(=O)OCCOCCOC(=O)c1ccc(-c2c3nc(c(-c4c(F)c(F)c(F)c(F)c4F)c4ccc([nH]4)c(-c4c(F)c(F)c(F)c(F)c4F)c4nc(c(-c5c(F)c(F)c(F)c(F)c5F)c5ccc2[nH]5)C=C4)C=C3)cc1
REMARK SMILES IDX 27 1 26 2 25 3 24 4 23 5 21 6 22 7 20 8 1 9 2 10 3 11 4 12
REMARK SMILES IDX 5 13 19 14 6 17 7 18 11 19 8 20 10 21 12 22 9 23 18 24 13 25
REMARK SMILES IDX 17 26 14 27 16 28 15 29 28 30 29 31 30 32 31 33 32 34 33 35
REMARK SMILES IDX 94 36 34 37 93 38 35 39 36 40 37 41 87 42 38 43 92 44 86 45
REMARK SMILES IDX 88 46 39 47 91 48 85 49 84 50 40 52 72 53 52 54 71 55 53 56
REMARK SMILES IDX 56 57 70 58 89 59 54 60 55 61 69 63 90 64 57 65 41 66 42 67
REMARK SMILES IDX 50 68 43 69 44 70 48 71 51 72 45 73 46 74 49 75 47 76 73 77
REMARK SMILES IDX 74 78 82 79 75 80 76 81 80 82 83 83 77 84 78 85 81 86 79 87
REMARK SMILES IDX 58 88 59 89 67 90 60 91 61 92 65 93 68 94 62 95 63 96 66 97
REMARK SMILES IDX 64 98
REMARK H PARENT 19 15 19 16 88 51 56 62
REMARK Flexibility Score: inf
ROOT
ATOM      1  C   UNL A   1      31.461  31.573  26.390  1.00  0.00     0.202 C 
ENDROOT
BRANCH   1   2
ATOM      2  O   UNL A   1      31.785  30.453  27.212  1.00  0.00    -0.374 OA
BRANCH   2   3
ATOM      3  C   UNL A   1      32.723  29.497  26.727  1.00  0.00     0.202 C 
BRANCH   3   4
ATOM      4  C   UNL A   1      32.625  28.061  27.253  1.00  0.00     0.261 C 
BRANCH   4   5
ATOM      5  O   UNL A   1      31.521  27.345  26.690  1.00  0.00    -0.459 OA
BRANCH   5   6
ATOM      6  C   UNL A   1      31.805  26.070  26.282  1.00  0.00     0.366 C 
ATOM      7  O   UNL A   1      31.249  25.067  26.708  1.00  0.00    -0.245 OA
BRANCH   6   8
ATOM      8  C   UNL A   1      32.940  26.087  25.231  1.00  0.00     0.310 C 
ATOM      9  C   UNL A   1      33.584  26.275  22.769  1.00  0.00     0.030 C 
ATOM     10  C   UNL A   1      32.499  25.825  23.769  1.00  0.00     0.079 C 
ATOM     11  C   UNL A   1      31.178  26.478  23.355  1.00  0.00     0.030 C 
ATOM     12  S   UNL A   1      32.421  24.002  23.683  1.00  0.00    -0.081 SA
ATOM     13  C   UNL A   1      33.364  23.766  25.231  1.00  0.00     0.276 C 
ATOM     14  N   UNL A   1      33.954  25.063  25.598  1.00  0.00    -0.319 N 
ATOM     15  H   UNL A   1      34.819  25.219  25.082  1.00  0.00     0.348 HD
ATOM     16  H   UNL A   1      34.185  25.103  26.590  1.00  0.00     0.348 HD
BRANCH  13  17
ATOM     17  C   UNL A   1      34.426  22.688  25.163  1.00  0.00     0.038 A 
ATOM     18  C   UNL A   1      35.795  23.003  25.320  1.00  0.00     0.012 A 
ATOM     19  C   UNL A   1      34.103  21.310  24.996  1.00  0.00     0.046 A 
ATOM     20  C   UNL A   1      36.785  22.038  25.234  1.00  0.00     0.001 A 
ATOM     21  C   UNL A   1      35.083  20.320  24.885  1.00  0.00     0.001 A 
ATOM     22  S   UNL A   1      32.528  20.607  24.911  1.00  0.00    -0.135 S 
ATOM     23  C   UNL A   1      36.441  20.711  24.999  1.00  0.00     0.010 A 
ATOM     24  C   UNL A   1      34.516  19.005  24.644  1.00  0.00     0.000 A 
ATOM     25  C   UNL A   1      33.123  19.024  24.661  1.00  0.00     0.036 A 
ATOM     26  C   UNL A   1      35.153  17.757  24.409  1.00  0.00     0.010 A 
ATOM     27  C   UNL A   1      32.361  17.853  24.482  1.00  0.00     0.019 A 
ATOM     28  C   UNL A   1      34.402  16.595  24.209  1.00  0.00     0.001 A 
ATOM     29  C   UNL A   1      33.018  16.643  24.253  1.00  0.00     0.002 A 
ENDBRANCH  13  17
ENDBRANCH   6   8
ENDBRANCH   5   6
ENDBRANCH   4   5
ENDBRANCH   3   4
ENDBRANCH   2   3
ENDBRANCH   1   2
BRANCH   1  30
ATOM     30  C   UNL A   1      31.768  32.983  26.913  1.00  0.00     0.261 C 
BRANCH  30  31
ATOM     31  O   UNL A   1      33.169  33.309  26.877  1.00  0.00    -0.460 OA
BRANCH  31  32
ATOM     32  C   UNL A   1      33.690  33.676  28.072  1.00  0.00     0.338 C 
ATOM     33  O   UNL A   1      33.187  34.417  28.907  1.00  0.00    -0.246 OA
BRANCH  32  34
ATOM     34  C   UNL A   1      34.920  32.923  28.353  1.00  0.00     0.060 A 
ATOM     35  C   UNL A   1      34.788  31.592  28.770  1.00  0.00     0.016 A 
ATOM     36  C   UNL A   1      36.169  33.546  28.347  1.00  0.00     0.016 A 
ATOM     37  C   UNL A   1      35.900  30.891  29.227  1.00  0.00     0.010 A 
ATOM     38  C   UNL A   1      37.284  32.846  28.821  1.00  0.00     0.010 A 
ATOM     39  C   UNL A   1      37.145  31.529  29.297  1.00  0.00    -0.014 A 
BRANCH  39  40
ATOM     40  C   UNL A   1      38.255  30.866  30.021  1.00  0.00     0.031 A 
ATOM     41  C   UNL A   1      38.489  31.205  31.467  1.00  0.00     0.074 A 
ATOM     42  C   UNL A   1      39.013  29.938  29.411  1.00  0.00     0.049 A 
ATOM     43  N   UNL A   1      39.393  30.745  32.295  1.00  0.00    -0.248 NA
ATOM     44  C   UNL A   1      37.578  32.197  32.061  1.00  0.00     0.031 C 
ATOM     45  C   UNL A   1      38.856  29.500  28.026  1.00  0.00     0.029 A 
ATOM     46  N   UNL A   1      40.067  29.200  29.884  1.00  0.00    -0.354 N 
ATOM     47  C   UNL A   1      39.160  31.389  33.503  1.00  0.00     0.074 A 
ATOM     48  C   UNL A   1      38.050  32.294  33.296  1.00  0.00     0.031 C 
ATOM     49  C   UNL A   1      39.788  28.571  27.757  1.00  0.00     0.029 A 
ATOM     50  C   UNL A   1      40.621  28.370  28.942  1.00  0.00     0.049 A 
ATOM     51  H   UNL A   1      40.396  29.259  30.810  1.00  0.00     0.167 HD
ATOM     52  C   UNL A   1      39.809  31.232  34.681  1.00  0.00     0.037 A 
ATOM     53  C   UNL A   1      41.688  27.552  29.026  1.00  0.00     0.037 A 
ATOM     54  C   UNL A   1      40.914  30.332  34.885  1.00  0.00     0.049 A 
ATOM     55  C   UNL A   1      42.431  27.442  30.332  1.00  0.00     0.074 A 
ATOM     56  C   UNL A   1      41.631  30.091  36.043  1.00  0.00     0.029 A 
ATOM     57  N   UNL A   1      41.468  29.530  33.897  1.00  0.00    -0.354 N 
ATOM     58  N   UNL A   1      42.190  28.033  31.477  1.00  0.00    -0.248 NA
ATOM     59  C   UNL A   1      43.594  26.542  30.357  1.00  0.00     0.031 C 
ATOM     60  C   UNL A   1      42.647  29.176  35.747  1.00  0.00     0.029 A 
ATOM     61  C   UNL A   1      42.532  28.810  34.416  1.00  0.00     0.049 A 
ATOM     62  H   UNL A   1      41.151  29.479  32.967  1.00  0.00     0.167 HD
ATOM     63  C   UNL A   1      43.149  27.561  32.362  1.00  0.00     0.074 A 
ATOM     64  C   UNL A   1      43.970  26.622  31.626  1.00  0.00     0.031 C 
ATOM     65  C   UNL A   1      43.334  27.874  33.669  1.00  0.00     0.037 A 
BRANCH  52  66
ATOM     66  C   UNL A   1      39.353  32.070  35.838  1.00  0.00     0.064 A 
ATOM     67  C   UNL A   1      38.368  31.619  36.731  1.00  0.00     0.173 A 
ATOM     68  C   UNL A   1      39.926  33.329  36.073  1.00  0.00     0.173 A 
ATOM     69  F   UNL A   1      37.779  30.429  36.541  1.00  0.00    -0.203 F 
ATOM     70  C   UNL A   1      37.959  32.408  37.803  1.00  0.00     0.198 A 
ATOM     71  C   UNL A   1      39.532  34.103  37.161  1.00  0.00     0.198 A 
ATOM     72  F   UNL A   1      40.873  33.804  35.250  1.00  0.00    -0.203 F 
ATOM     73  F   UNL A   1      36.987  31.976  38.618  1.00  0.00    -0.200 F 
ATOM     74  C   UNL A   1      38.545  33.646  38.021  1.00  0.00     0.200 A 
ATOM     75  F   UNL A   1      40.107  35.295  37.375  1.00  0.00    -0.200 F 
ATOM     76  F   UNL A   1      38.155  34.402  39.056  1.00  0.00    -0.200 F 
ENDBRANCH  52  66
BRANCH  53  77
ATOM     77  C   UNL A   1      42.123  26.777  27.836  1.00  0.00     0.064 A 
ATOM     78  C   UNL A   1      41.593  25.509  27.566  1.00  0.00     0.173 A 
ATOM     79  C   UNL A   1      43.087  27.284  26.953  1.00  0.00     0.173 A 
ATOM     80  F   UNL A   1      40.686  24.972  28.395  1.00  0.00    -0.203 F 
ATOM     81  C   UNL A   1      42.022  24.769  26.465  1.00  0.00     0.198 A 
ATOM     82  C   UNL A   1      43.497  26.555  25.839  1.00  0.00     0.198 A 
ATOM     83  F   UNL A   1      43.628  28.491  27.171  1.00  0.00    -0.203 F 
ATOM     84  F   UNL A   1      41.531  23.540  26.253  1.00  0.00    -0.200 F 
ATOM     85  C   UNL A   1      42.969  25.295  25.600  1.00  0.00     0.200 A 
ATOM     86  F   UNL A   1      44.405  27.071  24.999  1.00  0.00    -0.200 F 
ATOM     87  F   UNL A   1      43.380  24.585  24.540  1.00  0.00    -0.200 F 
ENDBRANCH  53  77
BRANCH  65  88
ATOM     88  C   UNL A   1      44.446  27.174  34.393  1.00  0.00     0.064 A 
ATOM     89  C   UNL A   1      45.728  27.731  34.487  1.00  0.00     0.173 A 
ATOM     90  C   UNL A   1      44.213  25.946  35.032  1.00  0.00     0.173 A 
ATOM     91  F   UNL A   1      46.005  28.896  33.882  1.00  0.00    -0.203 F 
ATOM     92  C   UNL A   1      46.746  27.072  35.172  1.00  0.00     0.198 A 
ATOM     93  C   UNL A   1      45.225  25.303  35.739  1.00  0.00     0.198 A 
ATOM     94  F   UNL A   1      43.001  25.374  34.979  1.00  0.00    -0.203 F 
ATOM     95  F   UNL A   1      47.978  27.600  35.210  1.00  0.00    -0.200 F 
ATOM     96  C   UNL A   1      46.492  25.862  35.803  1.00  0.00     0.200 A 
ATOM     97  F   UNL A   1      44.974  24.141  36.358  1.00  0.00    -0.200 F 
ATOM     98  F   UNL A   1      47.471  25.232  36.465  1.00  0.00    -0.200 F 
ENDBRANCH  65  88
ENDBRANCH  39  40
ENDBRANCH  32  34
ENDBRANCH  31  32
ENDBRANCH  30  31
ENDBRANCH   1  30
TORSDOF 15
ENDMDL
