MODEL 1
REMARK VINA RESULT:     -12.6      0.000      0.000
REMARK SMILES COc1c[nH]c(C[N@H+]2CCC[C@@H](c3ccc(C(=O)OCCOCCOC(=O)c4ccc(-c5c6nc(c(-c7c(F)c(F)c(F)c(F)c7F)c7ccc([nH]7)c(-c7c(F)c(F)c(F)c(F)c7F)c7nc(c(-c8c(F)c(F)c(F)c(F)c8F)c8ccc5[nH]8)C=C7)C=C6)cc4)cc3)C2)cc1=O
REMARK SMILES IDX 21 1 20 2 19 3 17 4 18 5 16 6 13 7 14 8 92 9 15 10 91 11
REMARK SMILES IDX 12 12 8 13 9 14 93 15 10 17 11 18 7 19 6 20 3 21 4 22 95 23
REMARK SMILES IDX 5 24 94 25 96 26 2 28 1 29 22 30 23 31 24 32 25 33 26 34
REMARK SMILES IDX 27 35 28 36 29 37 90 38 30 39 89 40 31 41 32 42 33 43 83 44
REMARK SMILES IDX 34 45 88 46 82 47 84 48 35 49 87 50 81 51 80 52 36 54 68 55
REMARK SMILES IDX 48 56 67 57 49 58 52 59 66 60 85 61 50 62 51 63 65 65 86 66
REMARK SMILES IDX 53 67 37 68 38 69 46 70 39 71 40 72 44 73 47 74 41 75 42 76
REMARK SMILES IDX 45 77 43 78 69 79 70 80 78 81 71 82 72 83 76 84 79 85 73 86
REMARK SMILES IDX 74 87 77 88 75 89 54 90 55 91 63 92 56 93 57 94 61 95 64 96
REMARK SMILES IDX 58 97 59 98 62 99 60 100
REMARK H PARENT 8 16 5 27 84 53 52 64
REMARK Flexibility Score: inf
ROOT
ATOM      1  C   UNL A   1      43.139  20.589  25.743  1.00  0.00     0.202 C 
ENDROOT
BRANCH   1   2
ATOM      2  C   UNL A   1      42.156  20.079  26.799  1.00  0.00     0.261 C 
BRANCH   2   3
ATOM      3  O   UNL A   1      40.799  20.350  26.412  1.00  0.00    -0.460 OA
BRANCH   3   4
ATOM      4  C   UNL A   1      40.283  21.487  26.937  1.00  0.00     0.338 C 
ATOM      5  O   UNL A   1      40.764  22.168  27.830  1.00  0.00    -0.246 OA
BRANCH   4   6
ATOM      6  C   UNL A   1      39.096  21.915  26.168  1.00  0.00     0.060 A 
ATOM      7  C   UNL A   1      36.725  22.821  24.977  1.00  0.00    -0.039 A 
ATOM      8  C   UNL A   1      37.557  23.709  25.679  1.00  0.00     0.005 A 
ATOM      9  C   UNL A   1      37.153  21.497  24.791  1.00  0.00     0.005 A 
ATOM     10  C   UNL A   1      38.721  23.255  26.290  1.00  0.00     0.016 A 
ATOM     11  C   UNL A   1      38.343  21.044  25.377  1.00  0.00     0.016 A 
BRANCH   7  12
ATOM     12  C   UNL A   1      35.306  23.236  24.598  1.00  0.00     0.074 C 
ATOM     13  N   UNL A   1      32.922  22.387  24.871  1.00  0.00    -0.329 N 
ATOM     14  C   UNL A   1      32.534  23.674  25.463  1.00  0.00     0.262 C 
ATOM     15  C   UNL A   1      34.347  22.112  25.059  1.00  0.00     0.270 C 
ATOM     16  H   UNL A   1      32.761  22.462  23.867  1.00  0.00     0.348 HD
ATOM     17  C   UNL A   1      33.393  24.826  24.932  1.00  0.00     0.062 C 
ATOM     18  C   UNL A   1      34.879  24.582  25.196  1.00  0.00     0.020 C 
BRANCH  13  19
ATOM     19  C   UNL A   1      32.070  21.271  25.352  1.00  0.00     0.317 C 
BRANCH  19  20
ATOM     20  C   UNL A   1      32.506  19.856  24.963  1.00  0.00     0.074 A 
ATOM     21  C   UNL A   1      33.056  17.092  24.488  1.00  0.00     0.182 A 
ATOM     22  C   UNL A   1      33.057  17.633  25.714  1.00  0.00     0.133 A 
ATOM     23  C   UNL A   1      32.839  18.044  23.342  1.00  0.00     0.223 A 
ATOM     24  N   UNL A   1      32.867  18.965  25.959  1.00  0.00    -0.357 N 
ATOM     25  C   UNL A   1      32.523  19.465  23.675  1.00  0.00     0.083 A 
ATOM     26  O   UNL A   1      32.881  17.698  22.165  1.00  0.00    -0.286 OA
ATOM     27  H   UNL A   1      32.990  19.302  26.875  1.00  0.00     0.166 HD
BRANCH  21  28
ATOM     28  O   UNL A   1      33.156  15.724  24.322  1.00  0.00    -0.491 OA
ATOM     29  C   UNL A   1      32.682  14.994  25.447  1.00  0.00     0.278 C 
ENDBRANCH  21  28
ENDBRANCH  19  20
ENDBRANCH  13  19
ENDBRANCH   7  12
ENDBRANCH   4   6
ENDBRANCH   3   4
ENDBRANCH   2   3
ENDBRANCH   1   2
BRANCH   1  30
ATOM     30  O   UNL A   1      43.909  21.734  26.104  1.00  0.00    -0.374 OA
BRANCH  30  31
ATOM     31  C   UNL A   1      44.987  22.099  25.240  1.00  0.00     0.202 C 
BRANCH  31  32
ATOM     32  C   UNL A   1      44.644  23.064  24.100  1.00  0.00     0.261 C 
BRANCH  32  33
ATOM     33  O   UNL A   1      43.802  24.140  24.552  1.00  0.00    -0.460 OA
BRANCH  33  34
ATOM     34  C   UNL A   1      44.455  25.216  25.045  1.00  0.00     0.338 C 
ATOM     35  O   UNL A   1      45.510  25.694  24.651  1.00  0.00    -0.246 OA
BRANCH  34  36
ATOM     36  C   UNL A   1      43.615  25.881  26.057  1.00  0.00     0.060 A 
ATOM     37  C   UNL A   1      43.819  27.249  26.284  1.00  0.00     0.016 A 
ATOM     38  C   UNL A   1      42.690  25.164  26.817  1.00  0.00     0.016 A 
ATOM     39  C   UNL A   1      43.133  27.898  27.309  1.00  0.00     0.010 A 
ATOM     40  C   UNL A   1      42.013  25.812  27.852  1.00  0.00     0.010 A 
ATOM     41  C   UNL A   1      42.258  27.171  28.125  1.00  0.00    -0.014 A 
BRANCH  41  42
ATOM     42  C   UNL A   1      41.728  27.765  29.375  1.00  0.00     0.031 A 
ATOM     43  C   UNL A   1      40.457  28.563  29.304  1.00  0.00     0.074 A 
ATOM     44  C   UNL A   1      42.375  27.616  30.544  1.00  0.00     0.049 A 
ATOM     45  N   UNL A   1      39.889  29.308  30.217  1.00  0.00    -0.248 NA
ATOM     46  C   UNL A   1      39.734  28.521  28.023  1.00  0.00     0.031 C 
ATOM     47  C   UNL A   1      43.578  26.815  30.749  1.00  0.00     0.029 A 
ATOM     48  N   UNL A   1      42.114  28.159  31.778  1.00  0.00    -0.354 N 
ATOM     49  C   UNL A   1      38.754  29.835  29.617  1.00  0.00     0.074 A 
ATOM     50  C   UNL A   1      38.722  29.344  28.256  1.00  0.00     0.031 C 
ATOM     51  C   UNL A   1      43.969  26.937  32.030  1.00  0.00     0.029 A 
ATOM     52  C   UNL A   1      43.068  27.861  32.718  1.00  0.00     0.049 A 
ATOM     53  H   UNL A   1      41.320  28.709  31.969  1.00  0.00     0.167 HD
ATOM     54  C   UNL A   1      37.822  30.657  30.154  1.00  0.00     0.037 A 
ATOM     55  C   UNL A   1      43.212  28.315  33.979  1.00  0.00     0.037 A 
ATOM     56  C   UNL A   1      37.860  31.142  31.509  1.00  0.00     0.049 A 
ATOM     57  C   UNL A   1      42.207  29.295  34.530  1.00  0.00     0.074 A 
ATOM     58  C   UNL A   1      36.969  31.984  32.151  1.00  0.00     0.029 A 
ATOM     59  N   UNL A   1      38.847  30.824  32.429  1.00  0.00    -0.354 N 
ATOM     60  N   UNL A   1      41.140  29.798  33.958  1.00  0.00    -0.248 NA
ATOM     61  C   UNL A   1      42.429  29.772  35.903  1.00  0.00     0.031 C 
ATOM     62  C   UNL A   1      37.442  32.210  33.447  1.00  0.00     0.029 A 
ATOM     63  C   UNL A   1      38.596  31.465  33.630  1.00  0.00     0.049 A 
ATOM     64  H   UNL A   1      39.613  30.231  32.254  1.00  0.00     0.167 HD
ATOM     65  C   UNL A   1      40.542  30.613  34.911  1.00  0.00     0.074 A 
ATOM     66  C   UNL A   1      41.366  30.540  36.099  1.00  0.00     0.031 C 
ATOM     67  C   UNL A   1      39.409  31.351  34.812  1.00  0.00     0.037 A 
BRANCH  54  68
ATOM     68  C   UNL A   1      36.698  31.106  29.268  1.00  0.00     0.064 A 
ATOM     69  C   UNL A   1      35.655  30.241  28.906  1.00  0.00     0.173 A 
ATOM     70  C   UNL A   1      36.649  32.427  28.800  1.00  0.00     0.173 A 
ATOM     71  F   UNL A   1      35.665  28.964  29.315  1.00  0.00    -0.203 F 
ATOM     72  C   UNL A   1      34.615  30.678  28.090  1.00  0.00     0.198 A 
ATOM     73  C   UNL A   1      35.593  32.868  28.008  1.00  0.00     0.198 A 
ATOM     74  F   UNL A   1      37.621  33.295  29.120  1.00  0.00    -0.203 F 
ATOM     75  F   UNL A   1      33.651  29.823  27.721  1.00  0.00    -0.200 F 
ATOM     76  C   UNL A   1      34.580  31.992  27.649  1.00  0.00     0.200 A 
ATOM     77  F   UNL A   1      35.555  34.142  27.592  1.00  0.00    -0.200 F 
ATOM     78  F   UNL A   1      33.574  32.413  26.869  1.00  0.00    -0.200 F 
ENDBRANCH  54  68
BRANCH  55  79
ATOM     79  C   UNL A   1      44.364  27.867  34.805  1.00  0.00     0.064 A 
ATOM     80  C   UNL A   1      45.575  28.572  34.795  1.00  0.00     0.173 A 
ATOM     81  C   UNL A   1      44.288  26.713  35.600  1.00  0.00     0.173 A 
ATOM     82  F   UNL A   1      45.707  29.667  34.032  1.00  0.00    -0.203 F 
ATOM     83  C   UNL A   1      46.673  28.130  35.531  1.00  0.00     0.198 A 
ATOM     84  C   UNL A   1      45.376  26.287  36.356  1.00  0.00     0.198 A 
ATOM     85  F   UNL A   1      43.153  26.001  35.642  1.00  0.00    -0.203 F 
ATOM     86  F   UNL A   1      47.835  28.794  35.463  1.00  0.00    -0.200 F 
ATOM     87  C   UNL A   1      46.572  26.990  36.315  1.00  0.00     0.200 A 
ATOM     88  F   UNL A   1      45.271  25.192  37.122  1.00  0.00    -0.200 F 
ATOM     89  F   UNL A   1      47.627  26.564  37.022  1.00  0.00    -0.200 F 
ENDBRANCH  55  79
BRANCH  67  90
ATOM     90  C   UNL A   1      38.945  32.081  36.039  1.00  0.00     0.064 A 
ATOM     91  C   UNL A   1      38.153  31.461  37.015  1.00  0.00     0.173 A 
ATOM     92  C   UNL A   1      39.363  33.401  36.271  1.00  0.00     0.173 A 
ATOM     93  F   UNL A   1      37.717  30.205  36.834  1.00  0.00    -0.203 F 
ATOM     94  C   UNL A   1      37.784  32.141  38.173  1.00  0.00     0.198 A 
ATOM     95  C   UNL A   1      39.015  34.068  37.441  1.00  0.00     0.198 A 
ATOM     96  F   UNL A   1      40.128  34.036  35.370  1.00  0.00    -0.203 F 
ATOM     97  F   UNL A   1      36.997  31.542  39.078  1.00  0.00    -0.200 F 
ATOM     98  C   UNL A   1      38.223  33.440  38.389  1.00  0.00     0.200 A 
ATOM     99  F   UNL A   1      39.452  35.318  37.654  1.00  0.00    -0.200 F 
ATOM    100  F   UNL A   1      37.878  34.087  39.511  1.00  0.00    -0.200 F 
ENDBRANCH  67  90
ENDBRANCH  41  42
ENDBRANCH  34  36
ENDBRANCH  33  34
ENDBRANCH  32  33
ENDBRANCH  31  32
ENDBRANCH  30  31
ENDBRANCH   1  30
TORSDOF 18
ENDMDL
MODEL 2
REMARK VINA RESULT:     -11.3      4.919      9.963
REMARK SMILES COc1c[nH]c(C[N@H+]2CCC[C@@H](c3ccc(C(=O)OCCOCCOC(=O)c4ccc(-c5c6nc(c(-c7c(F)c(F)c(F)c(F)c7F)c7ccc([nH]7)c(-c7c(F)c(F)c(F)c(F)c7F)c7nc(c(-c8c(F)c(F)c(F)c(F)c8F)c8ccc5[nH]8)C=C7)C=C6)cc4)cc3)C2)cc1=O
REMARK SMILES IDX 21 1 20 2 19 3 17 4 18 5 16 6 13 7 14 8 92 9 15 10 91 11
REMARK SMILES IDX 12 12 8 13 9 14 93 15 10 17 11 18 7 19 6 20 3 21 4 22 95 23
REMARK SMILES IDX 5 24 94 25 96 26 2 28 1 29 22 30 23 31 24 32 25 33 26 34
REMARK SMILES IDX 27 35 28 36 29 37 90 38 30 39 89 40 31 41 32 42 33 43 83 44
REMARK SMILES IDX 34 45 88 46 82 47 84 48 35 49 87 50 81 51 80 52 36 54 68 55
REMARK SMILES IDX 48 56 67 57 49 58 52 59 66 60 85 61 50 62 51 63 65 65 86 66
REMARK SMILES IDX 53 67 37 68 38 69 46 70 39 71 40 72 44 73 47 74 41 75 42 76
REMARK SMILES IDX 45 77 43 78 69 79 70 80 78 81 71 82 72 83 76 84 79 85 73 86
REMARK SMILES IDX 74 87 77 88 75 89 54 90 55 91 63 92 56 93 57 94 61 95 64 96
REMARK SMILES IDX 58 97 59 98 62 99 60 100
REMARK H PARENT 8 16 5 27 84 53 52 64
REMARK Flexibility Score: inf
ROOT
ATOM      1  C   UNL A   1      36.112  21.167  25.452  1.00  0.00     0.202 C 
ENDROOT
BRANCH   1   2
ATOM      2  C   UNL A   1      34.733  20.553  25.201  1.00  0.00     0.261 C 
BRANCH   2   3
ATOM      3  O   UNL A   1      33.880  21.472  24.501  1.00  0.00    -0.460 OA
BRANCH   3   4
ATOM      4  C   UNL A   1      32.577  21.413  24.861  1.00  0.00     0.338 C 
ATOM      5  O   UNL A   1      31.907  20.405  25.032  1.00  0.00    -0.246 OA
BRANCH   4   6
ATOM      6  C   UNL A   1      32.072  22.763  25.190  1.00  0.00     0.060 A 
ATOM      7  C   UNL A   1      31.256  25.420  25.558  1.00  0.00    -0.039 A 
ATOM      8  C   UNL A   1      30.876  24.708  24.407  1.00  0.00     0.005 A 
ATOM      9  C   UNL A   1      31.959  24.745  26.569  1.00  0.00     0.005 A 
ATOM     10  C   UNL A   1      31.301  23.398  24.214  1.00  0.00     0.016 A 
ATOM     11  C   UNL A   1      32.360  23.414  26.392  1.00  0.00     0.016 A 
BRANCH   7  12
ATOM     12  C   UNL A   1      31.077  26.934  25.618  1.00  0.00     0.074 C 
ATOM     13  N   UNL A   1      32.347  28.985  26.430  1.00  0.00    -0.329 N 
ATOM     14  C   UNL A   1      32.218  29.589  25.098  1.00  0.00     0.262 C 
ATOM     15  C   UNL A   1      32.295  27.523  26.369  1.00  0.00     0.270 C 
ATOM     16  H   UNL A   1      31.541  29.291  26.974  1.00  0.00     0.348 HD
ATOM     17  C   UNL A   1      30.953  29.112  24.377  1.00  0.00     0.062 C 
ATOM     18  C   UNL A   1      30.930  27.590  24.239  1.00  0.00     0.020 C 
BRANCH  13  19
ATOM     19  C   UNL A   1      33.551  29.470  27.150  1.00  0.00     0.317 C 
BRANCH  19  20
ATOM     20  C   UNL A   1      33.667  30.982  27.356  1.00  0.00     0.074 A 
ATOM     21  C   UNL A   1      33.598  33.767  27.995  1.00  0.00     0.182 A 
ATOM     22  C   UNL A   1      32.510  33.080  27.623  1.00  0.00     0.133 A 
ATOM     23  C   UNL A   1      34.901  33.012  27.971  1.00  0.00     0.223 A 
ATOM     24  N   UNL A   1      32.531  31.766  27.245  1.00  0.00    -0.357 N 
ATOM     25  C   UNL A   1      34.848  31.552  27.662  1.00  0.00     0.083 A 
ATOM     26  O   UNL A   1      35.983  33.534  28.222  1.00  0.00    -0.286 OA
ATOM     27  H   UNL A   1      31.710  31.362  26.881  1.00  0.00     0.166 HD
BRANCH  21  28
ATOM     28  O   UNL A   1      33.488  35.063  28.459  1.00  0.00    -0.491 OA
ATOM     29  C   UNL A   1      33.456  35.141  29.880  1.00  0.00     0.278 C 
ENDBRANCH  21  28
ENDBRANCH  19  20
ENDBRANCH  13  19
ENDBRANCH   7  12
ENDBRANCH   4   6
ENDBRANCH   3   4
ENDBRANCH   2   3
ENDBRANCH   1   2
BRANCH   1  30
ATOM     30  O   UNL A   1      37.172  20.688  24.627  1.00  0.00    -0.374 OA
BRANCH  30  31
ATOM     31  C   UNL A   1      37.687  19.386  24.911  1.00  0.00     0.202 C 
BRANCH  31  32
ATOM     32  C   UNL A   1      39.077  19.333  25.554  1.00  0.00     0.261 C 
BRANCH  32  33
ATOM     33  O   UNL A   1      39.535  20.643  25.933  1.00  0.00    -0.460 OA
BRANCH  33  34
ATOM     34  C   UNL A   1      40.499  20.666  26.882  1.00  0.00     0.338 C 
ATOM     35  O   UNL A   1      41.198  19.736  27.257  1.00  0.00    -0.246 OA
BRANCH  34  36
ATOM     36  C   UNL A   1      40.736  22.057  27.309  1.00  0.00     0.060 A 
ATOM     37  C   UNL A   1      39.965  23.067  26.717  1.00  0.00     0.016 A 
ATOM     38  C   UNL A   1      41.741  22.374  28.224  1.00  0.00     0.016 A 
ATOM     39  C   UNL A   1      40.229  24.406  27.000  1.00  0.00     0.010 A 
ATOM     40  C   UNL A   1      42.013  23.715  28.497  1.00  0.00     0.010 A 
ATOM     41  C   UNL A   1      41.283  24.736  27.860  1.00  0.00    -0.014 A 
BRANCH  41  42
ATOM     42  C   UNL A   1      41.755  26.137  27.966  1.00  0.00     0.031 A 
ATOM     43  C   UNL A   1      43.080  26.493  27.354  1.00  0.00     0.074 A 
ATOM     44  C   UNL A   1      41.031  27.067  28.612  1.00  0.00     0.049 A 
ATOM     45  N   UNL A   1      43.775  27.597  27.454  1.00  0.00    -0.248 NA
ATOM     46  C   UNL A   1      43.711  25.456  26.522  1.00  0.00     0.031 C 
ATOM     47  C   UNL A   1      39.707  26.857  29.190  1.00  0.00     0.029 A 
ATOM     48  N   UNL A   1      41.327  28.375  28.907  1.00  0.00    -0.354 N 
ATOM     49  C   UNL A   1      44.929  27.381  26.714  1.00  0.00     0.074 A 
ATOM     50  C   UNL A   1      44.854  26.036  26.187  1.00  0.00     0.031 C 
ATOM     51  C   UNL A   1      39.312  27.992  29.795  1.00  0.00     0.029 A 
ATOM     52  C   UNL A   1      40.376  28.989  29.683  1.00  0.00     0.049 A 
ATOM     53  H   UNL A   1      42.143  28.828  28.593  1.00  0.00     0.167 HD
ATOM     54  C   UNL A   1      45.959  28.231  26.495  1.00  0.00     0.037 A 
ATOM     55  C   UNL A   1      40.387  30.204  30.265  1.00  0.00     0.037 A 
ATOM     56  C   UNL A   1      46.028  29.568  27.023  1.00  0.00     0.049 A 
ATOM     57  C   UNL A   1      41.582  31.104  30.076  1.00  0.00     0.074 A 
ATOM     58  C   UNL A   1      47.030  30.509  26.867  1.00  0.00     0.029 A 
ATOM     59  N   UNL A   1      45.048  30.152  27.812  1.00  0.00    -0.354 N 
ATOM     60  N   UNL A   1      42.676  30.894  29.382  1.00  0.00    -0.248 NA
ATOM     61  C   UNL A   1      41.546  32.408  30.753  1.00  0.00     0.031 C 
ATOM     62  C   UNL A   1      46.676  31.647  27.598  1.00  0.00     0.029 A 
ATOM     63  C   UNL A   1      45.429  31.436  28.163  1.00  0.00     0.049 A 
ATOM     64  H   UNL A   1      44.207  29.717  28.083  1.00  0.00     0.167 HD
ATOM     65  C   UNL A   1      43.434  32.052  29.503  1.00  0.00     0.074 A 
ATOM     66  C   UNL A   1      42.678  32.960  30.339  1.00  0.00     0.031 C 
ATOM     67  C   UNL A   1      44.646  32.338  28.967  1.00  0.00     0.037 A 
BRANCH  54  68
ATOM     68  C   UNL A   1      47.110  27.731  25.673  1.00  0.00     0.064 A 
ATOM     69  C   UNL A   1      47.109  27.822  24.273  1.00  0.00     0.173 A 
ATOM     70  C   UNL A   1      48.240  27.181  26.295  1.00  0.00     0.173 A 
ATOM     71  F   UNL A   1      46.045  28.326  23.630  1.00  0.00    -0.203 F 
ATOM     72  C   UNL A   1      48.189  27.361  23.525  1.00  0.00     0.198 A 
ATOM     73  C   UNL A   1      49.331  26.747  25.546  1.00  0.00     0.198 A 
ATOM     74  F   UNL A   1      48.292  27.073  27.631  1.00  0.00    -0.203 F 
ATOM     75  F   UNL A   1      48.149  27.418  22.187  1.00  0.00    -0.200 F 
ATOM     76  C   UNL A   1      49.302  26.831  24.163  1.00  0.00     0.200 A 
ATOM     77  F   UNL A   1      50.409  26.246  26.164  1.00  0.00    -0.200 F 
ATOM     78  F   UNL A   1      50.344  26.394  23.442  1.00  0.00    -0.200 F 
ENDBRANCH  54  68
BRANCH  55  79
ATOM     79  C   UNL A   1      39.237  30.640  31.101  1.00  0.00     0.064 A 
ATOM     80  C   UNL A   1      39.220  30.403  32.482  1.00  0.00     0.173 A 
ATOM     81  C   UNL A   1      38.123  31.277  30.535  1.00  0.00     0.173 A 
ATOM     82  F   UNL A   1      40.250  29.773  33.066  1.00  0.00    -0.203 F 
ATOM     83  C   UNL A   1      38.123  30.766  33.263  1.00  0.00     0.198 A 
ATOM     84  C   UNL A   1      37.039  31.666  31.319  1.00  0.00     0.198 A 
ATOM     85  F   UNL A   1      38.088  31.525  29.218  1.00  0.00    -0.203 F 
ATOM     86  F   UNL A   1      38.112  30.482  34.572  1.00  0.00    -0.200 F 
ATOM     87  C   UNL A   1      37.036  31.402  32.681  1.00  0.00     0.200 A 
ATOM     88  F   UNL A   1      35.996  32.290  30.757  1.00  0.00    -0.200 F 
ATOM     89  F   UNL A   1      35.982  31.752  33.432  1.00  0.00    -0.200 F 
ENDBRANCH  55  79
BRANCH  67  90
ATOM     90  C   UNL A   1      45.202  33.712  29.197  1.00  0.00     0.064 A 
ATOM     91  C   UNL A   1      46.044  33.999  30.280  1.00  0.00     0.173 A 
ATOM     92  C   UNL A   1      44.943  34.738  28.275  1.00  0.00     0.173 A 
ATOM     93  F   UNL A   1      46.311  33.056  31.197  1.00  0.00    -0.203 F 
ATOM     94  C   UNL A   1      46.595  35.268  30.440  1.00  0.00     0.198 A 
ATOM     95  C   UNL A   1      45.517  35.997  28.422  1.00  0.00     0.198 A 
ATOM     96  F   UNL A   1      44.150  34.512  27.217  1.00  0.00    -0.203 F 
ATOM     97  F   UNL A   1      47.369  35.532  31.502  1.00  0.00    -0.200 F 
ATOM     98  C   UNL A   1      46.339  36.263  29.506  1.00  0.00     0.200 A 
ATOM     99  F   UNL A   1      45.280  36.952  27.512  1.00  0.00    -0.200 F 
ATOM    100  F   UNL A   1      46.882  37.478  29.655  1.00  0.00    -0.200 F 
ENDBRANCH  67  90
ENDBRANCH  41  42
ENDBRANCH  34  36
ENDBRANCH  33  34
ENDBRANCH  32  33
ENDBRANCH  31  32
ENDBRANCH  30  31
ENDBRANCH   1  30
TORSDOF 18
ENDMDL
MODEL 3
REMARK VINA RESULT:     -11.2      4.996      8.570
REMARK SMILES COc1c[nH]c(C[N@H+]2CCC[C@@H](c3ccc(C(=O)OCCOCCOC(=O)c4ccc(-c5c6nc(c(-c7c(F)c(F)c(F)c(F)c7F)c7ccc([nH]7)c(-c7c(F)c(F)c(F)c(F)c7F)c7nc(c(-c8c(F)c(F)c(F)c(F)c8F)c8ccc5[nH]8)C=C7)C=C6)cc4)cc3)C2)cc1=O
REMARK SMILES IDX 21 1 20 2 19 3 17 4 18 5 16 6 13 7 14 8 92 9 15 10 91 11
REMARK SMILES IDX 12 12 8 13 9 14 93 15 10 17 11 18 7 19 6 20 3 21 4 22 95 23
REMARK SMILES IDX 5 24 94 25 96 26 2 28 1 29 22 30 23 31 24 32 25 33 26 34
REMARK SMILES IDX 27 35 28 36 29 37 90 38 30 39 89 40 31 41 32 42 33 43 83 44
REMARK SMILES IDX 34 45 88 46 82 47 84 48 35 49 87 50 81 51 80 52 36 54 68 55
REMARK SMILES IDX 48 56 67 57 49 58 52 59 66 60 85 61 50 62 51 63 65 65 86 66
REMARK SMILES IDX 53 67 37 68 38 69 46 70 39 71 40 72 44 73 47 74 41 75 42 76
REMARK SMILES IDX 45 77 43 78 69 79 70 80 78 81 71 82 72 83 76 84 79 85 73 86
REMARK SMILES IDX 74 87 77 88 75 89 54 90 55 91 63 92 56 93 57 94 61 95 64 96
REMARK SMILES IDX 58 97 59 98 62 99 60 100
REMARK H PARENT 8 16 5 27 84 53 52 64
REMARK Flexibility Score: inf
ROOT
ATOM      1  C   UNL A   1      35.072  22.561  26.666  1.00  0.00     0.202 C 
ENDROOT
BRANCH   1   2
ATOM      2  C   UNL A   1      33.925  21.548  26.635  1.00  0.00     0.261 C 
BRANCH   2   3
ATOM      3  O   UNL A   1      33.865  20.878  25.366  1.00  0.00    -0.460 OA
BRANCH   3   4
ATOM      4  C   UNL A   1      32.632  20.848  24.806  1.00  0.00     0.338 C 
ATOM      5  O   UNL A   1      31.776  19.990  24.961  1.00  0.00    -0.246 OA
BRANCH   4   6
ATOM      6  C   UNL A   1      32.369  22.105  24.075  1.00  0.00     0.060 A 
ATOM      7  C   UNL A   1      32.155  24.573  22.762  1.00  0.00    -0.039 A 
ATOM      8  C   UNL A   1      33.129  23.638  22.373  1.00  0.00     0.005 A 
ATOM      9  C   UNL A   1      31.222  24.208  23.747  1.00  0.00     0.005 A 
ATOM     10  C   UNL A   1      33.250  22.424  23.040  1.00  0.00     0.016 A 
ATOM     11  C   UNL A   1      31.321  22.971  24.397  1.00  0.00     0.016 A 
BRANCH   7  12
ATOM     12  C   UNL A   1      32.232  26.014  22.266  1.00  0.00     0.074 C 
ATOM     13  N   UNL A   1      31.399  28.323  22.942  1.00  0.00    -0.329 N 
ATOM     14  C   UNL A   1      32.777  28.830  22.899  1.00  0.00     0.262 C 
ATOM     15  C   UNL A   1      31.360  26.883  23.204  1.00  0.00     0.270 C 
ATOM     16  H   UNL A   1      31.000  28.470  22.015  1.00  0.00     0.348 HD
ATOM     17  C   UNL A   1      33.634  28.062  21.888  1.00  0.00     0.062 C 
ATOM     18  C   UNL A   1      33.662  26.566  22.203  1.00  0.00     0.020 C 
BRANCH  13  19
ATOM     19  C   UNL A   1      30.552  29.085  23.892  1.00  0.00     0.317 C 
BRANCH  19  20
ATOM     20  C   UNL A   1      31.259  29.706  25.099  1.00  0.00     0.074 A 
ATOM     21  C   UNL A   1      32.908  30.758  27.184  1.00  0.00     0.182 A 
ATOM     22  C   UNL A   1      33.010  29.497  26.743  1.00  0.00     0.133 A 
ATOM     23  C   UNL A   1      31.800  31.584  26.584  1.00  0.00     0.223 A 
ATOM     24  N   UNL A   1      32.186  28.951  25.797  1.00  0.00    -0.357 N 
ATOM     25  C   UNL A   1      31.007  30.974  25.476  1.00  0.00     0.083 A 
ATOM     26  O   UNL A   1      31.548  32.730  26.943  1.00  0.00    -0.286 OA
ATOM     27  H   UNL A   1      32.255  27.988  25.606  1.00  0.00     0.166 HD
BRANCH  21  28
ATOM     28  O   UNL A   1      33.836  31.273  28.068  1.00  0.00    -0.491 OA
ATOM     29  C   UNL A   1      35.168  30.878  27.763  1.00  0.00     0.278 C 
ENDBRANCH  21  28
ENDBRANCH  19  20
ENDBRANCH  13  19
ENDBRANCH   7  12
ENDBRANCH   4   6
ENDBRANCH   3   4
ENDBRANCH   2   3
ENDBRANCH   1   2
BRANCH   1  30
ATOM     30  O   UNL A   1      35.476  23.090  25.404  1.00  0.00    -0.374 OA
BRANCH  30  31
ATOM     31  C   UNL A   1      36.560  22.441  24.738  1.00  0.00     0.202 C 
BRANCH  31  32
ATOM     32  C   UNL A   1      37.369  21.442  25.574  1.00  0.00     0.261 C 
BRANCH  32  33
ATOM     33  O   UNL A   1      38.784  21.595  25.359  1.00  0.00    -0.460 OA
BRANCH  33  34
ATOM     34  C   UNL A   1      39.562  21.337  26.435  1.00  0.00     0.338 C 
ATOM     35  O   UNL A   1      39.943  20.246  26.834  1.00  0.00    -0.246 OA
BRANCH  34  36
ATOM     36  C   UNL A   1      40.063  22.604  26.995  1.00  0.00     0.060 A 
ATOM     37  C   UNL A   1      39.546  23.801  26.481  1.00  0.00     0.016 A 
ATOM     38  C   UNL A   1      41.071  22.622  27.960  1.00  0.00     0.016 A 
ATOM     39  C   UNL A   1      40.070  25.025  26.893  1.00  0.00     0.010 A 
ATOM     40  C   UNL A   1      41.604  23.848  28.364  1.00  0.00     0.010 A 
ATOM     41  C   UNL A   1      41.131  25.051  27.806  1.00  0.00    -0.014 A 
BRANCH  41  42
ATOM     42  C   UNL A   1      41.878  26.306  28.054  1.00  0.00     0.031 A 
ATOM     43  C   UNL A   1      41.195  27.406  28.817  1.00  0.00     0.074 A 
ATOM     44  C   UNL A   1      43.128  26.474  27.591  1.00  0.00     0.049 A 
ATOM     45  N   UNL A   1      41.574  28.641  29.017  1.00  0.00    -0.248 NA
ATOM     46  C   UNL A   1      39.900  27.064  29.430  1.00  0.00     0.031 C 
ATOM     47  C   UNL A   1      43.916  25.460  26.894  1.00  0.00     0.029 A 
ATOM     48  N   UNL A   1      43.946  27.576  27.622  1.00  0.00    -0.354 N 
ATOM     49  C   UNL A   1      40.560  29.227  29.763  1.00  0.00     0.074 A 
ATOM     50  C   UNL A   1      39.540  28.221  29.963  1.00  0.00     0.031 C 
ATOM     51  C   UNL A   1      45.097  25.996  26.540  1.00  0.00     0.029 A 
ATOM     52  C   UNL A   1      45.127  27.400  26.946  1.00  0.00     0.049 A 
ATOM     53  H   UNL A   1      43.707  28.413  28.084  1.00  0.00     0.167 HD
ATOM     54  C   UNL A   1      40.489  30.493  30.237  1.00  0.00     0.037 A 
ATOM     55  C   UNL A   1      46.100  28.287  26.658  1.00  0.00     0.037 A 
ATOM     56  C   UNL A   1      41.508  31.489  30.034  1.00  0.00     0.049 A 
ATOM     57  C   UNL A   1      45.961  29.714  27.126  1.00  0.00     0.074 A 
ATOM     58  C   UNL A   1      41.530  32.803  30.466  1.00  0.00     0.029 A 
ATOM     59  N   UNL A   1      42.686  31.275  29.336  1.00  0.00    -0.354 N 
ATOM     60  N   UNL A   1      44.998  30.268  27.824  1.00  0.00    -0.248 NA
ATOM     61  C   UNL A   1      47.044  30.640  26.764  1.00  0.00     0.031 C 
ATOM     62  C   UNL A   1      42.705  33.397  29.992  1.00  0.00     0.029 A 
ATOM     63  C   UNL A   1      43.438  32.437  29.313  1.00  0.00     0.049 A 
ATOM     64  H   UNL A   1      42.950  30.423  28.919  1.00  0.00     0.167 HD
ATOM     65  C   UNL A   1      45.379  31.589  28.020  1.00  0.00     0.074 A 
ATOM     66  C   UNL A   1      46.659  31.757  27.366  1.00  0.00     0.031 C 
ATOM     67  C   UNL A   1      44.727  32.574  28.687  1.00  0.00     0.037 A 
BRANCH  54  68
ATOM     68  C   UNL A   1      39.256  30.881  30.998  1.00  0.00     0.064 A 
ATOM     69  C   UNL A   1      38.161  31.491  30.366  1.00  0.00     0.173 A 
ATOM     70  C   UNL A   1      39.155  30.612  32.371  1.00  0.00     0.173 A 
ATOM     71  F   UNL A   1      38.215  31.783  29.057  1.00  0.00    -0.203 F 
ATOM     72  C   UNL A   1      37.021  31.837  31.085  1.00  0.00     0.198 A 
ATOM     73  C   UNL A   1      38.002  30.933  33.081  1.00  0.00     0.198 A 
ATOM     74  F   UNL A   1      40.172  30.029  33.022  1.00  0.00    -0.203 F 
ATOM     75  F   UNL A   1      36.005  32.457  30.470  1.00  0.00    -0.200 F 
ATOM     76  C   UNL A   1      36.939  31.550  32.440  1.00  0.00     0.200 A 
ATOM     77  F   UNL A   1      37.920  30.646  34.388  1.00  0.00    -0.200 F 
ATOM     78  F   UNL A   1      35.837  31.877  33.130  1.00  0.00    -0.200 F 
ENDBRANCH  54  68
BRANCH  55  79
ATOM     79  C   UNL A   1      47.287  27.862  25.870  1.00  0.00     0.064 A 
ATOM     80  C   UNL A   1      48.495  27.541  26.504  1.00  0.00     0.173 A 
ATOM     81  C   UNL A   1      47.247  27.794  24.470  1.00  0.00     0.173 A 
ATOM     82  F   UNL A   1      48.591  27.616  27.840  1.00  0.00    -0.203 F 
ATOM     83  C   UNL A   1      49.624  27.188  25.767  1.00  0.00     0.198 A 
ATOM     84  C   UNL A   1      48.368  27.415  23.735  1.00  0.00     0.198 A 
ATOM     85  F   UNL A   1      46.117  28.095  23.815  1.00  0.00    -0.203 F 
ATOM     86  F   UNL A   1      50.780  26.935  26.396  1.00  0.00    -0.200 F 
ATOM     87  C   UNL A   1      49.559  27.121  24.383  1.00  0.00     0.200 A 
ATOM     88  F   UNL A   1      48.297  27.339  22.399  1.00  0.00    -0.200 F 
ATOM     89  F   UNL A   1      50.644  26.781  23.675  1.00  0.00    -0.200 F 
ENDBRANCH  55  79
BRANCH  67  90
ATOM     90  C   UNL A   1      45.415  33.902  28.813  1.00  0.00     0.064 A 
ATOM     91  C   UNL A   1      45.211  34.934  27.887  1.00  0.00     0.173 A 
ATOM     92  C   UNL A   1      46.236  34.165  29.921  1.00  0.00     0.173 A 
ATOM     93  F   UNL A   1      44.445  34.728  26.804  1.00  0.00    -0.203 F 
ATOM     94  C   UNL A   1      45.815  36.177  28.057  1.00  0.00     0.198 A 
ATOM     95  C   UNL A   1      46.816  35.416  30.104  1.00  0.00     0.198 A 
ATOM     96  F   UNL A   1      46.456  33.212  30.839  1.00  0.00    -0.203 F 
ATOM     97  F   UNL A   1      45.635  37.139  27.142  1.00  0.00    -0.200 F 
ATOM     98  C   UNL A   1      46.609  36.420  29.170  1.00  0.00     0.200 A 
ATOM     99  F   UNL A   1      47.571  35.653  31.186  1.00  0.00    -0.200 F 
ATOM    100  F   UNL A   1      47.177  37.621  29.339  1.00  0.00    -0.200 F 
ENDBRANCH  67  90
ENDBRANCH  41  42
ENDBRANCH  34  36
ENDBRANCH  33  34
ENDBRANCH  32  33
ENDBRANCH  31  32
ENDBRANCH  30  31
ENDBRANCH   1  30
TORSDOF 18
ENDMDL
