MODEL 1
REMARK VINA RESULT:     -10.8      0.000      0.000
REMARK SMILES O=C(OCCOCCOC(=O)[C@@H](CCO)NC(=O)c1c(F)ccc([N+](=O)[O-])c1F)c1ccc(-c2c3nc(c(-c4c(F)c(F)c(F)c(F)c4F)c4ccc([nH]4)c(-c4c(F)c(F)c(F)c(F)c4F)c4nc(c(-c5c(F)c(F)c(F)c(F)c5F)c5ccc2[nH]5)C=C4)C=C3)cc1
REMARK SMILES IDX 7 1 6 2 5 3 4 4 3 5 2 6 1 7 30 8 31 9 92 10 32 11 91 12
REMARK SMILES IDX 33 13 34 14 35 15 85 16 36 17 90 18 84 19 86 20 37 21 89 22
REMARK SMILES IDX 83 23 82 24 38 26 70 27 50 28 69 29 51 30 54 31 68 32 87 33
REMARK SMILES IDX 52 34 53 35 67 37 88 38 55 39 39 40 40 41 48 42 41 43 42 44
REMARK SMILES IDX 46 45 49 46 43 47 44 48 47 49 45 50 71 51 72 52 80 53 73 54
REMARK SMILES IDX 74 55 78 56 81 57 75 58 76 59 79 60 77 61 56 62 57 63 65 64
REMARK SMILES IDX 58 65 59 66 63 67 66 68 60 69 61 70 64 71 62 72 8 73 9 74
REMARK SMILES IDX 10 75 11 76 12 77 13 78 14 79 15 80 16 82 17 83 18 85 19 86
REMARK SMILES IDX 20 87 28 88 21 89 22 90 24 91 29 92 23 93 25 94 26 95 27 96
REMARK H PARENT 86 25 54 36 15 81 16 84
REMARK Flexibility Score: inf
ROOT
ATOM      1  C   UNL A   1      32.575  28.779  26.608  1.00  0.00     0.202 C 
ENDROOT
BRANCH   1   2
ATOM      2  O   UNL A   1      32.008  29.915  27.277  1.00  0.00    -0.374 OA
BRANCH   2   3
ATOM      3  C   UNL A   1      32.437  31.196  26.810  1.00  0.00     0.202 C 
BRANCH   3   4
ATOM      4  C   UNL A   1      31.616  32.408  27.274  1.00  0.00     0.261 C 
BRANCH   4   5
ATOM      5  O   UNL A   1      32.408  33.608  27.248  1.00  0.00    -0.460 OA
BRANCH   5   6
ATOM      6  C   UNL A   1      33.022  34.234  28.281  1.00  0.00     0.338 C 
ATOM      7  O   UNL A   1      32.523  35.265  28.731  1.00  0.00    -0.246 OA
BRANCH   6   8
ATOM      8  C   UNL A   1      34.284  33.737  28.903  1.00  0.00     0.060 A 
ATOM      9  C   UNL A   1      35.532  34.326  28.720  1.00  0.00     0.016 A 
ATOM     10  C   UNL A   1      34.196  32.649  29.788  1.00  0.00     0.016 A 
ATOM     11  C   UNL A   1      36.669  33.822  29.311  1.00  0.00     0.010 A 
ATOM     12  C   UNL A   1      35.334  32.162  30.443  1.00  0.00     0.010 A 
ATOM     13  C   UNL A   1      36.577  32.746  30.187  1.00  0.00    -0.014 A 
BRANCH  13  14
ATOM     14  C   UNL A   1      37.852  32.257  30.728  1.00  0.00     0.031 A 
ATOM     15  C   UNL A   1      38.215  32.624  32.129  1.00  0.00     0.074 A 
ATOM     16  C   UNL A   1      38.502  31.293  30.049  1.00  0.00     0.049 A 
ATOM     17  N   UNL A   1      39.209  32.201  32.859  1.00  0.00    -0.248 NA
ATOM     18  C   UNL A   1      37.316  33.567  32.816  1.00  0.00     0.031 C 
ATOM     19  C   UNL A   1      38.093  30.775  28.741  1.00  0.00     0.029 A 
ATOM     20  N   UNL A   1      39.575  30.519  30.394  1.00  0.00    -0.354 N 
ATOM     21  C   UNL A   1      39.072  32.845  34.079  1.00  0.00     0.074 A 
ATOM     22  C   UNL A   1      37.894  33.677  34.002  1.00  0.00     0.031 C 
ATOM     23  C   UNL A   1      38.858  29.720  28.429  1.00  0.00     0.029 A 
ATOM     24  C   UNL A   1      39.859  29.540  29.473  1.00  0.00     0.049 A 
ATOM     25  H   UNL A   1      40.093  30.650  31.221  1.00  0.00     0.167 HD
ATOM     26  C   UNL A   1      39.882  32.751  35.157  1.00  0.00     0.037 A 
ATOM     27  C   UNL A   1      40.834  28.612  29.476  1.00  0.00     0.037 A 
ATOM     28  C   UNL A   1      41.047  31.913  35.194  1.00  0.00     0.049 A 
ATOM     29  C   UNL A   1      41.777  28.595  30.646  1.00  0.00     0.074 A 
ATOM     30  C   UNL A   1      42.009  31.808  36.180  1.00  0.00     0.029 A 
ATOM     31  N   UNL A   1      41.402  31.026  34.183  1.00  0.00    -0.354 N 
ATOM     32  N   UNL A   1      41.717  29.292  31.757  1.00  0.00    -0.248 NA
ATOM     33  C   UNL A   1      42.937  27.702  30.555  1.00  0.00     0.031 C 
ATOM     34  C   UNL A   1      42.968  30.886  35.747  1.00  0.00     0.029 A 
ATOM     35  C   UNL A   1      42.580  30.383  34.512  1.00  0.00     0.049 A 
ATOM     36  H   UNL A   1      40.889  30.878  33.356  1.00  0.00     0.167 HD
ATOM     37  C   UNL A   1      42.833  28.930  32.496  1.00  0.00     0.074 A 
ATOM     38  C   UNL A   1      43.538  27.930  31.716  1.00  0.00     0.031 C 
ATOM     39  C   UNL A   1      43.245  29.392  33.701  1.00  0.00     0.037 A 
BRANCH  26  40
ATOM     40  C   UNL A   1      39.573  33.646  36.317  1.00  0.00     0.064 A 
ATOM     41  C   UNL A   1      38.766  33.176  37.365  1.00  0.00     0.173 A 
ATOM     42  C   UNL A   1      40.104  34.939  36.423  1.00  0.00     0.173 A 
ATOM     43  F   UNL A   1      38.247  31.941  37.316  1.00  0.00    -0.203 F 
ATOM     44  C   UNL A   1      38.505  33.969  38.478  1.00  0.00     0.198 A 
ATOM     45  C   UNL A   1      39.858  35.722  37.549  1.00  0.00     0.198 A 
ATOM     46  F   UNL A   1      40.910  35.419  35.465  1.00  0.00    -0.203 F 
ATOM     47  F   UNL A   1      37.734  33.497  39.469  1.00  0.00    -0.200 F 
ATOM     48  C   UNL A   1      39.057  35.238  38.574  1.00  0.00     0.200 A 
ATOM     49  F   UNL A   1      40.421  36.932  37.658  1.00  0.00    -0.200 F 
ATOM     50  F   UNL A   1      38.834  35.986  39.663  1.00  0.00    -0.200 F 
ENDBRANCH  26  40
BRANCH  27  51
ATOM     51  C   UNL A   1      40.970  27.680  28.327  1.00  0.00     0.064 A 
ATOM     52  C   UNL A   1      41.792  27.996  27.232  1.00  0.00     0.173 A 
ATOM     53  C   UNL A   1      40.244  26.484  28.266  1.00  0.00     0.173 A 
ATOM     54  F   UNL A   1      42.512  29.128  27.239  1.00  0.00    -0.203 F 
ATOM     55  C   UNL A   1      41.850  27.175  26.109  1.00  0.00     0.198 A 
ATOM     56  C   UNL A   1      40.325  25.648  27.152  1.00  0.00     0.198 A 
ATOM     57  F   UNL A   1      39.460  26.123  29.293  1.00  0.00    -0.203 F 
ATOM     58  F   UNL A   1      42.604  27.532  25.060  1.00  0.00    -0.200 F 
ATOM     59  C   UNL A   1      41.118  26.000  26.069  1.00  0.00     0.200 A 
ATOM     60  F   UNL A   1      39.633  24.500  27.126  1.00  0.00    -0.200 F 
ATOM     61  F   UNL A   1      41.176  25.209  24.990  1.00  0.00    -0.200 F 
ENDBRANCH  27  51
BRANCH  39  62
ATOM     62  C   UNL A   1      44.518  28.827  34.249  1.00  0.00     0.064 A 
ATOM     63  C   UNL A   1      44.491  27.693  35.073  1.00  0.00     0.173 A 
ATOM     64  C   UNL A   1      45.742  29.476  34.046  1.00  0.00     0.173 A 
ATOM     65  F   UNL A   1      43.337  27.049  35.299  1.00  0.00    -0.203 F 
ATOM     66  C   UNL A   1      45.649  27.241  35.696  1.00  0.00     0.198 A 
ATOM     67  C   UNL A   1      46.902  29.008  34.654  1.00  0.00     0.198 A 
ATOM     68  F   UNL A   1      45.811  30.558  33.256  1.00  0.00    -0.203 F 
ATOM     69  F   UNL A   1      45.599  26.179  36.512  1.00  0.00    -0.200 F 
ATOM     70  C   UNL A   1      46.852  27.899  35.487  1.00  0.00     0.200 A 
ATOM     71  F   UNL A   1      48.068  29.634  34.441  1.00  0.00    -0.200 F 
ATOM     72  F   UNL A   1      47.967  27.466  36.093  1.00  0.00    -0.200 F 
ENDBRANCH  39  62
ENDBRANCH  13  14
ENDBRANCH   6   8
ENDBRANCH   5   6
ENDBRANCH   4   5
ENDBRANCH   3   4
ENDBRANCH   2   3
ENDBRANCH   1   2
BRANCH   1  73
ATOM     73  C   UNL A   1      33.137  29.183  25.246  1.00  0.00     0.261 C 
BRANCH  73  74
ATOM     74  O   UNL A   1      33.585  27.984  24.591  1.00  0.00    -0.462 OA
BRANCH  74  75
ATOM     75  C   UNL A   1      33.337  27.920  23.261  1.00  0.00     0.328 C 
ATOM     76  O   UNL A   1      34.011  28.472  22.395  1.00  0.00    -0.250 OA
BRANCH  75  77
ATOM     77  C   UNL A   1      32.082  27.105  22.923  1.00  0.00     0.194 C 
BRANCH  77  78
ATOM     78  C   UNL A   1      30.793  27.768  22.403  1.00  0.00     0.065 C 
BRANCH  78  79
ATOM     79  C   UNL A   1      30.627  29.277  22.505  1.00  0.00     0.159 C 
BRANCH  79  80
ATOM     80  O   UNL A   1      30.292  29.835  21.249  1.00  0.00    -0.396 OA
ATOM     81  H   UNL A   1      29.429  30.273  21.309  1.00  0.00     0.210 HD
ENDBRANCH  79  80
ENDBRANCH  78  79
ENDBRANCH  77  78
BRANCH  77  82
ATOM     82  N   UNL A   1      32.467  25.958  22.106  1.00  0.00    -0.338 N 
ATOM     83  C   UNL A   1      32.910  24.722  22.499  1.00  0.00     0.258 C 
ATOM     84  H   UNL A   1      32.399  26.092  21.133  1.00  0.00     0.164 HD
ATOM     85  O   UNL A   1      33.314  23.920  21.658  1.00  0.00    -0.269 OA
BRANCH  83  86
ATOM     86  C   UNL A   1      32.891  24.314  23.912  1.00  0.00     0.118 A 
ATOM     87  C   UNL A   1      34.009  24.503  24.727  1.00  0.00     0.139 A 
ATOM     88  C   UNL A   1      31.702  23.836  24.469  1.00  0.00     0.216 A 
ATOM     89  F   UNL A   1      35.150  25.002  24.229  1.00  0.00    -0.206 F 
ATOM     90  C   UNL A   1      33.975  24.170  26.079  1.00  0.00     0.047 A 
ATOM     91  C   UNL A   1      31.655  23.522  25.831  1.00  0.00     0.305 A 
ATOM     92  F   UNL A   1      30.625  23.687  23.686  1.00  0.00    -0.198 F 
ATOM     93  C   UNL A   1      32.796  23.680  26.639  1.00  0.00     0.092 A 
BRANCH  91  94
ATOM     94  N   UNL A   1      30.415  23.049  26.445  1.00  0.00     0.065 N 
ATOM     95  O   UNL A   1      29.991  21.927  26.146  1.00  0.00    -0.258 OA
ATOM     96  O   UNL A   1      29.864  23.809  27.256  1.00  0.00    -0.258 OA
ENDBRANCH  91  94
ENDBRANCH  83  86
ENDBRANCH  77  82
ENDBRANCH  75  77
ENDBRANCH  74  75
ENDBRANCH  73  74
ENDBRANCH   1  73
TORSDOF 20
ENDMDL
MODEL 2
REMARK VINA RESULT:     -10.8      1.423      2.183
REMARK SMILES O=C(OCCOCCOC(=O)[C@@H](CCO)NC(=O)c1c(F)ccc([N+](=O)[O-])c1F)c1ccc(-c2c3nc(c(-c4c(F)c(F)c(F)c(F)c4F)c4ccc([nH]4)c(-c4c(F)c(F)c(F)c(F)c4F)c4nc(c(-c5c(F)c(F)c(F)c(F)c5F)c5ccc2[nH]5)C=C4)C=C3)cc1
REMARK SMILES IDX 7 1 6 2 5 3 4 4 3 5 2 6 1 7 30 8 31 9 92 10 32 11 91 12
REMARK SMILES IDX 33 13 34 14 35 15 85 16 36 17 90 18 84 19 86 20 37 21 89 22
REMARK SMILES IDX 83 23 82 24 38 26 70 27 50 28 69 29 51 30 54 31 68 32 87 33
REMARK SMILES IDX 52 34 53 35 67 37 88 38 55 39 39 40 40 41 48 42 41 43 42 44
REMARK SMILES IDX 46 45 49 46 43 47 44 48 47 49 45 50 71 51 72 52 80 53 73 54
REMARK SMILES IDX 74 55 78 56 81 57 75 58 76 59 79 60 77 61 56 62 57 63 65 64
REMARK SMILES IDX 58 65 59 66 63 67 66 68 60 69 61 70 64 71 62 72 8 73 9 74
REMARK SMILES IDX 10 75 11 76 12 77 13 78 14 79 15 80 16 82 17 83 18 85 19 86
REMARK SMILES IDX 20 87 28 88 21 89 22 90 24 91 29 92 23 93 25 94 26 95 27 96
REMARK H PARENT 86 25 54 36 15 81 16 84
REMARK Flexibility Score: inf
ROOT
ATOM      1  C   UNL A   1      32.511  30.387  27.014  1.00  0.00     0.202 C 
ENDROOT
BRANCH   1   2
ATOM      2  O   UNL A   1      31.434  31.086  26.374  1.00  0.00    -0.374 OA
BRANCH   2   3
ATOM      3  C   UNL A   1      31.382  32.497  26.597  1.00  0.00     0.202 C 
BRANCH   3   4
ATOM      4  C   UNL A   1      32.628  33.142  27.220  1.00  0.00     0.261 C 
BRANCH   4   5
ATOM      5  O   UNL A   1      32.283  34.336  27.944  1.00  0.00    -0.460 OA
BRANCH   5   6
ATOM      6  C   UNL A   1      32.990  34.967  28.912  1.00  0.00     0.338 C 
ATOM      7  O   UNL A   1      32.605  36.067  29.307  1.00  0.00    -0.246 OA
BRANCH   6   8
ATOM      8  C   UNL A   1      34.222  34.394  29.529  1.00  0.00     0.060 A 
ATOM      9  C   UNL A   1      35.511  34.620  29.054  1.00  0.00     0.016 A 
ATOM     10  C   UNL A   1      34.079  33.640  30.706  1.00  0.00     0.016 A 
ATOM     11  C   UNL A   1      36.617  34.059  29.656  1.00  0.00     0.010 A 
ATOM     12  C   UNL A   1      35.198  33.113  31.362  1.00  0.00     0.010 A 
ATOM     13  C   UNL A   1      36.470  33.314  30.820  1.00  0.00    -0.014 A 
BRANCH  13  14
ATOM     14  C   UNL A   1      37.704  32.723  31.355  1.00  0.00     0.031 A 
ATOM     15  C   UNL A   1      38.099  33.055  32.756  1.00  0.00     0.074 A 
ATOM     16  C   UNL A   1      38.273  31.714  30.671  1.00  0.00     0.049 A 
ATOM     17  N   UNL A   1      39.058  32.552  33.482  1.00  0.00    -0.248 NA
ATOM     18  C   UNL A   1      37.279  34.064  33.449  1.00  0.00     0.031 C 
ATOM     19  C   UNL A   1      37.821  31.234  29.363  1.00  0.00     0.029 A 
ATOM     20  N   UNL A   1      39.283  30.855  31.010  1.00  0.00    -0.354 N 
ATOM     21  C   UNL A   1      38.977  33.200  34.704  1.00  0.00     0.074 A 
ATOM     22  C   UNL A   1      37.868  34.124  34.634  1.00  0.00     0.031 C 
ATOM     23  C   UNL A   1      38.499  30.123  29.045  1.00  0.00     0.029 A 
ATOM     24  C   UNL A   1      39.485  29.860  30.086  1.00  0.00     0.049 A 
ATOM     25  H   UNL A   1      39.812  30.942  31.836  1.00  0.00     0.167 HD
ATOM     26  C   UNL A   1      39.779  33.039  35.780  1.00  0.00     0.037 A 
ATOM     27  C   UNL A   1      40.384  28.858  30.082  1.00  0.00     0.037 A 
ATOM     28  C   UNL A   1      40.875  32.111  35.810  1.00  0.00     0.049 A 
ATOM     29  C   UNL A   1      41.326  28.762  31.249  1.00  0.00     0.074 A 
ATOM     30  C   UNL A   1      41.827  31.927  36.793  1.00  0.00     0.029 A 
ATOM     31  N   UNL A   1      41.155  31.203  34.795  1.00  0.00    -0.354 N 
ATOM     32  N   UNL A   1      41.325  29.457  32.363  1.00  0.00    -0.248 NA
ATOM     33  C   UNL A   1      42.411  27.780  31.152  1.00  0.00     0.031 C 
ATOM     34  C   UNL A   1      42.709  30.933  36.354  1.00  0.00     0.029 A 
ATOM     35  C   UNL A   1      42.279  30.467  35.119  1.00  0.00     0.049 A 
ATOM     36  H   UNL A   1      40.629  31.099  33.970  1.00  0.00     0.167 HD
ATOM     37  C   UNL A   1      42.410  29.005  33.097  1.00  0.00     0.074 A 
ATOM     38  C   UNL A   1      43.031  27.955  32.312  1.00  0.00     0.031 C 
ATOM     39  C   UNL A   1      42.861  29.429  34.302  1.00  0.00     0.037 A 
BRANCH  26  40
ATOM     40  C   UNL A   1      39.545  33.952  36.943  1.00  0.00     0.064 A 
ATOM     41  C   UNL A   1      38.799  33.502  38.044  1.00  0.00     0.173 A 
ATOM     42  C   UNL A   1      40.090  35.242  37.000  1.00  0.00     0.173 A 
ATOM     43  F   UNL A   1      38.270  32.270  38.043  1.00  0.00    -0.203 F 
ATOM     44  C   UNL A   1      38.609  34.312  39.160  1.00  0.00     0.198 A 
ATOM     45  C   UNL A   1      39.916  36.041  38.128  1.00  0.00     0.198 A 
ATOM     46  F   UNL A   1      40.841  35.703  35.989  1.00  0.00    -0.203 F 
ATOM     47  F   UNL A   1      37.896  33.858  40.200  1.00  0.00    -0.200 F 
ATOM     48  C   UNL A   1      39.175  35.577  39.205  1.00  0.00     0.200 A 
ATOM     49  F   UNL A   1      40.493  37.249  38.187  1.00  0.00    -0.200 F 
ATOM     50  F   UNL A   1      39.021  36.342  40.295  1.00  0.00    -0.200 F 
ENDBRANCH  26  40
BRANCH  27  51
ATOM     51  C   UNL A   1      40.442  27.922  28.930  1.00  0.00     0.064 A 
ATOM     52  C   UNL A   1      41.209  28.223  27.791  1.00  0.00     0.173 A 
ATOM     53  C   UNL A   1      39.695  26.738  28.911  1.00  0.00     0.173 A 
ATOM     54  F   UNL A   1      41.946  29.343  27.756  1.00  0.00    -0.203 F 
ATOM     55  C   UNL A   1      41.192  27.400  26.668  1.00  0.00     0.198 A 
ATOM     56  C   UNL A   1      39.702  25.899  27.796  1.00  0.00     0.198 A 
ATOM     57  F   UNL A   1      38.962  26.391  29.980  1.00  0.00    -0.203 F 
ATOM     58  F   UNL A   1      41.894  27.743  25.579  1.00  0.00    -0.200 F 
ATOM     59  C   UNL A   1      40.440  26.237  26.671  1.00  0.00     0.200 A 
ATOM     60  F   UNL A   1      38.992  24.762  27.810  1.00  0.00    -0.200 F 
ATOM     61  F   UNL A   1      40.426  25.443  25.592  1.00  0.00    -0.200 F 
ENDBRANCH  27  51
BRANCH  39  62
ATOM     62  C   UNL A   1      44.086  28.763  34.844  1.00  0.00     0.064 A 
ATOM     63  C   UNL A   1      45.360  29.245  34.511  1.00  0.00     0.173 A 
ATOM     64  C   UNL A   1      43.995  27.585  35.596  1.00  0.00     0.173 A 
ATOM     65  F   UNL A   1      45.490  30.365  33.784  1.00  0.00    -0.203 F 
ATOM     66  C   UNL A   1      46.504  28.555  34.896  1.00  0.00     0.198 A 
ATOM     67  C   UNL A   1      45.142  26.908  35.997  1.00  0.00     0.198 A 
ATOM     68  F   UNL A   1      42.795  27.097  35.943  1.00  0.00    -0.203 F 
ATOM     69  F   UNL A   1      47.712  29.009  34.536  1.00  0.00    -0.200 F 
ATOM     70  C   UNL A   1      46.394  27.387  35.637  1.00  0.00     0.200 A 
ATOM     71  F   UNL A   1      45.037  25.789  36.727  1.00  0.00    -0.200 F 
ATOM     72  F   UNL A   1      47.496  26.719  36.003  1.00  0.00    -0.200 F 
ENDBRANCH  39  62
ENDBRANCH  13  14
ENDBRANCH   6   8
ENDBRANCH   5   6
ENDBRANCH   4   5
ENDBRANCH   3   4
ENDBRANCH   2   3
ENDBRANCH   1   2
BRANCH   1  73
ATOM     73  C   UNL A   1      32.205  28.893  27.101  1.00  0.00     0.261 C 
BRANCH  73  74
ATOM     74  O   UNL A   1      31.329  28.568  26.008  1.00  0.00    -0.462 OA
BRANCH  74  75
ATOM     75  C   UNL A   1      31.184  27.247  25.751  1.00  0.00     0.328 C 
ATOM     76  O   UNL A   1      31.263  26.356  26.594  1.00  0.00    -0.250 OA
BRANCH  75  77
ATOM     77  C   UNL A   1      30.944  26.947  24.265  1.00  0.00     0.194 C 
BRANCH  77  78
ATOM     78  C   UNL A   1      29.569  27.150  23.603  1.00  0.00     0.065 C 
BRANCH  78  79
ATOM     79  C   UNL A   1      29.251  28.468  22.914  1.00  0.00     0.159 C 
BRANCH  79  80
ATOM     80  O   UNL A   1      30.026  28.627  21.742  1.00  0.00    -0.396 OA
ATOM     81  H   UNL A   1      29.505  28.356  20.970  1.00  0.00     0.210 HD
ENDBRANCH  79  80
ENDBRANCH  78  79
ENDBRANCH  77  78
BRANCH  77  82
ATOM     82  N   UNL A   1      32.017  27.552  23.480  1.00  0.00    -0.338 N 
ATOM     83  C   UNL A   1      33.230  27.027  23.119  1.00  0.00     0.258 C 
ATOM     84  H   UNL A   1      31.843  28.469  23.166  1.00  0.00     0.164 HD
ATOM     85  O   UNL A   1      34.064  27.740  22.562  1.00  0.00    -0.269 OA
BRANCH  83  86
ATOM     86  C   UNL A   1      33.556  25.613  23.359  1.00  0.00     0.118 A 
ATOM     87  C   UNL A   1      33.321  24.647  22.377  1.00  0.00     0.139 A 
ATOM     88  C   UNL A   1      34.212  25.254  24.539  1.00  0.00     0.216 A 
ATOM     89  F   UNL A   1      32.733  24.972  21.217  1.00  0.00    -0.206 F 
ATOM     90  C   UNL A   1      33.681  23.318  22.581  1.00  0.00     0.047 A 
ATOM     91  C   UNL A   1      34.597  23.924  24.738  1.00  0.00     0.305 A 
ATOM     92  F   UNL A   1      34.462  26.193  25.462  1.00  0.00    -0.198 F 
ATOM     93  C   UNL A   1      34.324  22.949  23.761  1.00  0.00     0.092 A 
BRANCH  91  94
ATOM     94  N   UNL A   1      35.312  23.528  25.951  1.00  0.00     0.065 N 
ATOM     95  O   UNL A   1      34.725  22.835  26.789  1.00  0.00    -0.258 OA
ATOM     96  O   UNL A   1      36.488  23.904  26.057  1.00  0.00    -0.258 OA
ENDBRANCH  91  94
ENDBRANCH  83  86
ENDBRANCH  77  82
ENDBRANCH  75  77
ENDBRANCH  74  75
ENDBRANCH  73  74
ENDBRANCH   1  73
TORSDOF 20
ENDMDL
MODEL 3
REMARK VINA RESULT:     -10.7      1.345      2.350
REMARK SMILES O=C(OCCOCCOC(=O)[C@@H](CCO)NC(=O)c1c(F)ccc([N+](=O)[O-])c1F)c1ccc(-c2c3nc(c(-c4c(F)c(F)c(F)c(F)c4F)c4ccc([nH]4)c(-c4c(F)c(F)c(F)c(F)c4F)c4nc(c(-c5c(F)c(F)c(F)c(F)c5F)c5ccc2[nH]5)C=C4)C=C3)cc1
REMARK SMILES IDX 7 1 6 2 5 3 4 4 3 5 2 6 1 7 30 8 31 9 92 10 32 11 91 12
REMARK SMILES IDX 33 13 34 14 35 15 85 16 36 17 90 18 84 19 86 20 37 21 89 22
REMARK SMILES IDX 83 23 82 24 38 26 70 27 50 28 69 29 51 30 54 31 68 32 87 33
REMARK SMILES IDX 52 34 53 35 67 37 88 38 55 39 39 40 40 41 48 42 41 43 42 44
REMARK SMILES IDX 46 45 49 46 43 47 44 48 47 49 45 50 71 51 72 52 80 53 73 54
REMARK SMILES IDX 74 55 78 56 81 57 75 58 76 59 79 60 77 61 56 62 57 63 65 64
REMARK SMILES IDX 58 65 59 66 63 67 66 68 60 69 61 70 64 71 62 72 8 73 9 74
REMARK SMILES IDX 10 75 11 76 12 77 13 78 14 79 15 80 16 82 17 83 18 85 19 86
REMARK SMILES IDX 20 87 28 88 21 89 22 90 24 91 29 92 23 93 25 94 26 95 27 96
REMARK H PARENT 86 25 54 36 15 81 16 84
REMARK Flexibility Score: inf
ROOT
ATOM      1  C   UNL A   1      32.975  29.649  25.342  1.00  0.00     0.202 C 
ENDROOT
BRANCH   1   2
ATOM      2  O   UNL A   1      31.991  30.428  26.037  1.00  0.00    -0.374 OA
BRANCH   2   3
ATOM      3  C   UNL A   1      32.495  31.410  26.945  1.00  0.00     0.202 C 
BRANCH   3   4
ATOM      4  C   UNL A   1      31.682  32.705  27.079  1.00  0.00     0.261 C 
BRANCH   4   5
ATOM      5  O   UNL A   1      32.546  33.844  27.236  1.00  0.00    -0.460 OA
BRANCH   5   6
ATOM      6  C   UNL A   1      33.079  34.347  28.376  1.00  0.00     0.338 C 
ATOM      7  O   UNL A   1      32.527  35.304  28.917  1.00  0.00    -0.246 OA
BRANCH   6   8
ATOM      8  C   UNL A   1      34.311  33.797  29.013  1.00  0.00     0.060 A 
ATOM      9  C   UNL A   1      35.595  34.282  28.780  1.00  0.00     0.016 A 
ATOM     10  C   UNL A   1      34.159  32.773  29.963  1.00  0.00     0.016 A 
ATOM     11  C   UNL A   1      36.703  33.732  29.388  1.00  0.00     0.010 A 
ATOM     12  C   UNL A   1      35.270  32.244  30.634  1.00  0.00     0.010 A 
ATOM     13  C   UNL A   1      36.547  32.720  30.328  1.00  0.00    -0.014 A 
BRANCH  13  14
ATOM     14  C   UNL A   1      37.792  32.173  30.884  1.00  0.00     0.031 A 
ATOM     15  C   UNL A   1      38.131  32.483  32.304  1.00  0.00     0.074 A 
ATOM     16  C   UNL A   1      38.428  31.211  30.190  1.00  0.00     0.049 A 
ATOM     17  N   UNL A   1      39.093  32.005  33.044  1.00  0.00    -0.248 NA
ATOM     18  C   UNL A   1      37.246  33.433  32.999  1.00  0.00     0.031 C 
ATOM     19  C   UNL A   1      38.035  30.748  28.856  1.00  0.00     0.029 A 
ATOM     20  N   UNL A   1      39.467  30.391  30.534  1.00  0.00    -0.354 N 
ATOM     21  C   UNL A   1      38.947  32.614  34.280  1.00  0.00     0.074 A 
ATOM     22  C   UNL A   1      37.798  33.487  34.202  1.00  0.00     0.031 C 
ATOM     23  C   UNL A   1      38.774  29.679  28.528  1.00  0.00     0.029 A 
ATOM     24  C   UNL A   1      39.742  29.433  29.590  1.00  0.00     0.049 A 
ATOM     25  H   UNL A   1      39.968  30.479  31.377  1.00  0.00     0.167 HD
ATOM     26  C   UNL A   1      39.726  32.460  35.374  1.00  0.00     0.037 A 
ATOM     27  C   UNL A   1      40.687  28.474  29.586  1.00  0.00     0.037 A 
ATOM     28  C   UNL A   1      40.863  31.583  35.411  1.00  0.00     0.049 A 
ATOM     29  C   UNL A   1      41.599  28.390  30.776  1.00  0.00     0.074 A 
ATOM     30  C   UNL A   1      41.795  31.416  36.415  1.00  0.00     0.029 A 
ATOM     31  N   UNL A   1      41.214  30.718  34.381  1.00  0.00    -0.354 N 
ATOM     32  N   UNL A   1      41.534  29.052  31.908  1.00  0.00    -0.248 NA
ATOM     33  C   UNL A   1      42.732  27.462  30.684  1.00  0.00     0.031 C 
ATOM     34  C   UNL A   1      42.735  30.477  35.976  1.00  0.00     0.029 A 
ATOM     35  C   UNL A   1      42.363  30.027  34.717  1.00  0.00     0.049 A 
ATOM     36  H   UNL A   1      40.717  30.613  33.538  1.00  0.00     0.167 HD
ATOM     37  C   UNL A   1      42.619  28.631  32.661  1.00  0.00     0.074 A 
ATOM     38  C   UNL A   1      43.311  27.633  31.866  1.00  0.00     0.031 C 
ATOM     39  C   UNL A   1      43.016  29.041  33.890  1.00  0.00     0.037 A 
BRANCH  26  40
ATOM     40  C   UNL A   1      39.416  33.327  36.554  1.00  0.00     0.064 A 
ATOM     41  C   UNL A   1      38.616  32.831  37.594  1.00  0.00     0.173 A 
ATOM     42  C   UNL A   1      39.941  34.621  36.687  1.00  0.00     0.173 A 
ATOM     43  F   UNL A   1      38.103  31.594  37.520  1.00  0.00    -0.203 F 
ATOM     44  C   UNL A   1      38.355  33.597  38.726  1.00  0.00     0.198 A 
ATOM     45  C   UNL A   1      39.696  35.376  37.831  1.00  0.00     0.198 A 
ATOM     46  F   UNL A   1      40.742  35.125  35.737  1.00  0.00    -0.203 F 
ATOM     47  F   UNL A   1      37.590  33.099  39.708  1.00  0.00    -0.200 F 
ATOM     48  C   UNL A   1      38.901  34.866  38.848  1.00  0.00     0.200 A 
ATOM     49  F   UNL A   1      40.253  36.587  37.965  1.00  0.00    -0.200 F 
ATOM     50  F   UNL A   1      38.678  35.589  39.954  1.00  0.00    -0.200 F 
ENDBRANCH  26  40
BRANCH  27  51
ATOM     51  C   UNL A   1      40.822  27.575  28.410  1.00  0.00     0.064 A 
ATOM     52  C   UNL A   1      41.675  27.902  27.343  1.00  0.00     0.173 A 
ATOM     53  C   UNL A   1      40.065  26.402  28.297  1.00  0.00     0.173 A 
ATOM     54  F   UNL A   1      42.424  29.013  27.400  1.00  0.00    -0.203 F 
ATOM     55  C   UNL A   1      41.734  27.116  26.195  1.00  0.00     0.198 A 
ATOM     56  C   UNL A   1      40.147  25.599  27.159  1.00  0.00     0.198 A 
ATOM     57  F   UNL A   1      39.251  26.030  29.296  1.00  0.00    -0.203 F 
ATOM     58  F   UNL A   1      42.519  27.485  25.173  1.00  0.00    -0.200 F 
ATOM     59  C   UNL A   1      40.971  25.963  26.103  1.00  0.00     0.200 A 
ATOM     60  F   UNL A   1      39.426  24.472  27.082  1.00  0.00    -0.200 F 
ATOM     61  F   UNL A   1      41.030  25.204  25.001  1.00  0.00    -0.200 F 
ENDBRANCH  27  51
BRANCH  39  62
ATOM     62  C   UNL A   1      44.255  28.417  34.449  1.00  0.00     0.064 A 
ATOM     63  C   UNL A   1      45.513  28.973  34.174  1.00  0.00     0.173 A 
ATOM     64  C   UNL A   1      44.200  27.211  35.158  1.00  0.00     0.173 A 
ATOM     65  F   UNL A   1      45.609  30.123  33.490  1.00  0.00    -0.203 F 
ATOM     66  C   UNL A   1      46.677  28.327  34.573  1.00  0.00     0.198 A 
ATOM     67  C   UNL A   1      45.367  26.578  35.574  1.00  0.00     0.198 A 
ATOM     68  F   UNL A   1      43.016  26.652  35.450  1.00  0.00    -0.203 F 
ATOM     69  F   UNL A   1      47.872  28.852  34.269  1.00  0.00    -0.200 F 
ATOM     70  C   UNL A   1      46.603  27.130  35.271  1.00  0.00     0.200 A 
ATOM     71  F   UNL A   1      45.296  25.430  36.262  1.00  0.00    -0.200 F 
ATOM     72  F   UNL A   1      47.726  26.505  35.650  1.00  0.00    -0.200 F 
ENDBRANCH  39  62
ENDBRANCH  13  14
ENDBRANCH   6   8
ENDBRANCH   5   6
ENDBRANCH   4   5
ENDBRANCH   3   4
ENDBRANCH   2   3
ENDBRANCH   1   2
BRANCH   1  73
ATOM     73  C   UNL A   1      32.319  28.469  24.628  1.00  0.00     0.261 C 
BRANCH  73  74
ATOM     74  O   UNL A   1      32.925  27.267  25.136  1.00  0.00    -0.462 OA
BRANCH  74  75
ATOM     75  C   UNL A   1      32.099  26.447  25.828  1.00  0.00     0.328 C 
ATOM     76  O   UNL A   1      31.419  26.789  26.793  1.00  0.00    -0.250 OA
BRANCH  75  77
ATOM     77  C   UNL A   1      32.115  25.003  25.311  1.00  0.00     0.194 C 
BRANCH  77  78
ATOM     78  C   UNL A   1      30.943  24.035  25.553  1.00  0.00     0.065 C 
BRANCH  78  79
ATOM     79  C   UNL A   1      31.067  22.948  26.611  1.00  0.00     0.159 C 
BRANCH  79  80
ATOM     80  O   UNL A   1      30.583  21.712  26.126  1.00  0.00    -0.396 OA
ATOM     81  H   UNL A   1      30.905  21.570  25.222  1.00  0.00     0.210 HD
ENDBRANCH  79  80
ENDBRANCH  78  79
ENDBRANCH  77  78
BRANCH  77  82
ATOM     82  N   UNL A   1      32.533  25.005  23.911  1.00  0.00    -0.338 N 
ATOM     83  C   UNL A   1      33.462  24.218  23.282  1.00  0.00     0.258 C 
ATOM     84  H   UNL A   1      32.083  25.667  23.338  1.00  0.00     0.164 HD
ATOM     85  O   UNL A   1      33.776  24.455  22.116  1.00  0.00    -0.269 OA
BRANCH  83  86
ATOM     86  C   UNL A   1      34.081  23.070  23.961  1.00  0.00     0.118 A 
ATOM     87  C   UNL A   1      35.239  23.229  24.726  1.00  0.00     0.139 A 
ATOM     88  C   UNL A   1      33.439  21.830  23.930  1.00  0.00     0.216 A 
ATOM     89  F   UNL A   1      35.853  24.419  24.810  1.00  0.00    -0.206 F 
ATOM     90  C   UNL A   1      35.795  22.155  25.416  1.00  0.00     0.047 A 
ATOM     91  C   UNL A   1      33.979  20.753  24.640  1.00  0.00     0.305 A 
ATOM     92  F   UNL A   1      32.311  21.693  23.218  1.00  0.00    -0.198 F 
ATOM     93  C   UNL A   1      35.167  20.911  25.379  1.00  0.00     0.092 A 
BRANCH  91  94
ATOM     94  N   UNL A   1      33.310  19.453  24.649  1.00  0.00     0.065 N 
ATOM     95  O   UNL A   1      32.154  19.380  25.080  1.00  0.00    -0.258 OA
ATOM     96  O   UNL A   1      33.949  18.490  24.201  1.00  0.00    -0.258 OA
ENDBRANCH  91  94
ENDBRANCH  83  86
ENDBRANCH  77  82
ENDBRANCH  75  77
ENDBRANCH  74  75
ENDBRANCH  73  74
ENDBRANCH   1  73
TORSDOF 20
ENDMDL
