MODEL 1
REMARK VINA RESULT:     -12.4      0.000      0.000
REMARK SMILES O=C(OCCOCCOC(=O)c1ccc(-c2c3nc(c(-c4c(F)c(F)c(F)c(F)c4F)c4ccc([nH]4)c(-c4c(F)c(F)c(F)c(F)c4F)c4nc(c(-c5c(F)c(F)c(F)c(F)c5F)c5ccc2[nH]5)C=C4)C=C3)cc1)c1ccc(C[C@H]2SC(=O)N(c3ccccc3)C2=O)cc1
REMARK SMILES IDX 5 1 4 2 3 3 2 4 1 5 75 6 76 7 94 8 77 9 93 10 78 11 79 12
REMARK SMILES IDX 80 13 81 14 91 15 82 16 84 17 92 18 83 19 85 20 86 21 90 22
REMARK SMILES IDX 87 23 89 24 88 25 6 26 7 27 8 28 9 29 10 30 11 31 12 32
REMARK SMILES IDX 13 33 74 34 14 35 73 36 15 37 16 38 17 39 67 40 18 41 72 42
REMARK SMILES IDX 66 43 68 44 19 45 71 46 65 47 64 48 20 50 52 51 32 52 51 53
REMARK SMILES IDX 33 54 36 55 50 56 69 57 34 58 35 59 49 61 70 62 37 63 21 64
REMARK SMILES IDX 22 65 30 66 23 67 24 68 28 69 31 70 25 71 26 72 29 73 27 74
REMARK SMILES IDX 53 75 54 76 62 77 55 78 56 79 60 80 63 81 57 82 58 83 61 84
REMARK SMILES IDX 59 85 38 86 39 87 47 88 40 89 41 90 45 91 48 92 42 93 43 94
REMARK SMILES IDX 46 95 44 96
REMARK H PARENT 68 49 36 60
REMARK Flexibility Score: inf
ROOT
ATOM      1  C   UNL A   1      40.581  19.365  26.103  1.00  0.00     0.202 C 
ENDROOT
BRANCH   1   2
ATOM      2  C   UNL A   1      39.904  20.673  26.509  1.00  0.00     0.261 C 
BRANCH   2   3
ATOM      3  O   UNL A   1      39.231  21.259  25.376  1.00  0.00    -0.460 OA
BRANCH   3   4
ATOM      4  C   UNL A   1      37.931  21.059  25.042  1.00  0.00     0.338 C 
ATOM      5  O   UNL A   1      37.455  19.932  24.993  1.00  0.00    -0.246 OA
BRANCH   4   6
ATOM      6  C   UNL A   1      37.053  22.224  24.803  1.00  0.00     0.060 A 
ATOM      7  C   UNL A   1      36.739  23.133  25.815  1.00  0.00     0.016 A 
ATOM      8  C   UNL A   1      36.570  22.441  23.512  1.00  0.00     0.016 A 
ATOM      9  C   UNL A   1      35.845  24.166  25.582  1.00  0.00     0.004 A 
ATOM     10  C   UNL A   1      35.676  23.487  23.272  1.00  0.00     0.004 A 
ATOM     11  C   UNL A   1      35.269  24.325  24.320  1.00  0.00    -0.046 A 
BRANCH  11  12
ATOM     12  C   UNL A   1      34.176  25.345  24.139  1.00  0.00     0.060 C 
BRANCH  12  13
ATOM     13  C   UNL A   1      32.767  24.739  24.268  1.00  0.00     0.151 C 
ATOM     14  S   UNL A   1      32.132  24.684  25.967  1.00  0.00    -0.050 SA
ATOM     15  C   UNL A   1      31.803  25.631  23.524  1.00  0.00     0.248 C 
ATOM     16  C   UNL A   1      31.106  26.081  25.726  1.00  0.00     0.293 C 
ATOM     17  N   UNL A   1      31.018  26.383  24.385  1.00  0.00    -0.240 N 
ATOM     18  O   UNL A   1      31.847  25.709  22.297  1.00  0.00    -0.273 OA
ATOM     19  O   UNL A   1      30.550  26.608  26.673  1.00  0.00    -0.261 OA
BRANCH  17  20
ATOM     20  C   UNL A   1      30.172  27.424  23.907  1.00  0.00     0.053 A 
ATOM     21  C   UNL A   1      30.638  28.745  23.834  1.00  0.00     0.027 A 
ATOM     22  C   UNL A   1      28.847  27.164  23.527  1.00  0.00     0.027 A 
ATOM     23  C   UNL A   1      29.802  29.779  23.407  1.00  0.00     0.002 A 
ATOM     24  C   UNL A   1      28.003  28.203  23.126  1.00  0.00     0.002 A 
ATOM     25  C   UNL A   1      28.481  29.509  23.066  1.00  0.00     0.000 A 
ENDBRANCH  17  20
ENDBRANCH  12  13
ENDBRANCH  11  12
ENDBRANCH   4   6
ENDBRANCH   3   4
ENDBRANCH   2   3
ENDBRANCH   1   2
BRANCH   1  26
ATOM     26  O   UNL A   1      41.793  19.552  25.376  1.00  0.00    -0.374 OA
BRANCH  26  27
ATOM     27  C   UNL A   1      42.961  19.794  26.174  1.00  0.00     0.202 C 
BRANCH  27  28
ATOM     28  C   UNL A   1      43.694  21.025  25.643  1.00  0.00     0.261 C 
BRANCH  28  29
ATOM     29  O   UNL A   1      42.750  22.098  25.550  1.00  0.00    -0.460 OA
BRANCH  29  30
ATOM     30  C   UNL A   1      43.268  23.276  25.117  1.00  0.00     0.338 C 
ATOM     31  O   UNL A   1      43.801  23.509  24.047  1.00  0.00    -0.246 OA
BRANCH  30  32
ATOM     32  C   UNL A   1      42.869  24.310  26.093  1.00  0.00     0.060 A 
ATOM     33  C   UNL A   1      43.360  25.613  25.928  1.00  0.00     0.016 A 
ATOM     34  C   UNL A   1      41.958  24.020  27.113  1.00  0.00     0.016 A 
ATOM     35  C   UNL A   1      42.945  26.628  26.788  1.00  0.00     0.010 A 
ATOM     36  C   UNL A   1      41.546  25.030  27.973  1.00  0.00     0.010 A 
ATOM     37  C   UNL A   1      42.054  26.332  27.826  1.00  0.00    -0.014 A 
BRANCH  37  38
ATOM     38  C   UNL A   1      41.741  27.325  28.873  1.00  0.00     0.031 A 
ATOM     39  C   UNL A   1      42.528  27.272  30.149  1.00  0.00     0.074 A 
ATOM     40  C   UNL A   1      40.727  28.193  28.712  1.00  0.00     0.049 A 
ATOM     41  N   UNL A   1      42.333  27.911  31.271  1.00  0.00    -0.248 NA
ATOM     42  C   UNL A   1      43.681  26.356  30.168  1.00  0.00     0.031 C 
ATOM     43  C   UNL A   1      39.914  28.328  27.506  1.00  0.00     0.029 A 
ATOM     44  N   UNL A   1      40.186  29.099  29.588  1.00  0.00    -0.354 N 
ATOM     45  C   UNL A   1      43.325  27.463  32.132  1.00  0.00     0.074 A 
ATOM     46  C   UNL A   1      44.108  26.482  31.415  1.00  0.00     0.031 C 
ATOM     47  C   UNL A   1      38.955  29.244  27.728  1.00  0.00     0.029 A 
ATOM     48  C   UNL A   1      39.062  29.724  29.104  1.00  0.00     0.049 A 
ATOM     49  H   UNL A   1      40.567  29.285  30.477  1.00  0.00     0.167 HD
ATOM     50  C   UNL A   1      43.557  27.843  33.409  1.00  0.00     0.037 A 
ATOM     51  C   UNL A   1      38.201  30.553  29.724  1.00  0.00     0.037 A 
ATOM     52  C   UNL A   1      42.770  28.826  34.104  1.00  0.00     0.049 A 
ATOM     53  C   UNL A   1      38.452  30.913  31.169  1.00  0.00     0.074 A 
ATOM     54  C   UNL A   1      42.950  29.328  35.379  1.00  0.00     0.029 A 
ATOM     55  N   UNL A   1      41.643  29.444  33.581  1.00  0.00    -0.354 N 
ATOM     56  N   UNL A   1      39.429  30.536  31.960  1.00  0.00    -0.248 NA
ATOM     57  C   UNL A   1      37.478  31.808  31.809  1.00  0.00     0.031 C 
ATOM     58  C   UNL A   1      41.893  30.200  35.654  1.00  0.00     0.029 A 
ATOM     59  C   UNL A   1      41.092  30.292  34.527  1.00  0.00     0.049 A 
ATOM     60  H   UNL A   1      41.289  29.302  32.674  1.00  0.00     0.167 HD
ATOM     61  C   UNL A   1      39.200  31.166  33.178  1.00  0.00     0.074 A 
ATOM     62  C   UNL A   1      38.007  31.968  33.012  1.00  0.00     0.031 C 
ATOM     63  C   UNL A   1      39.905  31.084  34.333  1.00  0.00     0.037 A 
BRANCH  50  64
ATOM     64  C   UNL A   1      44.683  27.188  34.149  1.00  0.00     0.064 A 
ATOM     65  C   UNL A   1      45.971  27.743  34.177  1.00  0.00     0.173 A 
ATOM     66  C   UNL A   1      44.451  26.027  34.902  1.00  0.00     0.173 A 
ATOM     67  F   UNL A   1      46.249  28.842  33.462  1.00  0.00    -0.203 F 
ATOM     68  C   UNL A   1      46.986  27.155  34.928  1.00  0.00     0.198 A 
ATOM     69  C   UNL A   1      45.461  25.459  35.673  1.00  0.00     0.198 A 
ATOM     70  F   UNL A   1      43.238  25.455  34.907  1.00  0.00    -0.203 F 
ATOM     71  F   UNL A   1      48.217  27.687  34.919  1.00  0.00    -0.200 F 
ATOM     72  C   UNL A   1      46.727  26.023  35.685  1.00  0.00     0.200 A 
ATOM     73  F   UNL A   1      45.204  24.372  36.414  1.00  0.00    -0.200 F 
ATOM     74  F   UNL A   1      47.700  25.473  36.426  1.00  0.00    -0.200 F 
ENDBRANCH  50  64
BRANCH  51  75
ATOM     75  C   UNL A   1      37.000  31.070  29.011  1.00  0.00     0.064 A 
ATOM     76  C   UNL A   1      36.918  32.410  28.610  1.00  0.00     0.173 A 
ATOM     77  C   UNL A   1      35.889  30.249  28.764  1.00  0.00     0.173 A 
ATOM     78  F   UNL A   1      37.943  33.243  28.844  1.00  0.00    -0.203 F 
ATOM     79  C   UNL A   1      35.760  32.919  28.024  1.00  0.00     0.198 A 
ATOM     80  C   UNL A   1      34.746  30.749  28.144  1.00  0.00     0.198 A 
ATOM     81  F   UNL A   1      35.912  28.958  29.126  1.00  0.00    -0.203 F 
ATOM     82  F   UNL A   1      35.685  34.221  27.715  1.00  0.00    -0.200 F 
ATOM     83  C   UNL A   1      34.677  32.087  27.787  1.00  0.00     0.200 A 
ATOM     84  F   UNL A   1      33.706  29.938  27.904  1.00  0.00    -0.200 F 
ATOM     85  F   UNL A   1      33.562  32.578  27.230  1.00  0.00    -0.200 F 
ENDBRANCH  51  75
BRANCH  63  86
ATOM     86  C   UNL A   1      39.419  31.899  35.496  1.00  0.00     0.064 A 
ATOM     87  C   UNL A   1      39.801  33.239  35.664  1.00  0.00     0.173 A 
ATOM     88  C   UNL A   1      38.518  31.351  36.422  1.00  0.00     0.173 A 
ATOM     89  F   UNL A   1      40.671  33.804  34.813  1.00  0.00    -0.203 F 
ATOM     90  C   UNL A   1      39.319  33.991  36.731  1.00  0.00     0.198 A 
ATOM     91  C   UNL A   1      38.010  32.118  37.466  1.00  0.00     0.198 A 
ATOM     92  F   UNL A   1      38.113  30.078  36.300  1.00  0.00    -0.203 F 
ATOM     93  F   UNL A   1      39.737  35.252  36.901  1.00  0.00    -0.200 F 
ATOM     94  C   UNL A   1      38.417  33.433  37.625  1.00  0.00     0.200 A 
ATOM     95  F   UNL A   1      37.124  31.582  38.318  1.00  0.00    -0.200 F 
ATOM     96  F   UNL A   1      37.945  34.163  38.644  1.00  0.00    -0.200 F 
ENDBRANCH  63  86
ENDBRANCH  37  38
ENDBRANCH  30  32
ENDBRANCH  29  30
ENDBRANCH  28  29
ENDBRANCH  27  28
ENDBRANCH  26  27
ENDBRANCH   1  26
TORSDOF 17
ENDMDL
MODEL 2
REMARK VINA RESULT:     -12.1      1.188      2.317
REMARK SMILES O=C(OCCOCCOC(=O)c1ccc(-c2c3nc(c(-c4c(F)c(F)c(F)c(F)c4F)c4ccc([nH]4)c(-c4c(F)c(F)c(F)c(F)c4F)c4nc(c(-c5c(F)c(F)c(F)c(F)c5F)c5ccc2[nH]5)C=C4)C=C3)cc1)c1ccc(C[C@H]2SC(=O)N(c3ccccc3)C2=O)cc1
REMARK SMILES IDX 5 1 4 2 3 3 2 4 1 5 75 6 76 7 94 8 77 9 93 10 78 11 79 12
REMARK SMILES IDX 80 13 81 14 91 15 82 16 84 17 92 18 83 19 85 20 86 21 90 22
REMARK SMILES IDX 87 23 89 24 88 25 6 26 7 27 8 28 9 29 10 30 11 31 12 32
REMARK SMILES IDX 13 33 74 34 14 35 73 36 15 37 16 38 17 39 67 40 18 41 72 42
REMARK SMILES IDX 66 43 68 44 19 45 71 46 65 47 64 48 20 50 52 51 32 52 51 53
REMARK SMILES IDX 33 54 36 55 50 56 69 57 34 58 35 59 49 61 70 62 37 63 21 64
REMARK SMILES IDX 22 65 30 66 23 67 24 68 28 69 31 70 25 71 26 72 29 73 27 74
REMARK SMILES IDX 53 75 54 76 62 77 55 78 56 79 60 80 63 81 57 82 58 83 61 84
REMARK SMILES IDX 59 85 38 86 39 87 47 88 40 89 41 90 45 91 48 92 42 93 43 94
REMARK SMILES IDX 46 95 44 96
REMARK H PARENT 68 49 36 60
REMARK Flexibility Score: inf
ROOT
ATOM      1  C   UNL A   1      43.203  18.850  25.357  1.00  0.00     0.202 C 
ENDROOT
BRANCH   1   2
ATOM      2  C   UNL A   1      42.226  19.122  26.500  1.00  0.00     0.261 C 
BRANCH   2   3
ATOM      3  O   UNL A   1      41.223  20.070  26.082  1.00  0.00    -0.460 OA
BRANCH   3   4
ATOM      4  C   UNL A   1      40.519  20.887  26.905  1.00  0.00     0.338 C 
ATOM      5  O   UNL A   1      40.793  20.976  28.096  1.00  0.00    -0.246 OA
BRANCH   4   6
ATOM      6  C   UNL A   1      39.448  21.739  26.346  1.00  0.00     0.060 A 
ATOM      7  C   UNL A   1      39.341  23.094  26.661  1.00  0.00     0.016 A 
ATOM      8  C   UNL A   1      38.554  21.173  25.435  1.00  0.00     0.016 A 
ATOM      9  C   UNL A   1      38.277  23.846  26.188  1.00  0.00     0.004 A 
ATOM     10  C   UNL A   1      37.486  21.932  24.949  1.00  0.00     0.004 A 
ATOM     11  C   UNL A   1      37.314  23.259  25.366  1.00  0.00    -0.046 A 
BRANCH  11  12
ATOM     12  C   UNL A   1      36.082  24.048  25.007  1.00  0.00     0.060 C 
BRANCH  12  13
ATOM     13  C   UNL A   1      34.850  23.156  24.769  1.00  0.00     0.151 C 
ATOM     14  S   UNL A   1      34.050  22.569  26.287  1.00  0.00    -0.050 SA
ATOM     15  C   UNL A   1      33.799  23.985  24.073  1.00  0.00     0.248 C 
ATOM     16  C   UNL A   1      32.759  23.744  26.170  1.00  0.00     0.293 C 
ATOM     17  N   UNL A   1      32.762  24.333  24.925  1.00  0.00    -0.240 N 
ATOM     18  O   UNL A   1      33.968  24.361  22.914  1.00  0.00    -0.273 OA
ATOM     19  O   UNL A   1      31.987  23.904  27.098  1.00  0.00    -0.261 OA
BRANCH  17  20
ATOM     20  C   UNL A   1      31.757  25.265  24.537  1.00  0.00     0.053 A 
ATOM     21  C   UNL A   1      31.868  26.620  24.881  1.00  0.00     0.027 A 
ATOM     22  C   UNL A   1      30.619  24.849  23.829  1.00  0.00     0.027 A 
ATOM     23  C   UNL A   1      30.867  27.532  24.541  1.00  0.00     0.002 A 
ATOM     24  C   UNL A   1      29.604  25.757  23.514  1.00  0.00     0.002 A 
ATOM     25  C   UNL A   1      29.729  27.097  23.870  1.00  0.00     0.000 A 
ENDBRANCH  17  20
ENDBRANCH  12  13
ENDBRANCH  11  12
ENDBRANCH   4   6
ENDBRANCH   3   4
ENDBRANCH   2   3
ENDBRANCH   1   2
BRANCH   1  26
ATOM     26  O   UNL A   1      43.750  20.032  24.780  1.00  0.00    -0.374 OA
BRANCH  26  27
ATOM     27  C   UNL A   1      45.128  20.289  25.086  1.00  0.00     0.202 C 
BRANCH  27  28
ATOM     28  C   UNL A   1      45.337  21.792  25.271  1.00  0.00     0.261 C 
BRANCH  28  29
ATOM     29  O   UNL A   1      44.273  22.291  26.090  1.00  0.00    -0.460 OA
BRANCH  29  30
ATOM     30  C   UNL A   1      43.503  23.245  25.506  1.00  0.00     0.338 C 
ATOM     31  O   UNL A   1      42.992  23.218  24.401  1.00  0.00    -0.246 OA
BRANCH  30  32
ATOM     32  C   UNL A   1      43.195  24.250  26.544  1.00  0.00     0.060 A 
ATOM     33  C   UNL A   1      42.417  23.861  27.643  1.00  0.00     0.016 A 
ATOM     34  C   UNL A   1      43.732  25.539  26.475  1.00  0.00     0.016 A 
ATOM     35  C   UNL A   1      42.170  24.764  28.676  1.00  0.00     0.010 A 
ATOM     36  C   UNL A   1      43.482  26.441  27.502  1.00  0.00     0.010 A 
ATOM     37  C   UNL A   1      42.685  26.063  28.595  1.00  0.00    -0.014 A 
BRANCH  37  38
ATOM     38  C   UNL A   1      42.287  27.105  29.562  1.00  0.00     0.031 A 
ATOM     39  C   UNL A   1      43.000  27.149  30.881  1.00  0.00     0.074 A 
ATOM     40  C   UNL A   1      41.262  27.933  29.293  1.00  0.00     0.049 A 
ATOM     41  N   UNL A   1      42.725  27.846  31.951  1.00  0.00    -0.248 NA
ATOM     42  C   UNL A   1      44.174  26.269  31.019  1.00  0.00     0.031 C 
ATOM     43  C   UNL A   1      40.517  27.975  28.038  1.00  0.00     0.029 A 
ATOM     44  N   UNL A   1      40.649  28.872  30.083  1.00  0.00    -0.354 N 
ATOM     45  C   UNL A   1      43.677  27.477  32.890  1.00  0.00     0.074 A 
ATOM     46  C   UNL A   1      44.525  26.479  32.278  1.00  0.00     0.031 C 
ATOM     47  C   UNL A   1      39.523  28.874  28.151  1.00  0.00     0.029 A 
ATOM     48  C   UNL A   1      39.539  29.435  29.500  1.00  0.00     0.049 A 
ATOM     49  H   UNL A   1      40.973  29.120  30.979  1.00  0.00     0.167 HD
ATOM     50  C   UNL A   1      43.825  27.937  34.154  1.00  0.00     0.037 A 
ATOM     51  C   UNL A   1      38.622  30.273  30.021  1.00  0.00     0.037 A 
ATOM     52  C   UNL A   1      42.974  28.935  34.744  1.00  0.00     0.049 A 
ATOM     53  C   UNL A   1      38.780  30.723  31.453  1.00  0.00     0.074 A 
ATOM     54  C   UNL A   1      43.068  29.515  35.995  1.00  0.00     0.029 A 
ATOM     55  N   UNL A   1      41.864  29.489  34.123  1.00  0.00    -0.354 N 
ATOM     56  N   UNL A   1      39.720  30.421  32.319  1.00  0.00    -0.248 NA
ATOM     57  C   UNL A   1      37.749  31.625  31.984  1.00  0.00     0.031 C 
ATOM     58  C   UNL A   1      41.975  30.370  36.159  1.00  0.00     0.029 A 
ATOM     59  C   UNL A   1      41.238  30.374  34.985  1.00  0.00     0.049 A 
ATOM     60  H   UNL A   1      41.566  29.285  33.208  1.00  0.00     0.167 HD
ATOM     61  C   UNL A   1      39.405  31.113  33.483  1.00  0.00     0.074 A 
ATOM     62  C   UNL A   1      38.204  31.870  33.204  1.00  0.00     0.031 C 
ATOM     63  C   UNL A   1      40.045  31.118  34.678  1.00  0.00     0.037 A 
BRANCH  50  64
ATOM     64  C   UNL A   1      44.923  27.358  34.993  1.00  0.00     0.064 A 
ATOM     65  C   UNL A   1      44.754  26.165  35.712  1.00  0.00     0.173 A 
ATOM     66  C   UNL A   1      46.187  27.967  35.020  1.00  0.00     0.173 A 
ATOM     67  F   UNL A   1      43.562  25.552  35.732  1.00  0.00    -0.203 F 
ATOM     68  C   UNL A   1      45.809  25.607  36.429  1.00  0.00     0.198 A 
ATOM     69  C   UNL A   1      47.246  27.392  35.715  1.00  0.00     0.198 A 
ATOM     70  F   UNL A   1      46.400  29.111  34.352  1.00  0.00    -0.203 F 
ATOM     71  F   UNL A   1      45.618  24.481  37.131  1.00  0.00    -0.200 F 
ATOM     72  C   UNL A   1      47.056  26.213  36.420  1.00  0.00     0.200 A 
ATOM     73  F   UNL A   1      48.453  27.973  35.694  1.00  0.00    -0.200 F 
ATOM     74  F   UNL A   1      48.076  25.662  37.092  1.00  0.00    -0.200 F 
ENDBRANCH  50  64
BRANCH  51  75
ATOM     75  C   UNL A   1      37.452  30.713  29.213  1.00  0.00     0.064 A 
ATOM     76  C   UNL A   1      37.352  32.030  28.742  1.00  0.00     0.173 A 
ATOM     77  C   UNL A   1      36.386  29.843  28.939  1.00  0.00     0.173 A 
ATOM     78  F   UNL A   1      38.332  32.909  28.997  1.00  0.00    -0.203 F 
ATOM     79  C   UNL A   1      36.216  32.469  28.064  1.00  0.00     0.198 A 
ATOM     80  C   UNL A   1      35.268  30.273  28.227  1.00  0.00     0.198 A 
ATOM     81  F   UNL A   1      36.428  28.572  29.364  1.00  0.00    -0.203 F 
ATOM     82  F   UNL A   1      36.118  33.752  27.687  1.00  0.00    -0.200 F 
ATOM     83  C   UNL A   1      35.177  31.590  27.803  1.00  0.00     0.200 A 
ATOM     84  F   UNL A   1      34.271  29.415  27.966  1.00  0.00    -0.200 F 
ATOM     85  F   UNL A   1      34.083  32.014  27.156  1.00  0.00    -0.200 F 
ENDBRANCH  51  75
BRANCH  63  86
ATOM     86  C   UNL A   1      39.472  31.985  35.762  1.00  0.00     0.064 A 
ATOM     87  C   UNL A   1      38.515  31.495  36.664  1.00  0.00     0.173 A 
ATOM     88  C   UNL A   1      39.924  33.302  35.935  1.00  0.00     0.173 A 
ATOM     89  F   UNL A   1      38.040  30.247  36.533  1.00  0.00    -0.203 F 
ATOM     90  C   UNL A   1      38.014  32.302  37.682  1.00  0.00     0.198 A 
ATOM     91  C   UNL A   1      39.449  34.092  36.976  1.00  0.00     0.198 A 
ATOM     92  F   UNL A   1      40.847  33.814  35.105  1.00  0.00    -0.203 F 
ATOM     93  F   UNL A   1      37.064  31.830  38.501  1.00  0.00    -0.200 F 
ATOM     94  C   UNL A   1      38.489  33.595  37.843  1.00  0.00     0.200 A 
ATOM     95  F   UNL A   1      39.922  35.336  37.141  1.00  0.00    -0.200 F 
ATOM     96  F   UNL A   1      38.014  34.365  38.832  1.00  0.00    -0.200 F 
ENDBRANCH  63  86
ENDBRANCH  37  38
ENDBRANCH  30  32
ENDBRANCH  29  30
ENDBRANCH  28  29
ENDBRANCH  27  28
ENDBRANCH  26  27
ENDBRANCH   1  26
TORSDOF 17
ENDMDL
MODEL 3
REMARK VINA RESULT:     -12.1      1.319      7.355
REMARK SMILES O=C(OCCOCCOC(=O)c1ccc(-c2c3nc(c(-c4c(F)c(F)c(F)c(F)c4F)c4ccc([nH]4)c(-c4c(F)c(F)c(F)c(F)c4F)c4nc(c(-c5c(F)c(F)c(F)c(F)c5F)c5ccc2[nH]5)C=C4)C=C3)cc1)c1ccc(C[C@H]2SC(=O)N(c3ccccc3)C2=O)cc1
REMARK SMILES IDX 5 1 4 2 3 3 2 4 1 5 75 6 76 7 94 8 77 9 93 10 78 11 79 12
REMARK SMILES IDX 80 13 81 14 91 15 82 16 84 17 92 18 83 19 85 20 86 21 90 22
REMARK SMILES IDX 87 23 89 24 88 25 6 26 7 27 8 28 9 29 10 30 11 31 12 32
REMARK SMILES IDX 13 33 74 34 14 35 73 36 15 37 16 38 17 39 67 40 18 41 72 42
REMARK SMILES IDX 66 43 68 44 19 45 71 46 65 47 64 48 20 50 52 51 32 52 51 53
REMARK SMILES IDX 33 54 36 55 50 56 69 57 34 58 35 59 49 61 70 62 37 63 21 64
REMARK SMILES IDX 22 65 30 66 23 67 24 68 28 69 31 70 25 71 26 72 29 73 27 74
REMARK SMILES IDX 53 75 54 76 62 77 55 78 56 79 60 80 63 81 57 82 58 83 61 84
REMARK SMILES IDX 59 85 38 86 39 87 47 88 40 89 41 90 45 91 48 92 42 93 43 94
REMARK SMILES IDX 46 95 44 96
REMARK H PARENT 68 49 36 60
REMARK Flexibility Score: inf
ROOT
ATOM      1  C   UNL A   1      43.801  19.449  25.373  1.00  0.00     0.202 C 
ENDROOT
BRANCH   1   2
ATOM      2  C   UNL A   1      42.344  19.255  25.788  1.00  0.00     0.261 C 
BRANCH   2   3
ATOM      3  O   UNL A   1      41.666  20.528  25.837  1.00  0.00    -0.460 OA
BRANCH   3   4
ATOM      4  C   UNL A   1      40.789  20.918  26.796  1.00  0.00     0.338 C 
ATOM      5  O   UNL A   1      40.960  20.618  27.971  1.00  0.00    -0.246 OA
BRANCH   4   6
ATOM      6  C   UNL A   1      39.645  21.780  26.430  1.00  0.00     0.060 A 
ATOM      7  C   UNL A   1      39.584  23.123  26.801  1.00  0.00     0.016 A 
ATOM      8  C   UNL A   1      38.626  21.236  25.647  1.00  0.00     0.016 A 
ATOM      9  C   UNL A   1      38.460  23.883  26.517  1.00  0.00     0.004 A 
ATOM     10  C   UNL A   1      37.495  22.003  25.351  1.00  0.00     0.004 A 
ATOM     11  C   UNL A   1      37.385  23.316  25.830  1.00  0.00    -0.046 A 
BRANCH  11  12
ATOM     12  C   UNL A   1      36.112  24.107  25.685  1.00  0.00     0.060 C 
BRANCH  12  13
ATOM     13  C   UNL A   1      34.912  23.237  25.271  1.00  0.00     0.151 C 
ATOM     14  S   UNL A   1      33.963  22.564  26.662  1.00  0.00    -0.050 SA
ATOM     15  C   UNL A   1      33.935  24.111  24.523  1.00  0.00     0.248 C 
ATOM     16  C   UNL A   1      32.689  23.750  26.487  1.00  0.00     0.293 C 
ATOM     17  N   UNL A   1      32.817  24.413  25.286  1.00  0.00    -0.240 N 
ATOM     18  O   UNL A   1      34.220  24.555  23.412  1.00  0.00    -0.273 OA
ATOM     19  O   UNL A   1      31.827  23.859  27.340  1.00  0.00    -0.261 OA
BRANCH  17  20
ATOM     20  C   UNL A   1      31.855  25.371  24.854  1.00  0.00     0.053 A 
ATOM     21  C   UNL A   1      30.626  24.957  24.320  1.00  0.00     0.027 A 
ATOM     22  C   UNL A   1      32.122  26.746  24.923  1.00  0.00     0.027 A 
ATOM     23  C   UNL A   1      29.695  25.888  23.857  1.00  0.00     0.002 A 
ATOM     24  C   UNL A   1      31.202  27.676  24.433  1.00  0.00     0.002 A 
ATOM     25  C   UNL A   1      29.989  27.247  23.901  1.00  0.00     0.000 A 
ENDBRANCH  17  20
ENDBRANCH  12  13
ENDBRANCH  11  12
ENDBRANCH   4   6
ENDBRANCH   3   4
ENDBRANCH   2   3
ENDBRANCH   1   2
BRANCH   1  26
ATOM     26  O   UNL A   1      43.988  20.483  24.410  1.00  0.00    -0.374 OA
BRANCH  26  27
ATOM     27  C   UNL A   1      44.841  21.562  24.819  1.00  0.00     0.202 C 
BRANCH  27  28
ATOM     28  C   UNL A   1      44.516  22.808  23.996  1.00  0.00     0.261 C 
BRANCH  28  29
ATOM     29  O   UNL A   1      43.871  23.754  24.857  1.00  0.00    -0.460 OA
BRANCH  29  30
ATOM     30  C   UNL A   1      44.647  24.801  25.236  1.00  0.00     0.338 C 
ATOM     31  O   UNL A   1      45.614  25.262  24.656  1.00  0.00    -0.246 OA
BRANCH  30  32
ATOM     32  C   UNL A   1      43.974  25.449  26.380  1.00  0.00     0.060 A 
ATOM     33  C   UNL A   1      44.284  26.784  26.673  1.00  0.00     0.016 A 
ATOM     34  C   UNL A   1      42.989  24.774  27.108  1.00  0.00     0.016 A 
ATOM     35  C   UNL A   1      43.614  27.447  27.700  1.00  0.00     0.010 A 
ATOM     36  C   UNL A   1      42.323  25.432  28.135  1.00  0.00     0.010 A 
ATOM     37  C   UNL A   1      42.647  26.763  28.446  1.00  0.00    -0.014 A 
BRANCH  37  38
ATOM     38  C   UNL A   1      42.056  27.358  29.661  1.00  0.00     0.031 A 
ATOM     39  C   UNL A   1      40.790  28.148  29.512  1.00  0.00     0.074 A 
ATOM     40  C   UNL A   1      42.684  27.261  30.846  1.00  0.00     0.049 A 
ATOM     41  N   UNL A   1      40.175  28.903  30.382  1.00  0.00    -0.248 NA
ATOM     42  C   UNL A   1      40.138  28.093  28.192  1.00  0.00     0.031 C 
ATOM     43  C   UNL A   1      43.911  26.507  31.092  1.00  0.00     0.029 A 
ATOM     44  N   UNL A   1      42.391  27.835  32.057  1.00  0.00    -0.354 N 
ATOM     45  C   UNL A   1      39.078  29.426  29.713  1.00  0.00     0.074 A 
ATOM     46  C   UNL A   1      39.119  28.924  28.358  1.00  0.00     0.031 C 
ATOM     47  C   UNL A   1      44.284  26.688  32.372  1.00  0.00     0.029 A 
ATOM     48  C   UNL A   1      43.347  27.605  33.016  1.00  0.00     0.049 A 
ATOM     49  H   UNL A   1      41.574  28.359  32.223  1.00  0.00     0.167 HD
ATOM     50  C   UNL A   1      38.123  30.253  30.194  1.00  0.00     0.037 A 
ATOM     51  C   UNL A   1      43.466  28.118  34.256  1.00  0.00     0.037 A 
ATOM     52  C   UNL A   1      38.096  30.738  31.548  1.00  0.00     0.049 A 
ATOM     53  C   UNL A   1      42.415  29.086  34.746  1.00  0.00     0.074 A 
ATOM     54  C   UNL A   1      37.145  31.535  32.158  1.00  0.00     0.029 A 
ATOM     55  N   UNL A   1      39.076  30.481  32.495  1.00  0.00    -0.354 N 
ATOM     56  N   UNL A   1      41.343  29.527  34.130  1.00  0.00    -0.248 NA
ATOM     57  C   UNL A   1      42.593  29.631  36.098  1.00  0.00     0.031 C 
ATOM     58  C   UNL A   1      37.583  31.815  33.455  1.00  0.00     0.029 A 
ATOM     59  C   UNL A   1      38.773  31.140  33.674  1.00  0.00     0.049 A 
ATOM     60  H   UNL A   1      39.867  29.914  32.351  1.00  0.00     0.167 HD
ATOM     61  C   UNL A   1      40.710  30.380  35.028  1.00  0.00     0.074 A 
ATOM     62  C   UNL A   1      41.504  30.372  36.238  1.00  0.00     0.031 C 
ATOM     63  C   UNL A   1      39.580  31.110  34.867  1.00  0.00     0.037 A 
BRANCH  50  64
ATOM     64  C   UNL A   1      37.043  30.707  29.259  1.00  0.00     0.064 A 
ATOM     65  C   UNL A   1      35.996  29.858  28.870  1.00  0.00     0.173 A 
ATOM     66  C   UNL A   1      37.016  32.034  28.805  1.00  0.00     0.173 A 
ATOM     67  F   UNL A   1      35.985  28.576  29.264  1.00  0.00    -0.203 F 
ATOM     68  C   UNL A   1      34.966  30.321  28.056  1.00  0.00     0.198 A 
ATOM     69  C   UNL A   1      35.970  32.500  28.014  1.00  0.00     0.198 A 
ATOM     70  F   UNL A   1      37.995  32.886  29.146  1.00  0.00    -0.203 F 
ATOM     71  F   UNL A   1      33.990  29.484  27.674  1.00  0.00    -0.200 F 
ATOM     72  C   UNL A   1      34.946  31.643  27.640  1.00  0.00     0.200 A 
ATOM     73  F   UNL A   1      35.946  33.782  27.624  1.00  0.00    -0.200 F 
ATOM     74  F   UNL A   1      33.940  32.093  26.876  1.00  0.00    -0.200 F 
ENDBRANCH  50  64
BRANCH  51  75
ATOM     75  C   UNL A   1      44.633  27.770  35.112  1.00  0.00     0.064 A 
ATOM     76  C   UNL A   1      45.830  28.497  35.034  1.00  0.00     0.173 A 
ATOM     77  C   UNL A   1      44.596  26.673  35.985  1.00  0.00     0.173 A 
ATOM     78  F   UNL A   1      45.926  29.541  34.198  1.00  0.00    -0.203 F 
ATOM     79  C   UNL A   1      46.953  28.118  35.767  1.00  0.00     0.198 A 
ATOM     80  C   UNL A   1      45.708  26.317  36.746  1.00  0.00     0.198 A 
ATOM     81  F   UNL A   1      43.478  25.941  36.100  1.00  0.00    -0.203 F 
ATOM     82  F   UNL A   1      48.104  28.789  35.620  1.00  0.00    -0.200 F 
ATOM     83  C   UNL A   1      46.890  27.031  36.626  1.00  0.00     0.200 A 
ATOM     84  F   UNL A   1      45.638  25.274  37.585  1.00  0.00    -0.200 F 
ATOM     85  F   UNL A   1      47.972  26.663  37.325  1.00  0.00    -0.200 F 
ENDBRANCH  51  75
BRANCH  63  86
ATOM     86  C   UNL A   1      39.123  31.940  36.032  1.00  0.00     0.064 A 
ATOM     87  C   UNL A   1      39.542  33.269  36.194  1.00  0.00     0.173 A 
ATOM     88  C   UNL A   1      38.216  31.418  36.966  1.00  0.00     0.173 A 
ATOM     89  F   UNL A   1      40.419  33.811  35.336  1.00  0.00    -0.203 F 
ATOM     90  C   UNL A   1      39.088  34.036  37.264  1.00  0.00     0.198 A 
ATOM     91  C   UNL A   1      37.736  32.199  38.012  1.00  0.00     0.198 A 
ATOM     92  F   UNL A   1      37.777  30.155  36.849  1.00  0.00    -0.203 F 
ATOM     93  F   UNL A   1      39.539  35.286  37.428  1.00  0.00    -0.200 F 
ATOM     94  C   UNL A   1      38.178  33.503  38.166  1.00  0.00     0.200 A 
ATOM     95  F   UNL A   1      36.843  31.688  38.872  1.00  0.00    -0.200 F 
ATOM     96  F   UNL A   1      37.732  34.247  39.187  1.00  0.00    -0.200 F 
ENDBRANCH  63  86
ENDBRANCH  37  38
ENDBRANCH  30  32
ENDBRANCH  29  30
ENDBRANCH  28  29
ENDBRANCH  27  28
ENDBRANCH  26  27
ENDBRANCH   1  26
TORSDOF 17
ENDMDL
