MODEL 1
REMARK VINA RESULT:     -11.3      0.000      0.000
REMARK SMILES Cc1noc(C)c1[C@@H](C)NC(=O)N[C@H](CO)C(=O)OCCOCCOC(=O)c1ccc(-c2c3nc(c(-c4c(F)c(F)c(F)c(F)c4F)c4ccc([nH]4)c(-c4c(F)c(F)c(F)c(F)c4F)c4nc(c(-c5c(F)c(F)c(F)c(F)c5F)c5ccc2[nH]5)C=C4)C=C3)cc1
REMARK SMILES IDX 21 1 20 2 19 3 17 4 18 5 14 6 13 7 10 8 11 9 12 11 8 13 9 14
REMARK SMILES IDX 7 15 1 16 2 17 3 18 4 19 5 20 6 21 15 22 16 23 22 25 23 26
REMARK SMILES IDX 24 27 25 28 26 29 27 30 28 31 29 32 90 33 30 34 89 35 31 36
REMARK SMILES IDX 32 37 33 38 83 39 34 40 88 41 82 42 84 43 35 44 87 45 81 46
REMARK SMILES IDX 80 47 36 49 68 50 48 51 67 52 49 53 52 54 66 55 85 56 50 57
REMARK SMILES IDX 51 58 65 60 86 61 53 62 37 63 38 64 46 65 39 66 40 67 44 68
REMARK SMILES IDX 47 69 41 70 42 71 45 72 43 73 69 74 70 75 78 76 71 77 72 78
REMARK SMILES IDX 76 79 79 80 73 81 74 82 77 83 75 84 54 85 55 86 63 87 56 88
REMARK SMILES IDX 57 89 61 90 64 91 58 92 59 93 62 94 60 95
REMARK H PARENT 10 10 13 12 16 24 84 48 52 59
REMARK Flexibility Score: inf
ROOT
ATOM      1  C   UNL A   1      33.489  29.339  24.365  1.00  0.00     0.202 C 
ENDROOT
BRANCH   1   2
ATOM      2  C   UNL A   1      33.085  28.559  23.092  1.00  0.00     0.261 C 
BRANCH   2   3
ATOM      3  O   UNL A   1      32.832  27.143  23.254  1.00  0.00    -0.462 OA
BRANCH   3   4
ATOM      4  C   UNL A   1      31.619  26.651  22.886  1.00  0.00     0.331 C 
ATOM      5  O   UNL A   1      30.552  27.129  23.248  1.00  0.00    -0.250 OA
BRANCH   4   6
ATOM      6  C   UNL A   1      31.728  25.468  21.888  1.00  0.00     0.219 C 
BRANCH   6   7
ATOM      7  N   UNL A   1      31.582  24.132  22.531  1.00  0.00    -0.323 N 
ATOM      8  N   UNL A   1      33.492  23.319  23.670  1.00  0.00    -0.331 N 
ATOM      9  C   UNL A   1      32.403  23.141  22.904  1.00  0.00     0.316 C 
ATOM     10  H   UNL A   1      34.252  22.726  23.468  1.00  0.00     0.165 HD
ATOM     11  O   UNL A   1      32.119  21.992  22.567  1.00  0.00    -0.249 OA
ATOM     12  H   UNL A   1      30.641  23.924  22.735  1.00  0.00     0.166 HD
BRANCH   8  13
ATOM     13  C   UNL A   1      33.704  24.262  24.752  1.00  0.00     0.116 C 
ATOM     14  C   UNL A   1      35.178  24.491  25.041  1.00  0.00     0.036 C 
BRANCH  13  15
ATOM     15  C   UNL A   1      32.903  23.833  25.943  1.00  0.00     0.040 A 
ATOM     16  C   UNL A   1      33.919  21.657  27.029  1.00  0.00     0.071 C 
ATOM     17  C   UNL A   1      32.930  22.735  26.847  1.00  0.00     0.086 A 
ATOM     18  N   UNL A   1      31.907  22.781  27.710  1.00  0.00    -0.085 NA
ATOM     19  O   UNL A   1      31.291  23.989  27.502  1.00  0.00    -0.361 OA
ATOM     20  C   UNL A   1      31.941  24.626  26.517  1.00  0.00     0.139 A 
ATOM     21  C   UNL A   1      31.629  26.022  26.310  1.00  0.00     0.091 C 
ENDBRANCH  13  15
ENDBRANCH   8  13
ENDBRANCH   6   7
BRANCH   6  22
ATOM     22  C   UNL A   1      32.927  25.734  20.971  1.00  0.00     0.193 C 
BRANCH  22  23
ATOM     23  O   UNL A   1      32.974  24.865  19.845  1.00  0.00    -0.394 OA
ATOM     24  H   UNL A   1      33.099  25.389  19.038  1.00  0.00     0.210 HD
ENDBRANCH  22  23
ENDBRANCH   6  22
ENDBRANCH   4   6
ENDBRANCH   3   4
ENDBRANCH   2   3
ENDBRANCH   1   2
BRANCH   1  25
ATOM     25  O   UNL A   1      32.559  29.279  25.442  1.00  0.00    -0.374 OA
BRANCH  25  26
ATOM     26  C   UNL A   1      31.408  30.121  25.351  1.00  0.00     0.202 C 
BRANCH  26  27
ATOM     27  C   UNL A   1      31.504  31.411  26.192  1.00  0.00     0.261 C 
BRANCH  27  28
ATOM     28  O   UNL A   1      32.488  31.277  27.248  1.00  0.00    -0.460 OA
BRANCH  28  29
ATOM     29  C   UNL A   1      33.264  32.358  27.531  1.00  0.00     0.338 C 
ATOM     30  O   UNL A   1      32.902  33.508  27.580  1.00  0.00    -0.246 OA
BRANCH  29  31
ATOM     31  C   UNL A   1      34.637  31.920  27.940  1.00  0.00     0.060 A 
ATOM     32  C   UNL A   1      34.845  30.545  28.107  1.00  0.00     0.016 A 
ATOM     33  C   UNL A   1      35.710  32.798  28.141  1.00  0.00     0.016 A 
ATOM     34  C   UNL A   1      36.097  30.047  28.501  1.00  0.00     0.010 A 
ATOM     35  C   UNL A   1      36.973  32.294  28.521  1.00  0.00     0.010 A 
ATOM     36  C   UNL A   1      37.169  30.914  28.745  1.00  0.00    -0.014 A 
BRANCH  36  37
ATOM     37  C   UNL A   1      38.394  30.390  29.435  1.00  0.00     0.031 A 
ATOM     38  C   UNL A   1      38.662  30.831  30.853  1.00  0.00     0.074 A 
ATOM     39  C   UNL A   1      39.234  29.487  28.888  1.00  0.00     0.049 A 
ATOM     40  N   UNL A   1      39.575  30.420  31.700  1.00  0.00    -0.248 NA
ATOM     41  C   UNL A   1      37.774  31.872  31.392  1.00  0.00     0.031 C 
ATOM     42  C   UNL A   1      39.128  28.926  27.547  1.00  0.00     0.029 A 
ATOM     43  N   UNL A   1      40.363  28.884  29.407  1.00  0.00    -0.354 N 
ATOM     44  C   UNL A   1      39.349  31.127  32.872  1.00  0.00     0.074 A 
ATOM     45  C   UNL A   1      38.271  32.053  32.603  1.00  0.00     0.031 C 
ATOM     46  C   UNL A   1      40.173  28.108  27.324  1.00  0.00     0.029 A 
ATOM     47  C   UNL A   1      41.005  28.048  28.524  1.00  0.00     0.049 A 
ATOM     48  H   UNL A   1      40.680  29.040  30.326  1.00  0.00     0.167 HD
ATOM     49  C   UNL A   1      39.946  30.996  34.082  1.00  0.00     0.037 A 
ATOM     50  C   UNL A   1      42.121  27.303  28.663  1.00  0.00     0.037 A 
ATOM     51  C   UNL A   1      41.021  30.091  34.379  1.00  0.00     0.049 A 
ATOM     52  C   UNL A   1      42.823  27.222  29.996  1.00  0.00     0.074 A 
ATOM     53  C   UNL A   1      41.648  29.867  35.593  1.00  0.00     0.029 A 
ATOM     54  N   UNL A   1      41.643  29.271  33.452  1.00  0.00    -0.354 N 
ATOM     55  N   UNL A   1      42.525  27.812  31.126  1.00  0.00    -0.248 NA
ATOM     56  C   UNL A   1      43.994  26.333  30.080  1.00  0.00     0.031 C 
ATOM     57  C   UNL A   1      42.686  28.952  35.389  1.00  0.00     0.029 A 
ATOM     58  C   UNL A   1      42.670  28.565  34.059  1.00  0.00     0.049 A 
ATOM     59  H   UNL A   1      41.394  29.201  32.502  1.00  0.00     0.167 HD
ATOM     60  C   UNL A   1      43.434  27.329  32.062  1.00  0.00     0.074 A 
ATOM     61  C   UNL A   1      44.298  26.400  31.368  1.00  0.00     0.031 C 
ATOM     62  C   UNL A   1      43.525  27.625  33.382  1.00  0.00     0.037 A 
BRANCH  49  63
ATOM     63  C   UNL A   1      39.430  31.879  35.179  1.00  0.00     0.064 A 
ATOM     64  C   UNL A   1      39.847  33.215  35.298  1.00  0.00     0.173 A 
ATOM     65  C   UNL A   1      38.535  31.379  36.133  1.00  0.00     0.173 A 
ATOM     66  F   UNL A   1      40.716  33.732  34.418  1.00  0.00    -0.203 F 
ATOM     67  C   UNL A   1      39.422  34.002  36.364  1.00  0.00     0.198 A 
ATOM     68  C   UNL A   1      38.087  32.179  37.179  1.00  0.00     0.198 A 
ATOM     69  F   UNL A   1      38.105  30.111  36.060  1.00  0.00    -0.203 F 
ATOM     70  F   UNL A   1      39.890  35.250  36.500  1.00  0.00    -0.200 F 
ATOM     71  C   UNL A   1      38.542  33.485  37.302  1.00  0.00     0.200 A 
ATOM     72  F   UNL A   1      37.230  31.682  38.081  1.00  0.00    -0.200 F 
ATOM     73  F   UNL A   1      38.144  34.239  38.335  1.00  0.00    -0.200 F 
ENDBRANCH  49  63
BRANCH  50  74
ATOM     74  C   UNL A   1      42.639  26.520  27.509  1.00  0.00     0.064 A 
ATOM     75  C   UNL A   1      42.197  25.211  27.263  1.00  0.00     0.173 A 
ATOM     76  C   UNL A   1      43.625  27.046  26.661  1.00  0.00     0.173 A 
ATOM     77  F   UNL A   1      41.283  24.652  28.069  1.00  0.00    -0.203 F 
ATOM     78  C   UNL A   1      42.735  24.453  26.225  1.00  0.00     0.198 A 
ATOM     79  C   UNL A   1      44.147  26.294  25.610  1.00  0.00     0.198 A 
ATOM     80  F   UNL A   1      44.096  28.285  26.867  1.00  0.00    -0.203 F 
ATOM     81  F   UNL A   1      42.334  23.187  26.045  1.00  0.00    -0.200 F 
ATOM     82  C   UNL A   1      43.707  24.995  25.397  1.00  0.00     0.200 A 
ATOM     83  F   UNL A   1      45.091  26.818  24.816  1.00  0.00    -0.200 F 
ATOM     84  F   UNL A   1      44.232  24.261  24.407  1.00  0.00    -0.200 F 
ENDBRANCH  50  74
BRANCH  62  85
ATOM     85  C   UNL A   1      44.564  26.904  34.197  1.00  0.00     0.064 A 
ATOM     86  C   UNL A   1      45.852  27.426  34.388  1.00  0.00     0.173 A 
ATOM     87  C   UNL A   1      44.244  25.700  34.843  1.00  0.00     0.173 A 
ATOM     88  F   UNL A   1      46.214  28.568  33.784  1.00  0.00    -0.203 F 
ATOM     89  C   UNL A   1      46.786  26.759  35.178  1.00  0.00     0.198 A 
ATOM     90  C   UNL A   1      45.171  25.050  35.656  1.00  0.00     0.198 A 
ATOM     91  F   UNL A   1      43.025  25.158  34.701  1.00  0.00    -0.203 F 
ATOM     92  F   UNL A   1      48.023  27.256  35.314  1.00  0.00    -0.200 F 
ATOM     93  C   UNL A   1      46.442  25.577  35.819  1.00  0.00     0.200 A 
ATOM     94  F   UNL A   1      44.831  23.917  36.286  1.00  0.00    -0.200 F 
ATOM     95  F   UNL A   1      47.339  24.944  36.587  1.00  0.00    -0.200 F 
ENDBRANCH  62  85
ENDBRANCH  36  37
ENDBRANCH  29  31
ENDBRANCH  28  29
ENDBRANCH  27  28
ENDBRANCH  26  27
ENDBRANCH  25  26
ENDBRANCH   1  25
TORSDOF 19
ENDMDL
MODEL 2
REMARK VINA RESULT:     -11.1      1.103      1.967
REMARK SMILES Cc1noc(C)c1[C@@H](C)NC(=O)N[C@H](CO)C(=O)OCCOCCOC(=O)c1ccc(-c2c3nc(c(-c4c(F)c(F)c(F)c(F)c4F)c4ccc([nH]4)c(-c4c(F)c(F)c(F)c(F)c4F)c4nc(c(-c5c(F)c(F)c(F)c(F)c5F)c5ccc2[nH]5)C=C4)C=C3)cc1
REMARK SMILES IDX 21 1 20 2 19 3 17 4 18 5 14 6 13 7 10 8 11 9 12 11 8 13 9 14
REMARK SMILES IDX 7 15 1 16 2 17 3 18 4 19 5 20 6 21 15 22 16 23 22 25 23 26
REMARK SMILES IDX 24 27 25 28 26 29 27 30 28 31 29 32 90 33 30 34 89 35 31 36
REMARK SMILES IDX 32 37 33 38 83 39 34 40 88 41 82 42 84 43 35 44 87 45 81 46
REMARK SMILES IDX 80 47 36 49 68 50 48 51 67 52 49 53 52 54 66 55 85 56 50 57
REMARK SMILES IDX 51 58 65 60 86 61 53 62 37 63 38 64 46 65 39 66 40 67 44 68
REMARK SMILES IDX 47 69 41 70 42 71 45 72 43 73 69 74 70 75 78 76 71 77 72 78
REMARK SMILES IDX 76 79 79 80 73 81 74 82 77 83 75 84 54 85 55 86 63 87 56 88
REMARK SMILES IDX 57 89 61 90 64 91 58 92 59 93 62 94 60 95
REMARK H PARENT 10 10 13 12 16 24 84 48 52 59
REMARK Flexibility Score: inf
ROOT
ATOM      1  C   UNL A   1      32.888  29.665  25.611  1.00  0.00     0.202 C 
ENDROOT
BRANCH   1   2
ATOM      2  C   UNL A   1      31.817  29.191  24.601  1.00  0.00     0.261 C 
BRANCH   2   3
ATOM      3  O   UNL A   1      32.293  28.447  23.455  1.00  0.00    -0.462 OA
BRANCH   3   4
ATOM      4  C   UNL A   1      31.491  27.488  22.921  1.00  0.00     0.331 C 
ATOM      5  O   UNL A   1      30.371  27.706  22.477  1.00  0.00    -0.250 OA
BRANCH   4   6
ATOM      6  C   UNL A   1      32.178  26.097  22.854  1.00  0.00     0.219 C 
BRANCH   6   7
ATOM      7  N   UNL A   1      33.090  25.829  24.002  1.00  0.00    -0.323 N 
ATOM      8  N   UNL A   1      32.079  24.892  25.927  1.00  0.00    -0.331 N 
ATOM      9  C   UNL A   1      32.966  25.706  25.330  1.00  0.00     0.316 C 
ATOM     10  H   UNL A   1      31.709  25.221  26.778  1.00  0.00     0.165 HD
ATOM     11  O   UNL A   1      33.739  26.339  26.048  1.00  0.00    -0.249 OA
ATOM     12  H   UNL A   1      34.023  25.711  23.709  1.00  0.00     0.166 HD
BRANCH   8  13
ATOM     13  C   UNL A   1      31.592  23.596  25.493  1.00  0.00     0.116 C 
ATOM     14  C   UNL A   1      30.462  23.079  26.366  1.00  0.00     0.036 C 
BRANCH  13  15
ATOM     15  C   UNL A   1      32.749  22.653  25.362  1.00  0.00     0.040 A 
ATOM     16  C   UNL A   1      33.730  22.032  27.729  1.00  0.00     0.071 C 
ATOM     17  C   UNL A   1      33.680  22.055  26.256  1.00  0.00     0.086 A 
ATOM     18  N   UNL A   1      34.601  21.335  25.600  1.00  0.00    -0.085 NA
ATOM     19  O   UNL A   1      34.195  21.306  24.290  1.00  0.00    -0.361 OA
ATOM     20  C   UNL A   1      33.063  22.017  24.187  1.00  0.00     0.139 A 
ATOM     21  C   UNL A   1      32.317  21.905  22.954  1.00  0.00     0.091 C 
ENDBRANCH  13  15
ENDBRANCH   8  13
ENDBRANCH   6   7
BRANCH   6  22
ATOM     22  C   UNL A   1      32.689  25.893  21.424  1.00  0.00     0.193 C 
BRANCH  22  23
ATOM     23  O   UNL A   1      31.655  25.938  20.447  1.00  0.00    -0.394 OA
ATOM     24  H   UNL A   1      30.793  25.878  20.887  1.00  0.00     0.210 HD
ENDBRANCH  22  23
ENDBRANCH   6  22
ENDBRANCH   4   6
ENDBRANCH   3   4
ENDBRANCH   2   3
ENDBRANCH   1   2
BRANCH   1  25
ATOM     25  O   UNL A   1      32.401  30.432  26.707  1.00  0.00    -0.374 OA
BRANCH  25  26
ATOM     26  C   UNL A   1      31.330  31.339  26.437  1.00  0.00     0.202 C 
BRANCH  26  27
ATOM     27  C   UNL A   1      31.601  32.786  26.898  1.00  0.00     0.261 C 
BRANCH  27  28
ATOM     28  O   UNL A   1      33.022  33.071  26.929  1.00  0.00    -0.460 OA
BRANCH  28  29
ATOM     29  C   UNL A   1      33.530  33.640  28.055  1.00  0.00     0.338 C 
ATOM     30  O   UNL A   1      32.981  34.453  28.757  1.00  0.00    -0.246 OA
BRANCH  29  31
ATOM     31  C   UNL A   1      34.834  33.000  28.419  1.00  0.00     0.060 A 
ATOM     32  C   UNL A   1      34.799  31.656  28.813  1.00  0.00     0.016 A 
ATOM     33  C   UNL A   1      36.070  33.660  28.368  1.00  0.00     0.016 A 
ATOM     34  C   UNL A   1      35.973  30.982  29.183  1.00  0.00     0.010 A 
ATOM     35  C   UNL A   1      37.251  32.974  28.724  1.00  0.00     0.010 A 
ATOM     36  C   UNL A   1      37.210  31.638  29.175  1.00  0.00    -0.014 A 
BRANCH  36  37
ATOM     37  C   UNL A   1      38.388  30.990  29.843  1.00  0.00     0.031 A 
ATOM     38  C   UNL A   1      38.678  31.340  31.281  1.00  0.00     0.074 A 
ATOM     39  C   UNL A   1      39.161  30.054  29.255  1.00  0.00     0.049 A 
ATOM     40  N   UNL A   1      39.552  30.821  32.110  1.00  0.00    -0.248 NA
ATOM     41  C   UNL A   1      37.866  32.417  31.868  1.00  0.00     0.031 C 
ATOM     42  C   UNL A   1      39.023  29.569  27.887  1.00  0.00     0.029 A 
ATOM     43  N   UNL A   1      40.238  29.344  29.746  1.00  0.00    -0.354 N 
ATOM     44  C   UNL A   1      39.371  31.485  33.314  1.00  0.00     0.074 A 
ATOM     45  C   UNL A   1      38.368  32.501  33.088  1.00  0.00     0.031 C 
ATOM     46  C   UNL A   1      40.005  28.687  27.627  1.00  0.00     0.029 A 
ATOM     47  C   UNL A   1      40.822  28.506  28.825  1.00  0.00     0.049 A 
ATOM     48  H   UNL A   1      40.559  29.430  30.673  1.00  0.00     0.167 HD
ATOM     49  C   UNL A   1      39.948  31.250  34.518  1.00  0.00     0.037 A 
ATOM     50  C   UNL A   1      41.879  27.674  28.931  1.00  0.00     0.037 A 
ATOM     51  C   UNL A   1      40.951  30.254  34.774  1.00  0.00     0.049 A 
ATOM     52  C   UNL A   1      42.563  27.476  30.260  1.00  0.00     0.074 A 
ATOM     53  C   UNL A   1      41.551  29.924  35.977  1.00  0.00     0.029 A 
ATOM     54  N   UNL A   1      41.516  29.436  33.810  1.00  0.00    -0.354 N 
ATOM     55  N   UNL A   1      42.303  28.030  31.418  1.00  0.00    -0.248 NA
ATOM     56  C   UNL A   1      43.664  26.498  30.304  1.00  0.00     0.031 C 
ATOM     57  C   UNL A   1      42.520  28.946  35.731  1.00  0.00     0.029 A 
ATOM     58  C   UNL A   1      42.483  28.626  34.385  1.00  0.00     0.049 A 
ATOM     59  H   UNL A   1      41.269  29.431  32.857  1.00  0.00     0.167 HD
ATOM     60  C   UNL A   1      43.167  27.435  32.331  1.00  0.00     0.074 A 
ATOM     61  C   UNL A   1      43.964  26.480  31.596  1.00  0.00     0.031 C 
ATOM     62  C   UNL A   1      43.271  27.659  33.664  1.00  0.00     0.037 A 
BRANCH  49  63
ATOM     63  C   UNL A   1      39.493  32.115  35.656  1.00  0.00     0.064 A 
ATOM     64  C   UNL A   1      40.077  33.369  35.900  1.00  0.00     0.173 A 
ATOM     65  C   UNL A   1      38.485  31.676  36.523  1.00  0.00     0.173 A 
ATOM     66  F   UNL A   1      41.057  33.823  35.106  1.00  0.00    -0.203 F 
ATOM     67  C   UNL A   1      39.700  34.128  37.003  1.00  0.00     0.198 A 
ATOM     68  C   UNL A   1      38.088  32.453  37.607  1.00  0.00     0.198 A 
ATOM     69  F   UNL A   1      37.893  30.488  36.329  1.00  0.00    -0.203 F 
ATOM     70  F   UNL A   1      40.323  35.287  37.260  1.00  0.00    -0.200 F 
ATOM     71  C   UNL A   1      38.706  33.671  37.854  1.00  0.00     0.200 A 
ATOM     72  F   UNL A   1      37.121  32.015  38.425  1.00  0.00    -0.200 F 
ATOM     73  F   UNL A   1      38.353  34.397  38.923  1.00  0.00    -0.200 F 
ENDBRANCH  49  63
BRANCH  50  74
ATOM     74  C   UNL A   1      42.345  26.911  27.741  1.00  0.00     0.064 A 
ATOM     75  C   UNL A   1      41.785  25.668  27.411  1.00  0.00     0.173 A 
ATOM     76  C   UNL A   1      43.395  27.387  26.943  1.00  0.00     0.173 A 
ATOM     77  F   UNL A   1      40.803  25.155  28.168  1.00  0.00    -0.203 F 
ATOM     78  C   UNL A   1      42.270  24.922  26.339  1.00  0.00     0.198 A 
ATOM     79  C   UNL A   1      43.866  26.649  25.858  1.00  0.00     0.198 A 
ATOM     80  F   UNL A   1      43.978  28.560  27.229  1.00  0.00    -0.203 F 
ATOM     81  F   UNL A   1      41.753  23.714  26.078  1.00  0.00    -0.200 F 
ATOM     82  C   UNL A   1      43.308  25.414  25.561  1.00  0.00     0.200 A 
ATOM     83  F   UNL A   1      44.873  27.123  25.112  1.00  0.00    -0.200 F 
ATOM     84  F   UNL A   1      43.782  24.690  24.538  1.00  0.00    -0.200 F 
ENDBRANCH  50  74
BRANCH  62  85
ATOM     85  C   UNL A   1      44.247  26.823  34.446  1.00  0.00     0.064 A 
ATOM     86  C   UNL A   1      43.856  25.653  35.114  1.00  0.00     0.173 A 
ATOM     87  C   UNL A   1      45.607  27.171  34.480  1.00  0.00     0.173 A 
ATOM     88  F   UNL A   1      42.566  25.281  35.124  1.00  0.00    -0.203 F 
ATOM     89  C   UNL A   1      44.785  24.875  35.801  1.00  0.00     0.198 A 
ATOM     90  C   UNL A   1      46.538  26.375  35.143  1.00  0.00     0.198 A 
ATOM     91  F   UNL A   1      46.038  28.276  33.853  1.00  0.00    -0.203 F 
ATOM     92  F   UNL A   1      44.381  23.783  36.465  1.00  0.00    -0.200 F 
ATOM     93  C   UNL A   1      46.126  25.231  35.808  1.00  0.00     0.200 A 
ATOM     94  F   UNL A   1      47.834  26.713  35.135  1.00  0.00    -0.200 F 
ATOM     95  F   UNL A   1      47.019  24.474  36.459  1.00  0.00    -0.200 F 
ENDBRANCH  62  85
ENDBRANCH  36  37
ENDBRANCH  29  31
ENDBRANCH  28  29
ENDBRANCH  27  28
ENDBRANCH  26  27
ENDBRANCH  25  26
ENDBRANCH   1  25
TORSDOF 19
ENDMDL
MODEL 3
REMARK VINA RESULT:     -11.1      1.503      2.586
REMARK SMILES Cc1noc(C)c1[C@@H](C)NC(=O)N[C@H](CO)C(=O)OCCOCCOC(=O)c1ccc(-c2c3nc(c(-c4c(F)c(F)c(F)c(F)c4F)c4ccc([nH]4)c(-c4c(F)c(F)c(F)c(F)c4F)c4nc(c(-c5c(F)c(F)c(F)c(F)c5F)c5ccc2[nH]5)C=C4)C=C3)cc1
REMARK SMILES IDX 21 1 20 2 19 3 17 4 18 5 14 6 13 7 10 8 11 9 12 11 8 13 9 14
REMARK SMILES IDX 7 15 1 16 2 17 3 18 4 19 5 20 6 21 15 22 16 23 22 25 23 26
REMARK SMILES IDX 24 27 25 28 26 29 27 30 28 31 29 32 90 33 30 34 89 35 31 36
REMARK SMILES IDX 32 37 33 38 83 39 34 40 88 41 82 42 84 43 35 44 87 45 81 46
REMARK SMILES IDX 80 47 36 49 68 50 48 51 67 52 49 53 52 54 66 55 85 56 50 57
REMARK SMILES IDX 51 58 65 60 86 61 53 62 37 63 38 64 46 65 39 66 40 67 44 68
REMARK SMILES IDX 47 69 41 70 42 71 45 72 43 73 69 74 70 75 78 76 71 77 72 78
REMARK SMILES IDX 76 79 79 80 73 81 74 82 77 83 75 84 54 85 55 86 63 87 56 88
REMARK SMILES IDX 57 89 61 90 64 91 58 92 59 93 62 94 60 95
REMARK H PARENT 10 10 13 12 16 24 84 48 52 59
REMARK Flexibility Score: inf
ROOT
ATOM      1  C   UNL A   1      33.078  30.155  26.814  1.00  0.00     0.202 C 
ENDROOT
BRANCH   1   2
ATOM      2  C   UNL A   1      33.395  29.343  25.536  1.00  0.00     0.261 C 
BRANCH   2   3
ATOM      3  O   UNL A   1      32.561  29.601  24.383  1.00  0.00    -0.462 OA
BRANCH   3   4
ATOM      4  C   UNL A   1      32.761  28.867  23.256  1.00  0.00     0.331 C 
ATOM      5  O   UNL A   1      33.822  28.829  22.646  1.00  0.00    -0.250 OA
BRANCH   4   6
ATOM      6  C   UNL A   1      31.525  28.011  22.868  1.00  0.00     0.219 C 
BRANCH   6   7
ATOM      7  N   UNL A   1      31.874  26.764  22.131  1.00  0.00    -0.323 N 
ATOM      8  N   UNL A   1      33.733  25.557  22.963  1.00  0.00    -0.331 N 
ATOM      9  C   UNL A   1      32.972  26.016  21.956  1.00  0.00     0.316 C 
ATOM     10  H   UNL A   1      34.698  25.498  22.772  1.00  0.00     0.165 HD
ATOM     11  O   UNL A   1      33.278  25.689  20.809  1.00  0.00    -0.249 OA
ATOM     12  H   UNL A   1      31.099  26.394  21.648  1.00  0.00     0.166 HD
BRANCH   8  13
ATOM     13  C   UNL A   1      33.333  25.135  24.293  1.00  0.00     0.116 C 
ATOM     14  C   UNL A   1      34.054  25.904  25.387  1.00  0.00     0.036 C 
BRANCH  13  15
ATOM     15  C   UNL A   1      33.464  23.647  24.398  1.00  0.00     0.040 A 
ATOM     16  C   UNL A   1      35.804  22.840  23.492  1.00  0.00     0.071 C 
ATOM     17  C   UNL A   1      34.435  22.681  24.015  1.00  0.00     0.086 A 
ATOM     18  N   UNL A   1      34.017  21.433  24.268  1.00  0.00    -0.085 NA
ATOM     19  O   UNL A   1      32.847  21.563  24.973  1.00  0.00    -0.361 OA
ATOM     20  C   UNL A   1      32.584  22.870  25.109  1.00  0.00     0.139 A 
ATOM     21  C   UNL A   1      31.543  23.245  26.040  1.00  0.00     0.091 C 
ENDBRANCH  13  15
ENDBRANCH   8  13
ENDBRANCH   6   7
BRANCH   6  22
ATOM     22  C   UNL A   1      30.462  28.952  22.292  1.00  0.00     0.193 C 
BRANCH  22  23
ATOM     23  O   UNL A   1      31.016  30.086  21.635  1.00  0.00    -0.394 OA
ATOM     24  H   UNL A   1      30.327  30.757  21.512  1.00  0.00     0.210 HD
ENDBRANCH  22  23
ENDBRANCH   6  22
ENDBRANCH   4   6
ENDBRANCH   3   4
ENDBRANCH   2   3
ENDBRANCH   1   2
BRANCH   1  25
ATOM     25  O   UNL A   1      31.729  30.591  26.944  1.00  0.00    -0.374 OA
BRANCH  25  26
ATOM     26  C   UNL A   1      31.491  31.997  26.847  1.00  0.00     0.202 C 
BRANCH  26  27
ATOM     27  C   UNL A   1      32.701  32.869  27.240  1.00  0.00     0.261 C 
BRANCH  27  28
ATOM     28  O   UNL A   1      32.341  33.842  28.253  1.00  0.00    -0.460 OA
BRANCH  28  29
ATOM     29  C   UNL A   1      33.317  34.673  28.708  1.00  0.00     0.338 C 
ATOM     30  O   UNL A   1      33.195  35.843  28.974  1.00  0.00    -0.246 OA
BRANCH  29  31
ATOM     31  C   UNL A   1      34.567  33.899  28.995  1.00  0.00     0.060 A 
ATOM     32  C   UNL A   1      34.432  32.720  29.737  1.00  0.00     0.016 A 
ATOM     33  C   UNL A   1      35.841  34.279  28.551  1.00  0.00     0.016 A 
ATOM     34  C   UNL A   1      35.552  31.940  30.063  1.00  0.00     0.010 A 
ATOM     35  C   UNL A   1      36.964  33.485  28.866  1.00  0.00     0.010 A 
ATOM     36  C   UNL A   1      36.837  32.325  29.661  1.00  0.00    -0.014 A 
BRANCH  36  37
ATOM     37  C   UNL A   1      38.030  31.641  30.260  1.00  0.00     0.031 A 
ATOM     38  C   UNL A   1      38.443  32.017  31.661  1.00  0.00     0.074 A 
ATOM     39  C   UNL A   1      38.713  30.652  29.647  1.00  0.00     0.049 A 
ATOM     40  N   UNL A   1      39.352  31.479  32.440  1.00  0.00    -0.248 NA
ATOM     41  C   UNL A   1      37.729  33.148  32.272  1.00  0.00     0.031 C 
ATOM     42  C   UNL A   1      38.451  30.136  28.310  1.00  0.00     0.029 A 
ATOM     43  N   UNL A   1      39.790  29.905  30.081  1.00  0.00    -0.354 N 
ATOM     44  C   UNL A   1      39.293  32.185  33.633  1.00  0.00     0.074 A 
ATOM     45  C   UNL A   1      38.323  33.242  33.449  1.00  0.00     0.031 C 
ATOM     46  C   UNL A   1      39.369  29.200  28.006  1.00  0.00     0.029 A 
ATOM     47  C   UNL A   1      40.264  29.014  29.147  1.00  0.00     0.049 A 
ATOM     48  H   UNL A   1      40.184  30.002  30.978  1.00  0.00     0.167 HD
ATOM     49  C   UNL A   1      39.947  31.958  34.798  1.00  0.00     0.037 A 
ATOM     50  C   UNL A   1      41.286  28.135  29.200  1.00  0.00     0.037 A 
ATOM     51  C   UNL A   1      40.918  30.921  35.011  1.00  0.00     0.049 A 
ATOM     52  C   UNL A   1      42.058  27.941  30.482  1.00  0.00     0.074 A 
ATOM     53  C   UNL A   1      41.591  30.597  36.177  1.00  0.00     0.029 A 
ATOM     54  N   UNL A   1      41.372  30.050  34.034  1.00  0.00    -0.354 N 
ATOM     55  N   UNL A   1      41.911  28.540  31.637  1.00  0.00    -0.248 NA
ATOM     56  C   UNL A   1      43.113  26.913  30.476  1.00  0.00     0.031 C 
ATOM     57  C   UNL A   1      42.492  29.566  35.892  1.00  0.00     0.029 A 
ATOM     58  C   UNL A   1      42.341  29.211  34.562  1.00  0.00     0.049 A 
ATOM     59  H   UNL A   1      41.054  30.030  33.103  1.00  0.00     0.167 HD
ATOM     60  C   UNL A   1      42.813  27.930  32.503  1.00  0.00     0.074 A 
ATOM     61  C   UNL A   1      43.507  26.917  31.741  1.00  0.00     0.031 C 
ATOM     62  C   UNL A   1      43.026  28.186  33.817  1.00  0.00     0.037 A 
BRANCH  49  63
ATOM     63  C   UNL A   1      39.619  32.875  35.938  1.00  0.00     0.064 A 
ATOM     64  C   UNL A   1      38.585  32.577  36.841  1.00  0.00     0.173 A 
ATOM     65  C   UNL A   1      40.324  34.072  36.113  1.00  0.00     0.173 A 
ATOM     66  F   UNL A   1      37.871  31.451  36.703  1.00  0.00    -0.203 F 
ATOM     67  C   UNL A   1      38.239  33.472  37.849  1.00  0.00     0.198 A 
ATOM     68  C   UNL A   1      39.996  34.949  37.142  1.00  0.00     0.198 A 
ATOM     69  F   UNL A   1      41.322  34.399  35.279  1.00  0.00    -0.203 F 
ATOM     70  F   UNL A   1      37.201  33.202  38.653  1.00  0.00    -0.200 F 
ATOM     71  C   UNL A   1      38.945  34.655  38.000  1.00  0.00     0.200 A 
ATOM     72  F   UNL A   1      40.683  36.089  37.293  1.00  0.00    -0.200 F 
ATOM     73  F   UNL A   1      38.603  35.522  38.963  1.00  0.00    -0.200 F 
ENDBRANCH  49  63
BRANCH  50  74
ATOM     74  C   UNL A   1      41.626  27.317  28.005  1.00  0.00     0.064 A 
ATOM     75  C   UNL A   1      42.527  27.784  27.037  1.00  0.00     0.173 A 
ATOM     76  C   UNL A   1      41.014  26.074  27.782  1.00  0.00     0.173 A 
ATOM     77  F   UNL A   1      43.108  28.984  27.189  1.00  0.00    -0.203 F 
ATOM     78  C   UNL A   1      42.790  27.049  25.883  1.00  0.00     0.198 A 
ATOM     79  C   UNL A   1      41.294  25.330  26.637  1.00  0.00     0.198 A 
ATOM     80  F   UNL A   1      40.130  25.593  28.667  1.00  0.00    -0.203 F 
ATOM     81  F   UNL A   1      43.614  27.543  24.950  1.00  0.00    -0.200 F 
ATOM     82  C   UNL A   1      42.176  25.821  25.685  1.00  0.00     0.200 A 
ATOM     83  F   UNL A   1      40.695  24.147  26.445  1.00  0.00    -0.200 F 
ATOM     84  F   UNL A   1      42.420  25.120  24.569  1.00  0.00    -0.200 F 
ENDBRANCH  50  74
BRANCH  62  85
ATOM     85  C   UNL A   1      44.019  27.327  34.551  1.00  0.00     0.064 A 
ATOM     86  C   UNL A   1      45.360  27.709  34.707  1.00  0.00     0.173 A 
ATOM     87  C   UNL A   1      43.605  26.129  35.156  1.00  0.00     0.173 A 
ATOM     88  F   UNL A   1      45.811  28.838  34.140  1.00  0.00    -0.203 F 
ATOM     89  C   UNL A   1      46.253  26.914  35.424  1.00  0.00     0.198 A 
ATOM     90  C   UNL A   1      44.494  25.352  35.897  1.00  0.00     0.198 A 
ATOM     91  F   UNL A   1      42.333  25.719  35.044  1.00  0.00    -0.203 F 
ATOM     92  F   UNL A   1      47.538  27.279  35.526  1.00  0.00    -0.200 F 
ATOM     93  C   UNL A   1      45.817  25.742  36.025  1.00  0.00     0.200 A 
ATOM     94  F   UNL A   1      44.067  24.229  36.489  1.00  0.00    -0.200 F 
ATOM     95  F   UNL A   1      46.676  24.987  36.723  1.00  0.00    -0.200 F 
ENDBRANCH  62  85
ENDBRANCH  36  37
ENDBRANCH  29  31
ENDBRANCH  28  29
ENDBRANCH  27  28
ENDBRANCH  26  27
ENDBRANCH  25  26
ENDBRANCH   1  25
TORSDOF 19
ENDMDL
