MODEL 1
REMARK VINA RESULT:     -11.7      0.000      0.000
REMARK SMILES C#Cc1cc(Cl)cc2c1O[C@H](C(F)(F)F)C(C(=O)OCCOCCOC(=O)c1ccc(-c3c4nc(c(-c5c(F)c(F)c(F)c(F)c5F)c5ccc([nH]5)c(-c5c(F)c(F)c(F)c(F)c5F)c5nc(c(-c6c(F)c(F)c(F)c(F)c6F)c6ccc3[nH]6)C=C5)C=C4)cc1)=C2
REMARK SMILES IDX 23 1 22 2 21 3 20 4 19 5 17 6 18 7 16 8 3 9 4 10 9 11 5 12
REMARK SMILES IDX 8 13 10 14 6 15 7 16 91 17 11 18 2 19 1 20 12 21 13 22 14 23
REMARK SMILES IDX 15 24 24 25 25 26 26 27 27 28 28 29 29 30 90 31 30 32 89 33
REMARK SMILES IDX 31 34 32 35 33 36 83 37 34 38 88 39 82 40 84 41 35 42 87 43
REMARK SMILES IDX 81 44 80 45 36 47 68 48 48 49 67 50 49 51 52 52 66 53 85 54
REMARK SMILES IDX 50 55 51 56 65 58 86 59 53 60 37 61 38 62 46 63 39 64 40 65
REMARK SMILES IDX 44 66 47 67 41 68 42 69 45 70 43 71 69 72 70 73 78 74 71 75
REMARK SMILES IDX 72 76 76 77 79 78 73 79 74 80 77 81 75 82 54 83 55 84 63 85
REMARK SMILES IDX 56 86 57 87 61 88 64 89 58 90 59 91 62 92 60 93
REMARK H PARENT 84 46 52 57
REMARK Flexibility Score: inf
ROOT
ATOM      1  C   UNL A   1      35.996  20.255  24.996  1.00  0.00     0.202 C 
ENDROOT
BRANCH   1   2
ATOM      2  O   UNL A   1      35.389  21.224  25.847  1.00  0.00    -0.374 OA
BRANCH   2   3
ATOM      3  C   UNL A   1      34.038  21.045  26.254  1.00  0.00     0.202 C 
BRANCH   3   4
ATOM      4  C   UNL A   1      33.005  22.124  25.916  1.00  0.00     0.261 C 
BRANCH   4   5
ATOM      5  O   UNL A   1      33.607  23.400  25.657  1.00  0.00    -0.460 OA
BRANCH   5   6
ATOM      6  C   UNL A   1      33.516  23.797  24.365  1.00  0.00     0.338 C 
ATOM      7  O   UNL A   1      33.636  23.096  23.374  1.00  0.00    -0.246 OA
BRANCH   6   8
ATOM      8  C   UNL A   1      33.106  25.211  24.308  1.00  0.00     0.087 C 
ATOM      9  C   UNL A   1      31.706  29.119  24.689  1.00  0.00     0.068 A 
ATOM     10  C   UNL A   1      32.315  29.973  25.616  1.00  0.00     0.041 A 
ATOM     11  C   UNL A   1      32.235  27.838  24.462  1.00  0.00     0.143 A 
ATOM     12  C   UNL A   1      33.456  29.557  26.297  1.00  0.00     0.043 A 
ATOM     13  C   UNL A   1      33.358  27.419  25.182  1.00  0.00     0.020 A 
ATOM     14  O   UNL A   1      31.621  27.049  23.526  1.00  0.00    -0.474 OA
ATOM     15  Cl  UNL A   1      34.199  30.603  27.444  1.00  0.00    -0.084 Cl
ATOM     16  C   UNL A   1      33.985  28.288  26.082  1.00  0.00     0.032 A 
ATOM     17  C   UNL A   1      33.820  26.050  25.069  1.00  0.00     0.027 C 
ATOM     18  C   UNL A   1      31.934  25.631  23.469  1.00  0.00     0.316 C 
BRANCH   9  19
ATOM     19  C   UNL A   1      30.512  29.559  24.033  1.00  0.00    -0.067 C 
ATOM     20  C   UNL A   1      29.491  29.920  23.510  1.00  0.00     0.010 C 
ENDBRANCH   9  19
BRANCH  18  21
ATOM     21  C   UNL A   1      30.661  24.838  23.794  1.00  0.00     0.430 C 
ATOM     22  F   UNL A   1      29.547  25.566  23.540  1.00  0.00    -0.167 F 
ATOM     23  F   UNL A   1      30.564  23.714  23.044  1.00  0.00    -0.167 F 
ATOM     24  F   UNL A   1      30.616  24.463  25.092  1.00  0.00    -0.167 F 
ENDBRANCH  18  21
ENDBRANCH   6   8
ENDBRANCH   5   6
ENDBRANCH   4   5
ENDBRANCH   3   4
ENDBRANCH   2   3
ENDBRANCH   1   2
BRANCH   1  25
ATOM     25  C   UNL A   1      37.521  20.072  25.004  1.00  0.00     0.261 C 
BRANCH  25  26
ATOM     26  O   UNL A   1      38.256  21.270  25.299  1.00  0.00    -0.460 OA
BRANCH  26  27
ATOM     27  C   UNL A   1      39.330  21.078  26.108  1.00  0.00     0.338 C 
ATOM     28  O   UNL A   1      39.983  20.060  26.248  1.00  0.00    -0.246 OA
BRANCH  27  29
ATOM     29  C   UNL A   1      39.742  22.364  26.695  1.00  0.00     0.060 A 
ATOM     30  C   UNL A   1      39.104  23.529  26.249  1.00  0.00     0.016 A 
ATOM     31  C   UNL A   1      40.808  22.431  27.591  1.00  0.00     0.016 A 
ATOM     32  C   UNL A   1      39.553  24.774  26.677  1.00  0.00     0.010 A 
ATOM     33  C   UNL A   1      41.265  23.683  28.009  1.00  0.00     0.010 A 
ATOM     34  C   UNL A   1      40.661  24.859  27.528  1.00  0.00    -0.014 A 
BRANCH  34  35
ATOM     35  C   UNL A   1      41.276  26.180  27.797  1.00  0.00     0.031 A 
ATOM     36  C   UNL A   1      42.680  26.439  27.324  1.00  0.00     0.074 A 
ATOM     37  C   UNL A   1      40.577  27.148  28.417  1.00  0.00     0.049 A 
ATOM     38  N   UNL A   1      43.428  27.500  27.491  1.00  0.00    -0.248 NA
ATOM     39  C   UNL A   1      43.329  25.361  26.560  1.00  0.00     0.031 C 
ATOM     40  C   UNL A   1      39.193  27.029  28.869  1.00  0.00     0.029 A 
ATOM     41  N   UNL A   1      40.941  28.423  28.773  1.00  0.00    -0.354 N 
ATOM     42  C   UNL A   1      44.630  27.216  26.857  1.00  0.00     0.074 A 
ATOM     43  C   UNL A   1      44.532  25.870  26.337  1.00  0.00     0.031 C 
ATOM     44  C   UNL A   1      38.822  28.186  29.443  1.00  0.00     0.029 A 
ATOM     45  C   UNL A   1      39.955  29.110  29.437  1.00  0.00     0.049 A 
ATOM     46  H   UNL A   1      41.824  28.807  28.572  1.00  0.00     0.167 HD
ATOM     47  C   UNL A   1      45.710  28.017  26.706  1.00  0.00     0.037 A 
ATOM     48  C   UNL A   1      39.974  30.337  29.993  1.00  0.00     0.037 A 
ATOM     49  C   UNL A   1      45.799  29.360  27.217  1.00  0.00     0.049 A 
ATOM     50  C   UNL A   1      41.228  31.168  29.897  1.00  0.00     0.074 A 
ATOM     51  C   UNL A   1      46.851  30.252  27.111  1.00  0.00     0.029 A 
ATOM     52  N   UNL A   1      44.798  30.004  27.929  1.00  0.00    -0.354 N 
ATOM     53  N   UNL A   1      42.355  30.901  29.282  1.00  0.00    -0.248 NA
ATOM     54  C   UNL A   1      41.214  32.476  30.571  1.00  0.00     0.031 C 
ATOM     55  C   UNL A   1      46.512  31.411  27.812  1.00  0.00     0.029 A 
ATOM     56  C   UNL A   1      45.222  31.271  28.295  1.00  0.00     0.049 A 
ATOM     57  H   UNL A   1      43.918  29.618  28.143  1.00  0.00     0.167 HD
ATOM     58  C   UNL A   1      43.167  32.013  29.467  1.00  0.00     0.074 A 
ATOM     59  C   UNL A   1      42.398  32.969  30.233  1.00  0.00     0.031 C 
ATOM     60  C   UNL A   1      44.438  32.221  29.042  1.00  0.00     0.037 A 
BRANCH  47  61
ATOM     61  C   UNL A   1      46.893  27.479  25.956  1.00  0.00     0.064 A 
ATOM     62  C   UNL A   1      47.024  27.653  24.570  1.00  0.00     0.173 A 
ATOM     63  C   UNL A   1      47.958  26.878  26.645  1.00  0.00     0.173 A 
ATOM     64  F   UNL A   1      46.030  28.211  23.863  1.00  0.00    -0.203 F 
ATOM     65  C   UNL A   1      48.175  27.244  23.902  1.00  0.00     0.198 A 
ATOM     66  C   UNL A   1      49.121  26.499  25.979  1.00  0.00     0.198 A 
ATOM     67  F   UNL A   1      47.886  26.691  27.972  1.00  0.00    -0.203 F 
ATOM     68  F   UNL A   1      48.269  27.400  22.575  1.00  0.00    -0.200 F 
ATOM     69  C   UNL A   1      49.228  26.681  24.609  1.00  0.00     0.200 A 
ATOM     70  F   UNL A   1      50.144  25.973  26.667  1.00  0.00    -0.200 F 
ATOM     71  F   UNL A   1      50.348  26.317  23.970  1.00  0.00    -0.200 F 
ENDBRANCH  47  61
BRANCH  48  72
ATOM     72  C   UNL A   1      38.768  30.860  30.691  1.00  0.00     0.064 A 
ATOM     73  C   UNL A   1      38.640  30.757  32.083  1.00  0.00     0.173 A 
ATOM     74  C   UNL A   1      37.712  31.455  29.984  1.00  0.00     0.173 A 
ATOM     75  F   UNL A   1      39.610  30.173  32.803  1.00  0.00    -0.203 F 
ATOM     76  C   UNL A   1      37.497  31.210  32.738  1.00  0.00     0.198 A 
ATOM     77  C   UNL A   1      36.585  31.941  30.645  1.00  0.00     0.198 A 
ATOM     78  F   UNL A   1      37.779  31.577  28.651  1.00  0.00    -0.203 F 
ATOM     79  F   UNL A   1      37.380  31.049  34.064  1.00  0.00    -0.200 F 
ATOM     80  C   UNL A   1      36.474  31.808  32.020  1.00  0.00     0.200 A 
ATOM     81  F   UNL A   1      35.605  32.533  29.948  1.00  0.00    -0.200 F 
ATOM     82  F   UNL A   1      35.378  32.250  32.651  1.00  0.00    -0.200 F 
ENDBRANCH  48  72
BRANCH  60  83
ATOM     83  C   UNL A   1      45.080  33.542  29.363  1.00  0.00     0.064 A 
ATOM     84  C   UNL A   1      44.939  34.654  28.520  1.00  0.00     0.173 A 
ATOM     85  C   UNL A   1      45.772  33.720  30.574  1.00  0.00     0.173 A 
ATOM     86  F   UNL A   1      44.297  34.536  27.349  1.00  0.00    -0.203 F 
ATOM     87  C   UNL A   1      45.480  35.889  28.868  1.00  0.00     0.198 A 
ATOM     88  C   UNL A   1      46.277  34.966  30.935  1.00  0.00     0.198 A 
ATOM     89  F   UNL A   1      45.925  32.694  31.423  1.00  0.00    -0.203 F 
ATOM     90  F   UNL A   1      45.367  36.927  28.027  1.00  0.00    -0.200 F 
ATOM     91  C   UNL A   1      46.136  36.048  30.080  1.00  0.00     0.200 A 
ATOM     92  F   UNL A   1      46.890  35.122  32.116  1.00  0.00    -0.200 F 
ATOM     93  F   UNL A   1      46.635  37.244  30.422  1.00  0.00    -0.200 F 
ENDBRANCH  60  83
ENDBRANCH  34  35
ENDBRANCH  27  29
ENDBRANCH  26  27
ENDBRANCH  25  26
ENDBRANCH   1  25
TORSDOF 16
ENDMDL
MODEL 2
REMARK VINA RESULT:     -11.7      4.380      9.898
REMARK SMILES C#Cc1cc(Cl)cc2c1O[C@H](C(F)(F)F)C(C(=O)OCCOCCOC(=O)c1ccc(-c3c4nc(c(-c5c(F)c(F)c(F)c(F)c5F)c5ccc([nH]5)c(-c5c(F)c(F)c(F)c(F)c5F)c5nc(c(-c6c(F)c(F)c(F)c(F)c6F)c6ccc3[nH]6)C=C5)C=C4)cc1)=C2
REMARK SMILES IDX 23 1 22 2 21 3 20 4 19 5 17 6 18 7 16 8 3 9 4 10 9 11 5 12
REMARK SMILES IDX 8 13 10 14 6 15 7 16 91 17 11 18 2 19 1 20 12 21 13 22 14 23
REMARK SMILES IDX 15 24 24 25 25 26 26 27 27 28 28 29 29 30 90 31 30 32 89 33
REMARK SMILES IDX 31 34 32 35 33 36 83 37 34 38 88 39 82 40 84 41 35 42 87 43
REMARK SMILES IDX 81 44 80 45 36 47 68 48 48 49 67 50 49 51 52 52 66 53 85 54
REMARK SMILES IDX 50 55 51 56 65 58 86 59 53 60 37 61 38 62 46 63 39 64 40 65
REMARK SMILES IDX 44 66 47 67 41 68 42 69 45 70 43 71 69 72 70 73 78 74 71 75
REMARK SMILES IDX 72 76 76 77 79 78 73 79 74 80 77 81 75 82 54 83 55 84 63 85
REMARK SMILES IDX 56 86 57 87 61 88 64 89 58 90 59 91 62 92 60 93
REMARK H PARENT 84 46 52 57
REMARK Flexibility Score: inf
ROOT
ATOM      1  C   UNL A   1      31.296  31.914  26.454  1.00  0.00     0.202 C 
ENDROOT
BRANCH   1   2
ATOM      2  O   UNL A   1      31.760  30.625  26.846  1.00  0.00    -0.374 OA
BRANCH   2   3
ATOM      3  C   UNL A   1      32.614  29.896  25.974  1.00  0.00     0.202 C 
BRANCH   3   4
ATOM      4  C   UNL A   1      32.000  28.922  24.965  1.00  0.00     0.261 C 
BRANCH   4   5
ATOM      5  O   UNL A   1      32.570  27.609  25.051  1.00  0.00    -0.460 OA
BRANCH   5   6
ATOM      6  C   UNL A   1      31.955  26.802  25.948  1.00  0.00     0.338 C 
ATOM      7  O   UNL A   1      31.075  27.116  26.731  1.00  0.00    -0.246 OA
BRANCH   6   8
ATOM      8  C   UNL A   1      32.409  25.413  25.758  1.00  0.00     0.087 C 
ATOM      9  C   UNL A   1      33.944  21.680  24.715  1.00  0.00     0.068 A 
ATOM     10  C   UNL A   1      35.327  21.473  24.770  1.00  0.00     0.041 A 
ATOM     11  C   UNL A   1      33.396  22.889  25.172  1.00  0.00     0.143 A 
ATOM     12  C   UNL A   1      36.156  22.460  25.297  1.00  0.00     0.043 A 
ATOM     13  C   UNL A   1      34.244  23.888  25.662  1.00  0.00     0.020 A 
ATOM     14  O   UNL A   1      32.035  23.036  25.122  1.00  0.00    -0.474 OA
ATOM     15  Cl  UNL A   1      37.856  22.209  25.357  1.00  0.00    -0.084 Cl
ATOM     16  C   UNL A   1      35.623  23.663  25.748  1.00  0.00     0.032 A 
ATOM     17  C   UNL A   1      33.709  25.194  25.993  1.00  0.00     0.027 C 
ATOM     18  C   UNL A   1      31.450  24.354  25.295  1.00  0.00     0.316 C 
BRANCH   9  19
ATOM     19  C   UNL A   1      33.120  20.663  24.132  1.00  0.00    -0.067 C 
ATOM     20  C   UNL A   1      32.446  19.815  23.612  1.00  0.00     0.010 C 
ENDBRANCH   9  19
BRANCH  18  21
ATOM     21  C   UNL A   1      30.728  24.741  23.996  1.00  0.00     0.430 C 
ATOM     22  F   UNL A   1      31.568  25.352  23.127  1.00  0.00    -0.167 F 
ATOM     23  F   UNL A   1      30.236  23.654  23.354  1.00  0.00    -0.167 F 
ATOM     24  F   UNL A   1      29.693  25.579  24.224  1.00  0.00    -0.167 F 
ENDBRANCH  18  21
ENDBRANCH   6   8
ENDBRANCH   5   6
ENDBRANCH   4   5
ENDBRANCH   3   4
ENDBRANCH   2   3
ENDBRANCH   1   2
BRANCH   1  25
ATOM     25  C   UNL A   1      32.080  33.170  26.859  1.00  0.00     0.261 C 
BRANCH  25  26
ATOM     26  O   UNL A   1      32.915  32.995  28.016  1.00  0.00    -0.460 OA
BRANCH  26  27
ATOM     27  C   UNL A   1      34.027  33.773  28.021  1.00  0.00     0.338 C 
ATOM     28  O   UNL A   1      34.089  34.984  27.899  1.00  0.00    -0.246 OA
BRANCH  27  29
ATOM     29  C   UNL A   1      35.198  32.960  28.387  1.00  0.00     0.060 A 
ATOM     30  C   UNL A   1      34.975  31.687  28.929  1.00  0.00     0.016 A 
ATOM     31  C   UNL A   1      36.487  33.480  28.294  1.00  0.00     0.016 A 
ATOM     32  C   UNL A   1      36.044  30.940  29.411  1.00  0.00     0.010 A 
ATOM     33  C   UNL A   1      37.558  32.734  28.791  1.00  0.00     0.010 A 
ATOM     34  C   UNL A   1      37.337  31.476  29.381  1.00  0.00    -0.014 A 
BRANCH  34  35
ATOM     35  C   UNL A   1      38.433  30.782  30.098  1.00  0.00     0.031 A 
ATOM     36  C   UNL A   1      38.698  31.134  31.536  1.00  0.00     0.074 A 
ATOM     37  C   UNL A   1      39.152  29.824  29.488  1.00  0.00     0.049 A 
ATOM     38  N   UNL A   1      39.632  30.690  32.338  1.00  0.00    -0.248 NA
ATOM     39  C   UNL A   1      37.793  32.116  32.154  1.00  0.00     0.031 C 
ATOM     40  C   UNL A   1      38.947  29.361  28.117  1.00  0.00     0.029 A 
ATOM     41  N   UNL A   1      40.202  29.067  29.946  1.00  0.00    -0.354 N 
ATOM     42  C   UNL A   1      39.426  31.337  33.549  1.00  0.00     0.074 A 
ATOM     43  C   UNL A   1      38.308  32.236  33.369  1.00  0.00     0.031 C 
ATOM     44  C   UNL A   1      39.843  28.398  27.844  1.00  0.00     0.029 A 
ATOM     45  C   UNL A   1      40.712  28.207  29.004  1.00  0.00     0.049 A 
ATOM     46  H   UNL A   1      40.557  29.136  30.861  1.00  0.00     0.167 HD
ATOM     47  C   UNL A   1      40.100  31.179  34.712  1.00  0.00     0.037 A 
ATOM     48  C   UNL A   1      41.770  27.376  29.069  1.00  0.00     0.037 A 
ATOM     49  C   UNL A   1      41.207  30.275  34.888  1.00  0.00     0.049 A 
ATOM     50  C   UNL A   1      42.565  27.296  30.348  1.00  0.00     0.074 A 
ATOM     51  C   UNL A   1      41.951  30.042  36.031  1.00  0.00     0.029 A 
ATOM     52  N   UNL A   1      41.727  29.457  33.897  1.00  0.00    -0.354 N 
ATOM     53  N   UNL A   1      42.356  27.898  31.494  1.00  0.00    -0.248 NA
ATOM     54  C   UNL A   1      43.745  26.417  30.345  1.00  0.00     0.031 C 
ATOM     55  C   UNL A   1      42.960  29.130  35.715  1.00  0.00     0.029 A 
ATOM     56  C   UNL A   1      42.803  28.740  34.395  1.00  0.00     0.049 A 
ATOM     57  H   UNL A   1      41.383  29.395  32.976  1.00  0.00     0.167 HD
ATOM     58  C   UNL A   1      43.352  27.449  32.352  1.00  0.00     0.074 A 
ATOM     59  C   UNL A   1      44.155  26.508  31.602  1.00  0.00     0.031 C 
ATOM     60  C   UNL A   1      43.582  27.790  33.644  1.00  0.00     0.037 A 
BRANCH  47  61
ATOM     61  C   UNL A   1      39.669  31.991  35.898  1.00  0.00     0.064 A 
ATOM     62  C   UNL A   1      40.281  33.214  36.212  1.00  0.00     0.173 A 
ATOM     63  C   UNL A   1      38.563  31.595  36.666  1.00  0.00     0.173 A 
ATOM     64  F   UNL A   1      41.349  33.631  35.517  1.00  0.00    -0.203 F 
ATOM     65  C   UNL A   1      39.803  34.008  37.250  1.00  0.00     0.198 A 
ATOM     66  C   UNL A   1      38.068  32.408  37.683  1.00  0.00     0.198 A 
ATOM     67  F   UNL A   1      37.938  30.436  36.405  1.00  0.00    -0.203 F 
ATOM     68  F   UNL A   1      40.417  35.162  37.546  1.00  0.00    -0.200 F 
ATOM     69  C   UNL A   1      38.689  33.612  37.974  1.00  0.00     0.200 A 
ATOM     70  F   UNL A   1      36.979  32.031  38.368  1.00  0.00    -0.200 F 
ATOM     71  F   UNL A   1      38.210  34.393  38.953  1.00  0.00    -0.200 F 
ENDBRANCH  47  61
BRANCH  48  72
ATOM     72  C   UNL A   1      42.144  26.551  27.889  1.00  0.00     0.064 A 
ATOM     73  C   UNL A   1      43.147  26.971  27.004  1.00  0.00     0.173 A 
ATOM     74  C   UNL A   1      41.499  25.337  27.609  1.00  0.00     0.173 A 
ATOM     75  F   UNL A   1      43.777  28.137  27.212  1.00  0.00    -0.203 F 
ATOM     76  C   UNL A   1      43.476  26.221  25.876  1.00  0.00     0.198 A 
ATOM     77  C   UNL A   1      41.854  24.569  26.501  1.00  0.00     0.198 A 
ATOM     78  F   UNL A   1      40.530  24.887  28.420  1.00  0.00    -0.203 F 
ATOM     79  F   UNL A   1      44.401  26.675  25.020  1.00  0.00    -0.200 F 
ATOM     80  C   UNL A   1      42.834  25.017  25.630  1.00  0.00     0.200 A 
ATOM     81  F   UNL A   1      41.242  23.398  26.276  1.00  0.00    -0.200 F 
ATOM     82  F   UNL A   1      43.156  24.293  24.549  1.00  0.00    -0.200 F 
ENDBRANCH  48  72
BRANCH  60  83
ATOM     83  C   UNL A   1      44.729  27.126  34.354  1.00  0.00     0.064 A 
ATOM     84  C   UNL A   1      46.000  27.716  34.413  1.00  0.00     0.173 A 
ATOM     85  C   UNL A   1      44.529  25.926  35.057  1.00  0.00     0.173 A 
ATOM     86  F   UNL A   1      46.246  28.855  33.751  1.00  0.00    -0.203 F 
ATOM     87  C   UNL A   1      47.032  27.121  35.135  1.00  0.00     0.198 A 
ATOM     88  C   UNL A   1      45.553  25.356  35.809  1.00  0.00     0.198 A 
ATOM     89  F   UNL A   1      43.330  25.325  35.045  1.00  0.00    -0.203 F 
ATOM     90  F   UNL A   1      48.249  27.683  35.143  1.00  0.00    -0.200 F 
ATOM     91  C   UNL A   1      46.805  25.950  35.842  1.00  0.00     0.200 A 
ATOM     92  F   UNL A   1      45.324  24.237  36.511  1.00  0.00    -0.200 F 
ATOM     93  F   UNL A   1      47.793  25.394  36.555  1.00  0.00    -0.200 F 
ENDBRANCH  60  83
ENDBRANCH  34  35
ENDBRANCH  27  29
ENDBRANCH  26  27
ENDBRANCH  25  26
ENDBRANCH   1  25
TORSDOF 16
ENDMDL
MODEL 3
REMARK VINA RESULT:     -11.7      4.239      7.515
REMARK SMILES C#Cc1cc(Cl)cc2c1O[C@H](C(F)(F)F)C(C(=O)OCCOCCOC(=O)c1ccc(-c3c4nc(c(-c5c(F)c(F)c(F)c(F)c5F)c5ccc([nH]5)c(-c5c(F)c(F)c(F)c(F)c5F)c5nc(c(-c6c(F)c(F)c(F)c(F)c6F)c6ccc3[nH]6)C=C5)C=C4)cc1)=C2
REMARK SMILES IDX 23 1 22 2 21 3 20 4 19 5 17 6 18 7 16 8 3 9 4 10 9 11 5 12
REMARK SMILES IDX 8 13 10 14 6 15 7 16 91 17 11 18 2 19 1 20 12 21 13 22 14 23
REMARK SMILES IDX 15 24 24 25 25 26 26 27 27 28 28 29 29 30 90 31 30 32 89 33
REMARK SMILES IDX 31 34 32 35 33 36 83 37 34 38 88 39 82 40 84 41 35 42 87 43
REMARK SMILES IDX 81 44 80 45 36 47 68 48 48 49 67 50 49 51 52 52 66 53 85 54
REMARK SMILES IDX 50 55 51 56 65 58 86 59 53 60 37 61 38 62 46 63 39 64 40 65
REMARK SMILES IDX 44 66 47 67 41 68 42 69 45 70 43 71 69 72 70 73 78 74 71 75
REMARK SMILES IDX 72 76 76 77 79 78 73 79 74 80 77 81 75 82 54 83 55 84 63 85
REMARK SMILES IDX 56 86 57 87 61 88 64 89 58 90 59 91 62 92 60 93
REMARK H PARENT 84 46 52 57
REMARK Flexibility Score: inf
ROOT
ATOM      1  C   UNL A   1      30.950  31.063  25.376  1.00  0.00     0.202 C 
ENDROOT
BRANCH   1   2
ATOM      2  O   UNL A   1      31.408  29.716  25.295  1.00  0.00    -0.374 OA
BRANCH   2   3
ATOM      3  C   UNL A   1      30.950  28.887  24.234  1.00  0.00     0.202 C 
BRANCH   3   4
ATOM      4  C   UNL A   1      30.963  27.366  24.413  1.00  0.00     0.261 C 
BRANCH   4   5
ATOM      5  O   UNL A   1      32.155  26.898  25.058  1.00  0.00    -0.460 OA
BRANCH   5   6
ATOM      6  C   UNL A   1      33.103  26.450  24.200  1.00  0.00     0.338 C 
ATOM      7  O   UNL A   1      33.646  27.087  23.313  1.00  0.00    -0.246 OA
BRANCH   6   8
ATOM      8  C   UNL A   1      33.507  25.084  24.576  1.00  0.00     0.087 C 
ATOM      9  C   UNL A   1      34.949  21.210  25.120  1.00  0.00     0.068 A 
ATOM     10  C   UNL A   1      36.312  21.022  25.377  1.00  0.00     0.041 A 
ATOM     11  C   UNL A   1      34.422  22.510  25.049  1.00  0.00     0.143 A 
ATOM     12  C   UNL A   1      37.139  22.123  25.583  1.00  0.00     0.043 A 
ATOM     13  C   UNL A   1      35.271  23.608  25.217  1.00  0.00     0.020 A 
ATOM     14  O   UNL A   1      33.078  22.644  24.821  1.00  0.00    -0.474 OA
ATOM     15  Cl  UNL A   1      38.815  21.891  25.890  1.00  0.00    -0.084 Cl
ATOM     16  C   UNL A   1      36.626  23.414  25.510  1.00  0.00     0.032 A 
ATOM     17  C   UNL A   1      34.771  24.950  24.995  1.00  0.00     0.027 C 
ATOM     18  C   UNL A   1      32.542  23.941  24.443  1.00  0.00     0.316 C 
BRANCH   9  19
ATOM     19  C   UNL A   1      34.131  20.061  24.874  1.00  0.00    -0.067 C 
ATOM     20  C   UNL A   1      33.428  19.113  24.644  1.00  0.00     0.010 C 
ENDBRANCH   9  19
BRANCH  18  21
ATOM     21  C   UNL A   1      31.949  23.830  23.031  1.00  0.00     0.430 C 
ATOM     22  F   UNL A   1      31.581  22.557  22.749  1.00  0.00    -0.167 F 
ATOM     23  F   UNL A   1      30.837  24.591  22.892  1.00  0.00    -0.167 F 
ATOM     24  F   UNL A   1      32.828  24.221  22.082  1.00  0.00    -0.167 F 
ENDBRANCH  18  21
ENDBRANCH   6   8
ENDBRANCH   5   6
ENDBRANCH   4   5
ENDBRANCH   3   4
ENDBRANCH   2   3
ENDBRANCH   1   2
BRANCH   1  25
ATOM     25  C   UNL A   1      31.399  31.959  26.539  1.00  0.00     0.261 C 
BRANCH  25  26
ATOM     26  O   UNL A   1      32.619  31.538  27.170  1.00  0.00    -0.460 OA
BRANCH  26  27
ATOM     27  C   UNL A   1      33.438  32.558  27.534  1.00  0.00     0.338 C 
ATOM     28  O   UNL A   1      33.160  33.741  27.616  1.00  0.00    -0.246 OA
BRANCH  27  29
ATOM     29  C   UNL A   1      34.720  32.016  28.012  1.00  0.00     0.060 A 
ATOM     30  C   UNL A   1      34.769  30.667  28.386  1.00  0.00     0.016 A 
ATOM     31  C   UNL A   1      35.826  32.847  28.188  1.00  0.00     0.016 A 
ATOM     32  C   UNL A   1      35.921  30.148  28.968  1.00  0.00     0.010 A 
ATOM     33  C   UNL A   1      36.977  32.327  28.785  1.00  0.00     0.010 A 
ATOM     34  C   UNL A   1      37.017  30.985  29.207  1.00  0.00    -0.014 A 
BRANCH  34  35
ATOM     35  C   UNL A   1      38.147  30.493  30.030  1.00  0.00     0.031 A 
ATOM     36  C   UNL A   1      39.117  29.517  29.425  1.00  0.00     0.074 A 
ATOM     37  C   UNL A   1      38.328  30.944  31.284  1.00  0.00     0.049 A 
ATOM     38  N   UNL A   1      40.144  28.921  29.974  1.00  0.00    -0.248 NA
ATOM     39  C   UNL A   1      38.902  29.162  28.012  1.00  0.00     0.031 C 
ATOM     40  C   UNL A   1      37.486  31.933  31.954  1.00  0.00     0.029 A 
ATOM     41  N   UNL A   1      39.283  30.626  32.218  1.00  0.00    -0.354 N 
ATOM     42  C   UNL A   1      40.694  28.125  28.978  1.00  0.00     0.074 A 
ATOM     43  C   UNL A   1      39.866  28.277  27.803  1.00  0.00     0.031 C 
ATOM     44  C   UNL A   1      37.962  32.142  33.193  1.00  0.00     0.029 A 
ATOM     45  C   UNL A   1      39.115  31.272  33.418  1.00  0.00     0.049 A 
ATOM     46  H   UNL A   1      40.018  29.995  32.043  1.00  0.00     0.167 HD
ATOM     47  C   UNL A   1      41.804  27.352  29.037  1.00  0.00     0.037 A 
ATOM     48  C   UNL A   1      39.803  31.157  34.570  1.00  0.00     0.037 A 
ATOM     49  C   UNL A   1      42.630  27.212  30.208  1.00  0.00     0.049 A 
ATOM     50  C   UNL A   1      40.975  30.210  34.636  1.00  0.00     0.074 A 
ATOM     51  C   UNL A   1      43.777  26.455  30.363  1.00  0.00     0.029 A 
ATOM     52  N   UNL A   1      42.399  27.843  31.421  1.00  0.00    -0.354 N 
ATOM     53  N   UNL A   1      41.499  29.472  33.687  1.00  0.00    -0.248 NA
ATOM     54  C   UNL A   1      41.654  30.080  35.934  1.00  0.00     0.031 C 
ATOM     55  C   UNL A   1      44.205  26.577  31.687  1.00  0.00     0.029 A 
ATOM     56  C   UNL A   1      43.366  27.466  32.339  1.00  0.00     0.049 A 
ATOM     57  H   UNL A   1      41.658  28.465  31.603  1.00  0.00     0.167 HD
ATOM     58  C   UNL A   1      42.583  28.820  34.262  1.00  0.00     0.074 A 
ATOM     59  C   UNL A   1      42.655  29.263  35.637  1.00  0.00     0.031 C 
ATOM     60  C   UNL A   1      43.439  27.930  33.700  1.00  0.00     0.037 A 
BRANCH  47  61
ATOM     61  C   UNL A   1      42.206  26.593  27.807  1.00  0.00     0.064 A 
ATOM     62  C   UNL A   1      43.174  27.090  26.922  1.00  0.00     0.173 A 
ATOM     63  C   UNL A   1      41.696  25.307  27.567  1.00  0.00     0.173 A 
ATOM     64  F   UNL A   1      43.683  28.318  27.100  1.00  0.00    -0.203 F 
ATOM     65  C   UNL A   1      43.615  26.330  25.843  1.00  0.00     0.198 A 
ATOM     66  C   UNL A   1      42.164  24.537  26.505  1.00  0.00     0.198 A 
ATOM     67  F   UNL A   1      40.771  24.782  28.385  1.00  0.00    -0.203 F 
ATOM     68  F   UNL A   1      44.525  26.834  24.998  1.00  0.00    -0.200 F 
ATOM     69  C   UNL A   1      43.122  25.050  25.644  1.00  0.00     0.200 A 
ATOM     70  F   UNL A   1      41.699  23.293  26.326  1.00  0.00    -0.200 F 
ATOM     71  F   UNL A   1      43.571  24.307  24.623  1.00  0.00    -0.200 F 
ENDBRANCH  47  61
BRANCH  48  72
ATOM     72  C   UNL A   1      39.406  31.958  35.760  1.00  0.00     0.064 A 
ATOM     73  C   UNL A   1      38.434  31.488  36.653  1.00  0.00     0.173 A 
ATOM     74  C   UNL A   1      39.974  33.214  36.020  1.00  0.00     0.173 A 
ATOM     75  F   UNL A   1      37.841  30.303  36.436  1.00  0.00    -0.203 F 
ATOM     76  C   UNL A   1      38.030  32.250  37.748  1.00  0.00     0.198 A 
ATOM     77  C   UNL A   1      39.596  33.960  37.136  1.00  0.00     0.198 A 
ATOM     78  F   UNL A   1      40.906  33.715  35.198  1.00  0.00    -0.203 F 
ATOM     79  F   UNL A   1      37.060  31.798  38.554  1.00  0.00    -0.200 F 
ATOM     80  C   UNL A   1      38.617  33.482  37.993  1.00  0.00     0.200 A 
ATOM     81  F   UNL A   1      40.177  35.143  37.377  1.00  0.00    -0.200 F 
ATOM     82  F   UNL A   1      38.234  34.211  39.050  1.00  0.00    -0.200 F 
ENDBRANCH  48  72
BRANCH  60  83
ATOM     83  C   UNL A   1      44.552  27.390  34.554  1.00  0.00     0.064 A 
ATOM     84  C   UNL A   1      44.414  26.196  35.276  1.00  0.00     0.173 A 
ATOM     85  C   UNL A   1      45.803  28.031  34.578  1.00  0.00     0.173 A 
ATOM     86  F   UNL A   1      43.239  25.550  35.294  1.00  0.00    -0.203 F 
ATOM     87  C   UNL A   1      45.480  25.672  36.004  1.00  0.00     0.198 A 
ATOM     88  C   UNL A   1      46.876  27.484  35.277  1.00  0.00     0.198 A 
ATOM     89  F   UNL A   1      45.994  29.169  33.896  1.00  0.00    -0.203 F 
ATOM     90  F   UNL A   1      45.311  24.551  36.719  1.00  0.00    -0.200 F 
ATOM     91  C   UNL A   1      46.712  26.308  35.993  1.00  0.00     0.200 A 
ATOM     92  F   UNL A   1      48.072  28.088  35.245  1.00  0.00    -0.200 F 
ATOM     93  F   UNL A   1      47.742  25.790  36.676  1.00  0.00    -0.200 F 
ENDBRANCH  60  83
ENDBRANCH  34  35
ENDBRANCH  27  29
ENDBRANCH  26  27
ENDBRANCH  25  26
ENDBRANCH   1  25
TORSDOF 16
ENDMDL
