MODEL 1
REMARK VINA RESULT:      -9.7      0.000      0.000
REMARK SMILES O=C(CCCC[C@@H]1CCSS1)OCCOCCOC(=O)c1ccc(-c2c3nc(c(-c4c(F)c(F)c(F)c(F)c4F)c4ccc([nH]4)c(-c4c(F)c(F)c(F)c(F)c4F)c4nc(c(-c5c(F)c(F)c(F)c(F)c5F)c5ccc2[nH]5)C=C4)C=C3)cc1
REMARK SMILES IDX 14 1 13 2 12 3 2 4 1 5 3 6 4 7 5 8 6 9 7 10 8 11 11 12 9 13
REMARK SMILES IDX 10 14 15 15 16 16 17 17 18 18 19 19 20 20 21 21 22 22 83 23
REMARK SMILES IDX 23 24 82 25 24 26 25 27 26 28 76 29 27 30 81 31 75 32 77 33
REMARK SMILES IDX 28 34 80 35 74 36 73 37 29 39 61 40 41 41 60 42 42 43 45 44
REMARK SMILES IDX 59 45 78 46 43 47 44 48 58 50 79 51 46 52 30 53 31 54 39 55
REMARK SMILES IDX 32 56 33 57 37 58 40 59 34 60 35 61 38 62 36 63 62 64 63 65
REMARK SMILES IDX 71 66 64 67 65 68 69 69 72 70 66 71 67 72 70 73 68 74 47 75
REMARK SMILES IDX 48 76 56 77 49 78 50 79 54 80 57 81 51 82 52 83 55 84 53 85
REMARK H PARENT 77 38 45 49
REMARK Flexibility Score: inf
ROOT
ATOM      1  C   UNL A   1      34.268  23.216  26.631  1.00  0.00     0.202 C 
ENDROOT
BRANCH   1   2
ATOM      2  C   UNL A   1      32.990  22.398  26.562  1.00  0.00     0.261 C 
BRANCH   2   3
ATOM      3  O   UNL A   1      31.951  23.059  25.835  1.00  0.00    -0.463 OA
BRANCH   3   4
ATOM      4  C   UNL A   1      30.994  23.838  26.382  1.00  0.00     0.305 C 
ATOM      5  O   UNL A   1      30.337  23.392  27.323  1.00  0.00    -0.252 OA
BRANCH   4   6
ATOM      6  C   UNL A   1      30.721  25.230  25.853  1.00  0.00     0.123 C 
BRANCH   6   7
ATOM      7  C   UNL A   1      31.320  25.575  24.494  1.00  0.00     0.012 C 
BRANCH   7   8
ATOM      8  C   UNL A   1      32.820  25.916  24.422  1.00  0.00     0.002 C 
BRANCH   8   9
ATOM      9  C   UNL A   1      33.266  27.386  24.538  1.00  0.00     0.015 C 
BRANCH   9  10
ATOM     10  C   UNL A   1      32.679  28.289  25.639  1.00  0.00     0.059 C 
ATOM     11  C   UNL A   1      32.068  29.622  25.202  1.00  0.00     0.027 C 
ATOM     12  S   UNL A   1      33.941  28.623  26.922  1.00  0.00    -0.091 SA
ATOM     13  C   UNL A   1      31.951  30.587  26.376  1.00  0.00     0.083 C 
ATOM     14  S   UNL A   1      33.583  30.619  27.140  1.00  0.00    -0.094 SA
ENDBRANCH   9  10
ENDBRANCH   8   9
ENDBRANCH   7   8
ENDBRANCH   6   7
ENDBRANCH   4   6
ENDBRANCH   3   4
ENDBRANCH   2   3
ENDBRANCH   1   2
BRANCH   1  15
ATOM     15  O   UNL A   1      35.452  22.439  26.494  1.00  0.00    -0.374 OA
BRANCH  15  16
ATOM     16  C   UNL A   1      35.323  21.308  25.627  1.00  0.00     0.202 C 
BRANCH  16  17
ATOM     17  C   UNL A   1      36.671  20.801  25.099  1.00  0.00     0.261 C 
BRANCH  17  18
ATOM     18  O   UNL A   1      37.685  21.809  25.256  1.00  0.00    -0.460 OA
BRANCH  18  19
ATOM     19  C   UNL A   1      38.791  21.420  25.938  1.00  0.00     0.338 C 
ATOM     20  O   UNL A   1      39.303  20.312  25.948  1.00  0.00    -0.246 OA
BRANCH  19  21
ATOM     21  C   UNL A   1      39.443  22.618  26.520  1.00  0.00     0.060 A 
ATOM     22  C   UNL A   1      38.950  23.879  26.149  1.00  0.00     0.016 A 
ATOM     23  C   UNL A   1      40.466  22.516  27.467  1.00  0.00     0.016 A 
ATOM     24  C   UNL A   1      39.493  25.039  26.700  1.00  0.00     0.010 A 
ATOM     25  C   UNL A   1      41.022  23.676  28.006  1.00  0.00     0.010 A 
ATOM     26  C   UNL A   1      40.560  24.941  27.601  1.00  0.00    -0.014 A 
BRANCH  26  27
ATOM     27  C   UNL A   1      41.365  26.138  27.934  1.00  0.00     0.031 A 
ATOM     28  C   UNL A   1      40.669  27.260  28.651  1.00  0.00     0.074 A 
ATOM     29  C   UNL A   1      42.657  26.246  27.584  1.00  0.00     0.049 A 
ATOM     30  N   UNL A   1      41.096  28.460  28.936  1.00  0.00    -0.248 NA
ATOM     31  C   UNL A   1      39.290  26.988  29.091  1.00  0.00     0.031 C 
ATOM     32  C   UNL A   1      43.444  25.213  26.918  1.00  0.00     0.029 A 
ATOM     33  N   UNL A   1      43.524  27.301  27.719  1.00  0.00    -0.354 N 
ATOM     34  C   UNL A   1      40.034  29.093  29.568  1.00  0.00     0.074 A 
ATOM     35  C   UNL A   1      38.935  28.154  29.605  1.00  0.00     0.031 C 
ATOM     36  C   UNL A   1      44.674  25.697  26.672  1.00  0.00     0.029 A 
ATOM     37  C   UNL A   1      44.745  27.085  27.130  1.00  0.00     0.049 A 
ATOM     38  H   UNL A   1      43.294  28.134  28.192  1.00  0.00     0.167 HD
ATOM     39  C   UNL A   1      39.982  30.346  30.075  1.00  0.00     0.037 A 
ATOM     40  C   UNL A   1      45.783  27.928  26.951  1.00  0.00     0.037 A 
ATOM     41  C   UNL A   1      41.078  31.273  30.033  1.00  0.00     0.049 A 
ATOM     42  C   UNL A   1      45.683  29.341  27.471  1.00  0.00     0.074 A 
ATOM     43  C   UNL A   1      41.143  32.555  30.546  1.00  0.00     0.029 A 
ATOM     44  N   UNL A   1      42.301  31.018  29.430  1.00  0.00    -0.354 N 
ATOM     45  N   UNL A   1      44.691  29.925  28.101  1.00  0.00    -0.248 NA
ATOM     46  C   UNL A   1      46.848  30.213  27.256  1.00  0.00     0.031 C 
ATOM     47  C   UNL A   1      42.386  33.097  30.203  1.00  0.00     0.029 A 
ATOM     48  C   UNL A   1      43.118  32.131  29.530  1.00  0.00     0.049 A 
ATOM     49  H   UNL A   1      42.550  30.171  28.995  1.00  0.00     0.167 HD
ATOM     50  C   UNL A   1      45.120  31.217  28.380  1.00  0.00     0.074 A 
ATOM     51  C   UNL A   1      46.465  31.331  27.859  1.00  0.00     0.031 C 
ATOM     52  C   UNL A   1      44.460  32.219  29.013  1.00  0.00     0.037 A 
BRANCH  39  53
ATOM     53  C   UNL A   1      38.682  30.791  30.676  1.00  0.00     0.064 A 
ATOM     54  C   UNL A   1      38.446  30.733  32.058  1.00  0.00     0.173 A 
ATOM     55  C   UNL A   1      37.655  31.281  29.856  1.00  0.00     0.173 A 
ATOM     56  F   UNL A   1      39.387  30.252  32.885  1.00  0.00    -0.203 F 
ATOM     57  C   UNL A   1      37.219  31.118  32.592  1.00  0.00     0.198 A 
ATOM     58  C   UNL A   1      36.442  31.695  30.395  1.00  0.00     0.198 A 
ATOM     59  F   UNL A   1      37.828  31.354  28.527  1.00  0.00    -0.203 F 
ATOM     60  F   UNL A   1      36.994  30.997  33.908  1.00  0.00    -0.200 F 
ATOM     61  C   UNL A   1      36.221  31.604  31.761  1.00  0.00     0.200 A 
ATOM     62  F   UNL A   1      35.482  32.174  29.592  1.00  0.00    -0.200 F 
ATOM     63  F   UNL A   1      35.040  31.975  32.276  1.00  0.00    -0.200 F 
ENDBRANCH  39  53
BRANCH  40  64
ATOM     64  C   UNL A   1      46.995  27.467  26.223  1.00  0.00     0.064 A 
ATOM     65  C   UNL A   1      47.133  27.668  24.844  1.00  0.00     0.173 A 
ATOM     66  C   UNL A   1      48.037  26.810  26.894  1.00  0.00     0.173 A 
ATOM     67  F   UNL A   1      46.152  28.267  24.153  1.00  0.00    -0.203 F 
ATOM     68  C   UNL A   1      48.262  27.218  24.160  1.00  0.00     0.198 A 
ATOM     69  C   UNL A   1      49.178  26.387  26.215  1.00  0.00     0.198 A 
ATOM     70  F   UNL A   1      47.954  26.589  28.215  1.00  0.00    -0.203 F 
ATOM     71  F   UNL A   1      48.350  27.387  22.834  1.00  0.00    -0.200 F 
ATOM     72  C   UNL A   1      49.287  26.584  24.847  1.00  0.00     0.200 A 
ATOM     73  F   UNL A   1      50.171  25.785  26.886  1.00  0.00    -0.200 F 
ATOM     74  F   UNL A   1      50.375  26.160  24.190  1.00  0.00    -0.200 F 
ENDBRANCH  40  64
BRANCH  52  75
ATOM     75  C   UNL A   1      45.190  33.514  29.218  1.00  0.00     0.064 A 
ATOM     76  C   UNL A   1      45.081  34.575  28.307  1.00  0.00     0.173 A 
ATOM     77  C   UNL A   1      45.946  33.722  30.382  1.00  0.00     0.173 A 
ATOM     78  F   UNL A   1      44.380  34.422  27.174  1.00  0.00    -0.203 F 
ATOM     79  C   UNL A   1      45.714  35.792  28.549  1.00  0.00     0.198 A 
ATOM     80  C   UNL A   1      46.552  34.950  30.634  1.00  0.00     0.198 A 
ATOM     81  F   UNL A   1      46.074  32.743  31.289  1.00  0.00    -0.203 F 
ATOM     82  F   UNL A   1      45.625  36.781  27.649  1.00  0.00    -0.200 F 
ATOM     83  C   UNL A   1      46.440  35.981  29.715  1.00  0.00     0.200 A 
ATOM     84  F   UNL A   1      47.239  35.136  31.771  1.00  0.00    -0.200 F 
ATOM     85  F   UNL A   1      47.034  37.159  29.953  1.00  0.00    -0.200 F 
ENDBRANCH  52  75
ENDBRANCH  26  27
ENDBRANCH  19  21
ENDBRANCH  18  19
ENDBRANCH  17  18
ENDBRANCH  16  17
ENDBRANCH  15  16
ENDBRANCH   1  15
TORSDOF 18
ENDMDL
MODEL 2
REMARK VINA RESULT:      -9.6      4.787      7.535
REMARK SMILES O=C(CCCC[C@@H]1CCSS1)OCCOCCOC(=O)c1ccc(-c2c3nc(c(-c4c(F)c(F)c(F)c(F)c4F)c4ccc([nH]4)c(-c4c(F)c(F)c(F)c(F)c4F)c4nc(c(-c5c(F)c(F)c(F)c(F)c5F)c5ccc2[nH]5)C=C4)C=C3)cc1
REMARK SMILES IDX 14 1 13 2 12 3 2 4 1 5 3 6 4 7 5 8 6 9 7 10 8 11 11 12 9 13
REMARK SMILES IDX 10 14 15 15 16 16 17 17 18 18 19 19 20 20 21 21 22 22 83 23
REMARK SMILES IDX 23 24 82 25 24 26 25 27 26 28 76 29 27 30 81 31 75 32 77 33
REMARK SMILES IDX 28 34 80 35 74 36 73 37 29 39 61 40 41 41 60 42 42 43 45 44
REMARK SMILES IDX 59 45 78 46 43 47 44 48 58 50 79 51 46 52 30 53 31 54 39 55
REMARK SMILES IDX 32 56 33 57 37 58 40 59 34 60 35 61 38 62 36 63 62 64 63 65
REMARK SMILES IDX 71 66 64 67 65 68 69 69 72 70 66 71 67 72 70 73 68 74 47 75
REMARK SMILES IDX 48 76 56 77 49 78 50 79 54 80 57 81 51 82 52 83 55 84 53 85
REMARK H PARENT 77 38 45 49
REMARK Flexibility Score: inf
ROOT
ATOM      1  C   UNL A   1      33.125  30.133  26.270  1.00  0.00     0.202 C 
ENDROOT
BRANCH   1   2
ATOM      2  C   UNL A   1      33.005  28.952  27.217  1.00  0.00     0.261 C 
BRANCH   2   3
ATOM      3  O   UNL A   1      32.122  27.939  26.726  1.00  0.00    -0.463 OA
BRANCH   3   4
ATOM      4  C   UNL A   1      32.511  26.793  26.129  1.00  0.00     0.305 C 
ATOM      5  O   UNL A   1      33.657  26.718  25.685  1.00  0.00    -0.252 OA
BRANCH   4   6
ATOM      6  C   UNL A   1      31.563  25.620  25.995  1.00  0.00     0.123 C 
BRANCH   6   7
ATOM      7  C   UNL A   1      30.081  25.951  25.853  1.00  0.00     0.012 C 
BRANCH   7   8
ATOM      8  C   UNL A   1      29.532  26.256  24.448  1.00  0.00     0.002 C 
BRANCH   8   9
ATOM      9  C   UNL A   1      30.320  27.198  23.518  1.00  0.00     0.015 C 
BRANCH   9  10
ATOM     10  C   UNL A   1      29.571  28.146  22.563  1.00  0.00     0.059 C 
ATOM     11  C   UNL A   1      30.215  29.505  22.275  1.00  0.00     0.027 C 
ATOM     12  S   UNL A   1      27.864  28.429  23.160  1.00  0.00    -0.091 SA
ATOM     13  C   UNL A   1      29.196  30.491  21.715  1.00  0.00     0.083 C 
ATOM     14  S   UNL A   1      27.801  30.444  22.853  1.00  0.00    -0.094 SA
ENDBRANCH   9  10
ENDBRANCH   8   9
ENDBRANCH   7   8
ENDBRANCH   6   7
ENDBRANCH   4   6
ENDBRANCH   3   4
ENDBRANCH   2   3
ENDBRANCH   1   2
BRANCH   1  15
ATOM     15  O   UNL A   1      31.878  30.738  25.948  1.00  0.00    -0.374 OA
BRANCH  15  16
ATOM     16  C   UNL A   1      31.422  31.702  26.903  1.00  0.00     0.202 C 
BRANCH  16  17
ATOM     17  C   UNL A   1      32.222  33.010  26.859  1.00  0.00     0.261 C 
BRANCH  17  18
ATOM     18  O   UNL A   1      32.954  33.194  28.083  1.00  0.00    -0.460 OA
BRANCH  18  19
ATOM     19  C   UNL A   1      34.112  33.893  27.968  1.00  0.00     0.338 C 
ATOM     20  O   UNL A   1      34.239  35.077  27.702  1.00  0.00    -0.246 OA
BRANCH  19  21
ATOM     21  C   UNL A   1      35.234  33.044  28.438  1.00  0.00     0.060 A 
ATOM     22  C   UNL A   1      34.939  31.733  28.844  1.00  0.00     0.016 A 
ATOM     23  C   UNL A   1      36.558  33.489  28.414  1.00  0.00     0.016 A 
ATOM     24  C   UNL A   1      35.960  30.874  29.251  1.00  0.00     0.010 A 
ATOM     25  C   UNL A   1      37.578  32.637  28.837  1.00  0.00     0.010 A 
ATOM     26  C   UNL A   1      37.279  31.339  29.288  1.00  0.00    -0.014 A 
BRANCH  26  27
ATOM     27  C   UNL A   1      38.316  30.580  30.022  1.00  0.00     0.031 A 
ATOM     28  C   UNL A   1      38.538  30.933  31.466  1.00  0.00     0.074 A 
ATOM     29  C   UNL A   1      39.064  29.637  29.426  1.00  0.00     0.049 A 
ATOM     30  N   UNL A   1      39.464  30.526  32.292  1.00  0.00    -0.248 NA
ATOM     31  C   UNL A   1      37.586  31.894  32.049  1.00  0.00     0.031 C 
ATOM     32  C   UNL A   1      38.917  29.187  28.045  1.00  0.00     0.029 A 
ATOM     33  N   UNL A   1      40.120  28.908  29.911  1.00  0.00    -0.354 N 
ATOM     34  C   UNL A   1      39.219  31.196  33.484  1.00  0.00     0.074 A 
ATOM     35  C   UNL A   1      38.075  32.053  33.268  1.00  0.00     0.031 C 
ATOM     36  C   UNL A   1      39.873  28.279  27.781  1.00  0.00     0.029 A 
ATOM     37  C   UNL A   1      40.719  28.114  28.964  1.00  0.00     0.049 A 
ATOM     38  H   UNL A   1      40.422  28.949  30.847  1.00  0.00     0.167 HD
ATOM     39  C   UNL A   1      39.891  31.103  34.655  1.00  0.00     0.037 A 
ATOM     40  C   UNL A   1      41.841  27.372  29.039  1.00  0.00     0.037 A 
ATOM     41  C   UNL A   1      41.028  30.250  34.860  1.00  0.00     0.049 A 
ATOM     42  C   UNL A   1      42.610  27.327  30.337  1.00  0.00     0.074 A 
ATOM     43  C   UNL A   1      41.762  30.054  36.015  1.00  0.00     0.029 A 
ATOM     44  N   UNL A   1      41.605  29.458  33.877  1.00  0.00    -0.354 N 
ATOM     45  N   UNL A   1      42.357  27.933  31.472  1.00  0.00    -0.248 NA
ATOM     46  C   UNL A   1      43.822  26.494  30.364  1.00  0.00     0.031 C 
ATOM     47  C   UNL A   1      42.817  29.187  35.716  1.00  0.00     0.029 A 
ATOM     48  C   UNL A   1      42.706  28.795  34.392  1.00  0.00     0.049 A 
ATOM     49  H   UNL A   1      41.279  29.380  32.951  1.00  0.00     0.167 HD
ATOM     50  C   UNL A   1      43.356  27.536  32.353  1.00  0.00     0.074 A 
ATOM     51  C   UNL A   1      44.217  26.629  31.623  1.00  0.00     0.031 C 
ATOM     52  C   UNL A   1      43.543  27.887  33.649  1.00  0.00     0.037 A 
BRANCH  39  53
ATOM     53  C   UNL A   1      39.431  31.979  35.782  1.00  0.00     0.064 A 
ATOM     54  C   UNL A   1      39.962  33.261  35.988  1.00  0.00     0.173 A 
ATOM     55  C   UNL A   1      38.444  31.526  36.670  1.00  0.00     0.173 A 
ATOM     56  F   UNL A   1      40.923  33.732  35.178  1.00  0.00    -0.203 F 
ATOM     57  C   UNL A   1      39.546  34.044  37.061  1.00  0.00     0.198 A 
ATOM     58  C   UNL A   1      38.008  32.324  37.723  1.00  0.00     0.198 A 
ATOM     59  F   UNL A   1      37.906  30.307  36.519  1.00  0.00    -0.203 F 
ATOM     60  F   UNL A   1      40.110  35.241  37.274  1.00  0.00    -0.200 F 
ATOM     61  C   UNL A   1      38.565  33.578  37.923  1.00  0.00     0.200 A 
ATOM     62  F   UNL A   1      37.052  31.876  38.549  1.00  0.00    -0.200 F 
ATOM     63  F   UNL A   1      38.165  34.333  38.956  1.00  0.00    -0.200 F 
ENDBRANCH  39  53
BRANCH  40  64
ATOM     64  C   UNL A   1      42.323  26.632  27.842  1.00  0.00     0.064 A 
ATOM     65  C   UNL A   1      41.865  25.340  27.554  1.00  0.00     0.173 A 
ATOM     66  C   UNL A   1      43.258  27.202  26.965  1.00  0.00     0.173 A 
ATOM     67  F   UNL A   1      40.992  24.741  28.377  1.00  0.00    -0.203 F 
ATOM     68  C   UNL A   1      42.332  24.641  26.443  1.00  0.00     0.198 A 
ATOM     69  C   UNL A   1      43.703  26.514  25.838  1.00  0.00     0.198 A 
ATOM     70  F   UNL A   1      43.732  28.436  27.196  1.00  0.00    -0.203 F 
ATOM     71  F   UNL A   1      41.908  23.390  26.213  1.00  0.00    -0.200 F 
ATOM     72  C   UNL A   1      43.245  25.231  25.581  1.00  0.00     0.200 A 
ATOM     73  F   UNL A   1      44.577  27.093  25.003  1.00  0.00    -0.200 F 
ATOM     74  F   UNL A   1      43.688  24.561  24.509  1.00  0.00    -0.200 F 
ENDBRANCH  40  64
BRANCH  52  75
ATOM     75  C   UNL A   1      44.696  27.264  34.381  1.00  0.00     0.064 A 
ATOM     76  C   UNL A   1      45.939  27.906  34.484  1.00  0.00     0.173 A 
ATOM     77  C   UNL A   1      44.528  26.045  35.055  1.00  0.00     0.173 A 
ATOM     78  F   UNL A   1      46.153  29.068  33.847  1.00  0.00    -0.203 F 
ATOM     79  C   UNL A   1      46.975  27.341  35.222  1.00  0.00     0.198 A 
ATOM     80  C   UNL A   1      45.557  25.499  35.817  1.00  0.00     0.198 A 
ATOM     81  F   UNL A   1      43.356  25.395  34.997  1.00  0.00    -0.203 F 
ATOM     82  F   UNL A   1      48.166  27.954  35.278  1.00  0.00    -0.200 F 
ATOM     83  C   UNL A   1      46.781  26.145  35.896  1.00  0.00     0.200 A 
ATOM     84  F   UNL A   1      45.361  24.351  36.482  1.00  0.00    -0.200 F 
ATOM     85  F   UNL A   1      47.775  25.613  36.621  1.00  0.00    -0.200 F 
ENDBRANCH  52  75
ENDBRANCH  26  27
ENDBRANCH  19  21
ENDBRANCH  18  19
ENDBRANCH  17  18
ENDBRANCH  16  17
ENDBRANCH  15  16
ENDBRANCH   1  15
TORSDOF 18
ENDMDL
MODEL 3
REMARK VINA RESULT:      -9.6      3.551      8.297
REMARK SMILES O=C(CCCC[C@@H]1CCSS1)OCCOCCOC(=O)c1ccc(-c2c3nc(c(-c4c(F)c(F)c(F)c(F)c4F)c4ccc([nH]4)c(-c4c(F)c(F)c(F)c(F)c4F)c4nc(c(-c5c(F)c(F)c(F)c(F)c5F)c5ccc2[nH]5)C=C4)C=C3)cc1
REMARK SMILES IDX 14 1 13 2 12 3 2 4 1 5 3 6 4 7 5 8 6 9 7 10 8 11 11 12 9 13
REMARK SMILES IDX 10 14 15 15 16 16 17 17 18 18 19 19 20 20 21 21 22 22 83 23
REMARK SMILES IDX 23 24 82 25 24 26 25 27 26 28 76 29 27 30 81 31 75 32 77 33
REMARK SMILES IDX 28 34 80 35 74 36 73 37 29 39 61 40 41 41 60 42 42 43 45 44
REMARK SMILES IDX 59 45 78 46 43 47 44 48 58 50 79 51 46 52 30 53 31 54 39 55
REMARK SMILES IDX 32 56 33 57 37 58 40 59 34 60 35 61 38 62 36 63 62 64 63 65
REMARK SMILES IDX 71 66 64 67 65 68 69 69 72 70 66 71 67 72 70 73 68 74 47 75
REMARK SMILES IDX 48 76 56 77 49 78 50 79 54 80 57 81 51 82 52 83 55 84 53 85
REMARK H PARENT 77 38 45 49
REMARK Flexibility Score: inf
ROOT
ATOM      1  C   UNL A   1      35.096  32.470  27.664  1.00  0.00     0.202 C 
ENDROOT
BRANCH   1   2
ATOM      2  C   UNL A   1      33.942  31.529  27.962  1.00  0.00     0.261 C 
BRANCH   2   3
ATOM      3  O   UNL A   1      33.788  30.513  26.967  1.00  0.00    -0.463 OA
BRANCH   3   4
ATOM      4  C   UNL A   1      32.619  30.155  26.397  1.00  0.00     0.305 C 
ATOM      5  O   UNL A   1      31.708  30.982  26.348  1.00  0.00    -0.252 OA
BRANCH   4   6
ATOM      6  C   UNL A   1      32.417  28.764  25.834  1.00  0.00     0.123 C 
BRANCH   6   7
ATOM      7  C   UNL A   1      33.655  28.062  25.285  1.00  0.00     0.012 C 
BRANCH   7   8
ATOM      8  C   UNL A   1      33.544  26.573  24.909  1.00  0.00     0.002 C 
BRANCH   8   9
ATOM      9  C   UNL A   1      34.340  25.530  25.717  1.00  0.00     0.015 C 
BRANCH   9  10
ATOM     10  C   UNL A   1      33.725  24.150  26.017  1.00  0.00     0.059 C 
ATOM     11  C   UNL A   1      34.672  23.050  26.505  1.00  0.00     0.027 C 
ATOM     12  S   UNL A   1      32.821  23.528  24.552  1.00  0.00    -0.091 SA
ATOM     13  C   UNL A   1      34.053  21.669  26.325  1.00  0.00     0.083 C 
ATOM     14  S   UNL A   1      33.501  21.606  24.611  1.00  0.00    -0.094 SA
ENDBRANCH   9  10
ENDBRANCH   8   9
ENDBRANCH   7   8
ENDBRANCH   6   7
ENDBRANCH   4   6
ENDBRANCH   3   4
ENDBRANCH   2   3
ENDBRANCH   1   2
BRANCH   1  15
ATOM     15  O   UNL A   1      34.973  33.743  28.289  1.00  0.00    -0.374 OA
BRANCH  15  16
ATOM     16  C   UNL A   1      34.037  33.784  29.372  1.00  0.00     0.202 C 
BRANCH  16  17
ATOM     17  C   UNL A   1      34.712  33.745  30.748  1.00  0.00     0.261 C 
BRANCH  17  18
ATOM     18  O   UNL A   1      34.722  32.403  31.267  1.00  0.00    -0.460 OA
BRANCH  18  19
ATOM     19  C   UNL A   1      35.673  32.149  32.201  1.00  0.00     0.338 C 
ATOM     20  O   UNL A   1      35.595  32.328  33.405  1.00  0.00    -0.246 OA
BRANCH  19  21
ATOM     21  C   UNL A   1      36.781  31.396  31.565  1.00  0.00     0.060 A 
ATOM     22  C   UNL A   1      37.765  30.845  32.401  1.00  0.00     0.016 A 
ATOM     23  C   UNL A   1      36.824  31.166  30.187  1.00  0.00     0.016 A 
ATOM     24  C   UNL A   1      38.806  30.088  31.863  1.00  0.00     0.010 A 
ATOM     25  C   UNL A   1      37.874  30.424  29.645  1.00  0.00     0.010 A 
ATOM     26  C   UNL A   1      38.885  29.911  30.477  1.00  0.00    -0.014 A 
BRANCH  26  27
ATOM     27  C   UNL A   1      40.135  29.413  29.860  1.00  0.00     0.031 A 
ATOM     28  C   UNL A   1      41.251  30.401  29.669  1.00  0.00     0.074 A 
ATOM     29  C   UNL A   1      40.267  28.142  29.447  1.00  0.00     0.049 A 
ATOM     30  N   UNL A   1      42.386  30.265  29.037  1.00  0.00    -0.248 NA
ATOM     31  C   UNL A   1      41.044  31.732  30.264  1.00  0.00     0.031 C 
ATOM     32  C   UNL A   1      39.269  27.090  29.609  1.00  0.00     0.029 A 
ATOM     33  N   UNL A   1      41.298  27.532  28.776  1.00  0.00    -0.354 N 
ATOM     34  C   UNL A   1      43.018  31.498  29.140  1.00  0.00     0.074 A 
ATOM     35  C   UNL A   1      42.132  32.375  29.872  1.00  0.00     0.031 C 
ATOM     36  C   UNL A   1      39.722  25.968  29.022  1.00  0.00     0.029 A 
ATOM     37  C   UNL A   1      41.025  26.237  28.414  1.00  0.00     0.049 A 
ATOM     38  H   UNL A   1      42.151  27.981  28.574  1.00  0.00     0.167 HD
ATOM     39  C   UNL A   1      44.231  31.864  28.666  1.00  0.00     0.037 A 
ATOM     40  C   UNL A   1      41.733  25.384  27.646  1.00  0.00     0.037 A 
ATOM     41  C   UNL A   1      45.104  30.986  27.938  1.00  0.00     0.049 A 
ATOM     42  C   UNL A   1      43.057  25.831  27.077  1.00  0.00     0.074 A 
ATOM     43  C   UNL A   1      46.368  31.245  27.441  1.00  0.00     0.029 A 
ATOM     44  N   UNL A   1      44.795  29.679  27.591  1.00  0.00    -0.354 N 
ATOM     45  N   UNL A   1      43.669  26.985  27.205  1.00  0.00    -0.248 NA
ATOM     46  C   UNL A   1      43.791  24.857  26.254  1.00  0.00     0.031 C 
ATOM     47  C   UNL A   1      46.800  30.112  26.744  1.00  0.00     0.029 A 
ATOM     48  C   UNL A   1      45.832  29.127  26.858  1.00  0.00     0.049 A 
ATOM     49  H   UNL A   1      43.961  29.214  27.830  1.00  0.00     0.167 HD
ATOM     50  C   UNL A   1      44.865  26.867  26.508  1.00  0.00     0.074 A 
ATOM     51  C   UNL A   1      44.898  25.526  25.963  1.00  0.00     0.031 C 
ATOM     52  C   UNL A   1      45.848  27.784  26.335  1.00  0.00     0.037 A 
BRANCH  39  53
ATOM     53  C   UNL A   1      44.655  33.285  28.888  1.00  0.00     0.064 A 
ATOM     54  C   UNL A   1      44.372  34.297  27.959  1.00  0.00     0.173 A 
ATOM     55  C   UNL A   1      45.358  33.639  30.050  1.00  0.00     0.173 A 
ATOM     56  F   UNL A   1      43.722  34.007  26.822  1.00  0.00    -0.203 F 
ATOM     57  C   UNL A   1      44.806  35.603  28.168  1.00  0.00     0.198 A 
ATOM     58  C   UNL A   1      45.762  34.952  30.272  1.00  0.00     0.198 A 
ATOM     59  F   UNL A   1      45.656  32.709  30.969  1.00  0.00    -0.203 F 
ATOM     60  F   UNL A   1      44.577  36.541  27.238  1.00  0.00    -0.200 F 
ATOM     61  C   UNL A   1      45.494  35.931  29.327  1.00  0.00     0.200 A 
ATOM     62  F   UNL A   1      46.417  35.268  31.397  1.00  0.00    -0.200 F 
ATOM     63  F   UNL A   1      45.910  37.189  29.528  1.00  0.00    -0.200 F 
ENDBRANCH  39  53
BRANCH  40  64
ATOM     64  C   UNL A   1      41.193  24.032  27.348  1.00  0.00     0.064 A 
ATOM     65  C   UNL A   1      40.090  23.861  26.501  1.00  0.00     0.173 A 
ATOM     66  C   UNL A   1      41.766  22.882  27.911  1.00  0.00     0.173 A 
ATOM     67  F   UNL A   1      39.490  24.932  25.960  1.00  0.00    -0.203 F 
ATOM     68  C   UNL A   1      39.573  22.594  26.238  1.00  0.00     0.198 A 
ATOM     69  C   UNL A   1      41.266  21.613  27.625  1.00  0.00     0.198 A 
ATOM     70  F   UNL A   1      42.822  22.989  28.732  1.00  0.00    -0.203 F 
ATOM     71  F   UNL A   1      38.492  22.462  25.456  1.00  0.00    -0.200 F 
ATOM     72  C   UNL A   1      40.166  21.470  26.794  1.00  0.00     0.200 A 
ATOM     73  F   UNL A   1      41.850  20.529  28.156  1.00  0.00    -0.200 F 
ATOM     74  F   UNL A   1      39.672  20.251  26.534  1.00  0.00    -0.200 F 
ENDBRANCH  40  64
BRANCH  52  75
ATOM     75  C   UNL A   1      47.065  27.366  25.561  1.00  0.00     0.064 A 
ATOM     76  C   UNL A   1      47.195  27.633  24.190  1.00  0.00     0.173 A 
ATOM     77  C   UNL A   1      48.147  26.761  26.219  1.00  0.00     0.173 A 
ATOM     78  F   UNL A   1      46.185  28.198  23.514  1.00  0.00    -0.203 F 
ATOM     79  C   UNL A   1      48.359  27.294  23.505  1.00  0.00     0.198 A 
ATOM     80  C   UNL A   1      49.320  26.452  25.537  1.00  0.00     0.198 A 
ATOM     81  F   UNL A   1      48.076  26.494  27.532  1.00  0.00    -0.203 F 
ATOM     82  F   UNL A   1      48.450  27.526  22.188  1.00  0.00    -0.200 F 
ATOM     83  C   UNL A   1      49.423  26.714  24.180  1.00  0.00     0.200 A 
ATOM     84  F   UNL A   1      50.353  25.908  26.195  1.00  0.00    -0.200 F 
ATOM     85  F   UNL A   1      50.549  26.406  23.521  1.00  0.00    -0.200 F 
ENDBRANCH  52  75
ENDBRANCH  26  27
ENDBRANCH  19  21
ENDBRANCH  18  19
ENDBRANCH  17  18
ENDBRANCH  16  17
ENDBRANCH  15  16
ENDBRANCH   1  15
TORSDOF 18
ENDMDL
