MODEL 1
REMARK VINA RESULT:     -11.6      0.000      0.000
REMARK SMILES O=C(CC1(CC(=O)OCCOCCOC(=O)c2ccc(-c3c4nc(c(-c5c(F)c(F)c(F)c(F)c5F)c5ccc([nH]5)c(-c5c(F)c(F)c(F)c(F)c5F)c5nc(c(-c6c(F)c(F)c(F)c(F)c6F)c6ccc3[nH]6)C=C5)C=C4)cc2)CCCC1)NNc1ccc([N+](=O)[O-])cc1
REMARK SMILES IDX 9 1 8 2 6 3 7 4 5 5 4 6 80 7 83 8 81 9 82 10 3 11 2 12 1 13
REMARK SMILES IDX 84 14 85 16 86 18 87 19 94 20 88 21 93 22 89 23 90 24 91 25
REMARK SMILES IDX 92 26 10 27 11 28 12 29 13 30 14 31 15 32 16 33 17 34 18 35
REMARK SMILES IDX 79 36 19 37 78 38 20 39 21 40 22 41 72 42 23 43 77 44 71 45
REMARK SMILES IDX 73 46 24 47 76 48 70 49 69 50 25 52 57 53 37 54 56 55 38 56
REMARK SMILES IDX 41 57 55 58 74 59 39 60 40 61 54 63 75 64 42 65 26 66 27 67
REMARK SMILES IDX 35 68 28 69 29 70 33 71 36 72 30 73 31 74 34 75 32 76 58 77
REMARK SMILES IDX 59 78 67 79 60 80 61 81 65 82 68 83 62 84 63 85 66 86 64 87
REMARK SMILES IDX 43 88 44 89 52 90 45 91 46 92 50 93 53 94 47 95 48 96 51 97
REMARK SMILES IDX 49 98
REMARK H PARENT 84 15 85 17 73 51 41 62
REMARK Flexibility Score: inf
ROOT
ATOM      1  C   UNL A   1      34.981  23.303  23.203  1.00  0.00     0.261 C 
ENDROOT
BRANCH   1   2
ATOM      2  O   UNL A   1      33.609  23.695  22.975  1.00  0.00    -0.463 OA
BRANCH   2   3
ATOM      3  C   UNL A   1      33.413  25.004  22.675  1.00  0.00     0.306 C 
ATOM      4  O   UNL A   1      33.772  25.542  21.634  1.00  0.00    -0.252 OA
BRANCH   3   5
ATOM      5  C   UNL A   1      32.810  25.795  23.819  1.00  0.00     0.130 C 
BRANCH   5   6
ATOM      6  C   UNL A   1      31.266  26.009  23.923  1.00  0.00    -0.010 C 
ATOM      7  C   UNL A   1      30.844  26.920  22.744  1.00  0.00     0.008 C 
ATOM      8  C   UNL A   1      30.878  26.909  25.112  1.00  0.00     0.008 C 
ATOM      9  C   UNL A   1      31.256  28.330  23.163  1.00  0.00     0.001 C 
ATOM     10  C   UNL A   1      31.249  28.329  24.691  1.00  0.00     0.001 C 
BRANCH   6  11
ATOM     11  C   UNL A   1      30.528  24.650  23.959  1.00  0.00     0.109 C 
BRANCH  11  12
ATOM     12  C   UNL A   1      30.919  23.646  25.033  1.00  0.00     0.238 C 
ATOM     13  O   UNL A   1      30.626  23.814  26.215  1.00  0.00    -0.273 OA
ATOM     14  N   UNL A   1      31.573  22.524  24.566  1.00  0.00    -0.270 N 
ATOM     15  H   UNL A   1      31.842  22.448  23.622  1.00  0.00     0.191 HD
BRANCH  14  16
ATOM     16  N   UNL A   1      31.837  21.508  25.466  1.00  0.00    -0.299 N 
ATOM     17  H   UNL A   1      31.666  21.643  26.426  1.00  0.00     0.188 HD
BRANCH  16  18
ATOM     18  C   UNL A   1      32.348  20.288  25.014  1.00  0.00     0.055 A 
ATOM     19  C   UNL A   1      32.710  19.323  25.968  1.00  0.00     0.034 A 
ATOM     20  C   UNL A   1      32.418  19.936  23.658  1.00  0.00     0.034 A 
ATOM     21  C   UNL A   1      33.121  18.040  25.589  1.00  0.00     0.088 A 
ATOM     22  C   UNL A   1      32.846  18.663  23.261  1.00  0.00     0.088 A 
ATOM     23  C   UNL A   1      33.183  17.713  24.232  1.00  0.00     0.269 A 
BRANCH  23  24
ATOM     24  N   UNL A   1      33.586  16.362  23.823  1.00  0.00     0.062 N 
ATOM     25  O   UNL A   1      34.169  16.237  22.737  1.00  0.00    -0.258 OA
ATOM     26  O   UNL A   1      33.329  15.426  24.595  1.00  0.00    -0.258 OA
ENDBRANCH  23  24
ENDBRANCH  16  18
ENDBRANCH  14  16
ENDBRANCH  11  12
ENDBRANCH   6  11
ENDBRANCH   5   6
ENDBRANCH   3   5
ENDBRANCH   2   3
ENDBRANCH   1   2
BRANCH   1  27
ATOM     27  C   UNL A   1      35.421  23.488  24.657  1.00  0.00     0.202 C 
BRANCH  27  28
ATOM     28  O   UNL A   1      35.582  22.287  25.410  1.00  0.00    -0.374 OA
BRANCH  28  29
ATOM     29  C   UNL A   1      35.980  21.125  24.685  1.00  0.00     0.202 C 
BRANCH  29  30
ATOM     30  C   UNL A   1      37.358  20.575  25.070  1.00  0.00     0.261 C 
BRANCH  30  31
ATOM     31  O   UNL A   1      38.313  21.645  25.222  1.00  0.00    -0.460 OA
BRANCH  31  32
ATOM     32  C   UNL A   1      39.341  21.359  26.058  1.00  0.00     0.338 C 
ATOM     33  O   UNL A   1      39.964  20.314  26.135  1.00  0.00    -0.246 OA
BRANCH  32  34
ATOM     34  C   UNL A   1      39.751  22.567  26.800  1.00  0.00     0.060 A 
ATOM     35  C   UNL A   1      39.103  23.764  26.475  1.00  0.00     0.016 A 
ATOM     36  C   UNL A   1      40.816  22.560  27.704  1.00  0.00     0.016 A 
ATOM     37  C   UNL A   1      39.561  24.970  27.000  1.00  0.00     0.010 A 
ATOM     38  C   UNL A   1      41.279  23.776  28.228  1.00  0.00     0.010 A 
ATOM     39  C   UNL A   1      40.681  24.990  27.843  1.00  0.00    -0.014 A 
BRANCH  39  40
ATOM     40  C   UNL A   1      41.314  26.295  28.163  1.00  0.00     0.031 A 
ATOM     41  C   UNL A   1      42.726  26.552  27.705  1.00  0.00     0.074 A 
ATOM     42  C   UNL A   1      40.624  27.269  28.783  1.00  0.00     0.049 A 
ATOM     43  N   UNL A   1      43.463  27.626  27.843  1.00  0.00    -0.248 NA
ATOM     44  C   UNL A   1      43.394  25.454  26.988  1.00  0.00     0.031 C 
ATOM     45  C   UNL A   1      39.240  27.165  29.238  1.00  0.00     0.029 A 
ATOM     46  N   UNL A   1      40.999  28.544  29.129  1.00  0.00    -0.354 N 
ATOM     47  C   UNL A   1      44.670  27.338  27.220  1.00  0.00     0.074 A 
ATOM     48  C   UNL A   1      44.584  25.978  26.735  1.00  0.00     0.031 C 
ATOM     49  C   UNL A   1      38.881  28.330  29.809  1.00  0.00     0.029 A 
ATOM     50  C   UNL A   1      40.016  29.251  29.776  1.00  0.00     0.049 A 
ATOM     51  H   UNL A   1      41.888  28.917  28.932  1.00  0.00     0.167 HD
ATOM     52  C   UNL A   1      45.747  28.140  27.050  1.00  0.00     0.037 A 
ATOM     53  C   UNL A   1      40.035  30.497  30.291  1.00  0.00     0.037 A 
ATOM     54  C   UNL A   1      45.845  29.492  27.531  1.00  0.00     0.049 A 
ATOM     55  C   UNL A   1      41.275  31.343  30.151  1.00  0.00     0.074 A 
ATOM     56  C   UNL A   1      46.907  30.373  27.422  1.00  0.00     0.029 A 
ATOM     57  N   UNL A   1      44.840  30.160  28.211  1.00  0.00    -0.354 N 
ATOM     58  N   UNL A   1      42.406  31.062  29.552  1.00  0.00    -0.248 NA
ATOM     59  C   UNL A   1      41.237  32.683  30.758  1.00  0.00     0.031 C 
ATOM     60  C   UNL A   1      46.554  31.565  28.064  1.00  0.00     0.029 A 
ATOM     61  C   UNL A   1      45.260  31.438  28.539  1.00  0.00     0.049 A 
ATOM     62  H   UNL A   1      43.957  29.781  28.428  1.00  0.00     0.167 HD
ATOM     63  C   UNL A   1      43.199  32.195  29.684  1.00  0.00     0.074 A 
ATOM     64  C   UNL A   1      42.418  33.173  30.410  1.00  0.00     0.031 C 
ATOM     65  C   UNL A   1      44.464  32.405  29.245  1.00  0.00     0.037 A 
BRANCH  52  66
ATOM     66  C   UNL A   1      46.921  27.574  26.311  1.00  0.00     0.064 A 
ATOM     67  C   UNL A   1      47.059  27.742  24.925  1.00  0.00     0.173 A 
ATOM     68  C   UNL A   1      47.946  26.910  27.000  1.00  0.00     0.173 A 
ATOM     69  F   UNL A   1      46.097  28.359  24.222  1.00  0.00    -0.203 F 
ATOM     70  C   UNL A   1      48.176  27.255  24.253  1.00  0.00     0.198 A 
ATOM     71  C   UNL A   1      49.072  26.442  26.327  1.00  0.00     0.198 A 
ATOM     72  F   UNL A   1      47.862  26.727  28.325  1.00  0.00    -0.203 F 
ATOM     73  F   UNL A   1      48.274  27.402  22.924  1.00  0.00    -0.200 F 
ATOM     74  C   UNL A   1      49.185  26.613  24.955  1.00  0.00     0.200 A 
ATOM     75  F   UNL A   1      50.050  25.829  27.008  1.00  0.00    -0.200 F 
ATOM     76  F   UNL A   1      50.266  26.154  24.309  1.00  0.00    -0.200 F 
ENDBRANCH  52  66
BRANCH  53  77
ATOM     77  C   UNL A   1      38.845  31.027  31.007  1.00  0.00     0.064 A 
ATOM     78  C   UNL A   1      38.715  30.895  32.397  1.00  0.00     0.173 A 
ATOM     79  C   UNL A   1      37.793  31.633  30.307  1.00  0.00     0.173 A 
ATOM     80  F   UNL A   1      39.684  30.296  33.105  1.00  0.00    -0.203 F 
ATOM     81  C   UNL A   1      37.566  31.328  33.055  1.00  0.00     0.198 A 
ATOM     82  C   UNL A   1      36.656  32.090  30.970  1.00  0.00     0.198 A 
ATOM     83  F   UNL A   1      37.868  31.778  28.975  1.00  0.00    -0.203 F 
ATOM     84  F   UNL A   1      37.444  31.143  34.376  1.00  0.00    -0.200 F 
ATOM     85  C   UNL A   1      36.539  31.928  32.342  1.00  0.00     0.200 A 
ATOM     86  F   UNL A   1      35.670  32.675  30.276  1.00  0.00    -0.200 F 
ATOM     87  F   UNL A   1      35.432  32.339  32.974  1.00  0.00    -0.200 F 
ENDBRANCH  53  77
BRANCH  65  88
ATOM     88  C   UNL A   1      45.070  33.753  29.504  1.00  0.00     0.064 A 
ATOM     89  C   UNL A   1      44.907  34.815  28.603  1.00  0.00     0.173 A 
ATOM     90  C   UNL A   1      45.783  33.995  30.688  1.00  0.00     0.173 A 
ATOM     91  F   UNL A   1      44.246  34.627  27.451  1.00  0.00    -0.203 F 
ATOM     92  C   UNL A   1      45.455  36.067  28.869  1.00  0.00     0.198 A 
ATOM     93  C   UNL A   1      46.308  35.256  30.961  1.00  0.00     0.198 A 
ATOM     94  F   UNL A   1      45.959  33.013  31.584  1.00  0.00    -0.203 F 
ATOM     95  F   UNL A   1      45.320  37.058  27.977  1.00  0.00    -0.200 F 
ATOM     96  C   UNL A   1      46.149  36.288  30.050  1.00  0.00     0.200 A 
ATOM     97  F   UNL A   1      46.970  35.469  32.107  1.00  0.00    -0.200 F 
ATOM     98  F   UNL A   1      46.671  37.495  30.306  1.00  0.00    -0.200 F 
ENDBRANCH  65  88
ENDBRANCH  39  40
ENDBRANCH  32  34
ENDBRANCH  31  32
ENDBRANCH  30  31
ENDBRANCH  29  30
ENDBRANCH  28  29
ENDBRANCH  27  28
ENDBRANCH   1  27
TORSDOF 20
ENDMDL
MODEL 2
REMARK VINA RESULT:     -11.4      1.951      3.338
REMARK SMILES O=C(CC1(CC(=O)OCCOCCOC(=O)c2ccc(-c3c4nc(c(-c5c(F)c(F)c(F)c(F)c5F)c5ccc([nH]5)c(-c5c(F)c(F)c(F)c(F)c5F)c5nc(c(-c6c(F)c(F)c(F)c(F)c6F)c6ccc3[nH]6)C=C5)C=C4)cc2)CCCC1)NNc1ccc([N+](=O)[O-])cc1
REMARK SMILES IDX 9 1 8 2 6 3 7 4 5 5 4 6 80 7 83 8 81 9 82 10 3 11 2 12 1 13
REMARK SMILES IDX 84 14 85 16 86 18 87 19 94 20 88 21 93 22 89 23 90 24 91 25
REMARK SMILES IDX 92 26 10 27 11 28 12 29 13 30 14 31 15 32 16 33 17 34 18 35
REMARK SMILES IDX 79 36 19 37 78 38 20 39 21 40 22 41 72 42 23 43 77 44 71 45
REMARK SMILES IDX 73 46 24 47 76 48 70 49 69 50 25 52 57 53 37 54 56 55 38 56
REMARK SMILES IDX 41 57 55 58 74 59 39 60 40 61 54 63 75 64 42 65 26 66 27 67
REMARK SMILES IDX 35 68 28 69 29 70 33 71 36 72 30 73 31 74 34 75 32 76 58 77
REMARK SMILES IDX 59 78 67 79 60 80 61 81 65 82 68 83 62 84 63 85 66 86 64 87
REMARK SMILES IDX 43 88 44 89 52 90 45 91 46 92 50 93 53 94 47 95 48 96 51 97
REMARK SMILES IDX 49 98
REMARK H PARENT 84 15 85 17 73 51 41 62
REMARK Flexibility Score: inf
ROOT
ATOM      1  C   UNL A   1      37.574  23.286  25.508  1.00  0.00     0.261 C 
ENDROOT
BRANCH   1   2
ATOM      2  O   UNL A   1      36.406  23.876  26.120  1.00  0.00    -0.463 OA
BRANCH   2   3
ATOM      3  C   UNL A   1      35.309  23.079  26.183  1.00  0.00     0.306 C 
ATOM      4  O   UNL A   1      35.321  21.862  26.044  1.00  0.00    -0.252 OA
BRANCH   3   5
ATOM      5  C   UNL A   1      34.013  23.857  26.316  1.00  0.00     0.130 C 
BRANCH   5   6
ATOM      6  C   UNL A   1      33.383  24.586  25.087  1.00  0.00    -0.010 C 
ATOM      7  C   UNL A   1      33.990  26.010  25.032  1.00  0.00     0.008 C 
ATOM      8  C   UNL A   1      31.898  24.934  25.310  1.00  0.00     0.008 C 
ATOM      9  C   UNL A   1      33.254  26.798  26.115  1.00  0.00     0.001 C 
ATOM     10  C   UNL A   1      31.894  26.121  26.271  1.00  0.00     0.001 C 
BRANCH   6  11
ATOM     11  C   UNL A   1      33.599  23.764  23.794  1.00  0.00     0.109 C 
BRANCH  11  12
ATOM     12  C   UNL A   1      32.616  22.647  23.480  1.00  0.00     0.238 C 
ATOM     13  O   UNL A   1      31.631  22.832  22.767  1.00  0.00    -0.273 OA
ATOM     14  N   UNL A   1      32.948  21.416  24.010  1.00  0.00    -0.270 N 
ATOM     15  H   UNL A   1      33.712  21.316  24.622  1.00  0.00     0.191 HD
BRANCH  14  16
ATOM     16  N   UNL A   1      32.175  20.328  23.652  1.00  0.00    -0.299 N 
ATOM     17  H   UNL A   1      31.360  20.457  23.114  1.00  0.00     0.188 HD
BRANCH  16  18
ATOM     18  C   UNL A   1      32.547  19.042  24.053  1.00  0.00     0.055 A 
ATOM     19  C   UNL A   1      33.181  18.208  23.118  1.00  0.00     0.034 A 
ATOM     20  C   UNL A   1      32.419  18.579  25.372  1.00  0.00     0.034 A 
ATOM     21  C   UNL A   1      33.681  16.953  23.480  1.00  0.00     0.088 A 
ATOM     22  C   UNL A   1      32.898  17.317  25.746  1.00  0.00     0.088 A 
ATOM     23  C   UNL A   1      33.541  16.513  24.799  1.00  0.00     0.269 A 
BRANCH  23  24
ATOM     24  N   UNL A   1      34.088  15.210  25.197  1.00  0.00     0.062 N 
ATOM     25  O   UNL A   1      33.285  14.318  25.504  1.00  0.00    -0.258 OA
ATOM     26  O   UNL A   1      35.320  15.077  25.191  1.00  0.00    -0.258 OA
ENDBRANCH  23  24
ENDBRANCH  16  18
ENDBRANCH  14  16
ENDBRANCH  11  12
ENDBRANCH   6  11
ENDBRANCH   5   6
ENDBRANCH   3   5
ENDBRANCH   2   3
ENDBRANCH   1   2
BRANCH   1  27
ATOM     27  C   UNL A   1      38.812  23.342  26.405  1.00  0.00     0.202 C 
BRANCH  27  28
ATOM     28  O   UNL A   1      39.600  22.153  26.444  1.00  0.00    -0.374 OA
BRANCH  28  29
ATOM     29  C   UNL A   1      39.108  21.034  25.709  1.00  0.00     0.202 C 
BRANCH  29  30
ATOM     30  C   UNL A   1      39.702  19.686  26.131  1.00  0.00     0.261 C 
BRANCH  30  31
ATOM     31  O   UNL A   1      40.870  19.370  25.346  1.00  0.00    -0.460 OA
BRANCH  31  32
ATOM     32  C   UNL A   1      41.986  19.136  26.078  1.00  0.00     0.338 C 
ATOM     33  O   UNL A   1      42.468  18.055  26.369  1.00  0.00    -0.246 OA
BRANCH  32  34
ATOM     34  C   UNL A   1      42.684  20.403  26.371  1.00  0.00     0.060 A 
ATOM     35  C   UNL A   1      42.581  20.899  27.676  1.00  0.00     0.016 A 
ATOM     36  C   UNL A   1      43.323  21.149  25.378  1.00  0.00     0.016 A 
ATOM     37  C   UNL A   1      43.057  22.173  27.978  1.00  0.00     0.010 A 
ATOM     38  C   UNL A   1      43.797  22.433  25.682  1.00  0.00     0.010 A 
ATOM     39  C   UNL A   1      43.626  22.967  26.972  1.00  0.00    -0.014 A 
BRANCH  39  40
ATOM     40  C   UNL A   1      43.868  24.407  27.247  1.00  0.00     0.031 A 
ATOM     41  C   UNL A   1      45.230  24.983  26.961  1.00  0.00     0.074 A 
ATOM     42  C   UNL A   1      42.877  25.211  27.672  1.00  0.00     0.049 A 
ATOM     43  N   UNL A   1      45.656  26.216  27.093  1.00  0.00    -0.248 NA
ATOM     44  C   UNL A   1      46.245  24.049  26.449  1.00  0.00     0.031 C 
ATOM     45  C   UNL A   1      41.505  24.788  27.945  1.00  0.00     0.029 A 
ATOM     46  N   UNL A   1      42.875  26.557  27.941  1.00  0.00    -0.354 N 
ATOM     47  C   UNL A   1      46.978  26.205  26.668  1.00  0.00     0.074 A 
ATOM     48  C   UNL A   1      47.298  24.840  26.310  1.00  0.00     0.031 C 
ATOM     49  C   UNL A   1      40.793  25.856  28.348  1.00  0.00     0.029 A 
ATOM     50  C   UNL A   1      41.663  27.030  28.378  1.00  0.00     0.049 A 
ATOM     51  H   UNL A   1      43.668  27.129  27.830  1.00  0.00     0.167 HD
ATOM     52  C   UNL A   1      47.843  27.241  26.569  1.00  0.00     0.037 A 
ATOM     53  C   UNL A   1      41.302  28.269  28.769  1.00  0.00     0.037 A 
ATOM     54  C   UNL A   1      47.537  28.600  26.926  1.00  0.00     0.049 A 
ATOM     55  C   UNL A   1      42.308  29.391  28.717  1.00  0.00     0.074 A 
ATOM     56  C   UNL A   1      48.360  29.713  26.876  1.00  0.00     0.029 A 
ATOM     57  N   UNL A   1      46.308  29.032  27.396  1.00  0.00    -0.354 N 
ATOM     58  N   UNL A   1      43.552  29.369  28.305  1.00  0.00    -0.248 NA
ATOM     59  C   UNL A   1      41.855  30.712  29.180  1.00  0.00     0.031 C 
ATOM     60  C   UNL A   1      47.635  30.813  27.347  1.00  0.00     0.029 A 
ATOM     61  C   UNL A   1      46.352  30.392  27.654  1.00  0.00     0.049 A 
ATOM     62  H   UNL A   1      45.520  28.457  27.529  1.00  0.00     0.167 HD
ATOM     63  C   UNL A   1      44.019  30.672  28.432  1.00  0.00     0.074 A 
ATOM     64  C   UNL A   1      42.922  31.462  28.949  1.00  0.00     0.031 C 
ATOM     65  C   UNL A   1      45.247  31.168  28.150  1.00  0.00     0.037 A 
BRANCH  52  66
ATOM     66  C   UNL A   1      49.219  26.946  26.052  1.00  0.00     0.064 A 
ATOM     67  C   UNL A   1      50.240  26.510  26.909  1.00  0.00     0.173 A 
ATOM     68  C   UNL A   1      49.503  27.042  24.682  1.00  0.00     0.173 A 
ATOM     69  F   UNL A   1      50.019  26.416  28.229  1.00  0.00    -0.203 F 
ATOM     70  C   UNL A   1      51.501  26.191  26.414  1.00  0.00     0.198 A 
ATOM     71  C   UNL A   1      50.760  26.703  24.188  1.00  0.00     0.198 A 
ATOM     72  F   UNL A   1      48.559  27.453  23.823  1.00  0.00    -0.203 F 
ATOM     73  F   UNL A   1      52.471  25.803  27.254  1.00  0.00    -0.200 F 
ATOM     74  C   UNL A   1      51.757  26.279  25.053  1.00  0.00     0.200 A 
ATOM     75  F   UNL A   1      51.003  26.781  22.872  1.00  0.00    -0.200 F 
ATOM     76  F   UNL A   1      52.969  25.962  24.576  1.00  0.00    -0.200 F 
ENDBRANCH  52  66
BRANCH  53  77
ATOM     77  C   UNL A   1      39.924  28.523  29.264  1.00  0.00     0.064 A 
ATOM     78  C   UNL A   1      38.929  29.029  28.416  1.00  0.00     0.173 A 
ATOM     79  C   UNL A   1      39.590  28.310  30.609  1.00  0.00     0.173 A 
ATOM     80  F   UNL A   1      39.211  29.276  27.128  1.00  0.00    -0.203 F 
ATOM     81  C   UNL A   1      37.659  29.335  28.900  1.00  0.00     0.198 A 
ATOM     82  C   UNL A   1      38.311  28.590  31.086  1.00  0.00     0.198 A 
ATOM     83  F   UNL A   1      40.508  27.831  31.462  1.00  0.00    -0.203 F 
ATOM     84  F   UNL A   1      36.743  29.866  28.080  1.00  0.00    -0.200 F 
ATOM     85  C   UNL A   1      37.349  29.112  30.233  1.00  0.00     0.200 A 
ATOM     86  F   UNL A   1      38.016  28.367  32.374  1.00  0.00    -0.200 F 
ATOM     87  F   UNL A   1      36.130  29.411  30.700  1.00  0.00    -0.200 F 
ENDBRANCH  53  77
BRANCH  65  88
ATOM     88  C   UNL A   1      45.464  32.638  28.356  1.00  0.00     0.064 A 
ATOM     89  C   UNL A   1      45.174  33.570  27.350  1.00  0.00     0.173 A 
ATOM     90  C   UNL A   1      45.923  33.121  29.591  1.00  0.00     0.173 A 
ATOM     91  F   UNL A   1      44.747  33.154  26.148  1.00  0.00    -0.203 F 
ATOM     92  C   UNL A   1      45.357  34.933  27.566  1.00  0.00     0.198 A 
ATOM     93  C   UNL A   1      46.081  34.487  29.811  1.00  0.00     0.198 A 
ATOM     94  F   UNL A   1      46.207  32.269  30.588  1.00  0.00    -0.203 F 
ATOM     95  F   UNL A   1      45.110  35.805  26.578  1.00  0.00    -0.200 F 
ATOM     96  C   UNL A   1      45.804  35.391  28.797  1.00  0.00     0.200 A 
ATOM     97  F   UNL A   1      46.504  34.927  31.004  1.00  0.00    -0.200 F 
ATOM     98  F   UNL A   1      45.973  36.704  29.004  1.00  0.00    -0.200 F 
ENDBRANCH  65  88
ENDBRANCH  39  40
ENDBRANCH  32  34
ENDBRANCH  31  32
ENDBRANCH  30  31
ENDBRANCH  29  30
ENDBRANCH  28  29
ENDBRANCH  27  28
ENDBRANCH   1  27
TORSDOF 20
ENDMDL
MODEL 3
REMARK VINA RESULT:     -11.4      4.773     10.300
REMARK SMILES O=C(CC1(CC(=O)OCCOCCOC(=O)c2ccc(-c3c4nc(c(-c5c(F)c(F)c(F)c(F)c5F)c5ccc([nH]5)c(-c5c(F)c(F)c(F)c(F)c5F)c5nc(c(-c6c(F)c(F)c(F)c(F)c6F)c6ccc3[nH]6)C=C5)C=C4)cc2)CCCC1)NNc1ccc([N+](=O)[O-])cc1
REMARK SMILES IDX 9 1 8 2 6 3 7 4 5 5 4 6 80 7 83 8 81 9 82 10 3 11 2 12 1 13
REMARK SMILES IDX 84 14 85 16 86 18 87 19 94 20 88 21 93 22 89 23 90 24 91 25
REMARK SMILES IDX 92 26 10 27 11 28 12 29 13 30 14 31 15 32 16 33 17 34 18 35
REMARK SMILES IDX 79 36 19 37 78 38 20 39 21 40 22 41 72 42 23 43 77 44 71 45
REMARK SMILES IDX 73 46 24 47 76 48 70 49 69 50 25 52 57 53 37 54 56 55 38 56
REMARK SMILES IDX 41 57 55 58 74 59 39 60 40 61 54 63 75 64 42 65 26 66 27 67
REMARK SMILES IDX 35 68 28 69 29 70 33 71 36 72 30 73 31 74 34 75 32 76 58 77
REMARK SMILES IDX 59 78 67 79 60 80 61 81 65 82 68 83 62 84 63 85 66 86 64 87
REMARK SMILES IDX 43 88 44 89 52 90 45 91 46 92 50 93 53 94 47 95 48 96 51 97
REMARK SMILES IDX 49 98
REMARK H PARENT 84 15 85 17 73 51 41 62
REMARK Flexibility Score: inf
ROOT
ATOM      1  C   UNL A   1      32.734  28.235  26.632  1.00  0.00     0.261 C 
ENDROOT
BRANCH   1   2
ATOM      2  O   UNL A   1      33.136  27.050  25.911  1.00  0.00    -0.463 OA
BRANCH   2   3
ATOM      3  C   UNL A   1      32.520  25.898  26.281  1.00  0.00     0.306 C 
ATOM      4  O   UNL A   1      31.423  25.837  26.824  1.00  0.00    -0.252 OA
BRANCH   3   5
ATOM      5  C   UNL A   1      33.381  24.667  26.075  1.00  0.00     0.130 C 
BRANCH   5   6
ATOM      6  C   UNL A   1      33.377  23.901  24.714  1.00  0.00    -0.010 C 
ATOM      7  C   UNL A   1      31.900  23.747  24.274  1.00  0.00     0.008 C 
ATOM      8  C   UNL A   1      33.767  22.418  24.875  1.00  0.00     0.008 C 
ATOM      9  C   UNL A   1      31.346  22.609  25.130  1.00  0.00     0.001 C 
ATOM     10  C   UNL A   1      32.547  21.737  25.492  1.00  0.00     0.001 C 
BRANCH   6  11
ATOM     11  C   UNL A   1      34.267  24.625  23.676  1.00  0.00     0.109 C 
BRANCH  11  12
ATOM     12  C   UNL A   1      33.586  25.475  22.614  1.00  0.00     0.238 C 
ATOM     13  O   UNL A   1      33.272  25.014  21.518  1.00  0.00    -0.273 OA
ATOM     14  N   UNL A   1      33.309  26.772  22.999  1.00  0.00    -0.270 N 
ATOM     15  H   UNL A   1      33.625  27.124  23.862  1.00  0.00     0.191 HD
BRANCH  14  16
ATOM     16  N   UNL A   1      32.571  27.559  22.135  1.00  0.00    -0.299 N 
ATOM     17  H   UNL A   1      32.942  27.811  21.258  1.00  0.00     0.188 HD
BRANCH  16  18
ATOM     18  C   UNL A   1      31.298  28.001  22.504  1.00  0.00     0.055 A 
ATOM     19  C   UNL A   1      30.917  29.306  22.153  1.00  0.00     0.034 A 
ATOM     20  C   UNL A   1      30.341  27.174  23.112  1.00  0.00     0.034 A 
ATOM     21  C   UNL A   1      29.621  29.777  22.390  1.00  0.00     0.088 A 
ATOM     22  C   UNL A   1      29.045  27.635  23.374  1.00  0.00     0.088 A 
ATOM     23  C   UNL A   1      28.685  28.934  22.997  1.00  0.00     0.269 A 
BRANCH  23  24
ATOM     24  N   UNL A   1      27.314  29.408  23.225  1.00  0.00     0.062 N 
ATOM     25  O   UNL A   1      26.436  28.557  23.424  1.00  0.00    -0.258 OA
ATOM     26  O   UNL A   1      27.119  30.632  23.215  1.00  0.00    -0.258 OA
ENDBRANCH  23  24
ENDBRANCH  16  18
ENDBRANCH  14  16
ENDBRANCH  11  12
ENDBRANCH   6  11
ENDBRANCH   5   6
ENDBRANCH   3   5
ENDBRANCH   2   3
ENDBRANCH   1   2
BRANCH   1  27
ATOM     27  C   UNL A   1      33.887  29.212  26.868  1.00  0.00     0.202 C 
BRANCH  27  28
ATOM     28  O   UNL A   1      33.509  30.525  27.276  1.00  0.00    -0.374 OA
BRANCH  28  29
ATOM     29  C   UNL A   1      32.214  30.972  26.879  1.00  0.00     0.202 C 
BRANCH  29  30
ATOM     30  C   UNL A   1      31.942  32.456  27.149  1.00  0.00     0.261 C 
BRANCH  30  31
ATOM     31  O   UNL A   1      33.170  33.212  27.149  1.00  0.00    -0.460 OA
BRANCH  31  32
ATOM     32  C   UNL A   1      33.272  34.110  28.159  1.00  0.00     0.338 C 
ATOM     33  O   UNL A   1      32.520  35.037  28.403  1.00  0.00    -0.246 OA
BRANCH  32  34
ATOM     34  C   UNL A   1      34.363  33.730  29.077  1.00  0.00     0.060 A 
ATOM     35  C   UNL A   1      35.647  34.191  28.764  1.00  0.00     0.016 A 
ATOM     36  C   UNL A   1      34.166  32.854  30.147  1.00  0.00     0.016 A 
ATOM     37  C   UNL A   1      36.749  33.726  29.478  1.00  0.00     0.010 A 
ATOM     38  C   UNL A   1      35.276  32.382  30.861  1.00  0.00     0.010 A 
ATOM     39  C   UNL A   1      36.577  32.782  30.500  1.00  0.00    -0.014 A 
BRANCH  39  40
ATOM     40  C   UNL A   1      37.774  32.098  31.053  1.00  0.00     0.031 A 
ATOM     41  C   UNL A   1      38.234  32.447  32.444  1.00  0.00     0.074 A 
ATOM     42  C   UNL A   1      38.400  31.127  30.365  1.00  0.00     0.049 A 
ATOM     43  N   UNL A   1      39.230  31.954  33.139  1.00  0.00    -0.248 NA
ATOM     44  C   UNL A   1      37.464  33.482  33.151  1.00  0.00     0.031 C 
ATOM     45  C   UNL A   1      38.029  30.665  29.029  1.00  0.00     0.029 A 
ATOM     46  N   UNL A   1      39.479  30.349  30.704  1.00  0.00    -0.354 N 
ATOM     47  C   UNL A   1      39.195  32.608  34.364  1.00  0.00     0.074 A 
ATOM     48  C   UNL A   1      38.106  33.559  34.307  1.00  0.00     0.031 C 
ATOM     49  C   UNL A   1      38.872  29.683  28.659  1.00  0.00     0.029 A 
ATOM     50  C   UNL A   1      39.851  29.464  29.722  1.00  0.00     0.049 A 
ATOM     51  H   UNL A   1      39.943  30.419  31.569  1.00  0.00     0.167 HD
ATOM     52  C   UNL A   1      39.988  32.421  35.445  1.00  0.00     0.037 A 
ATOM     53  C   UNL A   1      40.872  28.584  29.685  1.00  0.00     0.037 A 
ATOM     54  C   UNL A   1      41.075  31.483  35.511  1.00  0.00     0.049 A 
ATOM     55  C   UNL A   1      41.784  28.449  30.877  1.00  0.00     0.074 A 
ATOM     56  C   UNL A   1      41.945  31.240  36.560  1.00  0.00     0.029 A 
ATOM     57  N   UNL A   1      41.439  30.628  34.483  1.00  0.00    -0.354 N 
ATOM     58  N   UNL A   1      41.736  29.067  32.032  1.00  0.00    -0.248 NA
ATOM     59  C   UNL A   1      42.892  27.488  30.760  1.00  0.00     0.031 C 
ATOM     60  C   UNL A   1      42.856  30.258  36.155  1.00  0.00     0.029 A 
ATOM     61  C   UNL A   1      42.529  29.865  34.868  1.00  0.00     0.049 A 
ATOM     62  H   UNL A   1      40.990  30.571  33.609  1.00  0.00     0.167 HD
ATOM     63  C   UNL A   1      42.783  28.551  32.785  1.00  0.00     0.074 A 
ATOM     64  C   UNL A   1      43.444  27.561  31.962  1.00  0.00     0.031 C 
ATOM     65  C   UNL A   1      43.164  28.871  34.045  1.00  0.00     0.037 A 
BRANCH  52  66
ATOM     66  C   UNL A   1      39.711  33.258  36.657  1.00  0.00     0.064 A 
ATOM     67  C   UNL A   1      40.338  34.499  36.844  1.00  0.00     0.173 A 
ATOM     68  C   UNL A   1      38.769  32.845  37.610  1.00  0.00     0.173 A 
ATOM     69  F   UNL A   1      41.257  34.929  35.966  1.00  0.00    -0.203 F 
ATOM     70  C   UNL A   1      40.039  35.292  37.947  1.00  0.00     0.198 A 
ATOM     71  C   UNL A   1      38.458  33.650  38.702  1.00  0.00     0.198 A 
ATOM     72  F   UNL A   1      38.142  31.668  37.474  1.00  0.00    -0.203 F 
ATOM     73  F   UNL A   1      40.670  36.462  38.121  1.00  0.00    -0.200 F 
ATOM     74  C   UNL A   1      39.093  34.871  38.871  1.00  0.00     0.200 A 
ATOM     75  F   UNL A   1      37.537  33.246  39.589  1.00  0.00    -0.200 F 
ATOM     76  F   UNL A   1      38.798  35.641  39.928  1.00  0.00    -0.200 F 
ENDBRANCH  52  66
BRANCH  53  77
ATOM     77  C   UNL A   1      41.105  27.764  28.468  1.00  0.00     0.064 A 
ATOM     78  C   UNL A   1      41.955  28.206  27.445  1.00  0.00     0.173 A 
ATOM     79  C   UNL A   1      40.443  26.541  28.283  1.00  0.00     0.173 A 
ATOM     80  F   UNL A   1      42.588  29.383  27.564  1.00  0.00    -0.203 F 
ATOM     81  C   UNL A   1      42.116  27.469  26.274  1.00  0.00     0.198 A 
ATOM     82  C   UNL A   1      40.625  25.792  27.124  1.00  0.00     0.198 A 
ATOM     83  F   UNL A   1      39.615  26.077  29.232  1.00  0.00    -0.203 F 
ATOM     84  F   UNL A   1      42.893  27.941  25.290  1.00  0.00    -0.200 F 
ATOM     85  C   UNL A   1      41.454  26.261  26.115  1.00  0.00     0.200 A 
ATOM     86  F   UNL A   1      39.988  24.622  26.979  1.00  0.00    -0.200 F 
ATOM     87  F   UNL A   1      41.603  25.555  24.987  1.00  0.00    -0.200 F 
ENDBRANCH  53  77
BRANCH  65  88
ATOM     88  C   UNL A   1      44.327  28.122  34.627  1.00  0.00     0.064 A 
ATOM     89  C   UNL A   1      45.637  28.610  34.528  1.00  0.00     0.173 A 
ATOM     90  C   UNL A   1      44.120  26.926  35.331  1.00  0.00     0.173 A 
ATOM     91  F   UNL A   1      45.886  29.742  33.852  1.00  0.00    -0.203 F 
ATOM     92  C   UNL A   1      46.702  27.916  35.095  1.00  0.00     0.198 A 
ATOM     93  C   UNL A   1      45.185  26.248  35.917  1.00  0.00     0.198 A 
ATOM     94  F   UNL A   1      42.883  26.422  35.459  1.00  0.00    -0.203 F 
ATOM     95  F   UNL A   1      47.952  28.380  34.956  1.00  0.00    -0.200 F 
ATOM     96  C   UNL A   1      46.475  26.739  35.794  1.00  0.00     0.200 A 
ATOM     97  F   UNL A   1      44.962  25.116  36.600  1.00  0.00    -0.200 F 
ATOM     98  F   UNL A   1      47.501  26.076  36.344  1.00  0.00    -0.200 F 
ENDBRANCH  65  88
ENDBRANCH  39  40
ENDBRANCH  32  34
ENDBRANCH  31  32
ENDBRANCH  30  31
ENDBRANCH  29  30
ENDBRANCH  28  29
ENDBRANCH  27  28
ENDBRANCH   1  27
TORSDOF 20
ENDMDL
