MODEL 1
REMARK VINA RESULT:     -11.4      0.000      0.000
REMARK SMILES CC[C@@H](C(=O)OCCOCCOC(=O)c1ccc(-c2c3nc(c(-c4c(F)c(F)c(F)c(F)c4F)c4ccc([nH]4)c(-c4c(F)c(F)c(F)c(F)c4F)c4nc(c(-c5c(F)c(F)c(F)c(F)c5F)c5ccc2[nH]5)C=C4)C=C3)cc1)[N@@H+]1CCc2ccc(N)cc2C1
REMARK SMILES IDX 9 1 8 2 7 3 6 4 4 5 5 6 3 7 2 8 1 9 78 10 79 11 88 12 80 14
REMARK SMILES IDX 87 15 81 16 86 17 82 18 84 19 83 20 85 21 10 24 11 25 12 26
REMARK SMILES IDX 13 27 14 28 15 29 16 30 77 31 17 32 76 33 18 34 19 35 20 36
REMARK SMILES IDX 70 37 21 38 75 39 69 40 71 41 22 42 74 43 68 44 67 45 23 47
REMARK SMILES IDX 55 48 35 49 54 50 36 51 39 52 53 53 72 54 37 55 38 56 52 58
REMARK SMILES IDX 73 59 40 60 24 61 25 62 33 63 26 64 27 65 31 66 34 67 28 68
REMARK SMILES IDX 29 69 32 70 30 71 56 72 57 73 65 74 58 75 59 76 63 77 66 78
REMARK SMILES IDX 60 79 61 80 64 81 62 82 41 83 42 84 50 85 43 86 44 87 48 88
REMARK SMILES IDX 51 89 45 90 46 91 49 92 47 93
REMARK H PARENT 78 13 85 22 85 23 71 46 39 57
REMARK Flexibility Score: inf
ROOT
ATOM      1  O   UNL A   1      30.507  29.726  24.330  1.00  0.00    -0.374 OA
ENDROOT
BRANCH   1   2
ATOM      2  C   UNL A   1      30.652  28.685  23.338  1.00  0.00     0.202 C 
BRANCH   2   3
ATOM      3  C   UNL A   1      30.001  27.291  23.735  1.00  0.00     0.261 C 
BRANCH   3   4
ATOM      4  O   UNL A   1      30.669  26.306  24.725  1.00  0.00    -0.459 OA
BRANCH   4   5
ATOM      5  C   UNL A   1      31.524  25.299  25.067  1.00  0.00     0.364 C 
ATOM      6  O   UNL A   1      30.996  24.393  25.734  1.00  0.00    -0.245 OA
BRANCH   5   7
ATOM      7  C   UNL A   1      33.118  25.154  24.857  1.00  0.00     0.295 C 
BRANCH   7   8
ATOM      8  C   UNL A   1      34.033  26.077  25.755  1.00  0.00     0.074 C 
ATOM      9  C   UNL A   1      33.988  27.594  25.647  1.00  0.00     0.011 C 
ENDBRANCH   7   8
BRANCH   7  10
ATOM     10  N   UNL A   1      33.660  24.883  23.476  1.00  0.00    -0.319 N 
ATOM     11  C   UNL A   1      32.727  24.443  22.377  1.00  0.00     0.268 C 
ATOM     12  C   UNL A   1      34.617  23.826  23.576  1.00  0.00     0.300 C 
ATOM     13  H   UNL A   1      33.995  25.806  23.198  1.00  0.00     0.349 HD
ATOM     14  C   UNL A   1      32.782  22.895  21.939  1.00  0.00     0.097 C 
ATOM     15  C   UNL A   1      33.919  22.576  24.062  1.00  0.00     0.012 A 
ATOM     16  C   UNL A   1      33.076  22.003  23.123  1.00  0.00    -0.033 A 
ATOM     17  C   UNL A   1      33.873  22.083  25.369  1.00  0.00     0.035 A 
ATOM     18  C   UNL A   1      32.528  20.751  23.387  1.00  0.00     0.006 A 
ATOM     19  C   UNL A   1      33.220  20.911  25.707  1.00  0.00     0.032 A 
ATOM     20  C   UNL A   1      32.637  20.194  24.675  1.00  0.00     0.026 A 
BRANCH  19  21
ATOM     21  N   UNL A   1      33.278  20.474  27.019  1.00  0.00    -0.399 N 
ATOM     22  H   UNL A   1      34.147  20.396  27.474  1.00  0.00     0.156 HD
ATOM     23  H   UNL A   1      32.450  20.241  27.497  1.00  0.00     0.156 HD
ENDBRANCH  19  21
ENDBRANCH   7  10
ENDBRANCH   5   7
ENDBRANCH   4   5
ENDBRANCH   3   4
ENDBRANCH   2   3
ENDBRANCH   1   2
BRANCH   1  24
ATOM     24  C   UNL A   1      31.465  29.806  25.395  1.00  0.00     0.202 C 
BRANCH  24  25
ATOM     25  C   UNL A   1      31.672  31.116  26.164  1.00  0.00     0.261 C 
BRANCH  25  26
ATOM     26  O   UNL A   1      32.559  30.959  27.270  1.00  0.00    -0.460 OA
BRANCH  26  27
ATOM     27  C   UNL A   1      33.293  32.063  27.538  1.00  0.00     0.338 C 
ATOM     28  O   UNL A   1      32.921  33.211  27.626  1.00  0.00    -0.246 OA
BRANCH  27  29
ATOM     29  C   UNL A   1      34.666  31.638  27.839  1.00  0.00     0.060 A 
ATOM     30  C   UNL A   1      34.899  30.277  28.016  1.00  0.00     0.016 A 
ATOM     31  C   UNL A   1      35.676  32.578  28.044  1.00  0.00     0.016 A 
ATOM     32  C   UNL A   1      36.153  29.851  28.448  1.00  0.00     0.010 A 
ATOM     33  C   UNL A   1      36.949  32.143  28.422  1.00  0.00     0.010 A 
ATOM     34  C   UNL A   1      37.181  30.779  28.680  1.00  0.00    -0.014 A 
BRANCH  34  35
ATOM     35  C   UNL A   1      38.412  30.321  29.377  1.00  0.00     0.031 A 
ATOM     36  C   UNL A   1      38.642  30.745  30.805  1.00  0.00     0.074 A 
ATOM     37  C   UNL A   1      39.262  29.453  28.795  1.00  0.00     0.049 A 
ATOM     38  N   UNL A   1      39.573  30.366  31.645  1.00  0.00    -0.248 NA
ATOM     39  C   UNL A   1      37.701  31.730  31.362  1.00  0.00     0.031 C 
ATOM     40  C   UNL A   1      39.158  28.952  27.426  1.00  0.00     0.029 A 
ATOM     41  N   UNL A   1      40.370  28.818  29.301  1.00  0.00    -0.354 N 
ATOM     42  C   UNL A   1      39.323  31.060  32.821  1.00  0.00     0.074 A 
ATOM     43  C   UNL A   1      38.200  31.933  32.570  1.00  0.00     0.031 C 
ATOM     44  C   UNL A   1      40.144  28.063  27.210  1.00  0.00     0.029 A 
ATOM     45  C   UNL A   1      40.959  27.946  28.418  1.00  0.00     0.049 A 
ATOM     46  H   UNL A   1      40.711  28.974  30.211  1.00  0.00     0.167 HD
ATOM     47  C   UNL A   1      39.942  30.955  34.019  1.00  0.00     0.037 A 
ATOM     48  C   UNL A   1      42.028  27.138  28.572  1.00  0.00     0.037 A 
ATOM     49  C   UNL A   1      41.041  30.073  34.294  1.00  0.00     0.049 A 
ATOM     50  C   UNL A   1      42.736  27.079  29.903  1.00  0.00     0.074 A 
ATOM     51  C   UNL A   1      41.713  29.879  35.487  1.00  0.00     0.029 A 
ATOM     52  N   UNL A   1      41.633  29.240  33.358  1.00  0.00    -0.354 N 
ATOM     53  N   UNL A   1      42.448  27.693  31.025  1.00  0.00    -0.248 NA
ATOM     54  C   UNL A   1      43.912  26.200  29.990  1.00  0.00     0.031 C 
ATOM     55  C   UNL A   1      42.745  28.963  35.263  1.00  0.00     0.029 A 
ATOM     56  C   UNL A   1      42.682  28.548  33.943  1.00  0.00     0.049 A 
ATOM     57  H   UNL A   1      41.351  29.151  32.419  1.00  0.00     0.167 HD
ATOM     58  C   UNL A   1      43.383  27.251  31.954  1.00  0.00     0.074 A 
ATOM     59  C   UNL A   1      44.241  26.307  31.270  1.00  0.00     0.031 C 
ATOM     60  C   UNL A   1      43.517  27.595  33.259  1.00  0.00     0.037 A 
BRANCH  47  61
ATOM     61  C   UNL A   1      39.438  31.830  35.128  1.00  0.00     0.064 A 
ATOM     62  C   UNL A   1      38.555  31.345  36.104  1.00  0.00     0.173 A 
ATOM     63  C   UNL A   1      39.851  33.167  35.219  1.00  0.00     0.173 A 
ATOM     64  F   UNL A   1      38.117  30.079  36.049  1.00  0.00    -0.203 F 
ATOM     65  C   UNL A   1      38.077  32.177  37.113  1.00  0.00     0.198 A 
ATOM     66  C   UNL A   1      39.396  33.987  36.247  1.00  0.00     0.198 A 
ATOM     67  F   UNL A   1      40.695  33.678  34.310  1.00  0.00    -0.203 F 
ATOM     68  F   UNL A   1      37.190  31.709  38.002  1.00  0.00    -0.200 F 
ATOM     69  C   UNL A   1      38.503  33.495  37.187  1.00  0.00     0.200 A 
ATOM     70  F   UNL A   1      39.816  35.258  36.323  1.00  0.00    -0.200 F 
ATOM     71  F   UNL A   1      38.045  34.294  38.159  1.00  0.00    -0.200 F 
ENDBRANCH  47  61
BRANCH  48  72
ATOM     72  C   UNL A   1      42.499  26.299  27.438  1.00  0.00     0.064 A 
ATOM     73  C   UNL A   1      41.991  25.010  27.226  1.00  0.00     0.173 A 
ATOM     74  C   UNL A   1      43.508  26.752  26.575  1.00  0.00     0.173 A 
ATOM     75  F   UNL A   1      41.045  24.520  28.041  1.00  0.00    -0.203 F 
ATOM     76  C   UNL A   1      42.493  24.196  26.212  1.00  0.00     0.198 A 
ATOM     77  C   UNL A   1      43.990  25.947  25.545  1.00  0.00     0.198 A 
ATOM     78  F   UNL A   1      44.031  27.977  26.738  1.00  0.00    -0.203 F 
ATOM     79  F   UNL A   1      42.032  22.946  26.069  1.00  0.00    -0.200 F 
ATOM     80  C   UNL A   1      43.490  24.666  25.370  1.00  0.00     0.200 A 
ATOM     81  F   UNL A   1      44.949  26.410  24.730  1.00  0.00    -0.200 F 
ATOM     82  F   UNL A   1      43.979  23.880  24.403  1.00  0.00    -0.200 F 
ENDBRANCH  48  72
BRANCH  60  83
ATOM     83  C   UNL A   1      44.600  26.925  34.054  1.00  0.00     0.064 A 
ATOM     84  C   UNL A   1      44.391  25.697  34.698  1.00  0.00     0.173 A 
ATOM     85  C   UNL A   1      45.885  27.487  34.116  1.00  0.00     0.173 A 
ATOM     86  F   UNL A   1      43.179  25.122  34.679  1.00  0.00    -0.203 F 
ATOM     87  C   UNL A   1      45.423  25.066  35.388  1.00  0.00     0.198 A 
ATOM     88  C   UNL A   1      46.921  26.840  34.782  1.00  0.00     0.198 A 
ATOM     89  F   UNL A   1      46.140  28.657  33.509  1.00  0.00    -0.203 F 
ATOM     90  F   UNL A   1      45.191  23.912  36.028  1.00  0.00    -0.200 F 
ATOM     91  C   UNL A   1      46.689  25.633  35.422  1.00  0.00     0.200 A 
ATOM     92  F   UNL A   1      48.148  27.381  34.798  1.00  0.00    -0.200 F 
ATOM     93  F   UNL A   1      47.684  25.017  36.075  1.00  0.00    -0.200 F 
ENDBRANCH  60  83
ENDBRANCH  34  35
ENDBRANCH  27  29
ENDBRANCH  26  27
ENDBRANCH  25  26
ENDBRANCH  24  25
ENDBRANCH   1  24
TORSDOF 17
ENDMDL
MODEL 2
REMARK VINA RESULT:     -11.3      4.329      9.715
REMARK SMILES CC[C@@H](C(=O)OCCOCCOC(=O)c1ccc(-c2c3nc(c(-c4c(F)c(F)c(F)c(F)c4F)c4ccc([nH]4)c(-c4c(F)c(F)c(F)c(F)c4F)c4nc(c(-c5c(F)c(F)c(F)c(F)c5F)c5ccc2[nH]5)C=C4)C=C3)cc1)[N@@H+]1CCc2ccc(N)cc2C1
REMARK SMILES IDX 9 1 8 2 7 3 6 4 4 5 5 6 3 7 2 8 1 9 78 10 79 11 88 12 80 14
REMARK SMILES IDX 87 15 81 16 86 17 82 18 84 19 83 20 85 21 10 24 11 25 12 26
REMARK SMILES IDX 13 27 14 28 15 29 16 30 77 31 17 32 76 33 18 34 19 35 20 36
REMARK SMILES IDX 70 37 21 38 75 39 69 40 71 41 22 42 74 43 68 44 67 45 23 47
REMARK SMILES IDX 55 48 35 49 54 50 36 51 39 52 53 53 72 54 37 55 38 56 52 58
REMARK SMILES IDX 73 59 40 60 24 61 25 62 33 63 26 64 27 65 31 66 34 67 28 68
REMARK SMILES IDX 29 69 32 70 30 71 56 72 57 73 65 74 58 75 59 76 63 77 66 78
REMARK SMILES IDX 60 79 61 80 64 81 62 82 41 83 42 84 50 85 43 86 44 87 48 88
REMARK SMILES IDX 51 89 45 90 46 91 49 92 47 93
REMARK H PARENT 78 13 85 22 85 23 71 46 39 57
REMARK Flexibility Score: inf
ROOT
ATOM      1  O   UNL A   1      35.681  22.818  25.675  1.00  0.00    -0.374 OA
ENDROOT
BRANCH   1   2
ATOM      2  C   UNL A   1      34.561  23.291  26.456  1.00  0.00     0.202 C 
BRANCH   2   3
ATOM      3  C   UNL A   1      34.022  24.728  26.044  1.00  0.00     0.261 C 
BRANCH   3   4
ATOM      4  O   UNL A   1      33.934  25.200  24.572  1.00  0.00    -0.459 OA
BRANCH   4   5
ATOM      5  C   UNL A   1      33.798  25.010  23.228  1.00  0.00     0.364 C 
ATOM      6  O   UNL A   1      34.651  24.252  22.735  1.00  0.00    -0.245 OA
BRANCH   5   7
ATOM      7  C   UNL A   1      32.799  25.699  22.163  1.00  0.00     0.295 C 
BRANCH   7   8
ATOM      8  C   UNL A   1      32.527  24.894  20.831  1.00  0.00     0.074 C 
ATOM      9  C   UNL A   1      32.527  25.578  19.471  1.00  0.00     0.011 C 
ENDBRANCH   7   8
BRANCH   7  10
ATOM     10  N   UNL A   1      32.810  27.198  22.001  1.00  0.00    -0.319 N 
ATOM     11  C   UNL A   1      33.802  28.029  22.774  1.00  0.00     0.268 C 
ATOM     12  C   UNL A   1      31.534  27.697  22.409  1.00  0.00     0.300 C 
ATOM     13  H   UNL A   1      33.072  27.300  21.020  1.00  0.00     0.349 HD
ATOM     14  C   UNL A   1      33.243  28.870  24.026  1.00  0.00     0.097 C 
ATOM     15  C   UNL A   1      31.329  27.382  23.873  1.00  0.00     0.012 A 
ATOM     16  C   UNL A   1      32.125  28.131  24.725  1.00  0.00    -0.033 A 
ATOM     17  C   UNL A   1      30.611  26.315  24.420  1.00  0.00     0.035 A 
ATOM     18  C   UNL A   1      31.890  28.065  26.095  1.00  0.00     0.006 A 
ATOM     19  C   UNL A   1      30.465  26.127  25.782  1.00  0.00     0.032 A 
ATOM     20  C   UNL A   1      31.027  27.081  26.614  1.00  0.00     0.026 A 
BRANCH  19  21
ATOM     21  N   UNL A   1      29.687  25.072  26.228  1.00  0.00    -0.399 N 
ATOM     22  H   UNL A   1      29.209  24.506  25.581  1.00  0.00     0.156 HD
ATOM     23  H   UNL A   1      29.613  24.889  27.192  1.00  0.00     0.156 HD
ENDBRANCH  19  21
ENDBRANCH   7  10
ENDBRANCH   5   7
ENDBRANCH   4   5
ENDBRANCH   3   4
ENDBRANCH   2   3
ENDBRANCH   1   2
BRANCH   1  24
ATOM     24  C   UNL A   1      35.811  21.408  25.434  1.00  0.00     0.202 C 
BRANCH  24  25
ATOM     25  C   UNL A   1      37.193  20.771  25.249  1.00  0.00     0.261 C 
BRANCH  25  26
ATOM     26  O   UNL A   1      38.240  21.740  25.261  1.00  0.00    -0.460 OA
BRANCH  26  27
ATOM     27  C   UNL A   1      39.283  21.403  26.054  1.00  0.00     0.338 C 
ATOM     28  O   UNL A   1      39.863  20.343  26.125  1.00  0.00    -0.246 OA
BRANCH  27  29
ATOM     29  C   UNL A   1      39.713  22.604  26.779  1.00  0.00     0.060 A 
ATOM     30  C   UNL A   1      39.090  23.810  26.465  1.00  0.00     0.016 A 
ATOM     31  C   UNL A   1      40.783  22.555  27.673  1.00  0.00     0.016 A 
ATOM     32  C   UNL A   1      39.572  24.992  27.022  1.00  0.00     0.010 A 
ATOM     33  C   UNL A   1      41.228  23.736  28.273  1.00  0.00     0.010 A 
ATOM     34  C   UNL A   1      40.660  24.971  27.909  1.00  0.00    -0.014 A 
BRANCH  34  35
ATOM     35  C   UNL A   1      41.304  26.259  28.280  1.00  0.00     0.031 A 
ATOM     36  C   UNL A   1      42.700  26.544  27.790  1.00  0.00     0.074 A 
ATOM     37  C   UNL A   1      40.625  27.212  28.948  1.00  0.00     0.049 A 
ATOM     38  N   UNL A   1      43.405  27.644  27.882  1.00  0.00    -0.248 NA
ATOM     39  C   UNL A   1      43.399  25.443  27.108  1.00  0.00     0.031 C 
ATOM     40  C   UNL A   1      39.268  27.077  29.473  1.00  0.00     0.029 A 
ATOM     41  N   UNL A   1      40.984  28.497  29.274  1.00  0.00    -0.354 N 
ATOM     42  C   UNL A   1      44.617  27.366  27.267  1.00  0.00     0.074 A 
ATOM     43  C   UNL A   1      44.584  25.978  26.868  1.00  0.00     0.031 C 
ATOM     44  C   UNL A   1      38.896  28.243  30.028  1.00  0.00     0.029 A 
ATOM     45  C   UNL A   1      39.995  29.202  29.915  1.00  0.00     0.049 A 
ATOM     46  H   UNL A   1      41.868  28.878  29.068  1.00  0.00     0.167 HD
ATOM     47  C   UNL A   1      45.656  28.196  27.017  1.00  0.00     0.037 A 
ATOM     48  C   UNL A   1      39.975  30.478  30.352  1.00  0.00     0.037 A 
ATOM     49  C   UNL A   1      45.694  29.584  27.382  1.00  0.00     0.049 A 
ATOM     50  C   UNL A   1      41.168  31.370  30.109  1.00  0.00     0.074 A 
ATOM     51  C   UNL A   1      46.694  30.510  27.144  1.00  0.00     0.029 A 
ATOM     52  N   UNL A   1      44.689  30.245  28.069  1.00  0.00    -0.354 N 
ATOM     53  N   UNL A   1      42.282  31.111  29.469  1.00  0.00    -0.248 NA
ATOM     54  C   UNL A   1      41.090  32.740  30.640  1.00  0.00     0.031 C 
ATOM     55  C   UNL A   1      46.315  31.721  27.729  1.00  0.00     0.029 A 
ATOM     56  C   UNL A   1      45.056  31.563  28.286  1.00  0.00     0.049 A 
ATOM     57  H   UNL A   1      43.840  29.839  28.359  1.00  0.00     0.167 HD
ATOM     58  C   UNL A   1      43.020  32.289  29.492  1.00  0.00     0.074 A 
ATOM     59  C   UNL A   1      42.223  33.269  30.197  1.00  0.00     0.031 C 
ATOM     60  C   UNL A   1      44.247  32.537  28.972  1.00  0.00     0.037 A 
BRANCH  47  61
ATOM     61  C   UNL A   1      46.844  27.612  26.313  1.00  0.00     0.064 A 
ATOM     62  C   UNL A   1      46.965  27.655  24.916  1.00  0.00     0.173 A 
ATOM     63  C   UNL A   1      47.877  27.011  27.045  1.00  0.00     0.173 A 
ATOM     64  F   UNL A   1      45.994  28.203  24.170  1.00  0.00    -0.203 F 
ATOM     65  C   UNL A   1      48.063  27.087  24.275  1.00  0.00     0.198 A 
ATOM     66  C   UNL A   1      48.988  26.472  26.404  1.00  0.00     0.198 A 
ATOM     67  F   UNL A   1      47.808  26.946  28.383  1.00  0.00    -0.203 F 
ATOM     68  F   UNL A   1      48.131  27.089  22.937  1.00  0.00    -0.200 F 
ATOM     69  C   UNL A   1      49.076  26.502  25.020  1.00  0.00     0.200 A 
ATOM     70  F   UNL A   1      49.971  25.915  27.125  1.00  0.00    -0.200 F 
ATOM     71  F   UNL A   1      50.133  25.958  24.403  1.00  0.00    -0.200 F 
ENDBRANCH  47  61
BRANCH  48  72
ATOM     72  C   UNL A   1      38.779  31.007  31.059  1.00  0.00     0.064 A 
ATOM     73  C   UNL A   1      38.665  30.930  32.455  1.00  0.00     0.173 A 
ATOM     74  C   UNL A   1      37.701  31.551  30.346  1.00  0.00     0.173 A 
ATOM     75  F   UNL A   1      39.657  30.391  33.178  1.00  0.00    -0.203 F 
ATOM     76  C   UNL A   1      37.508  31.352  33.107  1.00  0.00     0.198 A 
ATOM     77  C   UNL A   1      36.555  31.998  31.002  1.00  0.00     0.198 A 
ATOM     78  F   UNL A   1      37.757  31.643  29.009  1.00  0.00    -0.203 F 
ATOM     79  F   UNL A   1      37.401  31.212  34.435  1.00  0.00    -0.200 F 
ATOM     80  C   UNL A   1      36.455  31.889  32.380  1.00  0.00     0.200 A 
ATOM     81  F   UNL A   1      35.544  32.522  30.296  1.00  0.00    -0.200 F 
ATOM     82  F   UNL A   1      35.340  32.285  33.007  1.00  0.00    -0.200 F 
ENDBRANCH  48  72
BRANCH  60  83
ATOM     83  C   UNL A   1      44.798  33.928  29.103  1.00  0.00     0.064 A 
ATOM     84  C   UNL A   1      45.671  34.281  30.142  1.00  0.00     0.173 A 
ATOM     85  C   UNL A   1      44.500  34.902  28.136  1.00  0.00     0.173 A 
ATOM     86  F   UNL A   1      45.979  33.392  31.098  1.00  0.00    -0.203 F 
ATOM     87  C   UNL A   1      46.211  35.563  30.217  1.00  0.00     0.198 A 
ATOM     88  C   UNL A   1      45.065  36.172  28.198  1.00  0.00     0.198 A 
ATOM     89  F   UNL A   1      43.677  34.612  27.116  1.00  0.00    -0.203 F 
ATOM     90  F   UNL A   1      47.013  35.890  31.240  1.00  0.00    -0.200 F 
ATOM     91  C   UNL A   1      45.916  36.503  29.242  1.00  0.00     0.200 A 
ATOM     92  F   UNL A   1      44.792  37.073  27.245  1.00  0.00    -0.200 F 
ATOM     93  F   UNL A   1      46.449  37.732  29.309  1.00  0.00    -0.200 F 
ENDBRANCH  60  83
ENDBRANCH  34  35
ENDBRANCH  27  29
ENDBRANCH  26  27
ENDBRANCH  25  26
ENDBRANCH  24  25
ENDBRANCH   1  24
TORSDOF 17
ENDMDL
MODEL 3
REMARK VINA RESULT:     -11.2      4.238      9.598
REMARK SMILES CC[C@@H](C(=O)OCCOCCOC(=O)c1ccc(-c2c3nc(c(-c4c(F)c(F)c(F)c(F)c4F)c4ccc([nH]4)c(-c4c(F)c(F)c(F)c(F)c4F)c4nc(c(-c5c(F)c(F)c(F)c(F)c5F)c5ccc2[nH]5)C=C4)C=C3)cc1)[N@@H+]1CCc2ccc(N)cc2C1
REMARK SMILES IDX 9 1 8 2 7 3 6 4 4 5 5 6 3 7 2 8 1 9 78 10 79 11 88 12 80 14
REMARK SMILES IDX 87 15 81 16 86 17 82 18 84 19 83 20 85 21 10 24 11 25 12 26
REMARK SMILES IDX 13 27 14 28 15 29 16 30 77 31 17 32 76 33 18 34 19 35 20 36
REMARK SMILES IDX 70 37 21 38 75 39 69 40 71 41 22 42 74 43 68 44 67 45 23 47
REMARK SMILES IDX 55 48 35 49 54 50 36 51 39 52 53 53 72 54 37 55 38 56 52 58
REMARK SMILES IDX 73 59 40 60 24 61 25 62 33 63 26 64 27 65 31 66 34 67 28 68
REMARK SMILES IDX 29 69 32 70 30 71 56 72 57 73 65 74 58 75 59 76 63 77 66 78
REMARK SMILES IDX 60 79 61 80 64 81 62 82 41 83 42 84 50 85 43 86 44 87 48 88
REMARK SMILES IDX 51 89 45 90 46 91 49 92 47 93
REMARK H PARENT 78 13 85 22 85 23 71 46 39 57
REMARK Flexibility Score: inf
ROOT
ATOM      1  O   UNL A   1      35.279  21.566  25.735  1.00  0.00    -0.374 OA
ENDROOT
BRANCH   1   2
ATOM      2  C   UNL A   1      34.359  21.286  26.814  1.00  0.00     0.202 C 
BRANCH   2   3
ATOM      3  C   UNL A   1      33.822  22.569  27.581  1.00  0.00     0.261 C 
BRANCH   3   4
ATOM      4  O   UNL A   1      33.105  23.737  26.860  1.00  0.00    -0.459 OA
BRANCH   4   5
ATOM      5  C   UNL A   1      32.187  24.741  26.763  1.00  0.00     0.364 C 
ATOM      6  O   UNL A   1      31.078  24.461  27.251  1.00  0.00    -0.245 OA
BRANCH   5   7
ATOM      7  C   UNL A   1      32.264  26.170  26.016  1.00  0.00     0.295 C 
BRANCH   7   8
ATOM      8  C   UNL A   1      32.522  27.431  26.932  1.00  0.00     0.074 C 
ATOM      9  C   UNL A   1      31.701  28.704  26.788  1.00  0.00     0.011 C 
ENDBRANCH   7   8
BRANCH   7  10
ATOM     10  N   UNL A   1      31.376  26.430  24.824  1.00  0.00    -0.319 N 
ATOM     11  C   UNL A   1      30.378  25.387  24.390  1.00  0.00     0.268 C 
ATOM     12  C   UNL A   1      32.213  26.619  23.682  1.00  0.00     0.300 C 
ATOM     13  H   UNL A   1      30.821  27.224  25.146  1.00  0.00     0.349 HD
ATOM     14  C   UNL A   1      30.724  24.542  23.065  1.00  0.00     0.097 C 
ATOM     15  C   UNL A   1      32.988  25.346  23.424  1.00  0.00     0.012 A 
ATOM     16  C   UNL A   1      32.212  24.305  22.942  1.00  0.00    -0.033 A 
ATOM     17  C   UNL A   1      34.301  25.059  23.808  1.00  0.00     0.035 A 
ATOM     18  C   UNL A   1      32.843  23.150  22.490  1.00  0.00     0.006 A 
ATOM     19  C   UNL A   1      34.929  23.865  23.503  1.00  0.00     0.032 A 
ATOM     20  C   UNL A   1      34.214  22.953  22.743  1.00  0.00     0.026 A 
BRANCH  19  21
ATOM     21  N   UNL A   1      36.250  23.694  23.876  1.00  0.00    -0.399 N 
ATOM     22  H   UNL A   1      36.969  23.834  23.218  1.00  0.00     0.156 HD
ATOM     23  H   UNL A   1      36.472  23.434  24.799  1.00  0.00     0.156 HD
ENDBRANCH  19  21
ENDBRANCH   7  10
ENDBRANCH   5   7
ENDBRANCH   4   5
ENDBRANCH   3   4
ENDBRANCH   2   3
ENDBRANCH   1   2
BRANCH   1  24
ATOM     24  C   UNL A   1      35.960  20.472  25.104  1.00  0.00     0.202 C 
BRANCH  24  25
ATOM     25  C   UNL A   1      37.489  20.459  24.998  1.00  0.00     0.261 C 
BRANCH  25  26
ATOM     26  O   UNL A   1      38.081  21.612  25.594  1.00  0.00    -0.460 OA
BRANCH  26  27
ATOM     27  C   UNL A   1      39.301  21.380  26.131  1.00  0.00     0.338 C 
ATOM     28  O   UNL A   1      40.008  20.406  26.002  1.00  0.00    -0.246 OA
BRANCH  27  29
ATOM     29  C   UNL A   1      39.727  22.592  26.841  1.00  0.00     0.060 A 
ATOM     30  C   UNL A   1      39.110  23.793  26.501  1.00  0.00     0.016 A 
ATOM     31  C   UNL A   1      40.786  22.554  27.747  1.00  0.00     0.016 A 
ATOM     32  C   UNL A   1      39.589  24.983  27.044  1.00  0.00     0.010 A 
ATOM     33  C   UNL A   1      41.227  23.744  28.334  1.00  0.00     0.010 A 
ATOM     34  C   UNL A   1      40.666  24.974  27.944  1.00  0.00    -0.014 A 
BRANCH  34  35
ATOM     35  C   UNL A   1      41.309  26.266  28.301  1.00  0.00     0.031 A 
ATOM     36  C   UNL A   1      42.702  26.551  27.801  1.00  0.00     0.074 A 
ATOM     37  C   UNL A   1      40.632  27.222  28.967  1.00  0.00     0.049 A 
ATOM     38  N   UNL A   1      43.404  27.653  27.880  1.00  0.00    -0.248 NA
ATOM     39  C   UNL A   1      43.399  25.447  27.122  1.00  0.00     0.031 C 
ATOM     40  C   UNL A   1      39.279  27.088  29.501  1.00  0.00     0.029 A 
ATOM     41  N   UNL A   1      40.991  28.511  29.281  1.00  0.00    -0.354 N 
ATOM     42  C   UNL A   1      44.614  27.374  27.259  1.00  0.00     0.074 A 
ATOM     43  C   UNL A   1      44.582  25.983  26.870  1.00  0.00     0.031 C 
ATOM     44  C   UNL A   1      38.908  28.257  30.051  1.00  0.00     0.029 A 
ATOM     45  C   UNL A   1      40.004  29.217  29.924  1.00  0.00     0.049 A 
ATOM     46  H   UNL A   1      41.872  28.892  29.067  1.00  0.00     0.167 HD
ATOM     47  C   UNL A   1      45.648  28.205  26.997  1.00  0.00     0.037 A 
ATOM     48  C   UNL A   1      39.984  30.496  30.351  1.00  0.00     0.037 A 
ATOM     49  C   UNL A   1      45.686  29.596  27.351  1.00  0.00     0.049 A 
ATOM     50  C   UNL A   1      41.172  31.390  30.094  1.00  0.00     0.074 A 
ATOM     51  C   UNL A   1      46.681  30.522  27.100  1.00  0.00     0.029 A 
ATOM     52  N   UNL A   1      44.683  30.259  28.040  1.00  0.00    -0.354 N 
ATOM     53  N   UNL A   1      42.283  31.129  29.449  1.00  0.00    -0.248 NA
ATOM     54  C   UNL A   1      41.094  32.763  30.615  1.00  0.00     0.031 C 
ATOM     55  C   UNL A   1      46.303  31.737  27.679  1.00  0.00     0.029 A 
ATOM     56  C   UNL A   1      45.049  31.580  28.245  1.00  0.00     0.049 A 
ATOM     57  H   UNL A   1      43.837  29.853  28.338  1.00  0.00     0.167 HD
ATOM     58  C   UNL A   1      43.018  32.309  29.459  1.00  0.00     0.074 A 
ATOM     59  C   UNL A   1      42.223  33.293  30.162  1.00  0.00     0.031 C 
ATOM     60  C   UNL A   1      44.241  32.556  28.929  1.00  0.00     0.037 A 
BRANCH  47  61
ATOM     61  C   UNL A   1      46.834  27.619  26.289  1.00  0.00     0.064 A 
ATOM     62  C   UNL A   1      46.948  27.657  24.891  1.00  0.00     0.173 A 
ATOM     63  C   UNL A   1      47.870  27.020  27.018  1.00  0.00     0.173 A 
ATOM     64  F   UNL A   1      45.974  28.203  24.148  1.00  0.00    -0.203 F 
ATOM     65  C   UNL A   1      48.044  27.087  24.248  1.00  0.00     0.198 A 
ATOM     66  C   UNL A   1      48.978  26.479  26.374  1.00  0.00     0.198 A 
ATOM     67  F   UNL A   1      47.807  26.959  28.357  1.00  0.00    -0.203 F 
ATOM     68  F   UNL A   1      48.105  27.084  22.909  1.00  0.00    -0.200 F 
ATOM     69  C   UNL A   1      49.060  26.504  24.990  1.00  0.00     0.200 A 
ATOM     70  F   UNL A   1      49.965  25.925  27.093  1.00  0.00    -0.200 F 
ATOM     71  F   UNL A   1      50.114  25.959  24.370  1.00  0.00    -0.200 F 
ENDBRANCH  47  61
BRANCH  48  72
ATOM     72  C   UNL A   1      38.790  31.028  31.062  1.00  0.00     0.064 A 
ATOM     73  C   UNL A   1      38.672  30.933  32.456  1.00  0.00     0.173 A 
ATOM     74  C   UNL A   1      37.720  31.593  30.354  1.00  0.00     0.173 A 
ATOM     75  F   UNL A   1      39.656  30.374  33.175  1.00  0.00    -0.203 F 
ATOM     76  C   UNL A   1      37.516  31.357  33.111  1.00  0.00     0.198 A 
ATOM     77  C   UNL A   1      36.577  32.042  31.013  1.00  0.00     0.198 A 
ATOM     78  F   UNL A   1      37.782  31.703  29.018  1.00  0.00    -0.203 F 
ATOM     79  F   UNL A   1      37.405  31.200  34.437  1.00  0.00    -0.200 F 
ATOM     80  C   UNL A   1      36.472  31.915  32.389  1.00  0.00     0.200 A 
ATOM     81  F   UNL A   1      35.573  32.587  30.311  1.00  0.00    -0.200 F 
ATOM     82  F   UNL A   1      35.358  32.313  33.018  1.00  0.00    -0.200 F 
ENDBRANCH  48  72
BRANCH  60  83
ATOM     83  C   UNL A   1      44.789  33.950  29.047  1.00  0.00     0.064 A 
ATOM     84  C   UNL A   1      44.513  34.935  28.088  1.00  0.00     0.173 A 
ATOM     85  C   UNL A   1      45.545  34.321  30.170  1.00  0.00     0.173 A 
ATOM     86  F   UNL A   1      43.805  34.630  26.990  1.00  0.00    -0.203 F 
ATOM     87  C   UNL A   1      44.988  36.235  28.241  1.00  0.00     0.198 A 
ATOM     88  C   UNL A   1      45.993  35.628  30.335  1.00  0.00     0.198 A 
ATOM     89  F   UNL A   1      45.829  33.418  31.122  1.00  0.00    -0.203 F 
ATOM     90  F   UNL A   1      44.744  37.151  27.294  1.00  0.00    -0.200 F 
ATOM     91  C   UNL A   1      45.719  36.583  29.367  1.00  0.00     0.200 A 
ATOM     92  F   UNL A   1      46.684  35.966  31.433  1.00  0.00    -0.200 F 
ATOM     93  F   UNL A   1      46.163  37.839  29.519  1.00  0.00    -0.200 F 
ENDBRANCH  60  83
ENDBRANCH  34  35
ENDBRANCH  27  29
ENDBRANCH  26  27
ENDBRANCH  25  26
ENDBRANCH  24  25
ENDBRANCH   1  24
TORSDOF 17
ENDMDL
