MODEL 1
REMARK VINA RESULT:     -12.1      0.000      0.000
REMARK SMILES Cc1nn2c(nnc3c(=O)n(CCCC(=O)OCCOCCOC(=O)c4ccc(-c5c6nc(c(-c7c(F)c(F)c(F)c(F)c7F)c7ccc([nH]7)c(-c7c(F)c(F)c(F)c(F)c7F)c7nc(c(-c8c(F)c(F)c(F)c(F)c8F)c8ccc5[nH]8)C=C7)C=C6)cc4)ccc32)c1-c1ccc(F)cc1
REMARK SMILES IDX 19 1 18 2 17 3 15 4 16 5 14 6 13 7 12 8 11 9 1 10 2 11 3 12
REMARK SMILES IDX 92 13 4 14 5 15 91 16 6 17 8 18 90 19 7 20 9 21 89 22 10 23
REMARK SMILES IDX 93 24 94 25 99 26 95 27 98 28 96 29 97 30 20 31 21 32 22 33
REMARK SMILES IDX 23 34 24 35 25 36 26 37 27 38 88 39 28 40 87 41 29 42 30 43
REMARK SMILES IDX 31 44 81 45 32 46 86 47 80 48 82 49 33 50 85 51 79 52 78 53
REMARK SMILES IDX 34 55 66 56 46 57 65 58 47 59 50 60 64 61 83 62 48 63 49 64
REMARK SMILES IDX 63 66 84 67 51 68 35 69 36 70 44 71 37 72 38 73 42 74 45 75
REMARK SMILES IDX 39 76 40 77 43 78 41 79 67 80 68 81 76 82 69 83 70 84 74 85
REMARK SMILES IDX 77 86 71 87 72 88 75 89 73 90 52 91 53 92 61 93 54 94 55 95
REMARK SMILES IDX 59 96 62 97 56 98 57 99 60 100 58 101
REMARK H PARENT 82 54 50 65
REMARK Flexibility Score: inf
ROOT
ATOM      1  C   UNL A   1      33.054  35.131  29.388  1.00  0.00     0.202 C 
ENDROOT
BRANCH   1   2
ATOM      2  C   UNL A   1      33.775  34.437  28.238  1.00  0.00     0.261 C 
BRANCH   2   3
ATOM      3  O   UNL A   1      33.433  33.042  28.193  1.00  0.00    -0.463 OA
BRANCH   3   4
ATOM      4  C   UNL A   1      34.373  32.230  27.649  1.00  0.00     0.305 C 
ATOM      5  O   UNL A   1      35.561  32.508  27.523  1.00  0.00    -0.252 OA
BRANCH   4   6
ATOM      6  C   UNL A   1      33.833  30.874  27.248  1.00  0.00     0.124 C 
BRANCH   6   7
ATOM      7  C   UNL A   1      32.319  30.634  27.251  1.00  0.00     0.034 C 
BRANCH   7   8
ATOM      8  C   UNL A   1      31.682  29.945  26.030  1.00  0.00     0.126 C 
BRANCH   8   9
ATOM      9  N   UNL A   1      32.317  28.684  25.652  1.00  0.00    -0.313 N 
ATOM     10  C   UNL A   1      36.171  22.570  23.258  1.00  0.00     0.069 C 
ATOM     11  C   UNL A   1      35.001  23.316  23.785  1.00  0.00     0.070 A 
ATOM     12  N   UNL A   1      35.013  24.659  23.820  1.00  0.00    -0.170 NA
ATOM     13  C   UNL A   1      33.794  22.784  24.291  1.00  0.00     0.051 A 
ATOM     14  N   UNL A   1      33.863  24.997  24.467  1.00  0.00    -0.210 N 
ATOM     15  C   UNL A   1      33.112  23.872  24.780  1.00  0.00     0.186 A 
ATOM     16  C   UNL A   1      33.406  26.251  24.871  1.00  0.00     0.102 A 
ATOM     17  N   UNL A   1      31.947  23.980  25.480  1.00  0.00    -0.129 NA
ATOM     18  C   UNL A   1      32.305  26.236  25.642  1.00  0.00     0.177 A 
ATOM     19  C   UNL A   1      34.028  27.507  24.498  1.00  0.00     0.049 A 
ATOM     20  N   UNL A   1      31.595  25.092  25.941  1.00  0.00    -0.141 NA
ATOM     21  C   UNL A   1      31.833  27.512  26.237  1.00  0.00     0.280 A 
ATOM     22  C   UNL A   1      33.436  28.665  24.834  1.00  0.00     0.091 A 
ATOM     23  O   UNL A   1      31.045  27.489  27.176  1.00  0.00    -0.267 OA
BRANCH  13  24
ATOM     24  C   UNL A   1      33.290  21.439  24.449  1.00  0.00    -0.012 A 
ATOM     25  C   UNL A   1      32.603  20.810  23.405  1.00  0.00     0.012 A 
ATOM     26  C   UNL A   1      33.586  20.724  25.621  1.00  0.00     0.012 A 
ATOM     27  C   UNL A   1      32.221  19.473  23.532  1.00  0.00     0.040 A 
ATOM     28  C   UNL A   1      33.199  19.390  25.746  1.00  0.00     0.040 A 
ATOM     29  C   UNL A   1      32.523  18.777  24.698  1.00  0.00     0.123 A 
ATOM     30  F   UNL A   1      32.167  17.490  24.808  1.00  0.00    -0.207 F 
ENDBRANCH  13  24
ENDBRANCH   8   9
ENDBRANCH   7   8
ENDBRANCH   6   7
ENDBRANCH   4   6
ENDBRANCH   3   4
ENDBRANCH   2   3
ENDBRANCH   1   2
BRANCH   1  31
ATOM     31  O   UNL A   1      33.848  35.559  30.497  1.00  0.00    -0.374 OA
BRANCH  31  32
ATOM     32  C   UNL A   1      34.081  34.674  31.586  1.00  0.00     0.202 C 
BRANCH  32  33
ATOM     33  C   UNL A   1      35.464  34.042  31.719  1.00  0.00     0.261 C 
BRANCH  33  34
ATOM     34  O   UNL A   1      35.755  33.086  30.709  1.00  0.00    -0.460 OA
BRANCH  34  35
ATOM     35  C   UNL A   1      35.971  31.858  31.217  1.00  0.00     0.338 C 
ATOM     36  O   UNL A   1      35.615  31.432  32.321  1.00  0.00    -0.246 OA
BRANCH  35  37
ATOM     37  C   UNL A   1      36.858  31.096  30.350  1.00  0.00     0.060 A 
ATOM     38  C   UNL A   1      36.716  29.705  30.406  1.00  0.00     0.016 A 
ATOM     39  C   UNL A   1      38.030  31.718  29.902  1.00  0.00     0.016 A 
ATOM     40  C   UNL A   1      37.842  28.935  30.264  1.00  0.00     0.010 A 
ATOM     41  C   UNL A   1      39.162  30.948  29.797  1.00  0.00     0.010 A 
ATOM     42  C   UNL A   1      39.062  29.582  30.064  1.00  0.00    -0.014 A 
BRANCH  42  43
ATOM     43  C   UNL A   1      40.258  28.774  30.112  1.00  0.00     0.031 A 
ATOM     44  C   UNL A   1      40.830  28.649  31.467  1.00  0.00     0.074 A 
ATOM     45  C   UNL A   1      40.708  28.121  29.025  1.00  0.00     0.049 A 
ATOM     46  N   UNL A   1      42.001  29.006  31.879  1.00  0.00    -0.248 NA
ATOM     47  C   UNL A   1      39.929  28.177  32.531  1.00  0.00     0.031 C 
ATOM     48  C   UNL A   1      40.029  27.937  27.740  1.00  0.00     0.029 A 
ATOM     49  N   UNL A   1      41.835  27.378  28.890  1.00  0.00    -0.354 N 
ATOM     50  C   UNL A   1      42.039  28.646  33.220  1.00  0.00     0.074 A 
ATOM     51  C   UNL A   1      40.695  28.314  33.608  1.00  0.00     0.031 C 
ATOM     52  C   UNL A   1      40.655  26.957  27.049  1.00  0.00     0.029 A 
ATOM     53  C   UNL A   1      41.829  26.530  27.794  1.00  0.00     0.049 A 
ATOM     54  H   UNL A   1      42.593  27.436  29.517  1.00  0.00     0.167 HD
ATOM     55  C   UNL A   1      43.213  28.386  33.851  1.00  0.00     0.037 A 
ATOM     56  C   UNL A   1      42.674  25.487  27.597  1.00  0.00     0.037 A 
ATOM     57  C   UNL A   1      44.324  29.001  33.181  1.00  0.00     0.049 A 
ATOM     58  C   UNL A   1      43.839  25.685  28.500  1.00  0.00     0.074 A 
ATOM     59  C   UNL A   1      44.651  30.307  32.866  1.00  0.00     0.029 A 
ATOM     60  N   UNL A   1      45.138  28.213  32.407  1.00  0.00    -0.354 N 
ATOM     61  N   UNL A   1      44.733  26.625  28.362  1.00  0.00    -0.248 NA
ATOM     62  C   UNL A   1      43.786  25.065  29.817  1.00  0.00     0.031 C 
ATOM     63  C   UNL A   1      45.301  30.233  31.602  1.00  0.00     0.029 A 
ATOM     64  C   UNL A   1      45.366  28.887  31.236  1.00  0.00     0.049 A 
ATOM     65  H   UNL A   1      45.492  27.327  32.648  1.00  0.00     0.167 HD
ATOM     66  C   UNL A   1      45.070  26.988  29.658  1.00  0.00     0.074 A 
ATOM     67  C   UNL A   1      44.534  25.929  30.505  1.00  0.00     0.031 C 
ATOM     68  C   UNL A   1      45.501  28.249  29.947  1.00  0.00     0.037 A 
BRANCH  55  69
ATOM     69  C   UNL A   1      43.360  27.285  34.866  1.00  0.00     0.064 A 
ATOM     70  C   UNL A   1      43.685  27.610  36.194  1.00  0.00     0.173 A 
ATOM     71  C   UNL A   1      43.459  25.915  34.530  1.00  0.00     0.173 A 
ATOM     72  F   UNL A   1      43.674  28.886  36.606  1.00  0.00    -0.203 F 
ATOM     73  C   UNL A   1      44.113  26.640  37.103  1.00  0.00     0.198 A 
ATOM     74  C   UNL A   1      43.820  24.943  35.455  1.00  0.00     0.198 A 
ATOM     75  F   UNL A   1      43.321  25.476  33.271  1.00  0.00    -0.203 F 
ATOM     76  F   UNL A   1      44.524  27.010  38.323  1.00  0.00    -0.200 F 
ATOM     77  C   UNL A   1      44.175  25.307  36.735  1.00  0.00     0.200 A 
ATOM     78  F   UNL A   1      43.898  23.661  35.068  1.00  0.00    -0.200 F 
ATOM     79  F   UNL A   1      44.627  24.383  37.591  1.00  0.00    -0.200 F 
ENDBRANCH  55  69
BRANCH  56  80
ATOM     80  C   UNL A   1      42.391  24.183  26.945  1.00  0.00     0.064 A 
ATOM     81  C   UNL A   1      43.128  23.772  25.821  1.00  0.00     0.173 A 
ATOM     82  C   UNL A   1      41.591  23.197  27.558  1.00  0.00     0.173 A 
ATOM     83  F   UNL A   1      43.950  24.631  25.202  1.00  0.00    -0.203 F 
ATOM     84  C   UNL A   1      43.093  22.451  25.361  1.00  0.00     0.198 A 
ATOM     85  C   UNL A   1      41.544  21.884  27.087  1.00  0.00     0.198 A 
ATOM     86  F   UNL A   1      40.911  23.455  28.683  1.00  0.00    -0.203 F 
ATOM     87  F   UNL A   1      43.868  22.081  24.332  1.00  0.00    -0.200 F 
ATOM     88  C   UNL A   1      42.307  21.506  26.000  1.00  0.00     0.200 A 
ATOM     89  F   UNL A   1      40.804  20.973  27.736  1.00  0.00    -0.200 F 
ATOM     90  F   UNL A   1      42.320  20.228  25.599  1.00  0.00    -0.200 F 
ENDBRANCH  56  80
BRANCH  68  91
ATOM     91  C   UNL A   1      45.887  29.145  28.807  1.00  0.00     0.064 A 
ATOM     92  C   UNL A   1      44.974  29.953  28.109  1.00  0.00     0.173 A 
ATOM     93  C   UNL A   1      47.252  29.341  28.552  1.00  0.00     0.173 A 
ATOM     94  F   UNL A   1      43.661  29.890  28.366  1.00  0.00    -0.203 F 
ATOM     95  C   UNL A   1      45.412  30.900  27.184  1.00  0.00     0.198 A 
ATOM     96  C   UNL A   1      47.687  30.312  27.656  1.00  0.00     0.198 A 
ATOM     97  F   UNL A   1      48.170  28.633  29.232  1.00  0.00    -0.203 F 
ATOM     98  F   UNL A   1      44.522  31.665  26.534  1.00  0.00    -0.200 F 
ATOM     99  C   UNL A   1      46.768  31.088  26.970  1.00  0.00     0.200 A 
ATOM    100  F   UNL A   1      49.000  30.525  27.490  1.00  0.00    -0.200 F 
ATOM    101  F   UNL A   1      47.190  32.040  26.126  1.00  0.00    -0.200 F 
ENDBRANCH  68  91
ENDBRANCH  42  43
ENDBRANCH  35  37
ENDBRANCH  34  35
ENDBRANCH  33  34
ENDBRANCH  32  33
ENDBRANCH  31  32
ENDBRANCH   1  31
TORSDOF 18
ENDMDL
MODEL 2
REMARK VINA RESULT:     -12.0      4.815     10.248
REMARK SMILES Cc1nn2c(nnc3c(=O)n(CCCC(=O)OCCOCCOC(=O)c4ccc(-c5c6nc(c(-c7c(F)c(F)c(F)c(F)c7F)c7ccc([nH]7)c(-c7c(F)c(F)c(F)c(F)c7F)c7nc(c(-c8c(F)c(F)c(F)c(F)c8F)c8ccc5[nH]8)C=C7)C=C6)cc4)ccc32)c1-c1ccc(F)cc1
REMARK SMILES IDX 19 1 18 2 17 3 15 4 16 5 14 6 13 7 12 8 11 9 1 10 2 11 3 12
REMARK SMILES IDX 92 13 4 14 5 15 91 16 6 17 8 18 90 19 7 20 9 21 89 22 10 23
REMARK SMILES IDX 93 24 94 25 99 26 95 27 98 28 96 29 97 30 20 31 21 32 22 33
REMARK SMILES IDX 23 34 24 35 25 36 26 37 27 38 88 39 28 40 87 41 29 42 30 43
REMARK SMILES IDX 31 44 81 45 32 46 86 47 80 48 82 49 33 50 85 51 79 52 78 53
REMARK SMILES IDX 34 55 66 56 46 57 65 58 47 59 50 60 64 61 83 62 48 63 49 64
REMARK SMILES IDX 63 66 84 67 51 68 35 69 36 70 44 71 37 72 38 73 42 74 45 75
REMARK SMILES IDX 39 76 40 77 43 78 41 79 67 80 68 81 76 82 69 83 70 84 74 85
REMARK SMILES IDX 77 86 71 87 72 88 75 89 73 90 52 91 53 92 61 93 54 94 55 95
REMARK SMILES IDX 59 96 62 97 56 98 57 99 60 100 58 101
REMARK H PARENT 82 54 50 65
REMARK Flexibility Score: inf
ROOT
ATOM      1  C   UNL A   1      46.095  19.968  25.336  1.00  0.00     0.202 C 
ENDROOT
BRANCH   1   2
ATOM      2  C   UNL A   1      45.191  19.243  24.346  1.00  0.00     0.261 C 
BRANCH   2   3
ATOM      3  O   UNL A   1      44.610  18.076  24.950  1.00  0.00    -0.463 OA
BRANCH   3   4
ATOM      4  C   UNL A   1      43.607  18.314  25.830  1.00  0.00     0.305 C 
ATOM      5  O   UNL A   1      43.391  17.666  26.850  1.00  0.00    -0.252 OA
BRANCH   4   6
ATOM      6  C   UNL A   1      42.774  19.527  25.475  1.00  0.00     0.124 C 
BRANCH   6   7
ATOM      7  C   UNL A   1      41.461  19.785  26.221  1.00  0.00     0.034 C 
BRANCH   7   8
ATOM      8  C   UNL A   1      40.904  21.220  26.254  1.00  0.00     0.126 C 
BRANCH   8   9
ATOM      9  N   UNL A   1      39.485  21.324  25.922  1.00  0.00    -0.313 N 
ATOM     10  C   UNL A   1      32.139  21.077  23.937  1.00  0.00     0.069 C 
ATOM     11  C   UNL A   1      33.438  21.721  24.254  1.00  0.00     0.070 A 
ATOM     12  N   UNL A   1      34.546  20.976  24.401  1.00  0.00    -0.170 NA
ATOM     13  C   UNL A   1      33.698  23.098  24.437  1.00  0.00     0.051 A 
ATOM     14  N   UNL A   1      35.503  21.857  24.805  1.00  0.00    -0.210 N 
ATOM     15  C   UNL A   1      35.006  23.153  24.852  1.00  0.00     0.186 A 
ATOM     16  C   UNL A   1      36.819  21.621  25.201  1.00  0.00     0.102 A 
ATOM     17  N   UNL A   1      35.783  24.186  25.286  1.00  0.00    -0.129 NA
ATOM     18  C   UNL A   1      37.463  22.687  25.708  1.00  0.00     0.177 A 
ATOM     19  C   UNL A   1      37.493  20.342  25.079  1.00  0.00     0.049 A 
ATOM     20  N   UNL A   1      36.927  23.957  25.748  1.00  0.00    -0.141 NA
ATOM     21  C   UNL A   1      38.816  22.494  26.288  1.00  0.00     0.280 A 
ATOM     22  C   UNL A   1      38.801  20.252  25.371  1.00  0.00     0.091 A 
ATOM     23  O   UNL A   1      39.287  23.351  27.026  1.00  0.00    -0.267 OA
BRANCH  13  24
ATOM     24  C   UNL A   1      32.873  24.282  24.370  1.00  0.00    -0.012 A 
ATOM     25  C   UNL A   1      32.470  24.798  23.133  1.00  0.00     0.012 A 
ATOM     26  C   UNL A   1      32.386  24.853  25.556  1.00  0.00     0.012 A 
ATOM     27  C   UNL A   1      31.583  25.875  23.086  1.00  0.00     0.040 A 
ATOM     28  C   UNL A   1      31.502  25.931  25.506  1.00  0.00     0.040 A 
ATOM     29  C   UNL A   1      31.107  26.429  24.270  1.00  0.00     0.123 A 
ATOM     30  F   UNL A   1      30.245  27.453  24.219  1.00  0.00    -0.207 F 
ENDBRANCH  13  24
ENDBRANCH   8   9
ENDBRANCH   7   8
ENDBRANCH   6   7
ENDBRANCH   4   6
ENDBRANCH   3   4
ENDBRANCH   2   3
ENDBRANCH   1   2
BRANCH   1  31
ATOM     31  O   UNL A   1      46.479  21.307  25.015  1.00  0.00    -0.374 OA
BRANCH  31  32
ATOM     32  C   UNL A   1      45.488  22.321  24.899  1.00  0.00     0.202 C 
BRANCH  32  33
ATOM     33  C   UNL A   1      44.584  22.586  26.100  1.00  0.00     0.261 C 
BRANCH  33  34
ATOM     34  O   UNL A   1      44.228  23.953  26.257  1.00  0.00    -0.460 OA
BRANCH  34  35
ATOM     35  C   UNL A   1      43.122  24.274  25.561  1.00  0.00     0.338 C 
ATOM     36  O   UNL A   1      42.925  24.112  24.352  1.00  0.00    -0.246 OA
BRANCH  35  37
ATOM     37  C   UNL A   1      42.192  25.022  26.396  1.00  0.00     0.060 A 
ATOM     38  C   UNL A   1      41.487  26.045  25.754  1.00  0.00     0.016 A 
ATOM     39  C   UNL A   1      42.389  24.994  27.782  1.00  0.00     0.016 A 
ATOM     40  C   UNL A   1      41.204  27.181  26.470  1.00  0.00     0.010 A 
ATOM     41  C   UNL A   1      42.138  26.145  28.486  1.00  0.00     0.010 A 
ATOM     42  C   UNL A   1      41.629  27.246  27.798  1.00  0.00    -0.014 A 
BRANCH  42  43
ATOM     43  C   UNL A   1      41.499  28.515  28.475  1.00  0.00     0.031 A 
ATOM     44  C   UNL A   1      42.580  29.468  28.154  1.00  0.00     0.074 A 
ATOM     45  C   UNL A   1      40.420  28.802  29.225  1.00  0.00     0.049 A 
ATOM     46  N   UNL A   1      43.429  30.018  28.958  1.00  0.00    -0.248 NA
ATOM     47  C   UNL A   1      42.825  29.745  26.729  1.00  0.00     0.031 C 
ATOM     48  C   UNL A   1      39.170  28.046  29.334  1.00  0.00     0.029 A 
ATOM     49  N   UNL A   1      40.176  29.912  29.968  1.00  0.00    -0.354 N 
ATOM     50  C   UNL A   1      44.207  30.842  28.155  1.00  0.00     0.074 A 
ATOM     51  C   UNL A   1      43.917  30.500  26.789  1.00  0.00     0.031 C 
ATOM     52  C   UNL A   1      38.232  28.828  29.912  1.00  0.00     0.029 A 
ATOM     53  C   UNL A   1      38.843  30.087  30.306  1.00  0.00     0.049 A 
ATOM     54  H   UNL A   1      40.884  30.540  30.241  1.00  0.00     0.167 HD
ATOM     55  C   UNL A   1      44.838  31.933  28.661  1.00  0.00     0.037 A 
ATOM     56  C   UNL A   1      38.291  31.235  30.771  1.00  0.00     0.037 A 
ATOM     57  C   UNL A   1      45.031  31.825  30.079  1.00  0.00     0.049 A 
ATOM     58  C   UNL A   1      39.402  32.097  31.258  1.00  0.00     0.074 A 
ATOM     59  C   UNL A   1      45.693  30.924  30.892  1.00  0.00     0.029 A 
ATOM     60  N   UNL A   1      44.201  32.538  30.907  1.00  0.00    -0.354 N 
ATOM     61  N   UNL A   1      40.127  31.846  32.313  1.00  0.00    -0.248 NA
ATOM     62  C   UNL A   1      39.977  33.051  30.319  1.00  0.00     0.031 C 
ATOM     63  C   UNL A   1      44.895  30.827  32.067  1.00  0.00     0.029 A 
ATOM     64  C   UNL A   1      43.815  31.699  31.920  1.00  0.00     0.049 A 
ATOM     65  H   UNL A   1      43.931  33.478  30.794  1.00  0.00     0.167 HD
ATOM     66  C   UNL A   1      41.400  32.289  31.982  1.00  0.00     0.074 A 
ATOM     67  C   UNL A   1      41.225  33.109  30.790  1.00  0.00     0.031 C 
ATOM     68  C   UNL A   1      42.509  31.720  32.537  1.00  0.00     0.037 A 
BRANCH  55  69
ATOM     69  C   UNL A   1      44.950  33.227  27.902  1.00  0.00     0.064 A 
ATOM     70  C   UNL A   1      46.219  33.692  27.513  1.00  0.00     0.173 A 
ATOM     71  C   UNL A   1      43.893  34.158  27.778  1.00  0.00     0.173 A 
ATOM     72  F   UNL A   1      47.300  32.908  27.637  1.00  0.00    -0.203 F 
ATOM     73  C   UNL A   1      46.416  35.001  27.070  1.00  0.00     0.198 A 
ATOM     74  C   UNL A   1      44.082  35.440  27.273  1.00  0.00     0.198 A 
ATOM     75  F   UNL A   1      42.661  33.908  28.242  1.00  0.00    -0.203 F 
ATOM     76  F   UNL A   1      47.658  35.437  26.822  1.00  0.00    -0.200 F 
ATOM     77  C   UNL A   1      45.347  35.873  26.945  1.00  0.00     0.200 A 
ATOM     78  F   UNL A   1      43.036  36.274  27.185  1.00  0.00    -0.200 F 
ATOM     79  F   UNL A   1      45.542  37.141  26.563  1.00  0.00    -0.200 F 
ENDBRANCH  55  69
BRANCH  56  80
ATOM     80  C   UNL A   1      36.929  31.771  30.517  1.00  0.00     0.064 A 
ATOM     81  C   UNL A   1      36.022  31.945  31.577  1.00  0.00     0.173 A 
ATOM     82  C   UNL A   1      36.577  32.373  29.293  1.00  0.00     0.173 A 
ATOM     83  F   UNL A   1      36.296  31.444  32.789  1.00  0.00    -0.203 F 
ATOM     84  C   UNL A   1      34.854  32.702  31.429  1.00  0.00     0.198 A 
ATOM     85  C   UNL A   1      35.403  33.114  29.143  1.00  0.00     0.198 A 
ATOM     86  F   UNL A   1      37.405  32.342  28.240  1.00  0.00    -0.203 F 
ATOM     87  F   UNL A   1      34.052  32.907  32.483  1.00  0.00    -0.200 F 
ATOM     88  C   UNL A   1      34.550  33.293  30.214  1.00  0.00     0.200 A 
ATOM     89  F   UNL A   1      35.140  33.707  27.969  1.00  0.00    -0.200 F 
ATOM     90  F   UNL A   1      33.465  34.068  30.087  1.00  0.00    -0.200 F 
ENDBRANCH  56  80
BRANCH  68  91
ATOM     91  C   UNL A   1      42.327  30.819  33.723  1.00  0.00     0.064 A 
ATOM     92  C   UNL A   1      42.257  31.281  35.048  1.00  0.00     0.173 A 
ATOM     93  C   UNL A   1      42.012  29.473  33.487  1.00  0.00     0.173 A 
ATOM     94  F   UNL A   1      42.452  32.574  35.338  1.00  0.00    -0.203 F 
ATOM     95  C   UNL A   1      41.904  30.425  36.090  1.00  0.00     0.198 A 
ATOM     96  C   UNL A   1      41.625  28.631  34.525  1.00  0.00     0.198 A 
ATOM     97  F   UNL A   1      42.012  28.993  32.233  1.00  0.00    -0.203 F 
ATOM     98  F   UNL A   1      41.836  30.890  37.346  1.00  0.00    -0.200 F 
ATOM     99  C   UNL A   1      41.575  29.105  35.825  1.00  0.00     0.200 A 
ATOM    100  F   UNL A   1      41.259  27.370  34.258  1.00  0.00    -0.200 F 
ATOM    101  F   UNL A   1      41.177  28.299  36.819  1.00  0.00    -0.200 F 
ENDBRANCH  68  91
ENDBRANCH  42  43
ENDBRANCH  35  37
ENDBRANCH  34  35
ENDBRANCH  33  34
ENDBRANCH  32  33
ENDBRANCH  31  32
ENDBRANCH   1  31
TORSDOF 18
ENDMDL
MODEL 3
REMARK VINA RESULT:     -12.0      1.291      2.139
REMARK SMILES Cc1nn2c(nnc3c(=O)n(CCCC(=O)OCCOCCOC(=O)c4ccc(-c5c6nc(c(-c7c(F)c(F)c(F)c(F)c7F)c7ccc([nH]7)c(-c7c(F)c(F)c(F)c(F)c7F)c7nc(c(-c8c(F)c(F)c(F)c(F)c8F)c8ccc5[nH]8)C=C7)C=C6)cc4)ccc32)c1-c1ccc(F)cc1
REMARK SMILES IDX 19 1 18 2 17 3 15 4 16 5 14 6 13 7 12 8 11 9 1 10 2 11 3 12
REMARK SMILES IDX 92 13 4 14 5 15 91 16 6 17 8 18 90 19 7 20 9 21 89 22 10 23
REMARK SMILES IDX 93 24 94 25 99 26 95 27 98 28 96 29 97 30 20 31 21 32 22 33
REMARK SMILES IDX 23 34 24 35 25 36 26 37 27 38 88 39 28 40 87 41 29 42 30 43
REMARK SMILES IDX 31 44 81 45 32 46 86 47 80 48 82 49 33 50 85 51 79 52 78 53
REMARK SMILES IDX 34 55 66 56 46 57 65 58 47 59 50 60 64 61 83 62 48 63 49 64
REMARK SMILES IDX 63 66 84 67 51 68 35 69 36 70 44 71 37 72 38 73 42 74 45 75
REMARK SMILES IDX 39 76 40 77 43 78 41 79 67 80 68 81 76 82 69 83 70 84 74 85
REMARK SMILES IDX 77 86 71 87 72 88 75 89 73 90 52 91 53 92 61 93 54 94 55 95
REMARK SMILES IDX 59 96 62 97 56 98 57 99 60 100 58 101
REMARK H PARENT 82 54 50 65
REMARK Flexibility Score: inf
ROOT
ATOM      1  C   UNL A   1      33.111  36.226  29.648  1.00  0.00     0.202 C 
ENDROOT
BRANCH   1   2
ATOM      2  C   UNL A   1      33.874  35.464  28.572  1.00  0.00     0.261 C 
BRANCH   2   3
ATOM      3  O   UNL A   1      33.569  34.061  28.629  1.00  0.00    -0.463 OA
BRANCH   3   4
ATOM      4  C   UNL A   1      34.510  33.238  28.106  1.00  0.00     0.305 C 
ATOM      5  O   UNL A   1      35.591  33.599  27.650  1.00  0.00    -0.252 OA
BRANCH   4   6
ATOM      6  C   UNL A   1      34.136  31.774  28.186  1.00  0.00     0.124 C 
BRANCH   6   7
ATOM      7  C   UNL A   1      33.048  31.222  27.259  1.00  0.00     0.034 C 
BRANCH   7   8
ATOM      8  C   UNL A   1      33.471  30.318  26.086  1.00  0.00     0.126 C 
BRANCH   8   9
ATOM      9  N   UNL A   1      32.904  28.971  26.130  1.00  0.00    -0.313 N 
ATOM     10  C   UNL A   1      29.455  22.235  26.956  1.00  0.00     0.069 C 
ATOM     11  C   UNL A   1      30.541  23.162  26.556  1.00  0.00     0.070 A 
ATOM     12  N   UNL A   1      30.506  24.451  26.934  1.00  0.00    -0.170 NA
ATOM     13  C   UNL A   1      31.686  22.869  25.781  1.00  0.00     0.051 A 
ATOM     14  N   UNL A   1      31.565  25.025  26.297  1.00  0.00    -0.210 N 
ATOM     15  C   UNL A   1      32.289  24.086  25.575  1.00  0.00     0.186 A 
ATOM     16  C   UNL A   1      31.952  26.364  26.247  1.00  0.00     0.102 A 
ATOM     17  N   UNL A   1      33.360  24.458  24.817  1.00  0.00    -0.129 NA
ATOM     18  C   UNL A   1      32.952  26.637  25.392  1.00  0.00     0.177 A 
ATOM     19  C   UNL A   1      31.362  27.417  27.051  1.00  0.00     0.049 A 
ATOM     20  N   UNL A   1      33.637  25.674  24.682  1.00  0.00    -0.141 NA
ATOM     21  C   UNL A   1      33.331  28.055  25.165  1.00  0.00     0.280 A 
ATOM     22  C   UNL A   1      31.892  28.651  27.021  1.00  0.00     0.091 A 
ATOM     23  O   UNL A   1      34.000  28.355  24.183  1.00  0.00    -0.267 OA
BRANCH  13  24
ATOM     24  C   UNL A   1      32.186  21.661  25.166  1.00  0.00    -0.012 A 
ATOM     25  C   UNL A   1      32.819  20.679  25.938  1.00  0.00     0.012 A 
ATOM     26  C   UNL A   1      31.940  21.427  23.804  1.00  0.00     0.012 A 
ATOM     27  C   UNL A   1      33.196  19.471  25.349  1.00  0.00     0.040 A 
ATOM     28  C   UNL A   1      32.321  20.219  23.219  1.00  0.00     0.040 A 
ATOM     29  C   UNL A   1      32.943  19.252  23.999  1.00  0.00     0.123 A 
ATOM     30  F   UNL A   1      33.294  18.085  23.443  1.00  0.00    -0.207 F 
ENDBRANCH  13  24
ENDBRANCH   8   9
ENDBRANCH   7   8
ENDBRANCH   6   7
ENDBRANCH   4   6
ENDBRANCH   3   4
ENDBRANCH   2   3
ENDBRANCH   1   2
BRANCH   1  31
ATOM     31  O   UNL A   1      33.707  36.304  30.945  1.00  0.00    -0.374 OA
BRANCH  31  32
ATOM     32  C   UNL A   1      33.577  35.216  31.853  1.00  0.00     0.202 C 
BRANCH  32  33
ATOM     33  C   UNL A   1      34.847  34.504  32.312  1.00  0.00     0.261 C 
BRANCH  33  34
ATOM     34  O   UNL A   1      35.460  33.719  31.299  1.00  0.00    -0.460 OA
BRANCH  34  35
ATOM     35  C   UNL A   1      35.771  32.482  31.732  1.00  0.00     0.338 C 
ATOM     36  O   UNL A   1      35.520  31.991  32.838  1.00  0.00    -0.246 OA
BRANCH  35  37
ATOM     37  C   UNL A   1      36.624  31.803  30.767  1.00  0.00     0.060 A 
ATOM     38  C   UNL A   1      36.592  30.405  30.806  1.00  0.00     0.016 A 
ATOM     39  C   UNL A   1      37.697  32.520  30.223  1.00  0.00     0.016 A 
ATOM     40  C   UNL A   1      37.754  29.726  30.540  1.00  0.00     0.010 A 
ATOM     41  C   UNL A   1      38.867  31.841  29.994  1.00  0.00     0.010 A 
ATOM     42  C   UNL A   1      38.897  30.468  30.238  1.00  0.00    -0.014 A 
BRANCH  42  43
ATOM     43  C   UNL A   1      40.149  29.753  30.153  1.00  0.00     0.031 A 
ATOM     44  C   UNL A   1      40.852  29.641  31.446  1.00  0.00     0.074 A 
ATOM     45  C   UNL A   1      40.544  29.161  29.012  1.00  0.00     0.049 A 
ATOM     46  N   UNL A   1      42.026  30.077  31.761  1.00  0.00    -0.248 NA
ATOM     47  C   UNL A   1      40.091  29.077  32.574  1.00  0.00     0.031 C 
ATOM     48  C   UNL A   1      39.765  28.955  27.788  1.00  0.00     0.029 A 
ATOM     49  N   UNL A   1      41.706  28.511  28.753  1.00  0.00    -0.354 N 
ATOM     50  C   UNL A   1      42.215  29.691  33.082  1.00  0.00     0.074 A 
ATOM     51  C   UNL A   1      40.941  29.248  33.581  1.00  0.00     0.031 C 
ATOM     52  C   UNL A   1      40.395  28.042  27.014  1.00  0.00     0.029 A 
ATOM     53  C   UNL A   1      41.661  27.689  27.636  1.00  0.00     0.049 A 
ATOM     54  H   UNL A   1      42.512  28.612  29.310  1.00  0.00     0.167 HD
ATOM     55  C   UNL A   1      43.459  29.507  33.596  1.00  0.00     0.037 A 
ATOM     56  C   UNL A   1      42.560  26.720  27.333  1.00  0.00     0.037 A 
ATOM     57  C   UNL A   1      44.454  30.221  32.847  1.00  0.00     0.049 A 
ATOM     58  C   UNL A   1      43.786  26.986  28.132  1.00  0.00     0.074 A 
ATOM     59  C   UNL A   1      44.652  31.555  32.543  1.00  0.00     0.029 A 
ATOM     60  N   UNL A   1      45.249  29.517  31.980  1.00  0.00    -0.354 N 
ATOM     61  N   UNL A   1      44.590  27.995  27.942  1.00  0.00    -0.248 NA
ATOM     62  C   UNL A   1      43.901  26.334  29.429  1.00  0.00     0.031 C 
ATOM     63  C   UNL A   1      45.186  31.561  31.223  1.00  0.00     0.029 A 
ATOM     64  C   UNL A   1      45.317  30.233  30.813  1.00  0.00     0.049 A 
ATOM     65  H   UNL A   1      45.689  28.654  32.161  1.00  0.00     0.167 HD
ATOM     66  C   UNL A   1      45.018  28.353  29.213  1.00  0.00     0.074 A 
ATOM     67  C   UNL A   1      44.643  27.237  30.073  1.00  0.00     0.031 C 
ATOM     68  C   UNL A   1      45.379  29.637  29.499  1.00  0.00     0.037 A 
BRANCH  55  69
ATOM     69  C   UNL A   1      43.781  28.399  34.560  1.00  0.00     0.064 A 
ATOM     70  C   UNL A   1      43.487  27.070  34.207  1.00  0.00     0.173 A 
ATOM     71  C   UNL A   1      44.117  28.611  35.917  1.00  0.00     0.173 A 
ATOM     72  F   UNL A   1      43.107  26.765  32.958  1.00  0.00    -0.203 F 
ATOM     73  C   UNL A   1      43.493  26.042  35.152  1.00  0.00     0.198 A 
ATOM     74  C   UNL A   1      44.187  27.574  36.841  1.00  0.00     0.198 A 
ATOM     75  F   UNL A   1      44.280  29.838  36.430  1.00  0.00    -0.203 F 
ATOM     76  F   UNL A   1      43.093  24.814  34.797  1.00  0.00    -0.200 F 
ATOM     77  C   UNL A   1      43.848  26.293  36.466  1.00  0.00     0.200 A 
ATOM     78  F   UNL A   1      44.509  27.846  38.114  1.00  0.00    -0.200 F 
ATOM     79  F   UNL A   1      43.810  25.317  37.382  1.00  0.00    -0.200 F 
ENDBRANCH  55  69
BRANCH  56  80
ATOM     80  C   UNL A   1      42.316  25.413  26.671  1.00  0.00     0.064 A 
ATOM     81  C   UNL A   1      43.111  25.003  25.587  1.00  0.00     0.173 A 
ATOM     82  C   UNL A   1      41.490  24.425  27.244  1.00  0.00     0.173 A 
ATOM     83  F   UNL A   1      43.959  25.863  25.008  1.00  0.00    -0.203 F 
ATOM     84  C   UNL A   1      43.104  23.680  25.129  1.00  0.00     0.198 A 
ATOM     85  C   UNL A   1      41.472  23.111  26.775  1.00  0.00     0.198 A 
ATOM     86  F   UNL A   1      40.753  24.683  28.333  1.00  0.00    -0.203 F 
ATOM     87  F   UNL A   1      43.932  23.311  24.141  1.00  0.00    -0.200 F 
ATOM     88  C   UNL A   1      42.292  22.733  25.729  1.00  0.00     0.200 A 
ATOM     89  F   UNL A   1      40.704  22.198  27.388  1.00  0.00    -0.200 F 
ATOM     90  F   UNL A   1      42.330  21.455  25.332  1.00  0.00    -0.200 F 
ENDBRANCH  56  80
BRANCH  68  91
ATOM     91  C   UNL A   1      45.590  30.586  28.356  1.00  0.00     0.064 A 
ATOM     92  C   UNL A   1      44.557  31.330  27.761  1.00  0.00     0.173 A 
ATOM     93  C   UNL A   1      46.907  30.899  27.990  1.00  0.00     0.173 A 
ATOM     94  F   UNL A   1      43.281  31.153  28.129  1.00  0.00    -0.203 F 
ATOM     95  C   UNL A   1      44.834  32.329  26.830  1.00  0.00     0.198 A 
ATOM     96  C   UNL A   1      47.182  31.921  27.088  1.00  0.00     0.198 A 
ATOM     97  F   UNL A   1      47.935  30.255  28.568  1.00  0.00    -0.203 F 
ATOM     98  F   UNL A   1      43.832  33.031  26.281  1.00  0.00    -0.200 F 
ATOM     99  C   UNL A   1      46.147  32.633  26.505  1.00  0.00     0.200 A 
ATOM    100  F   UNL A   1      48.454  32.246  26.816  1.00  0.00    -0.200 F 
ATOM    101  F   UNL A   1      46.415  33.634  25.656  1.00  0.00    -0.200 F 
ENDBRANCH  68  91
ENDBRANCH  42  43
ENDBRANCH  35  37
ENDBRANCH  34  35
ENDBRANCH  33  34
ENDBRANCH  32  33
ENDBRANCH  31  32
ENDBRANCH   1  31
TORSDOF 18
ENDMDL
