MODEL 1
REMARK VINA RESULT:     -12.1      0.000      0.000
REMARK SMILES Cc1nccn1CCC[NH+]1CCC2(CC1)[C@@H](C(=O)OCCOCCOC(=O)c1ccc(-c3c4nc(c(-c5c(F)c(F)c(F)c(F)c5F)c5ccc([nH]5)c(-c5c(F)c(F)c(F)c(F)c5F)c5nc(c(-c6c(F)c(F)c(F)c(F)c6F)c6ccc3[nH]6)C=C5)C=C4)cc1)CC(=O)N2C
REMARK SMILES IDX 21 1 20 2 19 3 17 4 18 5 16 6 10 7 11 8 15 9 12 11 14 12
REMARK SMILES IDX 13 13 94 14 91 15 92 16 95 17 93 18 9 19 8 20 7 21 6 22 1 23
REMARK SMILES IDX 2 24 3 25 4 26 5 27 22 28 23 29 24 30 25 31 26 32 27 33
REMARK SMILES IDX 28 34 29 35 90 36 30 37 89 38 31 39 32 40 33 41 83 42 34 43
REMARK SMILES IDX 88 44 82 45 84 46 35 47 87 48 81 49 80 50 36 52 68 53 48 54
REMARK SMILES IDX 67 55 49 56 52 57 66 58 85 59 50 60 51 61 65 63 86 64 53 65
REMARK SMILES IDX 37 66 38 67 46 68 39 69 40 70 44 71 47 72 41 73 42 74 45 75
REMARK SMILES IDX 43 76 69 77 70 78 78 79 71 80 72 81 76 82 79 83 73 84 74 85
REMARK SMILES IDX 77 86 75 87 54 88 55 89 63 90 56 91 57 92 61 93 64 94 58 95
REMARK SMILES IDX 59 96 62 97 60 98
REMARK H PARENT 10 10 84 51 52 62
REMARK Flexibility Score: inf
ROOT
ATOM      1  C   UNL A   1      40.799  21.193  27.458  1.00  0.00     0.202 C 
ENDROOT
BRANCH   1   2
ATOM      2  C   UNL A   1      40.252  21.763  26.151  1.00  0.00     0.261 C 
BRANCH   2   3
ATOM      3  O   UNL A   1      38.936  21.248  25.837  1.00  0.00    -0.463 OA
BRANCH   3   4
ATOM      4  C   UNL A   1      37.945  22.140  25.621  1.00  0.00     0.311 C 
ATOM      5  O   UNL A   1      38.016  23.309  25.989  1.00  0.00    -0.252 OA
BRANCH   4   6
ATOM      6  C   UNL A   1      36.720  21.640  24.851  1.00  0.00     0.134 C 
ATOM      7  N   UNL A   1      33.512  24.416  25.392  1.00  0.00    -0.335 N 
ATOM      8  C   UNL A   1      33.460  23.685  24.144  1.00  0.00     0.264 C 
ATOM      9  C   UNL A   1      33.663  23.573  26.551  1.00  0.00     0.264 C 
ATOM     10  H   UNL A   1      32.562  24.766  25.508  1.00  0.00     0.348 HD
ATOM     11  C   UNL A   1      34.689  22.819  23.908  1.00  0.00     0.091 C 
ATOM     12  C   UNL A   1      34.888  22.658  26.471  1.00  0.00     0.091 C 
ATOM     13  C   UNL A   1      35.199  21.988  25.120  1.00  0.00     0.067 C 
ATOM     14  N   UNL A   1      34.568  20.643  25.082  1.00  0.00    -0.339 N 
ATOM     15  C   UNL A   1      36.829  20.113  24.818  1.00  0.00     0.118 C 
ATOM     16  C   UNL A   1      35.432  19.600  24.817  1.00  0.00     0.223 C 
ATOM     17  C   UNL A   1      33.157  20.358  25.264  1.00  0.00     0.147 C 
ATOM     18  O   UNL A   1      35.124  18.429  24.666  1.00  0.00    -0.275 OA
BRANCH   7  19
ATOM     19  C   UNL A   1      34.013  25.781  25.403  1.00  0.00     0.264 C 
BRANCH  19  20
ATOM     20  C   UNL A   1      33.119  26.982  25.754  1.00  0.00     0.083 C 
BRANCH  20  21
ATOM     21  C   UNL A   1      32.991  28.169  24.801  1.00  0.00     0.129 C 
BRANCH  21  22
ATOM     22  N   UNL A   1      31.936  28.297  23.821  1.00  0.00    -0.335 N 
ATOM     23  C   UNL A   1      32.967  26.749  22.054  1.00  0.00     0.087 C 
ATOM     24  C   UNL A   1      31.874  27.572  22.638  1.00  0.00     0.105 A 
ATOM     25  N   UNL A   1      30.674  27.670  22.099  1.00  0.00    -0.242 NA
ATOM     26  C   UNL A   1      29.955  28.484  22.922  1.00  0.00     0.131 A 
ATOM     27  C   UNL A   1      30.725  28.909  23.976  1.00  0.00     0.107 A 
ENDBRANCH  21  22
ENDBRANCH  20  21
ENDBRANCH  19  20
ENDBRANCH   7  19
ENDBRANCH   4   6
ENDBRANCH   3   4
ENDBRANCH   2   3
ENDBRANCH   1   2
BRANCH   1  28
ATOM     28  O   UNL A   1      42.121  20.660  27.413  1.00  0.00    -0.374 OA
BRANCH  28  29
ATOM     29  C   UNL A   1      42.291  19.280  27.121  1.00  0.00     0.202 C 
BRANCH  29  30
ATOM     30  C   UNL A   1      43.041  18.941  25.846  1.00  0.00     0.261 C 
BRANCH  30  31
ATOM     31  O   UNL A   1      43.270  20.091  25.045  1.00  0.00    -0.460 OA
BRANCH  31  32
ATOM     32  C   UNL A   1      44.576  20.412  24.868  1.00  0.00     0.338 C 
ATOM     33  O   UNL A   1      45.516  19.663  24.738  1.00  0.00    -0.246 OA
BRANCH  32  34
ATOM     34  C   UNL A   1      44.694  21.867  25.043  1.00  0.00     0.060 A 
ATOM     35  C   UNL A   1      45.701  22.347  25.870  1.00  0.00     0.016 A 
ATOM     36  C   UNL A   1      43.638  22.688  24.629  1.00  0.00     0.016 A 
ATOM     37  C   UNL A   1      45.499  23.572  26.468  1.00  0.00     0.010 A 
ATOM     38  C   UNL A   1      43.479  23.939  25.143  1.00  0.00     0.010 A 
ATOM     39  C   UNL A   1      44.332  24.292  26.164  1.00  0.00    -0.014 A 
BRANCH  39  40
ATOM     40  C   UNL A   1      44.017  25.486  26.902  1.00  0.00     0.031 A 
ATOM     41  C   UNL A   1      44.987  26.553  26.624  1.00  0.00     0.074 A 
ATOM     42  C   UNL A   1      42.920  25.602  27.674  1.00  0.00     0.049 A 
ATOM     43  N   UNL A   1      45.933  26.936  27.409  1.00  0.00    -0.248 NA
ATOM     44  C   UNL A   1      45.087  27.065  25.250  1.00  0.00     0.031 C 
ATOM     45  C   UNL A   1      41.771  24.702  27.808  1.00  0.00     0.029 A 
ATOM     46  N   UNL A   1      42.583  26.642  28.481  1.00  0.00    -0.354 N 
ATOM     47  C   UNL A   1      46.613  27.916  26.707  1.00  0.00     0.074 A 
ATOM     48  C   UNL A   1      46.201  27.794  25.334  1.00  0.00     0.031 C 
ATOM     49  C   UNL A   1      40.773  25.341  28.465  1.00  0.00     0.029 A 
ATOM     50  C   UNL A   1      41.264  26.628  28.923  1.00  0.00     0.049 A 
ATOM     51  H   UNL A   1      43.222  27.348  28.732  1.00  0.00     0.167 HD
ATOM     52  C   UNL A   1      47.218  28.925  27.386  1.00  0.00     0.037 A 
ATOM     53  C   UNL A   1      40.647  27.662  29.549  1.00  0.00     0.037 A 
ATOM     54  C   UNL A   1      47.431  28.556  28.767  1.00  0.00     0.049 A 
ATOM     55  C   UNL A   1      41.722  28.520  30.128  1.00  0.00     0.074 A 
ATOM     56  C   UNL A   1      48.117  27.528  29.390  1.00  0.00     0.029 A 
ATOM     57  N   UNL A   1      46.548  29.033  29.707  1.00  0.00    -0.354 N 
ATOM     58  N   UNL A   1      42.500  28.128  31.103  1.00  0.00    -0.248 NA
ATOM     59  C   UNL A   1      42.269  29.569  29.277  1.00  0.00     0.031 C 
ATOM     60  C   UNL A   1      47.280  27.124  30.473  1.00  0.00     0.029 A 
ATOM     61  C   UNL A   1      46.179  27.981  30.508  1.00  0.00     0.049 A 
ATOM     62  H   UNL A   1      46.235  29.963  29.791  1.00  0.00     0.167 HD
ATOM     63  C   UNL A   1      43.769  28.550  30.734  1.00  0.00     0.074 A 
ATOM     64  C   UNL A   1      43.557  29.474  29.621  1.00  0.00     0.031 C 
ATOM     65  C   UNL A   1      44.887  27.884  31.149  1.00  0.00     0.037 A 
BRANCH  52  66
ATOM     66  C   UNL A   1      47.201  30.354  26.915  1.00  0.00     0.064 A 
ATOM     67  C   UNL A   1      48.391  31.099  26.995  1.00  0.00     0.173 A 
ATOM     68  C   UNL A   1      46.025  31.105  26.686  1.00  0.00     0.173 A 
ATOM     69  F   UNL A   1      49.564  30.488  27.222  1.00  0.00    -0.203 F 
ATOM     70  C   UNL A   1      48.389  32.494  26.949  1.00  0.00     0.198 A 
ATOM     71  C   UNL A   1      46.034  32.493  26.586  1.00  0.00     0.198 A 
ATOM     72  F   UNL A   1      44.806  30.556  26.665  1.00  0.00    -0.203 F 
ATOM     73  F   UNL A   1      49.526  33.166  27.169  1.00  0.00    -0.200 F 
ATOM     74  C   UNL A   1      47.210  33.190  26.753  1.00  0.00     0.200 A 
ATOM     75  F   UNL A   1      44.876  33.147  26.416  1.00  0.00    -0.200 F 
ATOM     76  F   UNL A   1      47.195  34.528  26.777  1.00  0.00    -0.200 F 
ENDBRANCH  52  66
BRANCH  53  77
ATOM     77  C   UNL A   1      39.261  28.153  29.335  1.00  0.00     0.064 A 
ATOM     78  C   UNL A   1      38.372  28.319  30.412  1.00  0.00     0.173 A 
ATOM     79  C   UNL A   1      38.871  28.738  28.114  1.00  0.00     0.173 A 
ATOM     80  F   UNL A   1      38.688  27.841  31.624  1.00  0.00    -0.203 F 
ATOM     81  C   UNL A   1      37.179  29.040  30.278  1.00  0.00     0.198 A 
ATOM     82  C   UNL A   1      37.680  29.455  27.981  1.00  0.00     0.198 A 
ATOM     83  F   UNL A   1      39.683  28.711  27.047  1.00  0.00    -0.203 F 
ATOM     84  F   UNL A   1      36.386  29.228  31.343  1.00  0.00    -0.200 F 
ATOM     85  C   UNL A   1      36.840  29.617  29.065  1.00  0.00     0.200 A 
ATOM     86  F   UNL A   1      37.386  30.041  26.811  1.00  0.00    -0.200 F 
ATOM     87  F   UNL A   1      35.730  30.360  28.951  1.00  0.00    -0.200 F 
ENDBRANCH  53  77
BRANCH  65  88
ATOM     88  C   UNL A   1      44.732  26.822  32.204  1.00  0.00     0.064 A 
ATOM     89  C   UNL A   1      44.503  25.461  31.932  1.00  0.00     0.173 A 
ATOM     90  C   UNL A   1      44.987  27.174  33.536  1.00  0.00     0.173 A 
ATOM     91  F   UNL A   1      44.353  25.024  30.675  1.00  0.00    -0.203 F 
ATOM     92  C   UNL A   1      44.490  24.510  32.955  1.00  0.00     0.198 A 
ATOM     93  C   UNL A   1      45.010  26.220  34.549  1.00  0.00     0.198 A 
ATOM     94  F   UNL A   1      45.268  28.449  33.850  1.00  0.00    -0.203 F 
ATOM     95  F   UNL A   1      44.262  23.218  32.671  1.00  0.00    -0.200 F 
ATOM     96  C   UNL A   1      44.752  24.890  34.260  1.00  0.00     0.200 A 
ATOM     97  F   UNL A   1      45.317  26.586  35.801  1.00  0.00    -0.200 F 
ATOM     98  F   UNL A   1      44.783  23.973  35.237  1.00  0.00    -0.200 F 
ENDBRANCH  65  88
ENDBRANCH  39  40
ENDBRANCH  32  34
ENDBRANCH  31  32
ENDBRANCH  30  31
ENDBRANCH  29  30
ENDBRANCH  28  29
ENDBRANCH   1  28
TORSDOF 18
ENDMDL
MODEL 2
REMARK VINA RESULT:     -11.7      4.623     10.098
REMARK SMILES Cc1nccn1CCC[NH+]1CCC2(CC1)[C@@H](C(=O)OCCOCCOC(=O)c1ccc(-c3c4nc(c(-c5c(F)c(F)c(F)c(F)c5F)c5ccc([nH]5)c(-c5c(F)c(F)c(F)c(F)c5F)c5nc(c(-c6c(F)c(F)c(F)c(F)c6F)c6ccc3[nH]6)C=C5)C=C4)cc1)CC(=O)N2C
REMARK SMILES IDX 21 1 20 2 19 3 17 4 18 5 16 6 10 7 11 8 15 9 12 11 14 12
REMARK SMILES IDX 13 13 94 14 91 15 92 16 95 17 93 18 9 19 8 20 7 21 6 22 1 23
REMARK SMILES IDX 2 24 3 25 4 26 5 27 22 28 23 29 24 30 25 31 26 32 27 33
REMARK SMILES IDX 28 34 29 35 90 36 30 37 89 38 31 39 32 40 33 41 83 42 34 43
REMARK SMILES IDX 88 44 82 45 84 46 35 47 87 48 81 49 80 50 36 52 68 53 48 54
REMARK SMILES IDX 67 55 49 56 52 57 66 58 85 59 50 60 51 61 65 63 86 64 53 65
REMARK SMILES IDX 37 66 38 67 46 68 39 69 40 70 44 71 47 72 41 73 42 74 45 75
REMARK SMILES IDX 43 76 69 77 70 78 78 79 71 80 72 81 76 82 79 83 73 84 74 85
REMARK SMILES IDX 77 86 75 87 54 88 55 89 63 90 56 91 57 92 61 93 64 94 58 95
REMARK SMILES IDX 59 96 62 97 60 98
REMARK H PARENT 10 10 84 51 52 62
REMARK Flexibility Score: inf
ROOT
ATOM      1  C   UNL A   1      34.797  32.944  27.994  1.00  0.00     0.202 C 
ENDROOT
BRANCH   1   2
ATOM      2  C   UNL A   1      34.196  31.565  28.264  1.00  0.00     0.261 C 
BRANCH   2   3
ATOM      3  O   UNL A   1      33.599  30.988  27.078  1.00  0.00    -0.463 OA
BRANCH   3   4
ATOM      4  C   UNL A   1      33.434  29.648  27.045  1.00  0.00     0.311 C 
ATOM      5  O   UNL A   1      34.257  28.868  27.516  1.00  0.00    -0.252 OA
BRANCH   4   6
ATOM      6  C   UNL A   1      32.138  29.126  26.419  1.00  0.00     0.134 C 
ATOM      7  N   UNL A   1      32.650  25.004  25.399  1.00  0.00    -0.335 N 
ATOM      8  C   UNL A   1      31.283  25.376  25.698  1.00  0.00     0.264 C 
ATOM      9  C   UNL A   1      33.282  25.857  24.425  1.00  0.00     0.264 C 
ATOM     10  H   UNL A   1      32.556  24.129  24.884  1.00  0.00     0.348 HD
ATOM     11  C   UNL A   1      31.151  26.805  26.204  1.00  0.00     0.091 C 
ATOM     12  C   UNL A   1      33.255  27.337  24.816  1.00  0.00     0.091 C 
ATOM     13  C   UNL A   1      31.962  27.892  25.442  1.00  0.00     0.067 C 
ATOM     14  N   UNL A   1      31.107  28.471  24.372  1.00  0.00    -0.339 N 
ATOM     15  C   UNL A   1      31.474  30.328  25.742  1.00  0.00     0.118 C 
ATOM     16  C   UNL A   1      30.742  29.787  24.566  1.00  0.00     0.223 C 
ATOM     17  C   UNL A   1      30.621  27.770  23.199  1.00  0.00     0.147 C 
ATOM     18  O   UNL A   1      29.988  30.437  23.860  1.00  0.00    -0.275 OA
BRANCH   7  19
ATOM     19  C   UNL A   1      33.443  24.322  26.409  1.00  0.00     0.264 C 
BRANCH  19  20
ATOM     20  C   UNL A   1      33.436  22.792  26.564  1.00  0.00     0.083 C 
BRANCH  20  21
ATOM     21  C   UNL A   1      33.813  21.884  25.395  1.00  0.00     0.129 C 
BRANCH  21  22
ATOM     22  N   UNL A   1      34.870  22.185  24.456  1.00  0.00    -0.335 N 
ATOM     23  C   UNL A   1      33.360  22.862  22.496  1.00  0.00     0.087 C 
ATOM     24  C   UNL A   1      34.667  22.731  23.196  1.00  0.00     0.105 A 
ATOM     25  N   UNL A   1      35.804  23.171  22.694  1.00  0.00    -0.242 NA
ATOM     26  C   UNL A   1      36.760  22.891  23.623  1.00  0.00     0.131 A 
ATOM     27  C   UNL A   1      36.211  22.252  24.707  1.00  0.00     0.107 A 
ENDBRANCH  21  22
ENDBRANCH  20  21
ENDBRANCH  19  20
ENDBRANCH   7  19
ENDBRANCH   4   6
ENDBRANCH   3   4
ENDBRANCH   2   3
ENDBRANCH   1   2
BRANCH   1  28
ATOM     28  O   UNL A   1      33.883  34.038  27.964  1.00  0.00    -0.374 OA
BRANCH  28  29
ATOM     29  C   UNL A   1      34.195  35.209  28.707  1.00  0.00     0.202 C 
BRANCH  29  30
ATOM     30  C   UNL A   1      33.263  35.555  29.855  1.00  0.00     0.261 C 
BRANCH  30  31
ATOM     31  O   UNL A   1      33.313  34.583  30.889  1.00  0.00    -0.460 OA
BRANCH  31  32
ATOM     32  C   UNL A   1      33.688  35.061  32.102  1.00  0.00     0.338 C 
ATOM     33  O   UNL A   1      33.290  36.053  32.667  1.00  0.00    -0.246 OA
BRANCH  32  34
ATOM     34  C   UNL A   1      34.823  34.246  32.558  1.00  0.00     0.060 A 
ATOM     35  C   UNL A   1      36.034  34.885  32.791  1.00  0.00     0.016 A 
ATOM     36  C   UNL A   1      34.742  32.852  32.459  1.00  0.00     0.016 A 
ATOM     37  C   UNL A   1      37.180  34.129  32.673  1.00  0.00     0.010 A 
ATOM     38  C   UNL A   1      35.865  32.084  32.435  1.00  0.00     0.010 A 
ATOM     39  C   UNL A   1      37.065  32.758  32.392  1.00  0.00    -0.014 A 
BRANCH  39  40
ATOM     40  C   UNL A   1      38.242  31.988  32.094  1.00  0.00     0.031 A 
ATOM     41  C   UNL A   1      39.021  31.716  33.310  1.00  0.00     0.074 A 
ATOM     42  C   UNL A   1      38.522  31.522  30.861  1.00  0.00     0.049 A 
ATOM     43  N   UNL A   1      40.116  32.300  33.652  1.00  0.00    -0.248 NA
ATOM     44  C   UNL A   1      38.397  30.915  34.373  1.00  0.00     0.031 C 
ATOM     45  C   UNL A   1      37.690  31.515  29.655  1.00  0.00     0.029 A 
ATOM     46  N   UNL A   1      39.645  30.873  30.458  1.00  0.00    -0.354 N 
ATOM     47  C   UNL A   1      40.446  31.761  34.883  1.00  0.00     0.074 A 
ATOM     48  C   UNL A   1      39.264  31.102  35.369  1.00  0.00     0.031 C 
ATOM     49  C   UNL A   1      38.248  30.696  28.730  1.00  0.00     0.029 A 
ATOM     50  C   UNL A   1      39.537  30.246  29.221  1.00  0.00     0.049 A 
ATOM     51  H   UNL A   1      40.468  30.849  30.998  1.00  0.00     0.167 HD
ATOM     52  C   UNL A   1      41.753  31.657  35.236  1.00  0.00     0.037 A 
ATOM     53  C   UNL A   1      40.440  29.366  28.718  1.00  0.00     0.037 A 
ATOM     54  C   UNL A   1      42.570  32.549  34.443  1.00  0.00     0.049 A 
ATOM     55  C   UNL A   1      41.729  29.616  29.429  1.00  0.00     0.074 A 
ATOM     56  C   UNL A   1      42.580  33.918  34.245  1.00  0.00     0.029 A 
ATOM     57  N   UNL A   1      43.263  32.017  33.381  1.00  0.00    -0.354 N 
ATOM     58  N   UNL A   1      42.419  30.717  29.287  1.00  0.00    -0.248 NA
ATOM     59  C   UNL A   1      41.955  28.894  30.674  1.00  0.00     0.031 C 
ATOM     60  C   UNL A   1      42.834  34.091  32.852  1.00  0.00     0.029 A 
ATOM     61  C   UNL A   1      43.054  32.831  32.295  1.00  0.00     0.049 A 
ATOM     62  H   UNL A   1      43.809  31.198  33.396  1.00  0.00     0.167 HD
ATOM     63  C   UNL A   1      42.819  31.052  30.574  1.00  0.00     0.074 A 
ATOM     64  C   UNL A   1      42.543  29.865  31.381  1.00  0.00     0.031 C 
ATOM     65  C   UNL A   1      43.045  32.351  30.932  1.00  0.00     0.037 A 
BRANCH  52  66
ATOM     66  C   UNL A   1      42.313  30.462  35.960  1.00  0.00     0.064 A 
ATOM     67  C   UNL A   1      43.261  30.679  36.975  1.00  0.00     0.173 A 
ATOM     68  C   UNL A   1      42.201  29.129  35.504  1.00  0.00     0.173 A 
ATOM     69  F   UNL A   1      43.458  31.909  37.473  1.00  0.00    -0.203 F 
ATOM     70  C   UNL A   1      44.099  29.658  37.428  1.00  0.00     0.198 A 
ATOM     71  C   UNL A   1      43.001  28.103  35.996  1.00  0.00     0.198 A 
ATOM     72  F   UNL A   1      41.405  28.773  34.490  1.00  0.00    -0.203 F 
ATOM     73  F   UNL A   1      45.079  29.943  38.295  1.00  0.00    -0.200 F 
ATOM     74  C   UNL A   1      43.975  28.373  36.932  1.00  0.00     0.200 A 
ATOM     75  F   UNL A   1      42.875  26.869  35.486  1.00  0.00    -0.200 F 
ATOM     76  F   UNL A   1      44.821  27.410  37.313  1.00  0.00    -0.200 F 
ENDBRANCH  52  66
BRANCH  53  77
ATOM     77  C   UNL A   1      40.164  28.102  27.987  1.00  0.00     0.064 A 
ATOM     78  C   UNL A   1      40.811  27.805  26.775  1.00  0.00     0.173 A 
ATOM     79  C   UNL A   1      39.477  27.036  28.601  1.00  0.00     0.173 A 
ATOM     80  F   UNL A   1      41.533  28.746  26.150  1.00  0.00    -0.203 F 
ATOM     81  C   UNL A   1      40.787  26.518  26.224  1.00  0.00     0.198 A 
ATOM     82  C   UNL A   1      39.452  25.753  28.049  1.00  0.00     0.198 A 
ATOM     83  F   UNL A   1      38.897  27.189  29.800  1.00  0.00    -0.203 F 
ATOM     84  F   UNL A   1      41.467  26.259  25.096  1.00  0.00    -0.200 F 
ATOM     85  C   UNL A   1      40.117  25.491  26.867  1.00  0.00     0.200 A 
ATOM     86  F   UNL A   1      38.833  24.761  28.705  1.00  0.00    -0.200 F 
ATOM     87  F   UNL A   1      40.145  24.244  26.373  1.00  0.00    -0.200 F 
ENDBRANCH  53  77
BRANCH  65  88
ATOM     88  C   UNL A   1      43.078  33.393  29.846  1.00  0.00     0.064 A 
ATOM     89  C   UNL A   1      41.980  34.192  29.479  1.00  0.00     0.173 A 
ATOM     90  C   UNL A   1      44.316  33.702  29.268  1.00  0.00     0.173 A 
ATOM     91  F   UNL A   1      40.784  34.030  30.060  1.00  0.00    -0.203 F 
ATOM     92  C   UNL A   1      42.113  35.223  28.547  1.00  0.00     0.198 A 
ATOM     93  C   UNL A   1      44.455  34.754  28.367  1.00  0.00     0.198 A 
ATOM     94  F   UNL A   1      45.412  33.012  29.622  1.00  0.00    -0.203 F 
ATOM     95  F   UNL A   1      41.048  35.966  28.208  1.00  0.00    -0.200 F 
ATOM     96  C   UNL A   1      43.352  35.508  27.999  1.00  0.00     0.200 A 
ATOM     97  F   UNL A   1      45.666  35.058  27.881  1.00  0.00    -0.200 F 
ATOM     98  F   UNL A   1      43.491  36.524  27.137  1.00  0.00    -0.200 F 
ENDBRANCH  65  88
ENDBRANCH  39  40
ENDBRANCH  32  34
ENDBRANCH  31  32
ENDBRANCH  30  31
ENDBRANCH  29  30
ENDBRANCH  28  29
ENDBRANCH   1  28
TORSDOF 18
ENDMDL
MODEL 3
REMARK VINA RESULT:     -11.5      3.232      8.608
REMARK SMILES Cc1nccn1CCC[NH+]1CCC2(CC1)[C@@H](C(=O)OCCOCCOC(=O)c1ccc(-c3c4nc(c(-c5c(F)c(F)c(F)c(F)c5F)c5ccc([nH]5)c(-c5c(F)c(F)c(F)c(F)c5F)c5nc(c(-c6c(F)c(F)c(F)c(F)c6F)c6ccc3[nH]6)C=C5)C=C4)cc1)CC(=O)N2C
REMARK SMILES IDX 21 1 20 2 19 3 17 4 18 5 16 6 10 7 11 8 15 9 12 11 14 12
REMARK SMILES IDX 13 13 94 14 91 15 92 16 95 17 93 18 9 19 8 20 7 21 6 22 1 23
REMARK SMILES IDX 2 24 3 25 4 26 5 27 22 28 23 29 24 30 25 31 26 32 27 33
REMARK SMILES IDX 28 34 29 35 90 36 30 37 89 38 31 39 32 40 33 41 83 42 34 43
REMARK SMILES IDX 88 44 82 45 84 46 35 47 87 48 81 49 80 50 36 52 68 53 48 54
REMARK SMILES IDX 67 55 49 56 52 57 66 58 85 59 50 60 51 61 65 63 86 64 53 65
REMARK SMILES IDX 37 66 38 67 46 68 39 69 40 70 44 71 47 72 41 73 42 74 45 75
REMARK SMILES IDX 43 76 69 77 70 78 78 79 71 80 72 81 76 82 79 83 73 84 74 85
REMARK SMILES IDX 77 86 75 87 54 88 55 89 63 90 56 91 57 92 61 93 64 94 58 95
REMARK SMILES IDX 59 96 62 97 60 98
REMARK H PARENT 10 10 84 51 52 62
REMARK Flexibility Score: inf
ROOT
ATOM      1  C   UNL A   1      32.799  28.297  26.355  1.00  0.00     0.202 C 
ENDROOT
BRANCH   1   2
ATOM      2  C   UNL A   1      31.459  27.567  26.293  1.00  0.00     0.261 C 
BRANCH   2   3
ATOM      3  O   UNL A   1      31.451  26.367  27.104  1.00  0.00    -0.463 OA
BRANCH   3   4
ATOM      4  C   UNL A   1      31.331  25.180  26.471  1.00  0.00     0.311 C 
ATOM      5  O   UNL A   1      30.329  24.477  26.569  1.00  0.00    -0.252 OA
BRANCH   4   6
ATOM      6  C   UNL A   1      32.497  24.752  25.577  1.00  0.00     0.134 C 
ATOM      7  N   UNL A   1      32.502  27.168  22.048  1.00  0.00    -0.335 N 
ATOM      8  C   UNL A   1      33.808  26.676  22.432  1.00  0.00     0.264 C 
ATOM      9  C   UNL A   1      31.498  26.138  21.964  1.00  0.00     0.264 C 
ATOM     10  H   UNL A   1      32.619  27.428  21.069  1.00  0.00     0.348 HD
ATOM     11  C   UNL A   1      33.802  25.949  23.769  1.00  0.00     0.091 C 
ATOM     12  C   UNL A   1      31.353  25.335  23.259  1.00  0.00     0.091 C 
ATOM     13  C   UNL A   1      32.639  24.945  24.012  1.00  0.00     0.067 C 
ATOM     14  N   UNL A   1      33.073  23.592  23.576  1.00  0.00    -0.339 N 
ATOM     15  C   UNL A   1      32.735  23.267  25.865  1.00  0.00     0.118 C 
ATOM     16  C   UNL A   1      33.229  22.674  24.594  1.00  0.00     0.223 C 
ATOM     17  C   UNL A   1      33.363  23.188  22.212  1.00  0.00     0.147 C 
ATOM     18  O   UNL A   1      33.646  21.533  24.477  1.00  0.00    -0.275 OA
BRANCH   7  19
ATOM     19  C   UNL A   1      32.130  28.538  22.365  1.00  0.00     0.264 C 
BRANCH  19  20
ATOM     20  C   UNL A   1      30.681  28.945  22.677  1.00  0.00     0.083 C 
BRANCH  20  21
ATOM     21  C   UNL A   1      29.923  29.907  21.764  1.00  0.00     0.129 C 
BRANCH  21  22
ATOM     22  N   UNL A   1      28.913  30.828  22.234  1.00  0.00    -0.335 N 
ATOM     23  C   UNL A   1      27.258  29.064  23.090  1.00  0.00     0.087 C 
ATOM     24  C   UNL A   1      27.772  30.451  22.929  1.00  0.00     0.105 A 
ATOM     25  N   UNL A   1      27.200  31.503  23.484  1.00  0.00    -0.242 NA
ATOM     26  C   UNL A   1      27.961  32.576  23.130  1.00  0.00     0.131 A 
ATOM     27  C   UNL A   1      29.007  32.187  22.330  1.00  0.00     0.107 A 
ENDBRANCH  21  22
ENDBRANCH  20  21
ENDBRANCH  19  20
ENDBRANCH   7  19
ENDBRANCH   4   6
ENDBRANCH   3   4
ENDBRANCH   2   3
ENDBRANCH   1   2
BRANCH   1  28
ATOM     28  O   UNL A   1      32.790  29.672  25.975  1.00  0.00    -0.374 OA
BRANCH  28  29
ATOM     29  C   UNL A   1      32.429  30.646  26.945  1.00  0.00     0.202 C 
BRANCH  29  30
ATOM     30  C   UNL A   1      33.552  31.507  27.495  1.00  0.00     0.261 C 
BRANCH  30  31
ATOM     31  O   UNL A   1      34.436  30.761  28.320  1.00  0.00    -0.460 OA
BRANCH  31  32
ATOM     32  C   UNL A   1      35.296  31.508  29.056  1.00  0.00     0.338 C 
ATOM     33  O   UNL A   1      35.035  32.415  29.813  1.00  0.00    -0.246 OA
BRANCH  32  34
ATOM     34  C   UNL A   1      36.657  31.143  28.637  1.00  0.00     0.060 A 
ATOM     35  C   UNL A   1      36.811  30.040  27.807  1.00  0.00     0.016 A 
ATOM     36  C   UNL A   1      37.748  31.711  29.305  1.00  0.00     0.016 A 
ATOM     37  C   UNL A   1      38.018  29.375  27.858  1.00  0.00     0.010 A 
ATOM     38  C   UNL A   1      38.971  31.114  29.286  1.00  0.00     0.010 A 
ATOM     39  C   UNL A   1      39.037  29.877  28.684  1.00  0.00    -0.014 A 
BRANCH  39  40
ATOM     40  C   UNL A   1      40.236  29.110  28.885  1.00  0.00     0.031 A 
ATOM     41  C   UNL A   1      40.423  28.781  30.305  1.00  0.00     0.074 A 
ATOM     42  C   UNL A   1      41.019  28.693  27.872  1.00  0.00     0.049 A 
ATOM     43  N   UNL A   1      41.262  29.341  31.105  1.00  0.00    -0.248 NA
ATOM     44  C   UNL A   1      39.413  27.942  30.966  1.00  0.00     0.031 C 
ATOM     45  C   UNL A   1      40.783  28.743  26.427  1.00  0.00     0.029 A 
ATOM     46  N   UNL A   1      42.213  28.051  27.961  1.00  0.00    -0.354 N 
ATOM     47  C   UNL A   1      41.040  28.748  32.337  1.00  0.00     0.074 A 
ATOM     48  C   UNL A   1      39.769  28.080  32.244  1.00  0.00     0.031 C 
ATOM     49  C   UNL A   1      41.690  27.958  25.796  1.00  0.00     0.029 A 
ATOM     50  C   UNL A   1      42.650  27.476  26.771  1.00  0.00     0.049 A 
ATOM     51  H   UNL A   1      42.727  27.997  28.799  1.00  0.00     0.167 HD
ATOM     52  C   UNL A   1      42.072  28.618  33.209  1.00  0.00     0.037 A 
ATOM     53  C   UNL A   1      43.690  26.610  26.667  1.00  0.00     0.037 A 
ATOM     54  C   UNL A   1      43.141  29.534  32.879  1.00  0.00     0.049 A 
ATOM     55  C   UNL A   1      44.549  26.820  27.869  1.00  0.00     0.074 A 
ATOM     56  C   UNL A   1      43.221  30.910  32.760  1.00  0.00     0.029 A 
ATOM     57  N   UNL A   1      44.226  29.041  32.193  1.00  0.00    -0.354 N 
ATOM     58  N   UNL A   1      45.223  27.919  28.081  1.00  0.00    -0.248 NA
ATOM     59  C   UNL A   1      44.229  26.044  29.061  1.00  0.00     0.031 C 
ATOM     60  C   UNL A   1      44.044  31.139  31.617  1.00  0.00     0.029 A 
ATOM     61  C   UNL A   1      44.493  29.900  31.157  1.00  0.00     0.049 A 
ATOM     62  H   UNL A   1      44.722  28.217  32.406  1.00  0.00     0.167 HD
ATOM     63  C   UNL A   1      45.032  28.197  29.428  1.00  0.00     0.074 A 
ATOM     64  C   UNL A   1      44.450  26.980  29.990  1.00  0.00     0.031 C 
ATOM     65  C   UNL A   1      45.071  29.478  29.901  1.00  0.00     0.037 A 
BRANCH  52  66
ATOM     66  C   UNL A   1      42.281  27.389  34.053  1.00  0.00     0.064 A 
ATOM     67  C   UNL A   1      41.925  27.443  35.412  1.00  0.00     0.173 A 
ATOM     68  C   UNL A   1      43.084  26.289  33.675  1.00  0.00     0.173 A 
ATOM     69  F   UNL A   1      41.175  28.451  35.882  1.00  0.00    -0.203 F 
ATOM     70  C   UNL A   1      42.418  26.521  36.337  1.00  0.00     0.198 A 
ATOM     71  C   UNL A   1      43.529  25.341  34.591  1.00  0.00     0.198 A 
ATOM     72  F   UNL A   1      43.572  26.138  32.439  1.00  0.00    -0.203 F 
ATOM     73  F   UNL A   1      42.166  26.692  37.641  1.00  0.00    -0.200 F 
ATOM     74  C   UNL A   1      43.226  25.476  35.928  1.00  0.00     0.200 A 
ATOM     75  F   UNL A   1      44.327  24.348  34.173  1.00  0.00    -0.200 F 
ATOM     76  F   UNL A   1      43.755  24.632  36.821  1.00  0.00    -0.200 F 
ENDBRANCH  52  66
BRANCH  53  77
ATOM     77  C   UNL A   1      43.764  25.380  25.836  1.00  0.00     0.064 A 
ATOM     78  C   UNL A   1      44.928  25.055  25.118  1.00  0.00     0.173 A 
ATOM     79  C   UNL A   1      42.802  24.357  25.954  1.00  0.00     0.173 A 
ATOM     80  F   UNL A   1      45.919  25.951  25.002  1.00  0.00    -0.203 F 
ATOM     81  C   UNL A   1      45.124  23.781  24.571  1.00  0.00     0.198 A 
ATOM     82  C   UNL A   1      42.997  23.088  25.405  1.00  0.00     0.198 A 
ATOM     83  F   UNL A   1      41.694  24.534  26.688  1.00  0.00    -0.203 F 
ATOM     84  F   UNL A   1      46.274  23.490  23.944  1.00  0.00    -0.200 F 
ATOM     85  C   UNL A   1      44.163  22.796  24.724  1.00  0.00     0.200 A 
ATOM     86  F   UNL A   1      42.076  22.134  25.598  1.00  0.00    -0.200 F 
ATOM     87  F   UNL A   1      44.375  21.558  24.254  1.00  0.00    -0.200 F 
ENDBRANCH  53  77
BRANCH  65  88
ATOM     88  C   UNL A   1      45.555  30.563  28.978  1.00  0.00     0.064 A 
ATOM     89  C   UNL A   1      46.909  30.884  28.771  1.00  0.00     0.173 A 
ATOM     90  C   UNL A   1      44.614  31.192  28.151  1.00  0.00     0.173 A 
ATOM     91  F   UNL A   1      47.878  30.254  29.446  1.00  0.00    -0.203 F 
ATOM     92  C   UNL A   1      47.293  31.820  27.809  1.00  0.00     0.198 A 
ATOM     93  C   UNL A   1      45.001  32.097  27.167  1.00  0.00     0.198 A 
ATOM     94  F   UNL A   1      43.312  30.884  28.262  1.00  0.00    -0.203 F 
ATOM     95  F   UNL A   1      48.590  32.115  27.636  1.00  0.00    -0.200 F 
ATOM     96  C   UNL A   1      46.339  32.419  27.003  1.00  0.00     0.200 A 
ATOM     97  F   UNL A   1      44.079  32.632  26.356  1.00  0.00    -0.200 F 
ATOM     98  F   UNL A   1      46.709  33.285  26.049  1.00  0.00    -0.200 F 
ENDBRANCH  65  88
ENDBRANCH  39  40
ENDBRANCH  32  34
ENDBRANCH  31  32
ENDBRANCH  30  31
ENDBRANCH  29  30
ENDBRANCH  28  29
ENDBRANCH   1  28
TORSDOF 18
ENDMDL
