MODEL 1
REMARK VINA RESULT:     -12.4      0.000      0.000
REMARK SMILES C[C@H](NC(=O)c1cccc(NC(=O)c2ccccc2C(=O)OCCOCCOC(=O)c2ccc(-c3c4nc(c(-c5c(F)c(F)c(F)c(F)c5F)c5ccc([nH]5)c(-c5c(F)c(F)c(F)c(F)c5F)c5nc(c(-c6c(F)c(F)c(F)c(F)c6F)c6ccc3[nH]6)C=C5)C=C4)cc2)c1)c1ccccc1
REMARK SMILES IDX 23 1 22 2 20 3 21 4 19 5 14 6 15 7 16 8 18 9 17 10 12 11
REMARK SMILES IDX 11 12 13 14 10 15 6 16 7 17 94 18 8 19 9 20 4 21 3 22 5 24
REMARK SMILES IDX 2 25 1 26 95 27 96 28 100 29 97 30 99 31 98 32 24 33 25 34
REMARK SMILES IDX 26 35 27 36 28 37 29 38 30 39 31 40 32 41 93 42 33 43 92 44
REMARK SMILES IDX 34 45 35 46 36 47 86 48 37 49 91 50 85 51 87 52 38 53 90 54
REMARK SMILES IDX 84 55 83 56 39 58 71 59 51 60 70 61 52 62 55 63 69 64 88 65
REMARK SMILES IDX 53 66 54 67 68 69 89 70 56 71 40 72 41 73 49 74 42 75 43 76
REMARK SMILES IDX 47 77 50 78 44 79 45 80 48 81 46 82 72 83 73 84 81 85 74 86
REMARK SMILES IDX 75 87 79 88 82 89 76 90 77 91 80 92 78 93 57 94 58 95 66 96
REMARK SMILES IDX 59 97 60 98 64 99 67 100 61 101 62 102 65 103 63 104
REMARK H PARENT 11 13 3 23 87 57 55 68
REMARK Flexibility Score: inf
ROOT
ATOM      1  C   UNL A   1      35.922  23.925  25.530  1.00  0.00     0.261 C 
ENDROOT
BRANCH   1   2
ATOM      2  O   UNL A   1      34.856  23.827  26.470  1.00  0.00    -0.460 OA
BRANCH   2   3
ATOM      3  C   UNL A   1      34.142  22.686  26.356  1.00  0.00     0.339 C 
ATOM      4  O   UNL A   1      34.229  21.695  27.066  1.00  0.00    -0.246 OA
BRANCH   3   5
ATOM      5  C   UNL A   1      33.157  22.806  25.271  1.00  0.00     0.072 A 
ATOM      6  C   UNL A   1      31.905  23.424  25.407  1.00  0.00     0.054 A 
ATOM      7  C   UNL A   1      31.039  23.435  24.297  1.00  0.00     0.015 A 
ATOM      8  C   UNL A   1      31.440  22.911  23.064  1.00  0.00     0.001 A 
ATOM      9  C   UNL A   1      33.566  22.307  24.020  1.00  0.00     0.016 A 
ATOM     10  C   UNL A   1      32.712  22.364  22.921  1.00  0.00     0.001 A 
BRANCH   6  11
ATOM     11  C   UNL A   1      31.367  24.043  26.645  1.00  0.00     0.256 C 
ATOM     12  N   UNL A   1      31.558  25.358  27.025  1.00  0.00    -0.322 N 
ATOM     13  H   UNL A   1      31.162  25.574  27.899  1.00  0.00     0.170 HD
ATOM     14  O   UNL A   1      30.704  23.318  27.391  1.00  0.00    -0.269 OA
BRANCH  12  15
ATOM     15  C   UNL A   1      32.203  26.450  26.418  1.00  0.00     0.042 A 
ATOM     16  C   UNL A   1      32.047  28.805  25.816  1.00  0.00     0.041 A 
ATOM     17  C   UNL A   1      33.441  28.839  25.682  1.00  0.00     0.014 A 
ATOM     18  C   UNL A   1      31.426  27.591  26.133  1.00  0.00     0.040 A 
ATOM     19  C   UNL A   1      34.194  27.675  25.813  1.00  0.00     0.003 A 
ATOM     20  C   UNL A   1      33.568  26.476  26.147  1.00  0.00     0.026 A 
BRANCH  16  21
ATOM     21  C   UNL A   1      31.326  30.024  25.389  1.00  0.00     0.251 C 
ATOM     22  N   UNL A   1      30.653  30.212  24.218  1.00  0.00    -0.346 N 
ATOM     23  H   UNL A   1      30.362  31.149  24.141  1.00  0.00     0.164 HD
ATOM     24  O   UNL A   1      31.318  30.964  26.188  1.00  0.00    -0.269 OA
BRANCH  22  25
ATOM     25  C   UNL A   1      30.229  29.456  23.044  1.00  0.00     0.109 C 
ATOM     26  C   UNL A   1      29.647  30.263  21.899  1.00  0.00     0.036 C 
BRANCH  25  27
ATOM     27  C   UNL A   1      31.228  28.414  22.575  1.00  0.00    -0.026 A 
ATOM     28  C   UNL A   1      32.566  28.797  22.350  1.00  0.00     0.006 A 
ATOM     29  C   UNL A   1      30.901  27.062  22.422  1.00  0.00     0.006 A 
ATOM     30  C   UNL A   1      33.545  27.857  22.022  1.00  0.00     0.000 A 
ATOM     31  C   UNL A   1      31.886  26.118  22.108  1.00  0.00     0.000 A 
ATOM     32  C   UNL A   1      33.208  26.512  21.919  1.00  0.00     0.000 A 
ENDBRANCH  25  27
ENDBRANCH  22  25
ENDBRANCH  16  21
ENDBRANCH  12  15
ENDBRANCH   6  11
ENDBRANCH   3   5
ENDBRANCH   2   3
ENDBRANCH   1   2
BRANCH   1  33
ATOM     33  C   UNL A   1      37.108  22.972  25.678  1.00  0.00     0.202 C 
BRANCH  33  34
ATOM     34  O   UNL A   1      37.258  21.869  24.810  1.00  0.00    -0.374 OA
BRANCH  34  35
ATOM     35  C   UNL A   1      38.191  20.857  25.151  1.00  0.00     0.202 C 
BRANCH  35  36
ATOM     36  C   UNL A   1      39.465  21.208  25.940  1.00  0.00     0.261 C 
BRANCH  36  37
ATOM     37  O   UNL A   1      40.164  20.100  26.536  1.00  0.00    -0.460 OA
BRANCH  37  38
ATOM     38  C   UNL A   1      41.420  19.896  26.065  1.00  0.00     0.338 C 
ATOM     39  O   UNL A   1      41.787  19.045  25.274  1.00  0.00    -0.246 OA
BRANCH  38  40
ATOM     40  C   UNL A   1      42.320  20.962  26.542  1.00  0.00     0.060 A 
ATOM     41  C   UNL A   1      42.332  21.291  27.907  1.00  0.00     0.016 A 
ATOM     42  C   UNL A   1      43.026  21.733  25.621  1.00  0.00     0.016 A 
ATOM     43  C   UNL A   1      43.018  22.425  28.349  1.00  0.00     0.010 A 
ATOM     44  C   UNL A   1      43.695  22.875  26.061  1.00  0.00     0.010 A 
ATOM     45  C   UNL A   1      43.660  23.250  27.418  1.00  0.00    -0.014 A 
BRANCH  45  46
ATOM     46  C   UNL A   1      44.109  24.614  27.786  1.00  0.00     0.031 A 
ATOM     47  C   UNL A   1      43.065  25.630  28.158  1.00  0.00     0.074 A 
ATOM     48  C   UNL A   1      45.403  24.967  27.729  1.00  0.00     0.049 A 
ATOM     49  N   UNL A   1      43.178  26.921  28.331  1.00  0.00    -0.248 NA
ATOM     50  C   UNL A   1      41.700  25.112  28.348  1.00  0.00     0.031 C 
ATOM     51  C   UNL A   1      46.515  24.064  27.446  1.00  0.00     0.029 A 
ATOM     52  N   UNL A   1      45.993  26.199  27.879  1.00  0.00    -0.354 N 
ATOM     53  C   UNL A   1      41.897  27.375  28.616  1.00  0.00     0.074 A 
ATOM     54  C   UNL A   1      41.020  26.224  28.582  1.00  0.00     0.031 C 
ATOM     55  C   UNL A   1      47.655  24.776  27.419  1.00  0.00     0.029 A 
ATOM     56  C   UNL A   1      47.343  26.191  27.631  1.00  0.00     0.049 A 
ATOM     57  H   UNL A   1      45.497  27.008  28.137  1.00  0.00     0.167 HD
ATOM     58  C   UNL A   1      41.487  28.640  28.872  1.00  0.00     0.037 A 
ATOM     59  C   UNL A   1      48.215  27.216  27.546  1.00  0.00     0.037 A 
ATOM     60  C   UNL A   1      42.366  29.780  28.898  1.00  0.00     0.049 A 
ATOM     61  C   UNL A   1      47.722  28.630  27.738  1.00  0.00     0.074 A 
ATOM     62  C   UNL A   1      42.058  31.099  29.177  1.00  0.00     0.029 A 
ATOM     63  N   UNL A   1      43.723  29.735  28.615  1.00  0.00    -0.354 N 
ATOM     64  N   UNL A   1      46.516  29.056  28.026  1.00  0.00    -0.248 NA
ATOM     65  C   UNL A   1      48.713  29.706  27.584  1.00  0.00     0.031 C 
ATOM     66  C   UNL A   1      43.213  31.864  28.993  1.00  0.00     0.029 A 
ATOM     67  C   UNL A   1      44.260  31.010  28.678  1.00  0.00     0.049 A 
ATOM     68  H   UNL A   1      44.230  28.919  28.402  1.00  0.00     0.167 HD
ATOM     69  C   UNL A   1      46.612  30.438  28.138  1.00  0.00     0.074 A 
ATOM     70  C   UNL A   1      47.993  30.782  27.874  1.00  0.00     0.031 C 
ATOM     71  C   UNL A   1      45.645  31.336  28.445  1.00  0.00     0.037 A 
BRANCH  58  72
ATOM     72  C   UNL A   1      40.018  28.863  29.085  1.00  0.00     0.064 A 
ATOM     73  C   UNL A   1      39.153  29.203  28.034  1.00  0.00     0.173 A 
ATOM     74  C   UNL A   1      39.465  28.726  30.369  1.00  0.00     0.173 A 
ATOM     75  F   UNL A   1      39.630  29.357  26.790  1.00  0.00    -0.203 F 
ATOM     76  C   UNL A   1      37.800  29.440  28.268  1.00  0.00     0.198 A 
ATOM     77  C   UNL A   1      38.105  28.927  30.591  1.00  0.00     0.198 A 
ATOM     78  F   UNL A   1      40.243  28.394  31.410  1.00  0.00    -0.203 F 
ATOM     79  F   UNL A   1      37.006  29.829  27.260  1.00  0.00    -0.200 F 
ATOM     80  C   UNL A   1      37.276  29.297  29.543  1.00  0.00     0.200 A 
ATOM     81  F   UNL A   1      37.600  28.770  31.822  1.00  0.00    -0.200 F 
ATOM     82  F   UNL A   1      35.975  29.524  29.766  1.00  0.00    -0.200 F 
ENDBRANCH  58  72
BRANCH  59  83
ATOM     83  C   UNL A   1      49.651  26.948  27.267  1.00  0.00     0.064 A 
ATOM     84  C   UNL A   1      50.564  26.789  28.319  1.00  0.00     0.173 A 
ATOM     85  C   UNL A   1      50.142  26.850  25.957  1.00  0.00     0.173 A 
ATOM     86  F   UNL A   1      50.146  26.899  29.588  1.00  0.00    -0.203 F 
ATOM     87  C   UNL A   1      51.914  26.554  28.072  1.00  0.00     0.198 A 
ATOM     88  C   UNL A   1      51.489  26.587  25.710  1.00  0.00     0.198 A 
ATOM     89  F   UNL A   1      49.311  26.998  24.915  1.00  0.00    -0.203 F 
ATOM     90  F   UNL A   1      52.772  26.446  29.096  1.00  0.00    -0.200 F 
ATOM     91  C   UNL A   1      52.375  26.445  26.769  1.00  0.00     0.200 A 
ATOM     92  F   UNL A   1      51.927  26.470  24.451  1.00  0.00    -0.200 F 
ATOM     93  F   UNL A   1      53.673  26.211  26.531  1.00  0.00    -0.200 F 
ENDBRANCH  59  83
BRANCH  71  94
ATOM     94  C   UNL A   1      46.040  32.778  28.599  1.00  0.00     0.064 A 
ATOM     95  C   UNL A   1      45.945  33.695  27.544  1.00  0.00     0.173 A 
ATOM     96  C   UNL A   1      46.428  33.266  29.859  1.00  0.00     0.173 A 
ATOM     97  F   UNL A   1      45.593  33.281  26.317  1.00  0.00    -0.203 F 
ATOM     98  C   UNL A   1      46.229  35.046  27.742  1.00  0.00     0.198 A 
ATOM     99  C   UNL A   1      46.679  34.619  30.061  1.00  0.00     0.198 A 
ATOM    100  F   UNL A   1      46.529  32.430  30.904  1.00  0.00    -0.203 F 
ATOM    101  F   UNL A   1      46.158  35.902  26.712  1.00  0.00    -0.200 F 
ATOM    102  C   UNL A   1      46.582  35.508  29.001  1.00  0.00     0.200 A 
ATOM    103  F   UNL A   1      47.001  35.064  31.283  1.00  0.00    -0.200 F 
ATOM    104  F   UNL A   1      46.828  36.811  29.195  1.00  0.00    -0.200 F 
ENDBRANCH  71  94
ENDBRANCH  45  46
ENDBRANCH  38  40
ENDBRANCH  37  38
ENDBRANCH  36  37
ENDBRANCH  35  36
ENDBRANCH  34  35
ENDBRANCH  33  34
ENDBRANCH   1  33
TORSDOF 19
ENDMDL
MODEL 2
REMARK VINA RESULT:     -12.3      5.391     10.547
REMARK SMILES C[C@H](NC(=O)c1cccc(NC(=O)c2ccccc2C(=O)OCCOCCOC(=O)c2ccc(-c3c4nc(c(-c5c(F)c(F)c(F)c(F)c5F)c5ccc([nH]5)c(-c5c(F)c(F)c(F)c(F)c5F)c5nc(c(-c6c(F)c(F)c(F)c(F)c6F)c6ccc3[nH]6)C=C5)C=C4)cc2)c1)c1ccccc1
REMARK SMILES IDX 23 1 22 2 20 3 21 4 19 5 14 6 15 7 16 8 18 9 17 10 12 11
REMARK SMILES IDX 11 12 13 14 10 15 6 16 7 17 94 18 8 19 9 20 4 21 3 22 5 24
REMARK SMILES IDX 2 25 1 26 95 27 96 28 100 29 97 30 99 31 98 32 24 33 25 34
REMARK SMILES IDX 26 35 27 36 28 37 29 38 30 39 31 40 32 41 93 42 33 43 92 44
REMARK SMILES IDX 34 45 35 46 36 47 86 48 37 49 91 50 85 51 87 52 38 53 90 54
REMARK SMILES IDX 84 55 83 56 39 58 71 59 51 60 70 61 52 62 55 63 69 64 88 65
REMARK SMILES IDX 53 66 54 67 68 69 89 70 56 71 40 72 41 73 49 74 42 75 43 76
REMARK SMILES IDX 47 77 50 78 44 79 45 80 48 81 46 82 72 83 73 84 81 85 74 86
REMARK SMILES IDX 75 87 79 88 82 89 76 90 77 91 80 92 78 93 57 94 58 95 66 96
REMARK SMILES IDX 59 97 60 98 64 99 67 100 61 101 62 102 65 103 63 104
REMARK H PARENT 11 13 3 23 87 57 55 68
REMARK Flexibility Score: inf
ROOT
ATOM      1  C   UNL A   1      34.009  28.367  26.199  1.00  0.00     0.261 C 
ENDROOT
BRANCH   1   2
ATOM      2  O   UNL A   1      33.198  27.222  26.446  1.00  0.00    -0.460 OA
BRANCH   2   3
ATOM      3  C   UNL A   1      31.912  27.524  26.724  1.00  0.00     0.339 C 
ATOM      4  O   UNL A   1      31.451  27.829  27.816  1.00  0.00    -0.246 OA
BRANCH   3   5
ATOM      5  C   UNL A   1      31.104  27.509  25.495  1.00  0.00     0.072 A 
ATOM      6  C   UNL A   1      30.212  26.483  25.150  1.00  0.00     0.054 A 
ATOM      7  C   UNL A   1      29.529  26.574  23.923  1.00  0.00     0.015 A 
ATOM      8  C   UNL A   1      29.674  27.694  23.098  1.00  0.00     0.001 A 
ATOM      9  C   UNL A   1      31.223  28.647  24.675  1.00  0.00     0.016 A 
ATOM     10  C   UNL A   1      30.508  28.739  23.483  1.00  0.00     0.001 A 
BRANCH   6  11
ATOM     11  C   UNL A   1      29.942  25.258  25.945  1.00  0.00     0.256 C 
ATOM     12  N   UNL A   1      30.560  24.036  25.758  1.00  0.00    -0.322 N 
ATOM     13  H   UNL A   1      30.219  23.331  26.353  1.00  0.00     0.170 HD
ATOM     14  O   UNL A   1      29.094  25.346  26.837  1.00  0.00    -0.269 OA
BRANCH  12  15
ATOM     15  C   UNL A   1      31.576  23.595  24.892  1.00  0.00     0.042 A 
ATOM     16  C   UNL A   1      32.190  22.017  23.141  1.00  0.00     0.041 A 
ATOM     17  C   UNL A   1      33.261  22.853  22.796  1.00  0.00     0.014 A 
ATOM     18  C   UNL A   1      31.380  22.368  24.228  1.00  0.00     0.040 A 
ATOM     19  C   UNL A   1      33.546  23.987  23.552  1.00  0.00     0.003 A 
ATOM     20  C   UNL A   1      32.722  24.336  24.619  1.00  0.00     0.026 A 
BRANCH  16  21
ATOM     21  C   UNL A   1      32.144  20.709  22.454  1.00  0.00     0.251 C 
ATOM     22  N   UNL A   1      32.544  19.505  22.952  1.00  0.00    -0.346 N 
ATOM     23  H   UNL A   1      32.509  18.818  22.248  1.00  0.00     0.164 HD
ATOM     24  O   UNL A   1      31.673  20.706  21.312  1.00  0.00    -0.269 OA
BRANCH  22  25
ATOM     25  C   UNL A   1      33.009  18.917  24.205  1.00  0.00     0.109 C 
ATOM     26  C   UNL A   1      33.691  17.566  24.101  1.00  0.00     0.036 C 
BRANCH  25  27
ATOM     27  C   UNL A   1      33.755  19.881  25.110  1.00  0.00    -0.026 A 
ATOM     28  C   UNL A   1      35.048  20.305  24.744  1.00  0.00     0.006 A 
ATOM     29  C   UNL A   1      33.188  20.430  26.265  1.00  0.00     0.006 A 
ATOM     30  C   UNL A   1      35.732  21.271  25.486  1.00  0.00     0.000 A 
ATOM     31  C   UNL A   1      33.868  21.410  27.000  1.00  0.00     0.000 A 
ATOM     32  C   UNL A   1      35.133  21.838  26.605  1.00  0.00     0.000 A 
ENDBRANCH  25  27
ENDBRANCH  22  25
ENDBRANCH  16  21
ENDBRANCH  12  15
ENDBRANCH   6  11
ENDBRANCH   3   5
ENDBRANCH   2   3
ENDBRANCH   1   2
BRANCH   1  33
ATOM     33  C   UNL A   1      34.417  29.235  27.390  1.00  0.00     0.202 C 
BRANCH  33  34
ATOM     34  O   UNL A   1      34.108  30.613  27.415  1.00  0.00    -0.374 OA
BRANCH  34  35
ATOM     35  C   UNL A   1      32.764  31.013  27.202  1.00  0.00     0.202 C 
BRANCH  35  36
ATOM     36  C   UNL A   1      32.388  32.505  27.206  1.00  0.00     0.261 C 
BRANCH  36  37
ATOM     37  O   UNL A   1      33.478  33.430  27.366  1.00  0.00    -0.460 OA
BRANCH  37  38
ATOM     38  C   UNL A   1      33.362  34.274  28.423  1.00  0.00     0.338 C 
ATOM     39  O   UNL A   1      32.400  34.960  28.723  1.00  0.00    -0.246 OA
BRANCH  38  40
ATOM     40  C   UNL A   1      34.547  34.164  29.293  1.00  0.00     0.060 A 
ATOM     41  C   UNL A   1      35.809  34.501  28.780  1.00  0.00     0.016 A 
ATOM     42  C   UNL A   1      34.426  33.580  30.553  1.00  0.00     0.016 A 
ATOM     43  C   UNL A   1      36.964  34.214  29.513  1.00  0.00     0.010 A 
ATOM     44  C   UNL A   1      35.581  33.276  31.275  1.00  0.00     0.010 A 
ATOM     45  C   UNL A   1      36.855  33.552  30.741  1.00  0.00    -0.014 A 
BRANCH  45  46
ATOM     46  C   UNL A   1      38.040  32.938  31.388  1.00  0.00     0.031 A 
ATOM     47  C   UNL A   1      38.665  31.739  30.731  1.00  0.00     0.074 A 
ATOM     48  C   UNL A   1      38.512  33.388  32.562  1.00  0.00     0.049 A 
ATOM     49  N   UNL A   1      39.575  30.916  31.185  1.00  0.00    -0.248 NA
ATOM     50  C   UNL A   1      38.184  31.421  29.377  1.00  0.00     0.031 C 
ATOM     51  C   UNL A   1      38.037  34.575  33.266  1.00  0.00     0.029 A 
ATOM     52  N   UNL A   1      39.483  32.870  33.383  1.00  0.00    -0.354 N 
ATOM     53  C   UNL A   1      39.749  29.964  30.189  1.00  0.00     0.074 A 
ATOM     54  C   UNL A   1      38.846  30.305  29.112  1.00  0.00     0.031 C 
ATOM     55  C   UNL A   1      38.704  34.685  34.428  1.00  0.00     0.029 A 
ATOM     56  C   UNL A   1      39.612  33.545  34.571  1.00  0.00     0.049 A 
ATOM     57  H   UNL A   1      40.033  32.089  33.144  1.00  0.00     0.167 HD
ATOM     58  C   UNL A   1      40.582  28.896  30.180  1.00  0.00     0.037 A 
ATOM     59  C   UNL A   1      40.349  33.251  35.660  1.00  0.00     0.037 A 
ATOM     60  C   UNL A   1      41.475  28.563  31.259  1.00  0.00     0.049 A 
ATOM     61  C   UNL A   1      41.198  32.002  35.669  1.00  0.00     0.074 A 
ATOM     62  C   UNL A   1      42.381  27.521  31.337  1.00  0.00     0.029 A 
ATOM     63  N   UNL A   1      41.556  29.257  32.457  1.00  0.00    -0.354 N 
ATOM     64  N   UNL A   1      41.378  31.115  34.721  1.00  0.00    -0.248 NA
ATOM     65  C   UNL A   1      41.940  31.712  36.906  1.00  0.00     0.031 C 
ATOM     66  C   UNL A   1      42.959  27.542  32.610  1.00  0.00     0.029 A 
ATOM     67  C   UNL A   1      42.472  28.644  33.296  1.00  0.00     0.049 A 
ATOM     68  H   UNL A   1      41.040  30.065  32.679  1.00  0.00     0.167 HD
ATOM     69  C   UNL A   1      42.288  30.193  35.224  1.00  0.00     0.074 A 
ATOM     70  C   UNL A   1      42.615  30.621  36.568  1.00  0.00     0.031 C 
ATOM     71  C   UNL A   1      42.814  29.099  34.620  1.00  0.00     0.037 A 
BRANCH  58  72
ATOM     72  C   UNL A   1      40.523  27.982  28.990  1.00  0.00     0.064 A 
ATOM     73  C   UNL A   1      41.279  28.214  27.832  1.00  0.00     0.173 A 
ATOM     74  C   UNL A   1      39.697  26.847  29.016  1.00  0.00     0.173 A 
ATOM     75  F   UNL A   1      42.077  29.289  27.749  1.00  0.00    -0.203 F 
ATOM     76  C   UNL A   1      41.177  27.369  26.728  1.00  0.00     0.198 A 
ATOM     77  C   UNL A   1      39.625  25.985  27.925  1.00  0.00     0.198 A 
ATOM     78  F   UNL A   1      38.958  26.571  30.101  1.00  0.00    -0.203 F 
ATOM     79  F   UNL A   1      41.858  27.648  25.607  1.00  0.00    -0.200 F 
ATOM     80  C   UNL A   1      40.356  26.253  26.778  1.00  0.00     0.200 A 
ATOM     81  F   UNL A   1      38.845  24.897  27.983  1.00  0.00    -0.200 F 
ATOM     82  F   UNL A   1      40.259  25.442  25.716  1.00  0.00    -0.200 F 
ENDBRANCH  58  72
BRANCH  59  83
ATOM     83  C   UNL A   1      40.323  34.155  36.840  1.00  0.00     0.064 A 
ATOM     84  C   UNL A   1      39.373  33.974  37.856  1.00  0.00     0.173 A 
ATOM     85  C   UNL A   1      41.233  35.213  36.980  1.00  0.00     0.173 A 
ATOM     86  F   UNL A   1      38.467  32.992  37.756  1.00  0.00    -0.203 F 
ATOM     87  C   UNL A   1      39.327  34.824  38.959  1.00  0.00     0.198 A 
ATOM     88  C   UNL A   1      41.204  36.046  38.097  1.00  0.00     0.198 A 
ATOM     89  F   UNL A   1      42.159  35.432  36.035  1.00  0.00    -0.203 F 
ATOM     90  F   UNL A   1      38.383  34.653  39.894  1.00  0.00    -0.200 F 
ATOM     91  C   UNL A   1      40.247  35.854  39.083  1.00  0.00     0.200 A 
ATOM     92  F   UNL A   1      42.102  37.032  38.219  1.00  0.00    -0.200 F 
ATOM     93  F   UNL A   1      40.207  36.666  40.148  1.00  0.00    -0.200 F 
ENDBRANCH  59  83
BRANCH  71  94
ATOM     94  C   UNL A   1      43.864  28.318  35.360  1.00  0.00     0.064 A 
ATOM     95  C   UNL A   1      43.541  27.243  36.199  1.00  0.00     0.173 A 
ATOM     96  C   UNL A   1      45.224  28.595  35.141  1.00  0.00     0.173 A 
ATOM     97  F   UNL A   1      42.258  26.944  36.453  1.00  0.00    -0.203 F 
ATOM     98  C   UNL A   1      44.542  26.477  36.796  1.00  0.00     0.198 A 
ATOM     99  C   UNL A   1      46.219  27.809  35.712  1.00  0.00     0.198 A 
ATOM    100  F   UNL A   1      45.586  29.609  34.341  1.00  0.00    -0.203 F 
ATOM    101  F   UNL A   1      44.212  25.470  37.618  1.00  0.00    -0.200 F 
ATOM    102  C   UNL A   1      45.877  26.752  36.542  1.00  0.00     0.200 A 
ATOM    103  F   UNL A   1      47.508  28.065  35.449  1.00  0.00    -0.200 F 
ATOM    104  F   UNL A   1      46.837  25.998  37.096  1.00  0.00    -0.200 F 
ENDBRANCH  71  94
ENDBRANCH  45  46
ENDBRANCH  38  40
ENDBRANCH  37  38
ENDBRANCH  36  37
ENDBRANCH  35  36
ENDBRANCH  34  35
ENDBRANCH  33  34
ENDBRANCH   1  33
TORSDOF 19
ENDMDL
MODEL 3
REMARK VINA RESULT:     -12.2      5.324     10.485
REMARK SMILES C[C@H](NC(=O)c1cccc(NC(=O)c2ccccc2C(=O)OCCOCCOC(=O)c2ccc(-c3c4nc(c(-c5c(F)c(F)c(F)c(F)c5F)c5ccc([nH]5)c(-c5c(F)c(F)c(F)c(F)c5F)c5nc(c(-c6c(F)c(F)c(F)c(F)c6F)c6ccc3[nH]6)C=C5)C=C4)cc2)c1)c1ccccc1
REMARK SMILES IDX 23 1 22 2 20 3 21 4 19 5 14 6 15 7 16 8 18 9 17 10 12 11
REMARK SMILES IDX 11 12 13 14 10 15 6 16 7 17 94 18 8 19 9 20 4 21 3 22 5 24
REMARK SMILES IDX 2 25 1 26 95 27 96 28 100 29 97 30 99 31 98 32 24 33 25 34
REMARK SMILES IDX 26 35 27 36 28 37 29 38 30 39 31 40 32 41 93 42 33 43 92 44
REMARK SMILES IDX 34 45 35 46 36 47 86 48 37 49 91 50 85 51 87 52 38 53 90 54
REMARK SMILES IDX 84 55 83 56 39 58 71 59 51 60 70 61 52 62 55 63 69 64 88 65
REMARK SMILES IDX 53 66 54 67 68 69 89 70 56 71 40 72 41 73 49 74 42 75 43 76
REMARK SMILES IDX 47 77 50 78 44 79 45 80 48 81 46 82 72 83 73 84 81 85 74 86
REMARK SMILES IDX 75 87 79 88 82 89 76 90 77 91 80 92 78 93 57 94 58 95 66 96
REMARK SMILES IDX 59 97 60 98 64 99 67 100 61 101 62 102 65 103 63 104
REMARK H PARENT 11 13 3 23 87 57 55 68
REMARK Flexibility Score: inf
ROOT
ATOM      1  C   UNL A   1      33.981  27.885  26.126  1.00  0.00     0.261 C 
ENDROOT
BRANCH   1   2
ATOM      2  O   UNL A   1      33.085  26.839  26.487  1.00  0.00    -0.460 OA
BRANCH   2   3
ATOM      3  C   UNL A   1      31.832  27.271  26.750  1.00  0.00     0.339 C 
ATOM      4  O   UNL A   1      31.408  27.674  27.824  1.00  0.00    -0.246 OA
BRANCH   3   5
ATOM      5  C   UNL A   1      31.020  27.262  25.525  1.00  0.00     0.072 A 
ATOM      6  C   UNL A   1      30.112  26.247  25.187  1.00  0.00     0.054 A 
ATOM      7  C   UNL A   1      29.425  26.343  23.962  1.00  0.00     0.015 A 
ATOM      8  C   UNL A   1      29.582  27.458  23.133  1.00  0.00     0.001 A 
ATOM      9  C   UNL A   1      31.151  28.395  24.700  1.00  0.00     0.016 A 
ATOM     10  C   UNL A   1      30.431  28.493  23.511  1.00  0.00     0.001 A 
BRANCH   6  11
ATOM     11  C   UNL A   1      29.829  25.029  25.987  1.00  0.00     0.256 C 
ATOM     12  N   UNL A   1      30.388  23.785  25.767  1.00  0.00    -0.322 N 
ATOM     13  H   UNL A   1      30.046  23.089  26.374  1.00  0.00     0.170 HD
ATOM     14  O   UNL A   1      29.026  25.144  26.917  1.00  0.00    -0.269 OA
BRANCH  12  15
ATOM     15  C   UNL A   1      31.346  23.308  24.854  1.00  0.00     0.042 A 
ATOM     16  C   UNL A   1      32.372  21.342  23.849  1.00  0.00     0.041 A 
ATOM     17  C   UNL A   1      32.839  22.149  22.803  1.00  0.00     0.014 A 
ATOM     18  C   UNL A   1      31.669  21.938  24.903  1.00  0.00     0.040 A 
ATOM     19  C   UNL A   1      32.650  23.528  22.834  1.00  0.00     0.003 A 
ATOM     20  C   UNL A   1      31.933  24.108  23.878  1.00  0.00     0.026 A 
BRANCH  16  21
ATOM     21  C   UNL A   1      32.861  19.946  23.857  1.00  0.00     0.251 C 
ATOM     22  N   UNL A   1      34.050  19.494  24.349  1.00  0.00    -0.346 N 
ATOM     23  H   UNL A   1      34.170  18.544  24.126  1.00  0.00     0.164 HD
ATOM     24  O   UNL A   1      32.101  19.097  23.382  1.00  0.00    -0.269 OA
BRANCH  22  25
ATOM     25  C   UNL A   1      35.199  19.983  25.106  1.00  0.00     0.109 C 
ATOM     26  C   UNL A   1      36.521  19.288  24.842  1.00  0.00     0.036 C 
BRANCH  25  27
ATOM     27  C   UNL A   1      35.330  21.494  25.140  1.00  0.00    -0.026 A 
ATOM     28  C   UNL A   1      34.824  22.203  26.247  1.00  0.00     0.006 A 
ATOM     29  C   UNL A   1      35.999  22.221  24.148  1.00  0.00     0.006 A 
ATOM     30  C   UNL A   1      35.014  23.581  26.377  1.00  0.00     0.000 A 
ATOM     31  C   UNL A   1      36.203  23.600  24.285  1.00  0.00     0.000 A 
ATOM     32  C   UNL A   1      35.721  24.278  25.403  1.00  0.00     0.000 A 
ENDBRANCH  25  27
ENDBRANCH  22  25
ENDBRANCH  16  21
ENDBRANCH  12  15
ENDBRANCH   6  11
ENDBRANCH   3   5
ENDBRANCH   2   3
ENDBRANCH   1   2
BRANCH   1  33
ATOM     33  C   UNL A   1      34.075  29.106  27.042  1.00  0.00     0.202 C 
BRANCH  33  34
ATOM     34  O   UNL A   1      33.636  30.372  26.600  1.00  0.00    -0.374 OA
BRANCH  34  35
ATOM     35  C   UNL A   1      32.410  30.880  27.101  1.00  0.00     0.202 C 
BRANCH  35  36
ATOM     36  C   UNL A   1      32.191  32.397  27.229  1.00  0.00     0.261 C 
BRANCH  36  37
ATOM     37  O   UNL A   1      33.379  33.197  27.370  1.00  0.00    -0.460 OA
BRANCH  37  38
ATOM     38  C   UNL A   1      33.316  34.151  28.333  1.00  0.00     0.338 C 
ATOM     39  O   UNL A   1      32.405  34.933  28.544  1.00  0.00    -0.246 OA
BRANCH  38  40
ATOM     40  C   UNL A   1      34.481  34.045  29.230  1.00  0.00     0.060 A 
ATOM     41  C   UNL A   1      35.732  34.501  28.787  1.00  0.00     0.016 A 
ATOM     42  C   UNL A   1      34.364  33.354  30.435  1.00  0.00     0.016 A 
ATOM     43  C   UNL A   1      36.883  34.228  29.532  1.00  0.00     0.010 A 
ATOM     44  C   UNL A   1      35.516  33.066  31.168  1.00  0.00     0.010 A 
ATOM     45  C   UNL A   1      36.783  33.463  30.699  1.00  0.00    -0.014 A 
BRANCH  45  46
ATOM     46  C   UNL A   1      37.987  32.874  31.334  1.00  0.00     0.031 A 
ATOM     47  C   UNL A   1      38.611  31.668  30.688  1.00  0.00     0.074 A 
ATOM     48  C   UNL A   1      38.477  33.351  32.489  1.00  0.00     0.049 A 
ATOM     49  N   UNL A   1      39.538  30.863  31.139  1.00  0.00    -0.248 NA
ATOM     50  C   UNL A   1      38.106  31.319  29.351  1.00  0.00     0.031 C 
ATOM     51  C   UNL A   1      38.005  34.547  33.179  1.00  0.00     0.029 A 
ATOM     52  N   UNL A   1      39.470  32.858  33.300  1.00  0.00    -0.354 N 
ATOM     53  C   UNL A   1      39.703  29.894  30.159  1.00  0.00     0.074 A 
ATOM     54  C   UNL A   1      38.775  30.204  29.094  1.00  0.00     0.031 C 
ATOM     55  C   UNL A   1      38.693  34.686  34.326  1.00  0.00     0.029 A 
ATOM     56  C   UNL A   1      39.615  33.559  34.472  1.00  0.00     0.049 A 
ATOM     57  H   UNL A   1      40.023  32.079  33.065  1.00  0.00     0.167 HD
ATOM     58  C   UNL A   1      40.547  28.834  30.154  1.00  0.00     0.037 A 
ATOM     59  C   UNL A   1      40.377  33.293  35.552  1.00  0.00     0.037 A 
ATOM     60  C   UNL A   1      41.464  28.531  31.220  1.00  0.00     0.049 A 
ATOM     61  C   UNL A   1      41.239  32.053  35.568  1.00  0.00     0.074 A 
ATOM     62  C   UNL A   1      42.383  27.501  31.300  1.00  0.00     0.029 A 
ATOM     63  N   UNL A   1      41.562  29.250  32.403  1.00  0.00    -0.354 N 
ATOM     64  N   UNL A   1      41.409  31.150  34.634  1.00  0.00    -0.248 NA
ATOM     65  C   UNL A   1      42.008  31.795  36.795  1.00  0.00     0.031 C 
ATOM     66  C   UNL A   1      42.986  27.552  32.560  1.00  0.00     0.029 A 
ATOM     67  C   UNL A   1      42.501  28.663  33.235  1.00  0.00     0.049 A 
ATOM     68  H   UNL A   1      41.042  30.056  32.620  1.00  0.00     0.167 HD
ATOM     69  C   UNL A   1      42.339  30.247  35.136  1.00  0.00     0.074 A 
ATOM     70  C   UNL A   1      42.688  30.704  36.465  1.00  0.00     0.031 C 
ATOM     71  C   UNL A   1      42.864  29.147  34.543  1.00  0.00     0.037 A 
BRANCH  58  72
ATOM     72  C   UNL A   1      40.474  27.896  28.983  1.00  0.00     0.064 A 
ATOM     73  C   UNL A   1      39.662  26.752  28.993  1.00  0.00     0.173 A 
ATOM     74  C   UNL A   1      41.227  28.154  27.827  1.00  0.00     0.173 A 
ATOM     75  F   UNL A   1      38.929  26.452  30.076  1.00  0.00    -0.203 F 
ATOM     76  C   UNL A   1      39.642  25.879  27.907  1.00  0.00     0.198 A 
ATOM     77  C   UNL A   1      41.175  27.300  26.729  1.00  0.00     0.198 A 
ATOM     78  F   UNL A   1      42.014  29.239  27.759  1.00  0.00    -0.203 F 
ATOM     79  F   UNL A   1      38.910  24.757  27.965  1.00  0.00    -0.200 F 
ATOM     80  C   UNL A   1      40.393  26.156  26.775  1.00  0.00     0.200 A 
ATOM     81  F   UNL A   1      41.888  27.580  25.630  1.00  0.00    -0.200 F 
ATOM     82  F   UNL A   1      40.371  25.316  25.732  1.00  0.00    -0.200 F 
ENDBRANCH  58  72
BRANCH  59  83
ATOM     83  C   UNL A   1      40.365  34.220  36.715  1.00  0.00     0.064 A 
ATOM     84  C   UNL A   1      41.276  35.284  36.787  1.00  0.00     0.173 A 
ATOM     85  C   UNL A   1      39.458  34.065  37.773  1.00  0.00     0.173 A 
ATOM     86  F   UNL A   1      42.179  35.458  35.812  1.00  0.00    -0.203 F 
ATOM     87  C   UNL A   1      41.287  36.150  37.879  1.00  0.00     0.198 A 
ATOM     88  C   UNL A   1      39.451  34.948  38.851  1.00  0.00     0.198 A 
ATOM     89  F   UNL A   1      38.569  33.061  37.754  1.00  0.00    -0.203 F 
ATOM     90  F   UNL A   1      42.194  37.134  37.941  1.00  0.00    -0.200 F 
ATOM     91  C   UNL A   1      40.370  35.987  38.906  1.00  0.00     0.200 A 
ATOM     92  F   UNL A   1      38.556  34.794  39.835  1.00  0.00    -0.200 F 
ATOM     93  F   UNL A   1      40.375  36.824  39.952  1.00  0.00    -0.200 F 
ENDBRANCH  59  83
BRANCH  71  94
ATOM     94  C   UNL A   1      43.937  28.391  35.276  1.00  0.00     0.064 A 
ATOM     95  C   UNL A   1      45.299  28.669  35.101  1.00  0.00     0.173 A 
ATOM     96  C   UNL A   1      43.581  27.438  36.246  1.00  0.00     0.173 A 
ATOM     97  F   UNL A   1      45.694  29.560  34.179  1.00  0.00    -0.203 F 
ATOM     98  C   UNL A   1      46.266  28.017  35.865  1.00  0.00     0.198 A 
ATOM     99  C   UNL A   1      44.547  26.813  37.028  1.00  0.00     0.198 A 
ATOM    100  F   UNL A   1      42.290  27.139  36.457  1.00  0.00    -0.203 F 
ATOM    101  F   UNL A   1      47.566  28.278  35.661  1.00  0.00    -0.200 F 
ATOM    102  C   UNL A   1      45.889  27.101  36.835  1.00  0.00     0.200 A 
ATOM    103  F   UNL A   1      44.178  25.943  37.978  1.00  0.00    -0.200 F 
ATOM    104  F   UNL A   1      46.819  26.496  37.586  1.00  0.00    -0.200 F 
ENDBRANCH  71  94
ENDBRANCH  45  46
ENDBRANCH  38  40
ENDBRANCH  37  38
ENDBRANCH  36  37
ENDBRANCH  35  36
ENDBRANCH  34  35
ENDBRANCH  33  34
ENDBRANCH   1  33
TORSDOF 19
ENDMDL
