MODEL 1
REMARK VINA RESULT:     -12.5      0.000      0.000
REMARK SMILES O=C(OCCOCCOC(=O)c1ccccc1Nc1cccc(S(F)(F)(F)(F)F)c1)c1ccc(-c2c3nc(c(-c4c(F)c(F)c(F)c(F)c4F)c4ccc([nH]4)c(-c4c(F)c(F)c(F)c(F)c4F)c4nc(c(-c5c(F)c(F)c(F)c(F)c5F)c5ccc2[nH]5)C=C4)C=C3)cc1
REMARK SMILES IDX 7 1 6 2 5 3 4 4 3 5 2 6 1 7 31 8 32 9 93 10 33 11 92 12
REMARK SMILES IDX 34 13 35 14 36 15 86 16 37 17 91 18 85 19 87 20 38 21 90 22
REMARK SMILES IDX 84 23 83 24 39 26 71 27 51 28 70 29 52 30 55 31 69 32 88 33
REMARK SMILES IDX 53 34 54 35 68 37 89 38 56 39 40 40 41 41 49 42 42 43 43 44
REMARK SMILES IDX 47 45 50 46 44 47 45 48 48 49 46 50 72 51 73 52 81 53 74 54
REMARK SMILES IDX 75 55 79 56 82 57 76 58 77 59 80 60 78 61 57 62 58 63 66 64
REMARK SMILES IDX 59 65 60 66 64 67 67 68 61 69 62 70 65 71 63 72 8 73 9 74
REMARK SMILES IDX 10 75 11 76 12 77 13 78 17 79 14 80 16 81 15 82 18 83 19 85
REMARK SMILES IDX 20 86 30 87 21 88 23 89 22 90 24 91 25 92 26 93 27 94 28 95
REMARK SMILES IDX 29 96
REMARK H PARENT 87 25 55 36 18 84
REMARK Flexibility Score: inf
ROOT
ATOM      1  C   UNL A   1      33.393  30.913  27.397  1.00  0.00     0.202 C 
ENDROOT
BRANCH   1   2
ATOM      2  O   UNL A   1      32.168  30.987  26.684  1.00  0.00    -0.374 OA
BRANCH   2   3
ATOM      3  C   UNL A   1      31.585  32.268  26.875  1.00  0.00     0.202 C 
BRANCH   3   4
ATOM      4  C   UNL A   1      32.683  33.294  27.102  1.00  0.00     0.261 C 
BRANCH   4   5
ATOM      5  O   UNL A   1      32.145  34.420  27.781  1.00  0.00    -0.460 OA
BRANCH   5   6
ATOM      6  C   UNL A   1      32.921  35.095  28.759  1.00  0.00     0.338 C 
ATOM      7  O   UNL A   1      32.596  36.266  29.130  1.00  0.00    -0.246 OA
BRANCH   6   8
ATOM      8  C   UNL A   1      34.140  34.418  29.364  1.00  0.00     0.060 A 
ATOM      9  C   UNL A   1      35.398  34.646  28.828  1.00  0.00     0.016 A 
ATOM     10  C   UNL A   1      33.977  33.653  30.438  1.00  0.00     0.016 A 
ATOM     11  C   UNL A   1      36.400  33.782  29.331  1.00  0.00     0.010 A 
ATOM     12  C   UNL A   1      35.033  32.944  30.958  1.00  0.00     0.010 A 
ATOM     13  C   UNL A   1      36.291  33.076  30.441  1.00  0.00    -0.014 A 
BRANCH  13  14
ATOM     14  C   UNL A   1      37.501  32.441  31.108  1.00  0.00     0.031 A 
ATOM     15  C   UNL A   1      38.113  31.376  30.445  1.00  0.00     0.074 A 
ATOM     16  C   UNL A   1      37.896  32.910  32.349  1.00  0.00     0.049 A 
ATOM     17  N   UNL A   1      39.165  30.663  30.849  1.00  0.00    -0.248 NA
ATOM     18  C   UNL A   1      37.673  30.854  29.143  1.00  0.00     0.031 C 
ATOM     19  C   UNL A   1      37.290  33.990  33.021  1.00  0.00     0.029 A 
ATOM     20  N   UNL A   1      38.915  32.437  33.147  1.00  0.00    -0.354 N 
ATOM     21  C   UNL A   1      39.473  29.739  29.937  1.00  0.00     0.074 A 
ATOM     22  C   UNL A   1      38.513  29.844  28.829  1.00  0.00     0.031 C 
ATOM     23  C   UNL A   1      37.926  34.159  34.210  1.00  0.00     0.029 A 
ATOM     24  C   UNL A   1      38.942  33.187  34.302  1.00  0.00     0.049 A 
ATOM     25  H   UNL A   1      39.520  31.692  32.928  1.00  0.00     0.167 HD
ATOM     26  C   UNL A   1      40.516  28.813  29.985  1.00  0.00     0.037 A 
ATOM     27  C   UNL A   1      39.794  33.046  35.385  1.00  0.00     0.037 A 
ATOM     28  C   UNL A   1      41.396  28.701  31.050  1.00  0.00     0.049 A 
ATOM     29  C   UNL A   1      40.802  32.081  35.459  1.00  0.00     0.074 A 
ATOM     30  C   UNL A   1      42.458  27.779  31.112  1.00  0.00     0.029 A 
ATOM     31  N   UNL A   1      41.407  29.435  32.216  1.00  0.00    -0.354 N 
ATOM     32  N   UNL A   1      41.134  31.183  34.531  1.00  0.00    -0.248 NA
ATOM     33  C   UNL A   1      41.689  31.903  36.616  1.00  0.00     0.031 C 
ATOM     34  C   UNL A   1      43.095  27.946  32.301  1.00  0.00     0.029 A 
ATOM     35  C   UNL A   1      42.441  28.977  33.002  1.00  0.00     0.049 A 
ATOM     36  H   UNL A   1      40.784  30.161  32.446  1.00  0.00     0.167 HD
ATOM     37  C   UNL A   1      42.160  30.444  34.953  1.00  0.00     0.074 A 
ATOM     38  C   UNL A   1      42.528  30.891  36.303  1.00  0.00     0.031 C 
ATOM     39  C   UNL A   1      42.809  29.417  34.265  1.00  0.00     0.037 A 
BRANCH  26  40
ATOM     40  C   UNL A   1      40.699  27.875  28.802  1.00  0.00     0.064 A 
ATOM     41  C   UNL A   1      41.526  28.227  27.749  1.00  0.00     0.173 A 
ATOM     42  C   UNL A   1      39.957  26.775  28.759  1.00  0.00     0.173 A 
ATOM     43  F   UNL A   1      42.464  29.164  27.845  1.00  0.00    -0.203 F 
ATOM     44  C   UNL A   1      41.283  27.497  26.561  1.00  0.00     0.198 A 
ATOM     45  C   UNL A   1      39.873  26.034  27.605  1.00  0.00     0.198 A 
ATOM     46  F   UNL A   1      39.290  26.386  29.842  1.00  0.00    -0.203 F 
ATOM     47  F   UNL A   1      41.758  27.994  25.422  1.00  0.00    -0.200 F 
ATOM     48  C   UNL A   1      40.618  26.358  26.504  1.00  0.00     0.200 A 
ATOM     49  F   UNL A   1      39.054  24.986  27.556  1.00  0.00    -0.200 F 
ATOM     50  F   UNL A   1      40.669  25.569  25.436  1.00  0.00    -0.200 F 
ENDBRANCH  26  40
BRANCH  27  51
ATOM     51  C   UNL A   1      39.622  33.996  36.560  1.00  0.00     0.064 A 
ATOM     52  C   UNL A   1      40.197  35.255  36.614  1.00  0.00     0.173 A 
ATOM     53  C   UNL A   1      38.812  33.566  37.521  1.00  0.00     0.173 A 
ATOM     54  F   UNL A   1      40.802  35.821  35.574  1.00  0.00    -0.203 F 
ATOM     55  C   UNL A   1      40.084  35.883  37.877  1.00  0.00     0.198 A 
ATOM     56  C   UNL A   1      38.643  34.298  38.672  1.00  0.00     0.198 A 
ATOM     57  F   UNL A   1      38.159  32.418  37.367  1.00  0.00    -0.203 F 
ATOM     58  F   UNL A   1      40.894  36.905  38.134  1.00  0.00    -0.200 F 
ATOM     59  C   UNL A   1      39.229  35.524  38.818  1.00  0.00     0.200 A 
ATOM     60  F   UNL A   1      37.898  33.806  39.658  1.00  0.00    -0.200 F 
ATOM     61  F   UNL A   1      38.954  36.314  39.851  1.00  0.00    -0.200 F 
ENDBRANCH  27  51
BRANCH  39  62
ATOM     62  C   UNL A   1      43.990  28.739  34.940  1.00  0.00     0.064 A 
ATOM     63  C   UNL A   1      45.264  29.266  34.808  1.00  0.00     0.173 A 
ATOM     64  C   UNL A   1      43.759  27.678  35.705  1.00  0.00     0.173 A 
ATOM     65  F   UNL A   1      45.504  30.458  34.268  1.00  0.00    -0.203 F 
ATOM     66  C   UNL A   1      46.288  28.422  35.300  1.00  0.00     0.198 A 
ATOM     67  C   UNL A   1      44.800  26.980  36.266  1.00  0.00     0.198 A 
ATOM     68  F   UNL A   1      42.507  27.289  35.930  1.00  0.00    -0.203 F 
ATOM     69  F   UNL A   1      47.533  28.663  34.904  1.00  0.00    -0.200 F 
ATOM     70  C   UNL A   1      46.091  27.410  36.127  1.00  0.00     0.200 A 
ATOM     71  F   UNL A   1      44.551  25.869  36.954  1.00  0.00    -0.200 F 
ATOM     72  F   UNL A   1      47.094  26.841  36.788  1.00  0.00    -0.200 F 
ENDBRANCH  39  62
ENDBRANCH  13  14
ENDBRANCH   6   8
ENDBRANCH   5   6
ENDBRANCH   4   5
ENDBRANCH   3   4
ENDBRANCH   2   3
ENDBRANCH   1   2
BRANCH   1  73
ATOM     73  C   UNL A   1      34.165  29.681  26.954  1.00  0.00     0.261 C 
BRANCH  73  74
ATOM     74  O   UNL A   1      33.615  28.529  27.576  1.00  0.00    -0.460 OA
BRANCH  74  75
ATOM     75  C   UNL A   1      32.557  27.818  26.947  1.00  0.00     0.340 C 
ATOM     76  O   UNL A   1      31.394  27.827  27.457  1.00  0.00    -0.246 OA
BRANCH  75  77
ATOM     77  C   UNL A   1      32.819  27.050  25.662  1.00  0.00     0.083 A 
ATOM     78  C   UNL A   1      33.390  25.790  25.741  1.00  0.00     0.018 A 
ATOM     79  C   UNL A   1      32.580  27.625  24.490  1.00  0.00     0.053 A 
ATOM     80  C   UNL A   1      33.943  25.334  24.521  1.00  0.00     0.001 A 
ATOM     81  C   UNL A   1      33.033  27.054  23.325  1.00  0.00     0.027 A 
ATOM     82  C   UNL A   1      33.658  25.839  23.334  1.00  0.00     0.002 A 
BRANCH  79  83
ATOM     83  N   UNL A   1      31.824  28.884  24.438  1.00  0.00    -0.355 N 
ATOM     84  H   UNL A   1      32.260  29.731  24.685  1.00  0.00     0.167 HD
BRANCH  83  85
ATOM     85  C   UNL A   1      30.414  28.878  24.017  1.00  0.00     0.040 A 
ATOM     86  C   UNL A   1      29.679  27.707  23.928  1.00  0.00     0.026 A 
ATOM     87  C   UNL A   1      29.912  30.039  23.613  1.00  0.00     0.050 A 
ATOM     88  C   UNL A   1      28.521  27.817  23.124  1.00  0.00     0.004 A 
ATOM     89  C   UNL A   1      28.709  30.088  22.951  1.00  0.00     0.109 A 
ATOM     90  C   UNL A   1      27.957  28.960  22.774  1.00  0.00     0.024 A 
BRANCH  89  91
ATOM     91  S   UNL A   1      28.111  31.669  22.305  1.00  0.00     0.310 S 
ATOM     92  F   UNL A   1      29.329  32.412  22.998  1.00  0.00    -0.094 F 
ATOM     93  F   UNL A   1      27.306  31.889  23.641  1.00  0.00    -0.094 F 
ATOM     94  F   UNL A   1      27.651  33.053  21.767  1.00  0.00    -0.094 F 
ATOM     95  F   UNL A   1      29.034  31.492  21.036  1.00  0.00    -0.094 F 
ATOM     96  F   UNL A   1      28.674  30.312  22.887  1.00  0.00    -0.094 F 
ENDBRANCH  89  91
ENDBRANCH  83  85
ENDBRANCH  79  83
ENDBRANCH  75  77
ENDBRANCH  74  75
ENDBRANCH  73  74
ENDBRANCH   1  73
TORSDOF 17
ENDMDL
MODEL 2
REMARK VINA RESULT:     -12.3      6.253     10.472
REMARK SMILES O=C(OCCOCCOC(=O)c1ccccc1Nc1cccc(S(F)(F)(F)(F)F)c1)c1ccc(-c2c3nc(c(-c4c(F)c(F)c(F)c(F)c4F)c4ccc([nH]4)c(-c4c(F)c(F)c(F)c(F)c4F)c4nc(c(-c5c(F)c(F)c(F)c(F)c5F)c5ccc2[nH]5)C=C4)C=C3)cc1
REMARK SMILES IDX 7 1 6 2 5 3 4 4 3 5 2 6 1 7 31 8 32 9 93 10 33 11 92 12
REMARK SMILES IDX 34 13 35 14 36 15 86 16 37 17 91 18 85 19 87 20 38 21 90 22
REMARK SMILES IDX 84 23 83 24 39 26 71 27 51 28 70 29 52 30 55 31 69 32 88 33
REMARK SMILES IDX 53 34 54 35 68 37 89 38 56 39 40 40 41 41 49 42 42 43 43 44
REMARK SMILES IDX 47 45 50 46 44 47 45 48 48 49 46 50 72 51 73 52 81 53 74 54
REMARK SMILES IDX 75 55 79 56 82 57 76 58 77 59 80 60 78 61 57 62 58 63 66 64
REMARK SMILES IDX 59 65 60 66 64 67 67 68 61 69 62 70 65 71 63 72 8 73 9 74
REMARK SMILES IDX 10 75 11 76 12 77 13 78 17 79 14 80 16 81 15 82 18 83 19 85
REMARK SMILES IDX 20 86 30 87 21 88 23 89 22 90 24 91 25 92 26 93 27 94 28 95
REMARK SMILES IDX 29 96
REMARK H PARENT 87 25 55 36 18 84
REMARK Flexibility Score: inf
ROOT
ATOM      1  C   UNL A   1      38.367  21.875  25.727  1.00  0.00     0.202 C 
ENDROOT
BRANCH   1   2
ATOM      2  O   UNL A   1      37.710  21.003  24.819  1.00  0.00    -0.374 OA
BRANCH   2   3
ATOM      3  C   UNL A   1      38.240  19.693  24.955  1.00  0.00     0.202 C 
BRANCH   3   4
ATOM      4  C   UNL A   1      39.339  19.697  26.006  1.00  0.00     0.261 C 
BRANCH   4   5
ATOM      5  O   UNL A   1      40.381  18.820  25.605  1.00  0.00    -0.460 OA
BRANCH   5   6
ATOM      6  C   UNL A   1      41.728  19.121  25.935  1.00  0.00     0.338 C 
ATOM      7  O   UNL A   1      42.617  18.217  25.862  1.00  0.00    -0.246 OA
BRANCH   6   8
ATOM      8  C   UNL A   1      42.107  20.526  26.375  1.00  0.00     0.060 A 
ATOM      9  C   UNL A   1      42.189  20.832  27.724  1.00  0.00     0.016 A 
ATOM     10  C   UNL A   1      42.406  21.426  25.445  1.00  0.00     0.016 A 
ATOM     11  C   UNL A   1      42.321  22.215  27.991  1.00  0.00     0.010 A 
ATOM     12  C   UNL A   1      42.657  22.732  25.791  1.00  0.00     0.010 A 
ATOM     13  C   UNL A   1      42.696  23.116  27.102  1.00  0.00    -0.014 A 
BRANCH  13  14
ATOM     14  C   UNL A   1      43.145  24.509  27.515  1.00  0.00     0.031 A 
ATOM     15  C   UNL A   1      44.519  24.735  27.613  1.00  0.00     0.074 A 
ATOM     16  C   UNL A   1      42.182  25.453  27.822  1.00  0.00     0.049 A 
ATOM     17  N   UNL A   1      45.134  25.863  27.972  1.00  0.00    -0.248 NA
ATOM     18  C   UNL A   1      45.544  23.722  27.320  1.00  0.00     0.031 C 
ATOM     19  C   UNL A   1      40.794  25.236  27.718  1.00  0.00     0.029 A 
ATOM     20  N   UNL A   1      42.373  26.741  28.275  1.00  0.00    -0.354 N 
ATOM     21  C   UNL A   1      46.458  25.700  27.929  1.00  0.00     0.074 A 
ATOM     22  C   UNL A   1      46.741  24.319  27.514  1.00  0.00     0.031 C 
ATOM     23  C   UNL A   1      40.158  26.370  28.112  1.00  0.00     0.029 A 
ATOM     24  C   UNL A   1      41.137  27.317  28.469  1.00  0.00     0.049 A 
ATOM     25  H   UNL A   1      43.243  27.174  28.432  1.00  0.00     0.167 HD
ATOM     26  C   UNL A   1      47.441  26.649  28.217  1.00  0.00     0.037 A 
ATOM     27  C   UNL A   1      40.860  28.593  28.932  1.00  0.00     0.037 A 
ATOM     28  C   UNL A   1      47.163  27.939  28.638  1.00  0.00     0.049 A 
ATOM     29  C   UNL A   1      41.843  29.524  29.276  1.00  0.00     0.074 A 
ATOM     30  C   UNL A   1      48.140  28.910  28.925  1.00  0.00     0.029 A 
ATOM     31  N   UNL A   1      45.926  28.507  28.856  1.00  0.00    -0.354 N 
ATOM     32  N   UNL A   1      43.165  29.374  29.195  1.00  0.00    -0.248 NA
ATOM     33  C   UNL A   1      41.559  30.868  29.798  1.00  0.00     0.031 C 
ATOM     34  C   UNL A   1      47.505  30.046  29.320  1.00  0.00     0.029 A 
ATOM     35  C   UNL A   1      46.119  29.802  29.286  1.00  0.00     0.049 A 
ATOM     36  H   UNL A   1      45.057  28.065  28.726  1.00  0.00     0.167 HD
ATOM     37  C   UNL A   1      43.780  30.489  29.594  1.00  0.00     0.074 A 
ATOM     38  C   UNL A   1      42.756  31.463  29.995  1.00  0.00     0.031 C 
ATOM     39  C   UNL A   1      45.153  30.734  29.637  1.00  0.00     0.037 A 
BRANCH  26  40
ATOM     40  C   UNL A   1      48.898  26.244  28.058  1.00  0.00     0.064 A 
ATOM     41  C   UNL A   1      49.628  25.808  29.152  1.00  0.00     0.173 A 
ATOM     42  C   UNL A   1      49.473  26.434  26.876  1.00  0.00     0.173 A 
ATOM     43  F   UNL A   1      49.063  25.367  30.272  1.00  0.00    -0.203 F 
ATOM     44  C   UNL A   1      51.029  25.874  28.968  1.00  0.00     0.198 A 
ATOM     45  C   UNL A   1      50.837  26.347  26.742  1.00  0.00     0.198 A 
ATOM     46  F   UNL A   1      48.721  26.707  25.814  1.00  0.00    -0.203 F 
ATOM     47  F   UNL A   1      51.798  25.826  30.053  1.00  0.00    -0.200 F 
ATOM     48  C   UNL A   1      51.627  25.979  27.796  1.00  0.00     0.200 A 
ATOM     49  F   UNL A   1      51.399  26.628  25.568  1.00  0.00    -0.200 F 
ATOM     50  F   UNL A   1      52.927  25.740  27.647  1.00  0.00    -0.200 F 
ENDBRANCH  26  40
BRANCH  27  51
ATOM     51  C   UNL A   1      39.402  29.003  29.074  1.00  0.00     0.064 A 
ATOM     52  C   UNL A   1      38.651  29.522  28.032  1.00  0.00     0.173 A 
ATOM     53  C   UNL A   1      38.860  28.762  30.262  1.00  0.00     0.173 A 
ATOM     54  F   UNL A   1      39.076  29.544  26.772  1.00  0.00    -0.203 F 
ATOM     55  C   UNL A   1      37.392  30.028  28.431  1.00  0.00     0.198 A 
ATOM     56  C   UNL A   1      37.575  29.165  30.538  1.00  0.00     0.198 A 
ATOM     57  F   UNL A   1      39.566  28.126  31.192  1.00  0.00    -0.203 F 
ATOM     58  F   UNL A   1      36.765  30.854  27.598  1.00  0.00    -0.200 F 
ATOM     59  C   UNL A   1      36.795  29.738  29.573  1.00  0.00     0.200 A 
ATOM     60  F   UNL A   1      37.083  28.993  31.761  1.00  0.00    -0.200 F 
ATOM     61  F   UNL A   1      35.505  29.991  29.772  1.00  0.00    -0.200 F 
ENDBRANCH  27  51
BRANCH  39  62
ATOM     62  C   UNL A   1      45.620  32.106  30.095  1.00  0.00     0.064 A 
ATOM     63  C   UNL A   1      45.719  33.147  29.187  1.00  0.00     0.173 A 
ATOM     64  C   UNL A   1      45.866  32.292  31.387  1.00  0.00     0.173 A 
ATOM     65  F   UNL A   1      45.245  33.076  27.946  1.00  0.00    -0.203 F 
ATOM     66  C   UNL A   1      46.367  34.296  29.699  1.00  0.00     0.198 A 
ATOM     67  C   UNL A   1      46.371  33.487  31.837  1.00  0.00     0.198 A 
ATOM     68  F   UNL A   1      45.617  31.313  32.252  1.00  0.00    -0.203 F 
ATOM     69  F   UNL A   1      46.824  35.189  28.828  1.00  0.00    -0.200 F 
ATOM     70  C   UNL A   1      46.550  34.542  30.985  1.00  0.00     0.200 A 
ATOM     71  F   UNL A   1      46.693  33.621  33.121  1.00  0.00    -0.200 F 
ATOM     72  F   UNL A   1      46.889  35.749  31.426  1.00  0.00    -0.200 F 
ENDBRANCH  39  62
ENDBRANCH  13  14
ENDBRANCH   6   8
ENDBRANCH   5   6
ENDBRANCH   4   5
ENDBRANCH   3   4
ENDBRANCH   2   3
ENDBRANCH   1   2
BRANCH   1  73
ATOM     73  C   UNL A   1      37.540  23.139  25.904  1.00  0.00     0.261 C 
BRANCH  73  74
ATOM     74  O   UNL A   1      37.302  23.730  24.635  1.00  0.00    -0.460 OA
BRANCH  74  75
ATOM     75  C   UNL A   1      36.037  23.575  24.006  1.00  0.00     0.340 C 
ATOM     76  O   UNL A   1      35.967  23.091  22.833  1.00  0.00    -0.246 OA
BRANCH  75  77
ATOM     77  C   UNL A   1      34.770  23.986  24.736  1.00  0.00     0.083 A 
ATOM     78  C   UNL A   1      34.322  25.291  24.616  1.00  0.00     0.018 A 
ATOM     79  C   UNL A   1      34.164  23.122  25.542  1.00  0.00     0.053 A 
ATOM     80  C   UNL A   1      33.395  25.674  25.613  1.00  0.00     0.001 A 
ATOM     81  C   UNL A   1      33.171  23.538  26.395  1.00  0.00     0.027 A 
ATOM     82  C   UNL A   1      32.719  24.829  26.371  1.00  0.00     0.002 A 
BRANCH  79  83
ATOM     83  N   UNL A   1      34.559  21.707  25.520  1.00  0.00    -0.355 N 
ATOM     84  H   UNL A   1      35.262  21.382  26.128  1.00  0.00     0.167 HD
BRANCH  83  85
ATOM     85  C   UNL A   1      33.906  20.775  24.588  1.00  0.00     0.040 A 
ATOM     86  C   UNL A   1      32.949  21.197  23.679  1.00  0.00     0.026 A 
ATOM     87  C   UNL A   1      34.191  19.488  24.741  1.00  0.00     0.050 A 
ATOM     88  C   UNL A   1      32.136  20.153  23.178  1.00  0.00     0.004 A 
ATOM     89  C   UNL A   1      33.438  18.525  24.114  1.00  0.00     0.109 A 
ATOM     90  C   UNL A   1      32.437  18.869  23.248  1.00  0.00     0.024 A 
BRANCH  89  91
ATOM     91  S   UNL A   1      33.774  16.777  24.439  1.00  0.00     0.310 S 
ATOM     92  F   UNL A   1      35.260  17.142  24.860  1.00  0.00    -0.094 F 
ATOM     93  F   UNL A   1      34.303  16.624  22.963  1.00  0.00    -0.094 F 
ATOM     94  F   UNL A   1      34.118  15.292  24.746  1.00  0.00    -0.094 F 
ATOM     95  F   UNL A   1      33.371  16.987  25.951  1.00  0.00    -0.094 F 
ATOM     96  F   UNL A   1      33.526  18.315  24.173  1.00  0.00    -0.094 F 
ENDBRANCH  89  91
ENDBRANCH  83  85
ENDBRANCH  79  83
ENDBRANCH  75  77
ENDBRANCH  74  75
ENDBRANCH  73  74
ENDBRANCH   1  73
TORSDOF 17
ENDMDL
MODEL 3
REMARK VINA RESULT:     -12.3      6.452     11.652
REMARK SMILES O=C(OCCOCCOC(=O)c1ccccc1Nc1cccc(S(F)(F)(F)(F)F)c1)c1ccc(-c2c3nc(c(-c4c(F)c(F)c(F)c(F)c4F)c4ccc([nH]4)c(-c4c(F)c(F)c(F)c(F)c4F)c4nc(c(-c5c(F)c(F)c(F)c(F)c5F)c5ccc2[nH]5)C=C4)C=C3)cc1
REMARK SMILES IDX 7 1 6 2 5 3 4 4 3 5 2 6 1 7 31 8 32 9 93 10 33 11 92 12
REMARK SMILES IDX 34 13 35 14 36 15 86 16 37 17 91 18 85 19 87 20 38 21 90 22
REMARK SMILES IDX 84 23 83 24 39 26 71 27 51 28 70 29 52 30 55 31 69 32 88 33
REMARK SMILES IDX 53 34 54 35 68 37 89 38 56 39 40 40 41 41 49 42 42 43 43 44
REMARK SMILES IDX 47 45 50 46 44 47 45 48 48 49 46 50 72 51 73 52 81 53 74 54
REMARK SMILES IDX 75 55 79 56 82 57 76 58 77 59 80 60 78 61 57 62 58 63 66 64
REMARK SMILES IDX 59 65 60 66 64 67 67 68 61 69 62 70 65 71 63 72 8 73 9 74
REMARK SMILES IDX 10 75 11 76 12 77 13 78 17 79 14 80 16 81 15 82 18 83 19 85
REMARK SMILES IDX 20 86 30 87 21 88 23 89 22 90 24 91 25 92 26 93 27 94 28 95
REMARK SMILES IDX 29 96
REMARK H PARENT 87 25 55 36 18 84
REMARK Flexibility Score: inf
ROOT
ATOM      1  C   UNL A   1      37.798  21.827  25.299  1.00  0.00     0.202 C 
ENDROOT
BRANCH   1   2
ATOM      2  O   UNL A   1      37.102  20.627  24.996  1.00  0.00    -0.374 OA
BRANCH   2   3
ATOM      3  C   UNL A   1      38.021  19.545  24.953  1.00  0.00     0.202 C 
BRANCH   3   4
ATOM      4  C   UNL A   1      39.265  19.906  25.749  1.00  0.00     0.261 C 
BRANCH   4   5
ATOM      5  O   UNL A   1      40.225  18.866  25.625  1.00  0.00    -0.460 OA
BRANCH   5   6
ATOM      6  C   UNL A   1      41.585  19.113  25.945  1.00  0.00     0.338 C 
ATOM      7  O   UNL A   1      42.432  18.169  25.891  1.00  0.00    -0.246 OA
BRANCH   6   8
ATOM      8  C   UNL A   1      42.028  20.510  26.352  1.00  0.00     0.060 A 
ATOM      9  C   UNL A   1      42.236  20.810  27.689  1.00  0.00     0.016 A 
ATOM     10  C   UNL A   1      42.259  21.407  25.400  1.00  0.00     0.016 A 
ATOM     11  C   UNL A   1      42.418  22.190  27.945  1.00  0.00     0.010 A 
ATOM     12  C   UNL A   1      42.565  22.707  25.724  1.00  0.00     0.010 A 
ATOM     13  C   UNL A   1      42.728  23.087  27.027  1.00  0.00    -0.014 A 
BRANCH  13  14
ATOM     14  C   UNL A   1      43.239  24.470  27.400  1.00  0.00     0.031 A 
ATOM     15  C   UNL A   1      42.306  25.388  27.884  1.00  0.00     0.074 A 
ATOM     16  C   UNL A   1      44.576  24.761  27.191  1.00  0.00     0.049 A 
ATOM     17  N   UNL A   1      42.523  26.651  28.251  1.00  0.00    -0.248 NA
ATOM     18  C   UNL A   1      40.878  25.090  28.074  1.00  0.00     0.031 C 
ATOM     19  C   UNL A   1      45.525  23.838  26.711  1.00  0.00     0.029 A 
ATOM     20  N   UNL A   1      45.221  25.961  27.398  1.00  0.00    -0.354 N 
ATOM     21  C   UNL A   1      41.388  27.209  28.680  1.00  0.00     0.074 A 
ATOM     22  C   UNL A   1      40.313  26.214  28.566  1.00  0.00     0.031 C 
ATOM     23  C   UNL A   1      46.723  24.473  26.619  1.00  0.00     0.029 A 
ATOM     24  C   UNL A   1      46.543  25.805  27.041  1.00  0.00     0.049 A 
ATOM     25  H   UNL A   1      44.810  26.786  27.742  1.00  0.00     0.167 HD
ATOM     26  C   UNL A   1      41.209  28.506  29.162  1.00  0.00     0.037 A 
ATOM     27  C   UNL A   1      47.548  26.759  27.073  1.00  0.00     0.037 A 
ATOM     28  C   UNL A   1      42.224  29.446  29.235  1.00  0.00     0.049 A 
ATOM     29  C   UNL A   1      47.355  28.074  27.501  1.00  0.00     0.074 A 
ATOM     30  C   UNL A   1      42.062  30.756  29.725  1.00  0.00     0.029 A 
ATOM     31  N   UNL A   1      43.540  29.298  28.854  1.00  0.00    -0.354 N 
ATOM     32  N   UNL A   1      46.231  28.619  27.966  1.00  0.00    -0.248 NA
ATOM     33  C   UNL A   1      48.406  29.101  27.508  1.00  0.00     0.031 C 
ATOM     34  C   UNL A   1      43.260  31.393  29.634  1.00  0.00     0.029 A 
ATOM     35  C   UNL A   1      44.190  30.490  29.084  1.00  0.00     0.049 A 
ATOM     36  H   UNL A   1      43.945  28.481  28.483  1.00  0.00     0.167 HD
ATOM     37  C   UNL A   1      46.439  29.895  28.294  1.00  0.00     0.074 A 
ATOM     38  C   UNL A   1      47.840  30.226  27.998  1.00  0.00     0.031 C 
ATOM     39  C   UNL A   1      45.520  30.796  28.833  1.00  0.00     0.037 A 
BRANCH  26  40
ATOM     40  C   UNL A   1      39.821  28.910  29.635  1.00  0.00     0.064 A 
ATOM     41  C   UNL A   1      39.456  28.744  30.961  1.00  0.00     0.173 A 
ATOM     42  C   UNL A   1      38.944  29.312  28.723  1.00  0.00     0.173 A 
ATOM     43  F   UNL A   1      40.339  28.592  31.943  1.00  0.00    -0.203 F 
ATOM     44  C   UNL A   1      38.057  28.752  31.174  1.00  0.00     0.198 A 
ATOM     45  C   UNL A   1      37.612  29.429  29.038  1.00  0.00     0.198 A 
ATOM     46  F   UNL A   1      39.359  29.606  27.494  1.00  0.00    -0.203 F 
ATOM     47  F   UNL A   1      37.603  28.250  32.320  1.00  0.00    -0.200 F 
ATOM     48  C   UNL A   1      37.170  29.222  30.316  1.00  0.00     0.200 A 
ATOM     49  F   UNL A   1      36.739  29.747  28.086  1.00  0.00    -0.200 F 
ATOM     50  F   UNL A   1      35.916  29.480  30.674  1.00  0.00    -0.200 F 
ENDBRANCH  26  40
BRANCH  27  51
ATOM     51  C   UNL A   1      48.939  26.349  26.616  1.00  0.00     0.064 A 
ATOM     52  C   UNL A   1      49.847  25.693  27.432  1.00  0.00     0.173 A 
ATOM     53  C   UNL A   1      49.212  26.597  25.340  1.00  0.00     0.173 A 
ATOM     54  F   UNL A   1      49.528  25.203  28.626  1.00  0.00    -0.203 F 
ATOM     55  C   UNL A   1      51.146  25.594  26.878  1.00  0.00     0.198 A 
ATOM     56  C   UNL A   1      50.464  26.349  24.833  1.00  0.00     0.198 A 
ATOM     57  F   UNL A   1      48.264  27.091  24.548  1.00  0.00    -0.203 F 
ATOM     58  F   UNL A   1      52.150  25.318  27.704  1.00  0.00    -0.200 F 
ATOM     59  C   UNL A   1      51.430  25.758  25.599  1.00  0.00     0.200 A 
ATOM     60  F   UNL A   1      50.741  26.689  23.577  1.00  0.00    -0.200 F 
ATOM     61  F   UNL A   1      52.592  25.367  25.084  1.00  0.00    -0.200 F 
ENDBRANCH  27  51
BRANCH  39  62
ATOM     62  C   UNL A   1      46.004  32.198  29.165  1.00  0.00     0.064 A 
ATOM     63  C   UNL A   1      46.589  32.461  30.392  1.00  0.00     0.173 A 
ATOM     64  C   UNL A   1      45.909  33.138  28.231  1.00  0.00     0.173 A 
ATOM     65  F   UNL A   1      46.932  31.505  31.252  1.00  0.00    -0.203 F 
ATOM     66  C   UNL A   1      46.790  33.838  30.649  1.00  0.00     0.198 A 
ATOM     67  C   UNL A   1      46.252  34.439  28.511  1.00  0.00     0.198 A 
ATOM     68  F   UNL A   1      45.480  32.817  27.014  1.00  0.00    -0.203 F 
ATOM     69  F   UNL A   1      47.003  34.208  31.908  1.00  0.00    -0.200 F 
ATOM     70  C   UNL A   1      46.782  34.781  29.724  1.00  0.00     0.200 A 
ATOM     71  F   UNL A   1      46.066  35.379  27.589  1.00  0.00    -0.200 F 
ATOM     72  F   UNL A   1      47.264  35.998  29.960  1.00  0.00    -0.200 F 
ENDBRANCH  39  62
ENDBRANCH  13  14
ENDBRANCH   6   8
ENDBRANCH   5   6
ENDBRANCH   4   5
ENDBRANCH   3   4
ENDBRANCH   2   3
ENDBRANCH   1   2
BRANCH   1  73
ATOM     73  C   UNL A   1      37.333  22.932  24.364  1.00  0.00     0.261 C 
BRANCH  73  74
ATOM     74  O   UNL A   1      36.312  23.689  24.997  1.00  0.00    -0.460 OA
BRANCH  74  75
ATOM     75  C   UNL A   1      35.074  23.903  24.334  1.00  0.00     0.340 C 
ATOM     76  O   UNL A   1      35.051  24.110  23.081  1.00  0.00    -0.246 OA
BRANCH  75  77
ATOM     77  C   UNL A   1      33.777  23.884  25.125  1.00  0.00     0.083 A 
ATOM     78  C   UNL A   1      33.023  25.044  25.202  1.00  0.00     0.018 A 
ATOM     79  C   UNL A   1      33.431  22.792  25.797  1.00  0.00     0.053 A 
ATOM     80  C   UNL A   1      32.073  25.042  26.251  1.00  0.00     0.001 A 
ATOM     81  C   UNL A   1      32.403  22.828  26.709  1.00  0.00     0.027 A 
ATOM     82  C   UNL A   1      31.654  23.959  26.880  1.00  0.00     0.002 A 
BRANCH  79  83
ATOM     83  N   UNL A   1      34.154  21.535  25.564  1.00  0.00    -0.355 N 
ATOM     84  H   UNL A   1      34.979  21.340  26.065  1.00  0.00     0.167 HD
BRANCH  83  85
ATOM     85  C   UNL A   1      33.646  20.566  24.581  1.00  0.00     0.040 A 
ATOM     86  C   UNL A   1      32.824  20.947  23.533  1.00  0.00     0.026 A 
ATOM     87  C   UNL A   1      33.918  19.288  24.814  1.00  0.00     0.050 A 
ATOM     88  C   UNL A   1      32.097  19.878  22.957  1.00  0.00     0.004 A 
ATOM     89  C   UNL A   1      33.268  18.297  24.119  1.00  0.00     0.109 A 
ATOM     90  C   UNL A   1      32.397  18.601  23.110  1.00  0.00     0.024 A 
BRANCH  89  91
ATOM     91  S   UNL A   1      33.571  16.564  24.544  1.00  0.00     0.310 S 
ATOM     92  F   UNL A   1      35.041  16.936  25.010  1.00  0.00    -0.094 F 
ATOM     93  F   UNL A   1      34.160  16.332  23.102  1.00  0.00    -0.094 F 
ATOM     94  F   UNL A   1      33.883  15.093  24.939  1.00  0.00    -0.094 F 
ATOM     95  F   UNL A   1      33.106  16.853  26.026  1.00  0.00    -0.094 F 
ATOM     96  F   UNL A   1      33.352  18.089  24.192  1.00  0.00    -0.094 F 
ENDBRANCH  89  91
ENDBRANCH  83  85
ENDBRANCH  79  83
ENDBRANCH  75  77
ENDBRANCH  74  75
ENDBRANCH  73  74
ENDBRANCH   1  73
TORSDOF 17
ENDMDL
