MODEL 1
REMARK VINA RESULT:     -10.5      0.000      0.000
REMARK SMILES Cc1ccc2c(c1)C=C(C(=O)OCCOCCOC(=O)c1ccc(-c3c4nc(c(-c5c(F)c(F)c(F)c(F)c5F)c5ccc([nH]5)c(-c5c(F)c(F)c(F)c(F)c5F)c5nc(c(-c6c(F)c(F)c(F)c(F)c6F)c6ccc3[nH]6)C=C5)C=C4)cc1)[C@@H](C(F)(F)F)O2
REMARK SMILES IDX 16 1 15 2 14 3 13 4 12 5 10 6 11 7 9 8 1 9 2 10 3 11 7 12
REMARK SMILES IDX 4 13 6 14 5 15 8 16 89 17 84 18 85 19 86 20 87 21 88 22
REMARK SMILES IDX 17 23 18 24 19 25 20 26 21 27 22 28 83 29 23 30 82 31 24 32
REMARK SMILES IDX 25 33 26 34 76 35 27 36 81 37 75 38 77 39 28 40 80 41 74 42
REMARK SMILES IDX 73 43 29 45 61 46 41 47 60 48 42 49 45 50 59 51 78 52 43 53
REMARK SMILES IDX 44 54 58 56 79 57 46 58 30 59 31 60 39 61 32 62 33 63 37 64
REMARK SMILES IDX 40 65 34 66 35 67 38 68 36 69 62 70 63 71 71 72 64 73 65 74
REMARK SMILES IDX 69 75 72 76 66 77 67 78 70 79 68 80 47 81 48 82 56 83 49 84
REMARK SMILES IDX 50 85 54 86 57 87 51 88 52 89 55 90 53 91
REMARK H PARENT 77 44 45 55
REMARK Flexibility Score: inf
ROOT
ATOM      1  C   UNL A   1      33.511  35.373  28.393  1.00  0.00     0.202 C 
ENDROOT
BRANCH   1   2
ATOM      2  O   UNL A   1      32.562  36.152  29.120  1.00  0.00    -0.374 OA
BRANCH   2   3
ATOM      3  C   UNL A   1      32.896  36.587  30.434  1.00  0.00     0.202 C 
BRANCH   3   4
ATOM      4  C   UNL A   1      32.884  35.550  31.561  1.00  0.00     0.261 C 
BRANCH   4   5
ATOM      5  O   UNL A   1      34.154  35.439  32.218  1.00  0.00    -0.460 OA
BRANCH   5   6
ATOM      6  C   UNL A   1      34.878  34.358  31.842  1.00  0.00     0.338 C 
ATOM      7  O   UNL A   1      34.480  33.402  31.197  1.00  0.00    -0.246 OA
BRANCH   6   8
ATOM      8  C   UNL A   1      36.291  34.541  32.223  1.00  0.00     0.087 C 
ATOM      9  C   UNL A   1      41.911  33.724  29.874  1.00  0.00     0.044 C 
ATOM     10  C   UNL A   1      40.892  34.089  30.913  1.00  0.00    -0.050 A 
ATOM     11  C   UNL A   1      41.275  34.274  32.247  1.00  0.00     0.007 A 
ATOM     12  C   UNL A   1      39.538  34.192  30.576  1.00  0.00     0.015 A 
ATOM     13  C   UNL A   1      40.321  34.577  33.223  1.00  0.00     0.047 A 
ATOM     14  C   UNL A   1      38.579  34.457  31.560  1.00  0.00     0.017 A 
ATOM     15  C   UNL A   1      38.973  34.661  32.882  1.00  0.00     0.128 A 
ATOM     16  C   UNL A   1      37.171  34.441  31.220  1.00  0.00     0.027 C 
ATOM     17  O   UNL A   1      38.101  34.951  33.894  1.00  0.00    -0.475 OA
ATOM     18  C   UNL A   1      36.675  34.777  33.657  1.00  0.00     0.316 C 
BRANCH  18  19
ATOM     19  C   UNL A   1      36.152  33.676  34.591  1.00  0.00     0.430 C 
ATOM     20  F   UNL A   1      34.874  33.918  34.969  1.00  0.00    -0.167 F 
ATOM     21  F   UNL A   1      36.148  32.466  33.982  1.00  0.00    -0.167 F 
ATOM     22  F   UNL A   1      36.895  33.562  35.714  1.00  0.00    -0.167 F 
ENDBRANCH  18  19
ENDBRANCH   6   8
ENDBRANCH   5   6
ENDBRANCH   4   5
ENDBRANCH   3   4
ENDBRANCH   2   3
ENDBRANCH   1   2
BRANCH   1  23
ATOM     23  C   UNL A   1      33.188  33.899  28.109  1.00  0.00     0.261 C 
BRANCH  23  24
ATOM     24  O   UNL A   1      34.313  33.170  27.587  1.00  0.00    -0.460 OA
BRANCH  24  25
ATOM     25  C   UNL A   1      34.189  31.820  27.626  1.00  0.00     0.338 C 
ATOM     26  O   UNL A   1      33.275  31.141  27.181  1.00  0.00    -0.246 OA
BRANCH  25  27
ATOM     27  C   UNL A   1      35.448  31.238  28.119  1.00  0.00     0.060 A 
ATOM     28  C   UNL A   1      36.606  32.011  28.218  1.00  0.00     0.016 A 
ATOM     29  C   UNL A   1      35.446  29.898  28.528  1.00  0.00     0.016 A 
ATOM     30  C   UNL A   1      37.764  31.439  28.751  1.00  0.00     0.010 A 
ATOM     31  C   UNL A   1      36.605  29.327  29.051  1.00  0.00     0.010 A 
ATOM     32  C   UNL A   1      37.766  30.101  29.186  1.00  0.00    -0.014 A 
BRANCH  32  33
ATOM     33  C   UNL A   1      38.938  29.548  29.907  1.00  0.00     0.031 A 
ATOM     34  C   UNL A   1      39.308  30.019  31.280  1.00  0.00     0.074 A 
ATOM     35  C   UNL A   1      39.691  28.624  29.281  1.00  0.00     0.049 A 
ATOM     36  N   UNL A   1      40.292  29.622  32.047  1.00  0.00    -0.248 NA
ATOM     37  C   UNL A   1      38.473  31.076  31.867  1.00  0.00     0.031 C 
ATOM     38  C   UNL A   1      39.440  28.115  27.933  1.00  0.00     0.029 A 
ATOM     39  N   UNL A   1      40.814  27.952  29.691  1.00  0.00    -0.354 N 
ATOM     40  C   UNL A   1      40.183  30.361  33.216  1.00  0.00     0.074 A 
ATOM     41  C   UNL A   1      39.067  31.267  33.038  1.00  0.00     0.031 C 
ATOM     42  C   UNL A   1      40.364  27.189  27.637  1.00  0.00     0.029 A 
ATOM     43  C   UNL A   1      41.294  27.068  28.757  1.00  0.00     0.049 A 
ATOM     44  H   UNL A   1      41.234  28.089  30.569  1.00  0.00     0.167 HD
ATOM     45  C   UNL A   1      40.937  30.272  34.339  1.00  0.00     0.037 A 
ATOM     46  C   UNL A   1      42.364  26.253  28.795  1.00  0.00     0.037 A 
ATOM     47  C   UNL A   1      42.061  29.381  34.499  1.00  0.00     0.049 A 
ATOM     48  C   UNL A   1      43.218  26.220  30.031  1.00  0.00     0.074 A 
ATOM     49  C   UNL A   1      42.871  29.207  35.608  1.00  0.00     0.029 A 
ATOM     50  N   UNL A   1      42.540  28.523  33.519  1.00  0.00    -0.354 N 
ATOM     51  N   UNL A   1      43.072  26.880  31.155  1.00  0.00    -0.248 NA
ATOM     52  C   UNL A   1      44.381  25.322  30.009  1.00  0.00     0.031 C 
ATOM     53  C   UNL A   1      43.874  28.291  35.281  1.00  0.00     0.029 A 
ATOM     54  C   UNL A   1      43.653  27.840  33.990  1.00  0.00     0.049 A 
ATOM     55  H   UNL A   1      42.150  28.417  32.622  1.00  0.00     0.167 HD
ATOM     56  C   UNL A   1      44.105  26.459  31.982  1.00  0.00     0.074 A 
ATOM     57  C   UNL A   1      44.858  25.472  31.236  1.00  0.00     0.031 C 
ATOM     58  C   UNL A   1      44.400  26.857  33.244  1.00  0.00     0.037 A 
BRANCH  45  59
ATOM     59  C   UNL A   1      40.574  31.155  35.501  1.00  0.00     0.064 A 
ATOM     60  C   UNL A   1      41.360  32.264  35.847  1.00  0.00     0.173 A 
ATOM     61  C   UNL A   1      39.384  30.947  36.214  1.00  0.00     0.173 A 
ATOM     62  F   UNL A   1      42.510  32.506  35.201  1.00  0.00    -0.203 F 
ATOM     63  C   UNL A   1      40.975  33.124  36.874  1.00  0.00     0.198 A 
ATOM     64  C   UNL A   1      38.987  31.826  37.220  1.00  0.00     0.198 A 
ATOM     65  F   UNL A   1      38.589  29.907  35.919  1.00  0.00    -0.203 F 
ATOM     66  F   UNL A   1      41.756  34.161  37.205  1.00  0.00    -0.200 F 
ATOM     67  C   UNL A   1      39.784  32.911  37.550  1.00  0.00     0.200 A 
ATOM     68  F   UNL A   1      37.825  31.629  37.860  1.00  0.00    -0.200 F 
ATOM     69  F   UNL A   1      39.403  33.752  38.522  1.00  0.00    -0.200 F 
ENDBRANCH  45  59
BRANCH  46  70
ATOM     70  C   UNL A   1      42.659  25.375  27.633  1.00  0.00     0.064 A 
ATOM     71  C   UNL A   1      41.970  24.168  27.452  1.00  0.00     0.173 A 
ATOM     72  C   UNL A   1      43.611  25.735  26.667  1.00  0.00     0.173 A 
ATOM     73  F   UNL A   1      41.065  23.771  28.359  1.00  0.00    -0.203 F 
ATOM     74  C   UNL A   1      42.230  23.349  26.356  1.00  0.00     0.198 A 
ATOM     75  C   UNL A   1      43.846  24.931  25.554  1.00  0.00     0.198 A 
ATOM     76  F   UNL A   1      44.293  26.883  26.792  1.00  0.00    -0.203 F 
ATOM     77  F   UNL A   1      41.584  22.182  26.227  1.00  0.00    -0.200 F 
ATOM     78  C   UNL A   1      43.160  23.736  25.403  1.00  0.00     0.200 A 
ATOM     79  F   UNL A   1      44.733  25.319  24.627  1.00  0.00    -0.200 F 
ATOM     80  F   UNL A   1      43.398  22.955  24.341  1.00  0.00    -0.200 F 
ENDBRANCH  46  70
BRANCH  58  81
ATOM     81  C   UNL A   1      45.575  26.207  33.919  1.00  0.00     0.064 A 
ATOM     82  C   UNL A   1      46.860  26.766  33.864  1.00  0.00     0.173 A 
ATOM     83  C   UNL A   1      45.405  25.033  34.668  1.00  0.00     0.173 A 
ATOM     84  F   UNL A   1      47.082  27.881  33.150  1.00  0.00    -0.203 F 
ATOM     85  C   UNL A   1      47.935  26.160  34.511  1.00  0.00     0.198 A 
ATOM     86  C   UNL A   1      46.474  24.449  35.343  1.00  0.00     0.198 A 
ATOM     87  F   UNL A   1      44.196  24.457  34.762  1.00  0.00    -0.203 F 
ATOM     88  F   UNL A   1      49.164  26.685  34.400  1.00  0.00    -0.200 F 
ATOM     89  C   UNL A   1      47.740  25.008  35.256  1.00  0.00     0.200 A 
ATOM     90  F   UNL A   1      46.279  23.346  36.079  1.00  0.00    -0.200 F 
ATOM     91  F   UNL A   1      48.773  24.433  35.887  1.00  0.00    -0.200 F 
ENDBRANCH  58  81
ENDBRANCH  32  33
ENDBRANCH  25  27
ENDBRANCH  24  25
ENDBRANCH  23  24
ENDBRANCH   1  23
TORSDOF 15
ENDMDL
MODEL 2
REMARK VINA RESULT:     -10.5      0.985      7.441
REMARK SMILES Cc1ccc2c(c1)C=C(C(=O)OCCOCCOC(=O)c1ccc(-c3c4nc(c(-c5c(F)c(F)c(F)c(F)c5F)c5ccc([nH]5)c(-c5c(F)c(F)c(F)c(F)c5F)c5nc(c(-c6c(F)c(F)c(F)c(F)c6F)c6ccc3[nH]6)C=C5)C=C4)cc1)[C@@H](C(F)(F)F)O2
REMARK SMILES IDX 16 1 15 2 14 3 13 4 12 5 10 6 11 7 9 8 1 9 2 10 3 11 7 12
REMARK SMILES IDX 4 13 6 14 5 15 8 16 89 17 84 18 85 19 86 20 87 21 88 22
REMARK SMILES IDX 17 23 18 24 19 25 20 26 21 27 22 28 83 29 23 30 82 31 24 32
REMARK SMILES IDX 25 33 26 34 76 35 27 36 81 37 75 38 77 39 28 40 80 41 74 42
REMARK SMILES IDX 73 43 29 45 61 46 41 47 60 48 42 49 45 50 59 51 78 52 43 53
REMARK SMILES IDX 44 54 58 56 79 57 46 58 30 59 31 60 39 61 32 62 33 63 37 64
REMARK SMILES IDX 40 65 34 66 35 67 38 68 36 69 62 70 63 71 71 72 64 73 65 74
REMARK SMILES IDX 69 75 72 76 66 77 67 78 70 79 68 80 47 81 48 82 56 83 49 84
REMARK SMILES IDX 50 85 54 86 57 87 51 88 52 89 55 90 53 91
REMARK H PARENT 77 44 45 55
REMARK Flexibility Score: inf
ROOT
ATOM      1  C   UNL A   1      33.535  35.223  28.414  1.00  0.00     0.202 C 
ENDROOT
BRANCH   1   2
ATOM      2  O   UNL A   1      32.571  36.045  29.072  1.00  0.00    -0.374 OA
BRANCH   2   3
ATOM      3  C   UNL A   1      32.903  36.615  30.333  1.00  0.00     0.202 C 
BRANCH   3   4
ATOM      4  C   UNL A   1      32.754  35.739  31.581  1.00  0.00     0.261 C 
BRANCH   4   5
ATOM      5  O   UNL A   1      33.998  35.552  32.271  1.00  0.00    -0.460 OA
BRANCH   5   6
ATOM      6  C   UNL A   1      34.690  34.457  31.874  1.00  0.00     0.338 C 
ATOM      7  O   UNL A   1      34.256  33.513  31.234  1.00  0.00    -0.246 OA
BRANCH   6   8
ATOM      8  C   UNL A   1      36.114  34.607  32.223  1.00  0.00     0.087 C 
ATOM      9  C   UNL A   1      41.660  33.418  29.858  1.00  0.00     0.044 C 
ATOM     10  C   UNL A   1      40.673  33.889  30.885  1.00  0.00    -0.050 A 
ATOM     11  C   UNL A   1      41.084  34.144  32.199  1.00  0.00     0.007 A 
ATOM     12  C   UNL A   1      39.319  34.024  30.559  1.00  0.00     0.015 A 
ATOM     13  C   UNL A   1      40.158  34.546  33.166  1.00  0.00     0.047 A 
ATOM     14  C   UNL A   1      38.387  34.389  31.537  1.00  0.00     0.017 A 
ATOM     15  C   UNL A   1      38.809  34.662  32.838  1.00  0.00     0.128 A 
ATOM     16  C   UNL A   1      36.974  34.408  31.218  1.00  0.00     0.027 C 
ATOM     17  O   UNL A   1      37.966  35.050  33.841  1.00  0.00    -0.475 OA
ATOM     18  C   UNL A   1      36.530  34.919  33.634  1.00  0.00     0.316 C 
BRANCH  18  19
ATOM     19  C   UNL A   1      35.979  33.902  34.644  1.00  0.00     0.430 C 
ATOM     20  F   UNL A   1      36.915  33.566  35.565  1.00  0.00    -0.167 F 
ATOM     21  F   UNL A   1      34.927  34.404  35.334  1.00  0.00    -0.167 F 
ATOM     22  F   UNL A   1      35.565  32.762  34.049  1.00  0.00    -0.167 F 
ENDBRANCH  18  19
ENDBRANCH   6   8
ENDBRANCH   5   6
ENDBRANCH   4   5
ENDBRANCH   3   4
ENDBRANCH   2   3
ENDBRANCH   1   2
BRANCH   1  23
ATOM     23  C   UNL A   1      33.139  33.791  28.028  1.00  0.00     0.261 C 
BRANCH  23  24
ATOM     24  O   UNL A   1      34.235  33.035  27.484  1.00  0.00    -0.460 OA
BRANCH  24  25
ATOM     25  C   UNL A   1      34.134  31.690  27.633  1.00  0.00     0.338 C 
ATOM     26  O   UNL A   1      33.253  30.957  27.211  1.00  0.00    -0.246 OA
BRANCH  25  27
ATOM     27  C   UNL A   1      35.383  31.180  28.224  1.00  0.00     0.060 A 
ATOM     28  C   UNL A   1      36.541  31.958  28.239  1.00  0.00     0.016 A 
ATOM     29  C   UNL A   1      35.369  29.907  28.811  1.00  0.00     0.016 A 
ATOM     30  C   UNL A   1      37.687  31.463  28.865  1.00  0.00     0.010 A 
ATOM     31  C   UNL A   1      36.516  29.412  29.428  1.00  0.00     0.010 A 
ATOM     32  C   UNL A   1      37.677  30.196  29.478  1.00  0.00    -0.014 A 
BRANCH  32  33
ATOM     33  C   UNL A   1      38.833  29.745  30.289  1.00  0.00     0.031 A 
ATOM     34  C   UNL A   1      39.850  28.792  29.742  1.00  0.00     0.074 A 
ATOM     35  C   UNL A   1      38.934  30.191  31.556  1.00  0.00     0.049 A 
ATOM     36  N   UNL A   1      40.926  28.317  30.319  1.00  0.00    -0.248 NA
ATOM     37  C   UNL A   1      39.633  28.302  28.374  1.00  0.00     0.031 C 
ATOM     38  C   UNL A   1      37.985  31.098  32.201  1.00  0.00     0.029 A 
ATOM     39  N   UNL A   1      39.875  29.945  32.523  1.00  0.00    -0.354 N 
ATOM     40  C   UNL A   1      41.527  27.490  29.380  1.00  0.00     0.074 A 
ATOM     41  C   UNL A   1      40.670  27.489  28.212  1.00  0.00     0.031 C 
ATOM     42  C   UNL A   1      38.405  31.355  33.448  1.00  0.00     0.029 A 
ATOM     43  C   UNL A   1      39.630  30.603  33.703  1.00  0.00     0.049 A 
ATOM     44  H   UNL A   1      40.649  29.355  32.385  1.00  0.00     0.167 HD
ATOM     45  C   UNL A   1      42.697  26.814  29.483  1.00  0.00     0.037 A 
ATOM     46  C   UNL A   1      40.314  30.599  34.862  1.00  0.00     0.037 A 
ATOM     47  C   UNL A   1      43.533  26.805  30.660  1.00  0.00     0.049 A 
ATOM     48  C   UNL A   1      41.577  29.791  34.967  1.00  0.00     0.074 A 
ATOM     49  C   UNL A   1      44.746  26.165  30.848  1.00  0.00     0.029 A 
ATOM     50  N   UNL A   1      43.238  27.455  31.849  1.00  0.00    -0.354 N 
ATOM     51  N   UNL A   1      42.169  29.059  34.053  1.00  0.00    -0.248 NA
ATOM     52  C   UNL A   1      42.272  29.814  36.261  1.00  0.00     0.031 C 
ATOM     53  C   UNL A   1      45.155  26.378  32.168  1.00  0.00     0.029 A 
ATOM     54  C   UNL A   1      44.233  27.208  32.785  1.00  0.00     0.049 A 
ATOM     55  H   UNL A   1      42.440  28.009  32.007  1.00  0.00     0.167 HD
ATOM     56  C   UNL A   1      43.317  28.558  34.651  1.00  0.00     0.074 A 
ATOM     57  C   UNL A   1      43.349  29.086  36.000  1.00  0.00     0.031 C 
ATOM     58  C   UNL A   1      44.259  27.735  34.127  1.00  0.00     0.037 A 
BRANCH  45  59
ATOM     59  C   UNL A   1      43.160  26.027  28.290  1.00  0.00     0.064 A 
ATOM     60  C   UNL A   1      42.790  24.686  28.111  1.00  0.00     0.173 A 
ATOM     61  C   UNL A   1      43.903  26.642  27.270  1.00  0.00     0.173 A 
ATOM     62  F   UNL A   1      42.085  24.049  29.058  1.00  0.00    -0.203 F 
ATOM     63  C   UNL A   1      43.157  23.986  26.963  1.00  0.00     0.198 A 
ATOM     64  C   UNL A   1      44.242  25.949  26.110  1.00  0.00     0.198 A 
ATOM     65  F   UNL A   1      44.276  27.926  27.383  1.00  0.00    -0.203 F 
ATOM     66  F   UNL A   1      42.815  22.697  26.829  1.00  0.00    -0.200 F 
ATOM     67  C   UNL A   1      43.871  24.621  25.960  1.00  0.00     0.200 A 
ATOM     68  F   UNL A   1      44.917  26.570  25.132  1.00  0.00    -0.200 F 
ATOM     69  F   UNL A   1      44.204  23.953  24.846  1.00  0.00    -0.200 F 
ENDBRANCH  45  59
BRANCH  46  70
ATOM     70  C   UNL A   1      39.831  31.422  36.001  1.00  0.00     0.064 A 
ATOM     71  C   UNL A   1      40.479  32.615  36.351  1.00  0.00     0.173 A 
ATOM     72  C   UNL A   1      38.700  31.051  36.743  1.00  0.00     0.173 A 
ATOM     73  F   UNL A   1      41.576  33.002  35.683  1.00  0.00    -0.203 F 
ATOM     74  C   UNL A   1      40.021  33.399  37.406  1.00  0.00     0.198 A 
ATOM     75  C   UNL A   1      38.224  31.853  37.778  1.00  0.00     0.198 A 
ATOM     76  F   UNL A   1      38.042  29.921  36.445  1.00  0.00    -0.203 F 
ATOM     77  F   UNL A   1      40.681  34.515  37.743  1.00  0.00    -0.200 F 
ATOM     78  C   UNL A   1      38.887  33.023  38.112  1.00  0.00     0.200 A 
ATOM     79  F   UNL A   1      37.118  31.494  38.445  1.00  0.00    -0.200 F 
ATOM     80  F   UNL A   1      38.439  33.786  39.117  1.00  0.00    -0.200 F 
ENDBRANCH  46  70
BRANCH  58  81
ATOM     81  C   UNL A   1      45.424  27.369  35.003  1.00  0.00     0.064 A 
ATOM     82  C   UNL A   1      46.568  28.176  35.086  1.00  0.00     0.173 A 
ATOM     83  C   UNL A   1      45.379  26.217  35.804  1.00  0.00     0.173 A 
ATOM     84  F   UNL A   1      46.671  29.281  34.331  1.00  0.00    -0.203 F 
ATOM     85  C   UNL A   1      47.632  27.831  35.916  1.00  0.00     0.198 A 
ATOM     86  C   UNL A   1      46.428  25.895  36.660  1.00  0.00     0.198 A 
ATOM     87  F   UNL A   1      44.306  25.411  35.772  1.00  0.00    -0.203 F 
ATOM     88  F   UNL A   1      48.736  28.591  35.938  1.00  0.00    -0.200 F 
ATOM     89  C   UNL A   1      47.558  26.696  36.709  1.00  0.00     0.200 A 
ATOM     90  F   UNL A   1      46.346  24.807  37.440  1.00  0.00    -0.200 F 
ATOM     91  F   UNL A   1      48.578  26.372  37.516  1.00  0.00    -0.200 F 
ENDBRANCH  58  81
ENDBRANCH  32  33
ENDBRANCH  25  27
ENDBRANCH  24  25
ENDBRANCH  23  24
ENDBRANCH   1  23
TORSDOF 15
ENDMDL
MODEL 3
REMARK VINA RESULT:     -10.1      5.208     12.288
REMARK SMILES Cc1ccc2c(c1)C=C(C(=O)OCCOCCOC(=O)c1ccc(-c3c4nc(c(-c5c(F)c(F)c(F)c(F)c5F)c5ccc([nH]5)c(-c5c(F)c(F)c(F)c(F)c5F)c5nc(c(-c6c(F)c(F)c(F)c(F)c6F)c6ccc3[nH]6)C=C5)C=C4)cc1)[C@@H](C(F)(F)F)O2
REMARK SMILES IDX 16 1 15 2 14 3 13 4 12 5 10 6 11 7 9 8 1 9 2 10 3 11 7 12
REMARK SMILES IDX 4 13 6 14 5 15 8 16 89 17 84 18 85 19 86 20 87 21 88 22
REMARK SMILES IDX 17 23 18 24 19 25 20 26 21 27 22 28 83 29 23 30 82 31 24 32
REMARK SMILES IDX 25 33 26 34 76 35 27 36 81 37 75 38 77 39 28 40 80 41 74 42
REMARK SMILES IDX 73 43 29 45 61 46 41 47 60 48 42 49 45 50 59 51 78 52 43 53
REMARK SMILES IDX 44 54 58 56 79 57 46 58 30 59 31 60 39 61 32 62 33 63 37 64
REMARK SMILES IDX 40 65 34 66 35 67 38 68 36 69 62 70 63 71 71 72 64 73 65 74
REMARK SMILES IDX 69 75 72 76 66 77 67 78 70 79 68 80 47 81 48 82 56 83 49 84
REMARK SMILES IDX 50 85 54 86 57 87 51 88 52 89 55 90 53 91
REMARK H PARENT 77 44 45 55
REMARK Flexibility Score: inf
ROOT
ATOM      1  C   UNL A   1      41.264  18.836  25.750  1.00  0.00     0.202 C 
ENDROOT
BRANCH   1   2
ATOM      2  O   UNL A   1      42.344  18.824  26.683  1.00  0.00    -0.374 OA
BRANCH   2   3
ATOM      3  C   UNL A   1      43.658  18.558  26.206  1.00  0.00     0.202 C 
BRANCH   3   4
ATOM      4  C   UNL A   1      44.093  19.210  24.890  1.00  0.00     0.261 C 
BRANCH   4   5
ATOM      5  O   UNL A   1      44.900  20.378  25.097  1.00  0.00    -0.460 OA
BRANCH   5   6
ATOM      6  C   UNL A   1      44.192  21.489  25.413  1.00  0.00     0.338 C 
ATOM      7  O   UNL A   1      43.038  21.732  25.100  1.00  0.00    -0.246 OA
BRANCH   6   8
ATOM      8  C   UNL A   1      44.980  22.348  26.316  1.00  0.00     0.087 C 
ATOM      9  C   UNL A   1      44.282  25.558  31.510  1.00  0.00     0.044 C 
ATOM     10  C   UNL A   1      45.000  25.029  30.303  1.00  0.00    -0.050 A 
ATOM     11  C   UNL A   1      46.224  25.583  29.908  1.00  0.00     0.007 A 
ATOM     12  C   UNL A   1      44.431  24.016  29.525  1.00  0.00     0.015 A 
ATOM     13  C   UNL A   1      46.875  25.117  28.762  1.00  0.00     0.047 A 
ATOM     14  C   UNL A   1      45.065  23.577  28.357  1.00  0.00     0.017 A 
ATOM     15  C   UNL A   1      46.294  24.119  27.983  1.00  0.00     0.128 A 
ATOM     16  C   UNL A   1      44.408  22.614  27.496  1.00  0.00     0.027 C 
ATOM     17  O   UNL A   1      46.988  23.726  26.873  1.00  0.00    -0.475 OA
ATOM     18  C   UNL A   1      46.310  22.901  25.883  1.00  0.00     0.316 C 
BRANCH  18  19
ATOM     19  C   UNL A   1      46.215  23.688  24.568  1.00  0.00     0.430 C 
ATOM     20  F   UNL A   1      44.950  24.114  24.339  1.00  0.00    -0.167 F 
ATOM     21  F   UNL A   1      46.993  24.798  24.595  1.00  0.00    -0.167 F 
ATOM     22  F   UNL A   1      46.598  22.952  23.502  1.00  0.00    -0.167 F 
ENDBRANCH  18  19
ENDBRANCH   6   8
ENDBRANCH   5   6
ENDBRANCH   4   5
ENDBRANCH   3   4
ENDBRANCH   2   3
ENDBRANCH   1   2
BRANCH   1  23
ATOM     23  C   UNL A   1      39.972  19.574  26.131  1.00  0.00     0.261 C 
BRANCH  23  24
ATOM     24  O   UNL A   1      40.215  20.870  26.705  1.00  0.00    -0.460 OA
BRANCH  24  25
ATOM     25  C   UNL A   1      39.339  21.836  26.331  1.00  0.00     0.338 C 
ATOM     26  O   UNL A   1      38.229  21.687  25.842  1.00  0.00    -0.246 OA
BRANCH  25  27
ATOM     27  C   UNL A   1      39.839  23.140  26.795  1.00  0.00     0.060 A 
ATOM     28  C   UNL A   1      40.749  23.226  27.849  1.00  0.00     0.016 A 
ATOM     29  C   UNL A   1      39.411  24.294  26.124  1.00  0.00     0.016 A 
ATOM     30  C   UNL A   1      41.249  24.477  28.219  1.00  0.00     0.010 A 
ATOM     31  C   UNL A   1      39.904  25.541  26.500  1.00  0.00     0.010 A 
ATOM     32  C   UNL A   1      40.843  25.640  27.536  1.00  0.00    -0.014 A 
BRANCH  32  33
ATOM     33  C   UNL A   1      41.500  26.940  27.811  1.00  0.00     0.031 A 
ATOM     34  C   UNL A   1      42.906  27.216  27.375  1.00  0.00     0.074 A 
ATOM     35  C   UNL A   1      40.809  27.868  28.499  1.00  0.00     0.049 A 
ATOM     36  N   UNL A   1      43.614  28.308  27.526  1.00  0.00    -0.248 NA
ATOM     37  C   UNL A   1      43.614  26.128  26.687  1.00  0.00     0.031 C 
ATOM     38  C   UNL A   1      39.445  27.695  28.999  1.00  0.00     0.029 A 
ATOM     39  N   UNL A   1      41.153  29.135  28.896  1.00  0.00    -0.354 N 
ATOM     40  C   UNL A   1      44.841  28.049  26.933  1.00  0.00     0.074 A 
ATOM     41  C   UNL A   1      44.800  26.679  26.463  1.00  0.00     0.031 C 
ATOM     42  C   UNL A   1      39.057  28.823  29.611  1.00  0.00     0.029 A 
ATOM     43  C   UNL A   1      40.156  29.784  29.581  1.00  0.00     0.049 A 
ATOM     44  H   UNL A   1      42.030  29.539  28.708  1.00  0.00     0.167 HD
ATOM     45  C   UNL A   1      45.893  28.890  26.779  1.00  0.00     0.037 A 
ATOM     46  C   UNL A   1      40.130  31.013  30.127  1.00  0.00     0.037 A 
ATOM     47  C   UNL A   1      45.932  30.246  27.270  1.00  0.00     0.049 A 
ATOM     48  C   UNL A   1      41.336  31.901  29.994  1.00  0.00     0.074 A 
ATOM     49  C   UNL A   1      46.948  31.179  27.144  1.00  0.00     0.029 A 
ATOM     50  N   UNL A   1      44.917  30.860  27.990  1.00  0.00    -0.354 N 
ATOM     51  N   UNL A   1      42.470  31.669  29.380  1.00  0.00    -0.248 NA
ATOM     52  C   UNL A   1      41.253  33.227  30.624  1.00  0.00     0.031 C 
ATOM     53  C   UNL A   1      46.574  32.334  27.836  1.00  0.00     0.029 A 
ATOM     54  C   UNL A   1      45.295  32.150  28.338  1.00  0.00     0.049 A 
ATOM     55  H   UNL A   1      44.056  30.443  28.220  1.00  0.00     0.167 HD
ATOM     56  C   UNL A   1      43.226  32.825  29.524  1.00  0.00     0.074 A 
ATOM     57  C   UNL A   1      42.412  33.764  30.267  1.00  0.00     0.031 C 
ATOM     58  C   UNL A   1      44.481  33.081  29.079  1.00  0.00     0.037 A 
BRANCH  45  59
ATOM     59  C   UNL A   1      47.099  28.378  26.042  1.00  0.00     0.064 A 
ATOM     60  C   UNL A   1      48.254  27.972  26.726  1.00  0.00     0.173 A 
ATOM     61  C   UNL A   1      47.067  28.205  24.650  1.00  0.00     0.173 A 
ATOM     62  F   UNL A   1      48.339  28.121  28.056  1.00  0.00    -0.203 F 
ATOM     63  C   UNL A   1      49.338  27.424  26.042  1.00  0.00     0.198 A 
ATOM     64  C   UNL A   1      48.141  27.629  23.974  1.00  0.00     0.198 A 
ATOM     65  F   UNL A   1      45.984  28.567  23.946  1.00  0.00    -0.203 F 
ATOM     66  F   UNL A   1      50.442  27.070  26.715  1.00  0.00    -0.200 F 
ATOM     67  C   UNL A   1      49.275  27.242  24.670  1.00  0.00     0.200 A 
ATOM     68  F   UNL A   1      48.071  27.436  22.648  1.00  0.00    -0.200 F 
ATOM     69  F   UNL A   1      50.310  26.694  24.017  1.00  0.00    -0.200 F 
ENDBRANCH  45  59
BRANCH  46  70
ATOM     70  C   UNL A   1      38.900  31.483  30.816  1.00  0.00     0.064 A 
ATOM     71  C   UNL A   1      38.717  31.262  32.188  1.00  0.00     0.173 A 
ATOM     72  C   UNL A   1      37.900  32.186  30.127  1.00  0.00     0.173 A 
ATOM     73  F   UNL A   1      39.636  30.579  32.885  1.00  0.00    -0.203 F 
ATOM     74  C   UNL A   1      37.574  31.716  32.842  1.00  0.00     0.198 A 
ATOM     75  C   UNL A   1      36.773  32.667  30.790  1.00  0.00     0.198 A 
ATOM     76  F   UNL A   1      38.031  32.427  28.814  1.00  0.00    -0.203 F 
ATOM     77  F   UNL A   1      37.407  31.459  34.147  1.00  0.00    -0.200 F 
ATOM     78  C   UNL A   1      36.608  32.427  32.145  1.00  0.00     0.200 A 
ATOM     79  F   UNL A   1      35.852  33.369  30.116  1.00  0.00    -0.200 F 
ATOM     80  F   UNL A   1      35.517  32.876  32.780  1.00  0.00    -0.200 F 
ENDBRANCH  46  70
BRANCH  58  81
ATOM     81  C   UNL A   1      45.050  34.444  29.359  1.00  0.00     0.064 A 
ATOM     82  C   UNL A   1      45.806  34.706  30.511  1.00  0.00     0.173 A 
ATOM     83  C   UNL A   1      44.876  35.490  28.440  1.00  0.00     0.173 A 
ATOM     84  F   UNL A   1      45.992  33.746  31.430  1.00  0.00    -0.203 F 
ATOM     85  C   UNL A   1      46.341  35.970  30.746  1.00  0.00     0.198 A 
ATOM     86  C   UNL A   1      45.444  36.742  28.659  1.00  0.00     0.198 A 
ATOM     87  F   UNL A   1      44.170  35.294  27.315  1.00  0.00    -0.203 F 
ATOM     88  F   UNL A   1      47.015  36.211  31.880  1.00  0.00    -0.200 F 
ATOM     89  C   UNL A   1      46.168  36.985  29.817  1.00  0.00     0.200 A 
ATOM     90  F   UNL A   1      45.291  37.716  27.750  1.00  0.00    -0.200 F 
ATOM     91  F   UNL A   1      46.694  38.197  30.038  1.00  0.00    -0.200 F 
ENDBRANCH  58  81
ENDBRANCH  32  33
ENDBRANCH  25  27
ENDBRANCH  24  25
ENDBRANCH  23  24
ENDBRANCH   1  23
TORSDOF 15
ENDMDL
