MODEL 1
REMARK VINA RESULT:     -10.8      0.000      0.000
REMARK SMILES CC(C)[C@H]([NH2+]Cc1ccncc1)C(=O)OCCOCCOC(=O)c1ccc(-c2c3nc(c(-c4c(F)c(F)c(F)c(F)c4F)c4ccc([nH]4)c(-c4c(F)c(F)c(F)c(F)c4F)c4nc(c(-c5c(F)c(F)c(F)c(F)c5F)c5ccc2[nH]5)C=C4)C=C3)cc1
REMARK SMILES IDX 17 1 16 2 15 3 13 4 14 5 4 6 2 7 1 8 3 9 5 10 6 13 7 14 8 15
REMARK SMILES IDX 12 16 9 17 11 18 10 19 18 20 19 21 20 22 21 23 22 24 23 25
REMARK SMILES IDX 24 26 25 27 86 28 26 29 85 30 27 31 28 32 29 33 79 34 30 35
REMARK SMILES IDX 84 36 78 37 80 38 31 39 83 40 77 41 76 42 32 44 64 45 44 46
REMARK SMILES IDX 63 47 45 48 48 49 62 50 81 51 46 52 47 53 61 55 82 56 49 57
REMARK SMILES IDX 33 58 34 59 42 60 35 61 36 62 40 63 43 64 37 65 38 66 41 67
REMARK SMILES IDX 39 68 65 69 66 70 74 71 67 72 68 73 72 74 75 75 69 76 70 77
REMARK SMILES IDX 73 78 71 79 50 80 51 81 59 82 52 83 53 84 57 85 60 86 54 87
REMARK SMILES IDX 55 88 58 89 56 90
REMARK H PARENT 5 11 5 12 80 43 48 54
REMARK Flexibility Score: inf
ROOT
ATOM      1  C   UNL A   1      34.995  22.957  23.121  1.00  0.00     0.202 C 
ENDROOT
BRANCH   1   2
ATOM      2  C   UNL A   1      33.661  23.703  23.206  1.00  0.00     0.261 C 
BRANCH   2   3
ATOM      3  O   UNL A   1      33.814  25.055  23.671  1.00  0.00    -0.459 OA
BRANCH   3   4
ATOM      4  C   UNL A   1      33.365  26.020  22.817  1.00  0.00     0.365 C 
ATOM      5  O   UNL A   1      33.657  26.088  21.627  1.00  0.00    -0.245 OA
BRANCH   4   6
ATOM      6  C   UNL A   1      32.480  27.075  23.511  1.00  0.00     0.296 C 
BRANCH   6   7
ATOM      7  C   UNL A   1      32.193  26.655  24.977  1.00  0.00     0.053 C 
ATOM      8  C   UNL A   1      32.632  27.691  26.017  1.00  0.00     0.014 C 
ATOM      9  C   UNL A   1      30.712  26.310  25.171  1.00  0.00     0.014 C 
ENDBRANCH   6   7
BRANCH   6  10
ATOM     10  N   UNL A   1      31.260  27.388  22.710  1.00  0.00    -0.331 N 
ATOM     11  H   UNL A   1      30.452  26.949  23.150  1.00  0.00     0.347 HD
ATOM     12  H   UNL A   1      31.396  27.030  21.765  1.00  0.00     0.347 HD
BRANCH  10  13
ATOM     13  C   UNL A   1      31.034  28.833  22.628  1.00  0.00     0.298 C 
BRANCH  13  14
ATOM     14  C   UNL A   1      29.627  29.248  22.983  1.00  0.00     0.009 A 
ATOM     15  C   UNL A   1      28.572  28.332  22.896  1.00  0.00     0.029 A 
ATOM     16  C   UNL A   1      29.318  30.576  23.295  1.00  0.00     0.029 A 
ATOM     17  C   UNL A   1      27.277  28.776  23.118  1.00  0.00     0.111 A 
ATOM     18  C   UNL A   1      27.991  30.924  23.502  1.00  0.00     0.111 A 
ATOM     19  N   UNL A   1      26.963  30.053  23.419  1.00  0.00    -0.265 NA
ENDBRANCH  13  14
ENDBRANCH  10  13
ENDBRANCH   6  10
ENDBRANCH   4   6
ENDBRANCH   3   4
ENDBRANCH   2   3
ENDBRANCH   1   2
BRANCH   1  20
ATOM     20  O   UNL A   1      35.745  22.829  24.326  1.00  0.00    -0.374 OA
BRANCH  20  21
ATOM     21  C   UNL A   1      35.775  21.550  24.960  1.00  0.00     0.202 C 
BRANCH  21  22
ATOM     22  C   UNL A   1      37.123  20.821  24.993  1.00  0.00     0.261 C 
BRANCH  22  23
ATOM     23  O   UNL A   1      38.247  21.718  24.999  1.00  0.00    -0.460 OA
BRANCH  23  24
ATOM     24  C   UNL A   1      39.212  21.396  25.888  1.00  0.00     0.338 C 
ATOM     25  O   UNL A   1      39.853  20.354  25.947  1.00  0.00    -0.246 OA
BRANCH  24  26
ATOM     26  C   UNL A   1      39.536  22.544  26.755  1.00  0.00     0.060 A 
ATOM     27  C   UNL A   1      38.810  23.723  26.545  1.00  0.00     0.016 A 
ATOM     28  C   UNL A   1      40.615  22.521  27.641  1.00  0.00     0.016 A 
ATOM     29  C   UNL A   1      39.220  24.909  27.145  1.00  0.00     0.010 A 
ATOM     30  C   UNL A   1      41.030  23.716  28.242  1.00  0.00     0.010 A 
ATOM     31  C   UNL A   1      40.370  24.923  27.945  1.00  0.00    -0.014 A 
BRANCH  31  32
ATOM     32  C   UNL A   1      40.990  26.234  28.263  1.00  0.00     0.031 A 
ATOM     33  C   UNL A   1      42.400  26.495  27.800  1.00  0.00     0.074 A 
ATOM     34  C   UNL A   1      40.288  27.208  28.868  1.00  0.00     0.049 A 
ATOM     35  N   UNL A   1      43.121  27.583  27.898  1.00  0.00    -0.248 NA
ATOM     36  C   UNL A   1      43.087  25.378  27.131  1.00  0.00     0.031 C 
ATOM     37  C   UNL A   1      38.907  27.091  29.329  1.00  0.00     0.029 A 
ATOM     38  N   UNL A   1      40.645  28.494  29.187  1.00  0.00    -0.354 N 
ATOM     39  C   UNL A   1      44.341  27.282  27.304  1.00  0.00     0.074 A 
ATOM     40  C   UNL A   1      44.277  25.900  26.880  1.00  0.00     0.031 C 
ATOM     41  C   UNL A   1      38.531  28.262  29.871  1.00  0.00     0.029 A 
ATOM     42  C   UNL A   1      39.648  29.203  29.808  1.00  0.00     0.049 A 
ATOM     43  H   UNL A   1      41.532  28.872  28.989  1.00  0.00     0.167 HD
ATOM     44  C   UNL A   1      45.412  28.087  27.113  1.00  0.00     0.037 A 
ATOM     45  C   UNL A   1      39.643  30.468  30.271  1.00  0.00     0.037 A 
ATOM     46  C   UNL A   1      45.478  29.462  27.528  1.00  0.00     0.049 A 
ATOM     47  C   UNL A   1      40.862  31.333  30.081  1.00  0.00     0.074 A 
ATOM     48  C   UNL A   1      46.521  30.361  27.383  1.00  0.00     0.029 A 
ATOM     49  N   UNL A   1      44.453  30.138  28.171  1.00  0.00    -0.354 N 
ATOM     50  N   UNL A   1      42.000  31.046  29.498  1.00  0.00    -0.248 NA
ATOM     51  C   UNL A   1      40.788  32.706  30.603  1.00  0.00     0.031 C 
ATOM     52  C   UNL A   1      46.139  31.572  27.971  1.00  0.00     0.029 A 
ATOM     53  C   UNL A   1      44.842  31.440  28.440  1.00  0.00     0.049 A 
ATOM     54  H   UNL A   1      43.577  29.750  28.402  1.00  0.00     0.167 HD
ATOM     55  C   UNL A   1      42.761  32.207  29.550  1.00  0.00     0.074 A 
ATOM     56  C   UNL A   1      41.952  33.206  30.217  1.00  0.00     0.031 C 
ATOM     57  C   UNL A   1      44.016  32.427  29.086  1.00  0.00     0.037 A 
BRANCH  44  58
ATOM     58  C   UNL A   1      46.611  27.489  26.438  1.00  0.00     0.064 A 
ATOM     59  C   UNL A   1      47.605  26.817  27.165  1.00  0.00     0.173 A 
ATOM     60  C   UNL A   1      46.756  27.570  25.045  1.00  0.00     0.173 A 
ATOM     61  F   UNL A   1      47.519  26.728  28.501  1.00  0.00    -0.203 F 
ATOM     62  C   UNL A   1      48.713  26.269  26.525  1.00  0.00     0.198 A 
ATOM     63  C   UNL A   1      47.852  26.997  24.405  1.00  0.00     0.198 A 
ATOM     64  F   UNL A   1      45.832  28.199  24.304  1.00  0.00    -0.203 F 
ATOM     65  F   UNL A   1      49.672  25.668  27.244  1.00  0.00    -0.200 F 
ATOM     66  C   UNL A   1      48.832  26.353  25.145  1.00  0.00     0.200 A 
ATOM     67  F   UNL A   1      47.962  27.072  23.072  1.00  0.00    -0.200 F 
ATOM     68  F   UNL A   1      49.897  25.820  24.530  1.00  0.00    -0.200 F 
ENDBRANCH  44  58
BRANCH  45  69
ATOM     69  C   UNL A   1      38.434  31.004  30.947  1.00  0.00     0.064 A 
ATOM     70  C   UNL A   1      37.376  31.558  30.213  1.00  0.00     0.173 A 
ATOM     71  C   UNL A   1      38.322  30.992  32.346  1.00  0.00     0.173 A 
ATOM     72  F   UNL A   1      37.449  31.614  28.875  1.00  0.00    -0.203 F 
ATOM     73  C   UNL A   1      36.262  32.097  30.852  1.00  0.00     0.198 A 
ATOM     74  C   UNL A   1      37.197  31.509  32.982  1.00  0.00     0.198 A 
ATOM     75  F   UNL A   1      39.308  30.474  33.093  1.00  0.00    -0.203 F 
ATOM     76  F   UNL A   1      35.285  32.662  30.128  1.00  0.00    -0.200 F 
ATOM     77  C   UNL A   1      36.171  32.068  32.235  1.00  0.00     0.200 A 
ATOM     78  F   UNL A   1      37.107  31.469  34.318  1.00  0.00    -0.200 F 
ATOM     79  F   UNL A   1      35.098  32.586  32.849  1.00  0.00    -0.200 F 
ENDBRANCH  45  69
BRANCH  57  80
ATOM     80  C   UNL A   1      44.573  33.813  29.237  1.00  0.00     0.064 A 
ATOM     81  C   UNL A   1      44.370  34.800  28.263  1.00  0.00     0.173 A 
ATOM     82  C   UNL A   1      45.289  34.164  30.391  1.00  0.00     0.173 A 
ATOM     83  F   UNL A   1      43.701  34.509  27.136  1.00  0.00    -0.203 F 
ATOM     84  C   UNL A   1      44.889  36.082  28.425  1.00  0.00     0.198 A 
ATOM     85  C   UNL A   1      45.784  35.454  30.563  1.00  0.00     0.198 A 
ATOM     86  F   UNL A   1      45.504  33.258  31.357  1.00  0.00    -0.203 F 
ATOM     87  F   UNL A   1      44.723  36.997  27.460  1.00  0.00    -0.200 F 
ATOM     88  C   UNL A   1      45.590  36.409  29.576  1.00  0.00     0.200 A 
ATOM     89  F   UNL A   1      46.451  35.771  31.680  1.00  0.00    -0.200 F 
ATOM     90  F   UNL A   1      46.087  37.643  29.731  1.00  0.00    -0.200 F 
ENDBRANCH  57  80
ENDBRANCH  31  32
ENDBRANCH  24  26
ENDBRANCH  23  24
ENDBRANCH  22  23
ENDBRANCH  21  22
ENDBRANCH  20  21
ENDBRANCH   1  20
TORSDOF 18
ENDMDL
MODEL 2
REMARK VINA RESULT:     -10.7      2.681      4.491
REMARK SMILES CC(C)[C@H]([NH2+]Cc1ccncc1)C(=O)OCCOCCOC(=O)c1ccc(-c2c3nc(c(-c4c(F)c(F)c(F)c(F)c4F)c4ccc([nH]4)c(-c4c(F)c(F)c(F)c(F)c4F)c4nc(c(-c5c(F)c(F)c(F)c(F)c5F)c5ccc2[nH]5)C=C4)C=C3)cc1
REMARK SMILES IDX 17 1 16 2 15 3 13 4 14 5 4 6 2 7 1 8 3 9 5 10 6 13 7 14 8 15
REMARK SMILES IDX 12 16 9 17 11 18 10 19 18 20 19 21 20 22 21 23 22 24 23 25
REMARK SMILES IDX 24 26 25 27 86 28 26 29 85 30 27 31 28 32 29 33 79 34 30 35
REMARK SMILES IDX 84 36 78 37 80 38 31 39 83 40 77 41 76 42 32 44 64 45 44 46
REMARK SMILES IDX 63 47 45 48 48 49 62 50 81 51 46 52 47 53 61 55 82 56 49 57
REMARK SMILES IDX 33 58 34 59 42 60 35 61 36 62 40 63 43 64 37 65 38 66 41 67
REMARK SMILES IDX 39 68 65 69 66 70 74 71 67 72 68 73 72 74 75 75 69 76 70 77
REMARK SMILES IDX 73 78 71 79 50 80 51 81 59 82 52 83 53 84 57 85 60 86 54 87
REMARK SMILES IDX 55 88 58 89 56 90
REMARK H PARENT 5 11 5 12 80 43 48 54
REMARK Flexibility Score: inf
ROOT
ATOM      1  C   UNL A   1      36.187  23.225  24.462  1.00  0.00     0.202 C 
ENDROOT
BRANCH   1   2
ATOM      2  C   UNL A   1      35.947  23.523  25.944  1.00  0.00     0.261 C 
BRANCH   2   3
ATOM      3  O   UNL A   1      34.554  23.699  26.253  1.00  0.00    -0.459 OA
BRANCH   3   4
ATOM      4  C   UNL A   1      33.925  22.598  26.757  1.00  0.00     0.365 C 
ATOM      5  O   UNL A   1      34.172  22.091  27.847  1.00  0.00    -0.245 OA
BRANCH   4   6
ATOM      6  C   UNL A   1      32.888  21.999  25.785  1.00  0.00     0.296 C 
BRANCH   6   7
ATOM      7  C   UNL A   1      31.561  22.801  25.853  1.00  0.00     0.053 C 
ATOM      8  C   UNL A   1      31.578  23.944  26.872  1.00  0.00     0.014 C 
ATOM      9  C   UNL A   1      31.170  23.335  24.469  1.00  0.00     0.014 C 
ENDBRANCH   6   7
BRANCH   6  10
ATOM     10  N   UNL A   1      32.729  20.528  25.982  1.00  0.00    -0.331 N 
ATOM     11  H   UNL A   1      31.924  20.359  26.584  1.00  0.00     0.347 HD
ATOM     12  H   UNL A   1      33.582  20.168  26.410  1.00  0.00     0.347 HD
BRANCH  10  13
ATOM     13  C   UNL A   1      32.526  19.839  24.706  1.00  0.00     0.298 C 
BRANCH  13  14
ATOM     14  C   UNL A   1      32.951  18.391  24.723  1.00  0.00     0.009 A 
ATOM     15  C   UNL A   1      33.660  17.846  23.646  1.00  0.00     0.029 A 
ATOM     16  C   UNL A   1      32.556  17.530  25.751  1.00  0.00     0.029 A 
ATOM     17  C   UNL A   1      33.934  16.486  23.641  1.00  0.00     0.111 A 
ATOM     18  C   UNL A   1      32.880  16.183  25.658  1.00  0.00     0.111 A 
ATOM     19  N   UNL A   1      33.559  15.642  24.626  1.00  0.00    -0.265 NA
ENDBRANCH  13  14
ENDBRANCH  10  13
ENDBRANCH   6  10
ENDBRANCH   4   6
ENDBRANCH   3   4
ENDBRANCH   2   3
ENDBRANCH   1   2
BRANCH   1  20
ATOM     20  O   UNL A   1      36.257  21.855  24.079  1.00  0.00    -0.374 OA
BRANCH  20  21
ATOM     21  C   UNL A   1      36.775  20.923  25.028  1.00  0.00     0.202 C 
BRANCH  21  22
ATOM     22  C   UNL A   1      38.286  20.669  25.003  1.00  0.00     0.261 C 
BRANCH  22  23
ATOM     23  O   UNL A   1      38.885  20.717  26.310  1.00  0.00    -0.460 OA
BRANCH  23  24
ATOM     24  C   UNL A   1      40.191  21.062  26.312  1.00  0.00     0.338 C 
ATOM     25  O   UNL A   1      41.102  20.534  25.685  1.00  0.00    -0.246 OA
BRANCH  24  26
ATOM     26  C   UNL A   1      40.411  22.298  27.084  1.00  0.00     0.060 A 
ATOM     27  C   UNL A   1      39.643  23.413  26.729  1.00  0.00     0.016 A 
ATOM     28  C   UNL A   1      41.438  22.412  28.024  1.00  0.00     0.016 A 
ATOM     29  C   UNL A   1      39.961  24.669  27.238  1.00  0.00     0.010 A 
ATOM     30  C   UNL A   1      41.761  23.676  28.531  1.00  0.00     0.010 A 
ATOM     31  C   UNL A   1      41.062  24.816  28.091  1.00  0.00    -0.014 A 
BRANCH  31  32
ATOM     32  C   UNL A   1      41.600  26.181  28.318  1.00  0.00     0.031 A 
ATOM     33  C   UNL A   1      42.963  26.517  27.772  1.00  0.00     0.074 A 
ATOM     34  C   UNL A   1      40.859  27.130  28.914  1.00  0.00     0.049 A 
ATOM     35  N   UNL A   1      43.607  27.656  27.784  1.00  0.00    -0.248 NA
ATOM     36  C   UNL A   1      43.696  25.421  27.119  1.00  0.00     0.031 C 
ATOM     37  C   UNL A   1      39.514  26.939  29.450  1.00  0.00     0.029 A 
ATOM     38  N   UNL A   1      41.137  28.452  29.157  1.00  0.00    -0.354 N 
ATOM     39  C   UNL A   1      44.815  27.414  27.142  1.00  0.00     0.074 A 
ATOM     40  C   UNL A   1      44.832  26.013  26.784  1.00  0.00     0.031 C 
ATOM     41  C   UNL A   1      39.080  28.105  29.959  1.00  0.00     0.029 A 
ATOM     42  C   UNL A   1      40.121  29.118  29.796  1.00  0.00     0.049 A 
ATOM     43  H   UNL A   1      41.983  28.882  28.897  1.00  0.00     0.167 HD
ATOM     44  C   UNL A   1      45.815  28.283  26.861  1.00  0.00     0.037 A 
ATOM     45  C   UNL A   1      40.046  30.401  30.202  1.00  0.00     0.037 A 
ATOM     46  C   UNL A   1      45.801  29.677  27.210  1.00  0.00     0.049 A 
ATOM     47  C   UNL A   1      41.189  31.339  29.912  1.00  0.00     0.074 A 
ATOM     48  C   UNL A   1      46.767  30.639  26.971  1.00  0.00     0.029 A 
ATOM     49  N   UNL A   1      44.761  30.309  27.874  1.00  0.00    -0.354 N 
ATOM     50  N   UNL A   1      42.315  31.105  29.284  1.00  0.00    -0.248 NA
ATOM     51  C   UNL A   1      41.040  32.727  30.374  1.00  0.00     0.031 C 
ATOM     52  C   UNL A   1      46.327  31.847  27.524  1.00  0.00     0.029 A 
ATOM     53  C   UNL A   1      45.067  31.647  28.065  1.00  0.00     0.049 A 
ATOM     54  H   UNL A   1      43.928  29.873  28.167  1.00  0.00     0.167 HD
ATOM     55  C   UNL A   1      42.992  32.318  29.245  1.00  0.00     0.074 A 
ATOM     56  C   UNL A   1      42.146  33.289  29.907  1.00  0.00     0.031 C 
ATOM     57  C   UNL A   1      44.203  32.603  28.708  1.00  0.00     0.037 A 
BRANCH  44  58
ATOM     58  C   UNL A   1      47.020  27.738  26.152  1.00  0.00     0.064 A 
ATOM     59  C   UNL A   1      48.125  27.240  26.859  1.00  0.00     0.173 A 
ATOM     60  C   UNL A   1      47.061  27.695  24.751  1.00  0.00     0.173 A 
ATOM     61  F   UNL A   1      48.140  27.276  28.200  1.00  0.00    -0.203 F 
ATOM     62  C   UNL A   1      49.237  26.740  26.187  1.00  0.00     0.198 A 
ATOM     63  C   UNL A   1      48.164  27.170  24.083  1.00  0.00     0.198 A 
ATOM     64  F   UNL A   1      46.029  28.156  24.029  1.00  0.00    -0.203 F 
ATOM     65  F   UNL A   1      50.300  26.308  26.882  1.00  0.00    -0.200 F 
ATOM     66  C   UNL A   1      49.253  26.699  24.801  1.00  0.00     0.200 A 
ATOM     67  F   UNL A   1      48.174  27.122  22.744  1.00  0.00    -0.200 F 
ATOM     68  F   UNL A   1      50.322  26.212  24.155  1.00  0.00    -0.200 F 
ENDBRANCH  44  58
BRANCH  45  69
ATOM     69  C   UNL A   1      38.836  30.882  30.915  1.00  0.00     0.064 A 
ATOM     70  C   UNL A   1      38.726  30.779  32.309  1.00  0.00     0.173 A 
ATOM     71  C   UNL A   1      37.755  31.436  30.214  1.00  0.00     0.173 A 
ATOM     72  F   UNL A   1      39.724  30.234  33.020  1.00  0.00    -0.203 F 
ATOM     73  C   UNL A   1      37.573  31.193  32.972  1.00  0.00     0.198 A 
ATOM     74  C   UNL A   1      36.612  31.873  30.881  1.00  0.00     0.198 A 
ATOM     75  F   UNL A   1      37.811  31.555  28.880  1.00  0.00    -0.203 F 
ATOM     76  F   UNL A   1      37.475  31.041  34.300  1.00  0.00    -0.200 F 
ATOM     77  C   UNL A   1      36.520  31.744  32.258  1.00  0.00     0.200 A 
ATOM     78  F   UNL A   1      35.601  32.414  30.189  1.00  0.00    -0.200 F 
ATOM     79  F   UNL A   1      35.411  32.143  32.897  1.00  0.00    -0.200 F 
ENDBRANCH  45  69
BRANCH  57  80
ATOM     80  C   UNL A   1      44.665  34.030  28.768  1.00  0.00     0.064 A 
ATOM     81  C   UNL A   1      45.544  34.481  29.762  1.00  0.00     0.173 A 
ATOM     82  C   UNL A   1      44.248  34.948  27.792  1.00  0.00     0.173 A 
ATOM     83  F   UNL A   1      45.961  33.644  30.724  1.00  0.00    -0.203 F 
ATOM     84  C   UNL A   1      45.966  35.808  29.795  1.00  0.00     0.198 A 
ATOM     85  C   UNL A   1      44.693  36.268  27.812  1.00  0.00     0.198 A 
ATOM     86  F   UNL A   1      43.413  34.565  26.814  1.00  0.00    -0.203 F 
ATOM     87  F   UNL A   1      46.769  36.229  30.782  1.00  0.00    -0.200 F 
ATOM     88  C   UNL A   1      45.545  36.698  28.818  1.00  0.00     0.200 A 
ATOM     89  F   UNL A   1      44.294  37.123  26.861  1.00  0.00    -0.200 F 
ATOM     90  F   UNL A   1      45.953  37.973  28.851  1.00  0.00    -0.200 F 
ENDBRANCH  57  80
ENDBRANCH  31  32
ENDBRANCH  24  26
ENDBRANCH  23  24
ENDBRANCH  22  23
ENDBRANCH  21  22
ENDBRANCH  20  21
ENDBRANCH   1  20
TORSDOF 18
ENDMDL
MODEL 3
REMARK VINA RESULT:     -10.7      2.714      4.531
REMARK SMILES CC(C)[C@H]([NH2+]Cc1ccncc1)C(=O)OCCOCCOC(=O)c1ccc(-c2c3nc(c(-c4c(F)c(F)c(F)c(F)c4F)c4ccc([nH]4)c(-c4c(F)c(F)c(F)c(F)c4F)c4nc(c(-c5c(F)c(F)c(F)c(F)c5F)c5ccc2[nH]5)C=C4)C=C3)cc1
REMARK SMILES IDX 17 1 16 2 15 3 13 4 14 5 4 6 2 7 1 8 3 9 5 10 6 13 7 14 8 15
REMARK SMILES IDX 12 16 9 17 11 18 10 19 18 20 19 21 20 22 21 23 22 24 23 25
REMARK SMILES IDX 24 26 25 27 86 28 26 29 85 30 27 31 28 32 29 33 79 34 30 35
REMARK SMILES IDX 84 36 78 37 80 38 31 39 83 40 77 41 76 42 32 44 64 45 44 46
REMARK SMILES IDX 63 47 45 48 48 49 62 50 81 51 46 52 47 53 61 55 82 56 49 57
REMARK SMILES IDX 33 58 34 59 42 60 35 61 36 62 40 63 43 64 37 65 38 66 41 67
REMARK SMILES IDX 39 68 65 69 66 70 74 71 67 72 68 73 72 74 75 75 69 76 70 77
REMARK SMILES IDX 73 78 71 79 50 80 51 81 59 82 52 83 53 84 57 85 60 86 54 87
REMARK SMILES IDX 55 88 58 89 56 90
REMARK H PARENT 5 11 5 12 80 43 48 54
REMARK Flexibility Score: inf
ROOT
ATOM      1  C   UNL A   1      36.658  22.510  23.543  1.00  0.00     0.202 C 
ENDROOT
BRANCH   1   2
ATOM      2  C   UNL A   1      35.208  22.975  23.704  1.00  0.00     0.261 C 
BRANCH   2   3
ATOM      3  O   UNL A   1      34.365  21.964  24.281  1.00  0.00    -0.459 OA
BRANCH   3   4
ATOM      4  C   UNL A   1      33.068  21.975  23.857  1.00  0.00     0.365 C 
ATOM      5  O   UNL A   1      32.676  22.512  22.825  1.00  0.00    -0.245 OA
BRANCH   4   6
ATOM      6  C   UNL A   1      32.106  21.283  24.844  1.00  0.00     0.296 C 
BRANCH   6   7
ATOM      7  C   UNL A   1      31.676  22.273  25.959  1.00  0.00     0.053 C 
ATOM      8  C   UNL A   1      32.842  22.824  26.785  1.00  0.00     0.014 C 
ATOM      9  C   UNL A   1      30.850  23.428  25.380  1.00  0.00     0.014 C 
ENDBRANCH   6   7
BRANCH   6  10
ATOM     10  N   UNL A   1      32.662  19.993  25.346  1.00  0.00    -0.331 N 
ATOM     11  H   UNL A   1      32.082  19.659  26.116  1.00  0.00     0.347 HD
ATOM     12  H   UNL A   1      33.619  20.155  25.659  1.00  0.00     0.347 HD
BRANCH  10  13
ATOM     13  C   UNL A   1      32.687  18.977  24.291  1.00  0.00     0.298 C 
BRANCH  13  14
ATOM     14  C   UNL A   1      33.224  17.642  24.746  1.00  0.00     0.009 A 
ATOM     15  C   UNL A   1      34.578  17.329  24.586  1.00  0.00     0.029 A 
ATOM     16  C   UNL A   1      32.372  16.644  25.230  1.00  0.00     0.029 A 
ATOM     17  C   UNL A   1      35.015  16.052  24.908  1.00  0.00     0.111 A 
ATOM     18  C   UNL A   1      32.904  15.397  25.527  1.00  0.00     0.111 A 
ATOM     19  N   UNL A   1      34.207  15.078  25.376  1.00  0.00    -0.265 NA
ENDBRANCH  13  14
ENDBRANCH  10  13
ENDBRANCH   6  10
ENDBRANCH   4   6
ENDBRANCH   3   4
ENDBRANCH   2   3
ENDBRANCH   1   2
BRANCH   1  20
ATOM     20  O   UNL A   1      37.317  22.026  24.710  1.00  0.00    -0.374 OA
BRANCH  20  21
ATOM     21  C   UNL A   1      37.405  20.612  24.888  1.00  0.00     0.202 C 
BRANCH  21  22
ATOM     22  C   UNL A   1      38.805  20.020  25.086  1.00  0.00     0.261 C 
BRANCH  22  23
ATOM     23  O   UNL A   1      39.355  20.304  26.385  1.00  0.00    -0.460 OA
BRANCH  23  24
ATOM     24  C   UNL A   1      40.624  20.767  26.364  1.00  0.00     0.338 C 
ATOM     25  O   UNL A   1      41.577  20.301  25.751  1.00  0.00    -0.246 OA
BRANCH  24  26
ATOM     26  C   UNL A   1      40.731  22.048  27.085  1.00  0.00     0.060 A 
ATOM     27  C   UNL A   1      40.034  23.138  26.550  1.00  0.00     0.016 A 
ATOM     28  C   UNL A   1      41.604  22.221  28.162  1.00  0.00     0.016 A 
ATOM     29  C   UNL A   1      40.279  24.423  27.026  1.00  0.00     0.010 A 
ATOM     30  C   UNL A   1      41.854  23.514  28.636  1.00  0.00     0.010 A 
ATOM     31  C   UNL A   1      41.238  24.623  28.027  1.00  0.00    -0.014 A 
BRANCH  31  32
ATOM     32  C   UNL A   1      41.744  26.001  28.251  1.00  0.00     0.031 A 
ATOM     33  C   UNL A   1      43.088  26.375  27.682  1.00  0.00     0.074 A 
ATOM     34  C   UNL A   1      40.990  26.928  28.865  1.00  0.00     0.049 A 
ATOM     35  N   UNL A   1      43.703  27.531  27.689  1.00  0.00    -0.248 NA
ATOM     36  C   UNL A   1      43.838  25.301  27.011  1.00  0.00     0.031 C 
ATOM     37  C   UNL A   1      39.660  26.700  29.424  1.00  0.00     0.029 A 
ATOM     38  N   UNL A   1      41.238  28.256  29.110  1.00  0.00    -0.354 N 
ATOM     39  C   UNL A   1      44.905  27.323  27.025  1.00  0.00     0.074 A 
ATOM     40  C   UNL A   1      44.951  25.924  26.659  1.00  0.00     0.031 C 
ATOM     41  C   UNL A   1      39.205  27.852  29.947  1.00  0.00     0.029 A 
ATOM     42  C   UNL A   1      40.217  28.892  29.770  1.00  0.00     0.049 A 
ATOM     43  H   UNL A   1      42.068  28.708  28.837  1.00  0.00     0.167 HD
ATOM     44  C   UNL A   1      45.877  28.218  26.730  1.00  0.00     0.037 A 
ATOM     45  C   UNL A   1      40.116  30.170  30.184  1.00  0.00     0.037 A 
ATOM     46  C   UNL A   1      45.833  29.610  27.086  1.00  0.00     0.049 A 
ATOM     47  C   UNL A   1      41.229  31.139  29.878  1.00  0.00     0.074 A 
ATOM     48  C   UNL A   1      46.770  30.598  26.836  1.00  0.00     0.029 A 
ATOM     49  N   UNL A   1      44.789  30.212  27.772  1.00  0.00    -0.354 N 
ATOM     50  N   UNL A   1      42.349  30.938  29.229  1.00  0.00    -0.248 NA
ATOM     51  C   UNL A   1      41.053  32.520  30.351  1.00  0.00     0.031 C 
ATOM     52  C   UNL A   1      46.308  31.792  27.403  1.00  0.00     0.029 A 
ATOM     53  C   UNL A   1      45.064  31.557  27.965  1.00  0.00     0.049 A 
ATOM     54  H   UNL A   1      43.974  29.753  28.078  1.00  0.00     0.167 HD
ATOM     55  C   UNL A   1      42.993  32.168  29.184  1.00  0.00     0.074 A 
ATOM     56  C   UNL A   1      42.134  33.113  29.867  1.00  0.00     0.031 C 
ATOM     57  C   UNL A   1      44.187  32.487  28.628  1.00  0.00     0.037 A 
BRANCH  44  58
ATOM     58  C   UNL A   1      47.083  27.709  25.997  1.00  0.00     0.064 A 
ATOM     59  C   UNL A   1      47.138  27.689  24.596  1.00  0.00     0.173 A 
ATOM     60  C   UNL A   1      48.206  27.255  26.707  1.00  0.00     0.173 A 
ATOM     61  F   UNL A   1      46.083  28.097  23.874  1.00  0.00    -0.203 F 
ATOM     62  C   UNL A   1      48.264  27.211  23.931  1.00  0.00     0.198 A 
ATOM     63  C   UNL A   1      49.340  26.803  26.038  1.00  0.00     0.198 A 
ATOM     64  F   UNL A   1      48.204  27.256  28.048  1.00  0.00    -0.203 F 
ATOM     65  F   UNL A   1      48.278  27.161  22.591  1.00  0.00    -0.200 F 
ATOM     66  C   UNL A   1      49.366  26.775  24.652  1.00  0.00     0.200 A 
ATOM     67  F   UNL A   1      50.407  26.390  26.736  1.00  0.00    -0.200 F 
ATOM     68  F   UNL A   1      50.451  26.320  24.010  1.00  0.00    -0.200 F 
ENDBRANCH  44  58
BRANCH  45  69
ATOM     69  C   UNL A   1      38.907  30.617  30.921  1.00  0.00     0.064 A 
ATOM     70  C   UNL A   1      37.804  31.158  30.247  1.00  0.00     0.173 A 
ATOM     71  C   UNL A   1      38.839  30.531  32.320  1.00  0.00     0.173 A 
ATOM     72  F   UNL A   1      37.832  31.284  28.912  1.00  0.00    -0.203 F 
ATOM     73  C   UNL A   1      36.687  31.614  30.944  1.00  0.00     0.198 A 
ATOM     74  C   UNL A   1      37.712  30.964  33.014  1.00  0.00     0.198 A 
ATOM     75  F   UNL A   1      39.868  30.021  33.011  1.00  0.00    -0.203 F 
ATOM     76  F   UNL A   1      35.665  32.170  30.277  1.00  0.00    -0.200 F 
ATOM     77  C   UNL A   1      36.640  31.512  32.325  1.00  0.00     0.200 A 
ATOM     78  F   UNL A   1      37.665  30.854  34.348  1.00  0.00    -0.200 F 
ATOM     79  F   UNL A   1      35.565  31.951  32.996  1.00  0.00    -0.200 F 
ENDBRANCH  45  69
BRANCH  57  80
ATOM     80  C   UNL A   1      44.613  33.925  28.686  1.00  0.00     0.064 A 
ATOM     81  C   UNL A   1      44.228  34.849  27.706  1.00  0.00     0.173 A 
ATOM     82  C   UNL A   1      45.387  34.389  29.761  1.00  0.00     0.173 A 
ATOM     83  F   UNL A   1      43.498  34.452  26.652  1.00  0.00    -0.203 F 
ATOM     84  C   UNL A   1      44.628  36.182  27.782  1.00  0.00     0.198 A 
ATOM     85  C   UNL A   1      45.762  35.727  29.849  1.00  0.00     0.198 A 
ATOM     86  F   UNL A   1      45.774  33.546  30.730  1.00  0.00    -0.203 F 
ATOM     87  F   UNL A   1      44.288  37.038  26.809  1.00  0.00    -0.200 F 
ATOM     88  C   UNL A   1      45.389  36.620  28.856  1.00  0.00     0.200 A 
ATOM     89  F   UNL A   1      46.488  36.151  30.892  1.00  0.00    -0.200 F 
ATOM     90  F   UNL A   1      45.770  37.902  28.929  1.00  0.00    -0.200 F 
ENDBRANCH  57  80
ENDBRANCH  31  32
ENDBRANCH  24  26
ENDBRANCH  23  24
ENDBRANCH  22  23
ENDBRANCH  21  22
ENDBRANCH  20  21
ENDBRANCH   1  20
TORSDOF 18
ENDMDL
