MODEL 1
REMARK VINA RESULT:     -10.4      0.000      0.000
REMARK SMILES O=C(OCCOCCOC(=O)c1ccc2ncccc2n1)c1ccc(-c2c3nc(c(-c4c(F)c(F)c(F)c(F)c4F)c4ccc([nH]4)c(-c4c(F)c(F)c(F)c(F)c4F)c4nc(c(-c5c(F)c(F)c(F)c(F)c5F)c5ccc2[nH]5)C=C4)C=C3)cc1
REMARK SMILES IDX 5 1 4 2 3 3 2 4 1 5 22 6 23 7 84 8 24 9 83 10 25 11 26 12
REMARK SMILES IDX 27 13 77 14 28 15 82 16 76 17 78 18 29 19 81 20 75 21 74 22
REMARK SMILES IDX 30 24 62 25 42 26 61 27 43 28 46 29 60 30 79 31 44 32 45 33
REMARK SMILES IDX 59 35 80 36 47 37 31 38 32 39 40 40 33 41 34 42 38 43 41 44
REMARK SMILES IDX 35 45 36 46 39 47 37 48 63 49 64 50 72 51 65 52 66 53 70 54
REMARK SMILES IDX 73 55 67 56 68 57 71 58 69 59 48 60 49 61 57 62 50 63 51 64
REMARK SMILES IDX 55 65 58 66 52 67 53 68 56 69 54 70 6 71 7 72 8 73 9 74
REMARK SMILES IDX 10 75 11 76 12 77 13 78 21 79 14 80 20 81 15 82 19 83 16 84
REMARK SMILES IDX 18 85 17 86
REMARK H PARENT 78 23 46 34
REMARK Flexibility Score: inf
ROOT
ATOM      1  C   UNL A   1      41.044  19.755  26.315  1.00  0.00     0.202 C 
ENDROOT
BRANCH   1   2
ATOM      2  C   UNL A   1      40.818  21.266  26.410  1.00  0.00     0.261 C 
BRANCH   2   3
ATOM      3  O   UNL A   1      39.417  21.570  26.330  1.00  0.00    -0.460 OA
BRANCH   3   4
ATOM      4  C   UNL A   1      38.813  22.770  26.187  1.00  0.00     0.338 C 
ATOM      5  O   UNL A   1      37.747  22.814  25.575  1.00  0.00    -0.246 OA
BRANCH   4   6
ATOM      6  C   UNL A   1      39.338  24.056  26.746  1.00  0.00     0.060 A 
ATOM      7  C   UNL A   1      40.076  25.016  26.046  1.00  0.00     0.016 A 
ATOM      8  C   UNL A   1      38.970  24.353  28.071  1.00  0.00     0.016 A 
ATOM      9  C   UNL A   1      40.466  26.212  26.637  1.00  0.00     0.010 A 
ATOM     10  C   UNL A   1      39.343  25.557  28.671  1.00  0.00     0.010 A 
ATOM     11  C   UNL A   1      40.107  26.481  27.952  1.00  0.00    -0.014 A 
BRANCH  11  12
ATOM     12  C   UNL A   1      40.653  27.680  28.603  1.00  0.00     0.031 A 
ATOM     13  C   UNL A   1      42.108  27.697  28.932  1.00  0.00     0.074 A 
ATOM     14  C   UNL A   1      39.859  28.739  28.830  1.00  0.00     0.049 A 
ATOM     15  N   UNL A   1      42.797  28.574  29.609  1.00  0.00    -0.248 NA
ATOM     16  C   UNL A   1      42.899  26.566  28.420  1.00  0.00     0.031 C 
ATOM     17  C   UNL A   1      38.455  28.839  28.430  1.00  0.00     0.029 A 
ATOM     18  N   UNL A   1      40.120  29.929  29.452  1.00  0.00    -0.354 N 
ATOM     19  C   UNL A   1      44.095  28.083  29.634  1.00  0.00     0.074 A 
ATOM     20  C   UNL A   1      44.100  26.837  28.903  1.00  0.00     0.031 C 
ATOM     21  C   UNL A   1      37.971  30.023  28.835  1.00  0.00     0.029 A 
ATOM     22  C   UNL A   1      39.014  30.733  29.571  1.00  0.00     0.049 A 
ATOM     23  H   UNL A   1      41.013  30.184  29.780  1.00  0.00     0.167 HD
ATOM     24  C   UNL A   1      45.175  28.629  30.237  1.00  0.00     0.037 A 
ATOM     25  C   UNL A   1      38.862  31.886  30.248  1.00  0.00     0.037 A 
ATOM     26  C   UNL A   1      45.122  29.865  30.968  1.00  0.00     0.049 A 
ATOM     27  C   UNL A   1      40.055  32.441  30.977  1.00  0.00     0.074 A 
ATOM     28  C   UNL A   1      46.125  30.504  31.669  1.00  0.00     0.029 A 
ATOM     29  N   UNL A   1      43.978  30.647  31.094  1.00  0.00    -0.354 N 
ATOM     30  N   UNL A   1      41.274  31.956  31.052  1.00  0.00    -0.248 NA
ATOM     31  C   UNL A   1      39.860  33.688  31.725  1.00  0.00     0.031 C 
ATOM     32  C   UNL A   1      45.576  31.650  32.257  1.00  0.00     0.029 A 
ATOM     33  C   UNL A   1      44.245  31.754  31.878  1.00  0.00     0.049 A 
ATOM     34  H   UNL A   1      43.106  30.443  30.684  1.00  0.00     0.167 HD
ATOM     35  C   UNL A   1      41.996  32.843  31.834  1.00  0.00     0.074 A 
ATOM     36  C   UNL A   1      41.078  33.903  32.208  1.00  0.00     0.031 C 
ATOM     37  C   UNL A   1      43.298  32.792  32.211  1.00  0.00     0.037 A 
BRANCH  24  38
ATOM     38  C   UNL A   1      46.445  27.835  30.196  1.00  0.00     0.064 A 
ATOM     39  C   UNL A   1      47.309  27.863  29.090  1.00  0.00     0.173 A 
ATOM     40  C   UNL A   1      46.766  26.969  31.253  1.00  0.00     0.173 A 
ATOM     41  F   UNL A   1      47.033  28.650  28.038  1.00  0.00    -0.203 F 
ATOM     42  C   UNL A   1      48.417  27.021  29.023  1.00  0.00     0.198 A 
ATOM     43  C   UNL A   1      47.891  26.151  31.197  1.00  0.00     0.198 A 
ATOM     44  F   UNL A   1      45.972  26.898  32.333  1.00  0.00    -0.203 F 
ATOM     45  F   UNL A   1      49.180  27.007  27.922  1.00  0.00    -0.200 F 
ATOM     46  C   UNL A   1      48.706  26.166  30.076  1.00  0.00     0.200 A 
ATOM     47  F   UNL A   1      48.170  25.328  32.217  1.00  0.00    -0.200 F 
ATOM     48  F   UNL A   1      49.760  25.341  30.002  1.00  0.00    -0.200 F 
ENDBRANCH  24  38
BRANCH  25  49
ATOM     49  C   UNL A   1      37.529  32.540  30.291  1.00  0.00     0.064 A 
ATOM     50  C   UNL A   1      37.122  33.434  29.293  1.00  0.00     0.173 A 
ATOM     51  C   UNL A   1      36.610  32.243  31.310  1.00  0.00     0.173 A 
ATOM     52  F   UNL A   1      37.968  33.768  28.307  1.00  0.00    -0.203 F 
ATOM     53  C   UNL A   1      35.849  34.003  29.310  1.00  0.00     0.198 A 
ATOM     54  C   UNL A   1      35.329  32.791  31.313  1.00  0.00     0.198 A 
ATOM     55  F   UNL A   1      36.948  31.392  32.292  1.00  0.00    -0.203 F 
ATOM     56  F   UNL A   1      35.492  34.873  28.356  1.00  0.00    -0.200 F 
ATOM     57  C   UNL A   1      34.950  33.673  30.314  1.00  0.00     0.200 A 
ATOM     58  F   UNL A   1      34.460  32.454  32.278  1.00  0.00    -0.200 F 
ATOM     59  F   UNL A   1      33.720  34.205  30.320  1.00  0.00    -0.200 F 
ENDBRANCH  25  49
BRANCH  37  60
ATOM     60  C   UNL A   1      43.818  33.930  33.034  1.00  0.00     0.064 A 
ATOM     61  C   UNL A   1      43.789  33.896  34.434  1.00  0.00     0.173 A 
ATOM     62  C   UNL A   1      44.444  35.019  32.408  1.00  0.00     0.173 A 
ATOM     63  F   UNL A   1      43.190  32.880  35.073  1.00  0.00    -0.203 F 
ATOM     64  C   UNL A   1      44.370  34.916  35.181  1.00  0.00     0.198 A 
ATOM     65  C   UNL A   1      45.045  36.023  33.159  1.00  0.00     0.198 A 
ATOM     66  F   UNL A   1      44.501  35.087  31.069  1.00  0.00    -0.203 F 
ATOM     67  F   UNL A   1      44.316  34.877  36.520  1.00  0.00    -0.200 F 
ATOM     68  C   UNL A   1      45.007  35.971  34.543  1.00  0.00     0.200 A 
ATOM     69  F   UNL A   1      45.673  37.034  32.542  1.00  0.00    -0.200 F 
ATOM     70  F   UNL A   1      45.586  36.939  35.266  1.00  0.00    -0.200 F 
ENDBRANCH  37  60
ENDBRANCH  11  12
ENDBRANCH   4   6
ENDBRANCH   3   4
ENDBRANCH   2   3
ENDBRANCH   1   2
BRANCH   1  71
ATOM     71  O   UNL A   1      41.985  19.388  25.302  1.00  0.00    -0.374 OA
BRANCH  71  72
ATOM     72  C   UNL A   1      43.256  18.928  25.770  1.00  0.00     0.202 C 
BRANCH  72  73
ATOM     73  C   UNL A   1      44.241  18.863  24.602  1.00  0.00     0.261 C 
BRANCH  73  74
ATOM     74  O   UNL A   1      44.589  20.204  24.222  1.00  0.00    -0.459 OA
BRANCH  74  75
ATOM     75  C   UNL A   1      45.555  20.777  24.994  1.00  0.00     0.357 C 
ATOM     76  O   UNL A   1      46.574  20.252  25.400  1.00  0.00    -0.244 OA
BRANCH  75  77
ATOM     77  C   UNL A   1      45.236  22.228  25.103  1.00  0.00     0.149 A 
ATOM     78  C   UNL A   1      43.937  22.688  24.963  1.00  0.00     0.038 A 
ATOM     79  N   UNL A   1      46.303  23.050  25.269  1.00  0.00    -0.239 NA
ATOM     80  C   UNL A   1      43.726  24.065  25.011  1.00  0.00     0.033 A 
ATOM     81  C   UNL A   1      46.071  24.374  25.294  1.00  0.00     0.090 A 
ATOM     82  C   UNL A   1      44.785  24.946  25.179  1.00  0.00     0.089 A 
ATOM     83  C   UNL A   1      47.135  25.252  25.425  1.00  0.00     0.032 A 
ATOM     84  N   UNL A   1      44.557  26.273  25.215  1.00  0.00    -0.255 NA
ATOM     85  C   UNL A   1      46.923  26.627  25.464  1.00  0.00     0.022 A 
ATOM     86  C   UNL A   1      45.624  27.085  25.365  1.00  0.00     0.112 A 
ENDBRANCH  75  77
ENDBRANCH  74  75
ENDBRANCH  73  74
ENDBRANCH  72  73
ENDBRANCH  71  72
ENDBRANCH   1  71
TORSDOF 14
ENDMDL
MODEL 2
REMARK VINA RESULT:     -10.4      4.265     11.216
REMARK SMILES O=C(OCCOCCOC(=O)c1ccc2ncccc2n1)c1ccc(-c2c3nc(c(-c4c(F)c(F)c(F)c(F)c4F)c4ccc([nH]4)c(-c4c(F)c(F)c(F)c(F)c4F)c4nc(c(-c5c(F)c(F)c(F)c(F)c5F)c5ccc2[nH]5)C=C4)C=C3)cc1
REMARK SMILES IDX 5 1 4 2 3 3 2 4 1 5 22 6 23 7 84 8 24 9 83 10 25 11 26 12
REMARK SMILES IDX 27 13 77 14 28 15 82 16 76 17 78 18 29 19 81 20 75 21 74 22
REMARK SMILES IDX 30 24 62 25 42 26 61 27 43 28 46 29 60 30 79 31 44 32 45 33
REMARK SMILES IDX 59 35 80 36 47 37 31 38 32 39 40 40 33 41 34 42 38 43 41 44
REMARK SMILES IDX 35 45 36 46 39 47 37 48 63 49 64 50 72 51 65 52 66 53 70 54
REMARK SMILES IDX 73 55 67 56 68 57 71 58 69 59 48 60 49 61 57 62 50 63 51 64
REMARK SMILES IDX 55 65 58 66 52 67 53 68 56 69 54 70 6 71 7 72 8 73 9 74
REMARK SMILES IDX 10 75 11 76 12 77 13 78 21 79 14 80 20 81 15 82 19 83 16 84
REMARK SMILES IDX 18 85 17 86
REMARK H PARENT 78 23 46 34
REMARK Flexibility Score: inf
ROOT
ATOM      1  C   UNL A   1      33.871  34.367  28.424  1.00  0.00     0.202 C 
ENDROOT
BRANCH   1   2
ATOM      2  C   UNL A   1      34.327  32.979  28.885  1.00  0.00     0.261 C 
BRANCH   2   3
ATOM      3  O   UNL A   1      33.859  31.971  27.975  1.00  0.00    -0.460 OA
BRANCH   3   4
ATOM      4  C   UNL A   1      34.372  30.745  27.728  1.00  0.00     0.338 C 
ATOM      5  O   UNL A   1      33.732  29.984  27.004  1.00  0.00    -0.246 OA
BRANCH   4   6
ATOM      6  C   UNL A   1      35.683  30.252  28.254  1.00  0.00     0.060 A 
ATOM      7  C   UNL A   1      35.909  29.711  29.524  1.00  0.00     0.016 A 
ATOM      8  C   UNL A   1      36.757  30.255  27.345  1.00  0.00     0.016 A 
ATOM      9  C   UNL A   1      37.154  29.221  29.899  1.00  0.00     0.010 A 
ATOM     10  C   UNL A   1      38.008  29.752  27.705  1.00  0.00     0.010 A 
ATOM     11  C   UNL A   1      38.207  29.247  28.993  1.00  0.00    -0.014 A 
BRANCH  11  12
ATOM     12  C   UNL A   1      39.548  28.861  29.455  1.00  0.00     0.031 A 
ATOM     13  C   UNL A   1      40.237  29.757  30.430  1.00  0.00     0.074 A 
ATOM     14  C   UNL A   1      40.090  27.703  29.047  1.00  0.00     0.049 A 
ATOM     15  N   UNL A   1      41.457  29.704  30.889  1.00  0.00    -0.248 NA
ATOM     16  C   UNL A   1      39.433  30.869  30.965  1.00  0.00     0.031 C 
ATOM     17  C   UNL A   1      39.428  26.721  28.188  1.00  0.00     0.029 A 
ATOM     18  N   UNL A   1      41.320  27.159  29.298  1.00  0.00    -0.354 N 
ATOM     19  C   UNL A   1      41.578  30.794  31.740  1.00  0.00     0.074 A 
ATOM     20  C   UNL A   1      40.311  31.487  31.738  1.00  0.00     0.031 C 
ATOM     21  C   UNL A   1      40.269  25.699  27.967  1.00  0.00     0.029 A 
ATOM     22  C   UNL A   1      41.543  25.987  28.620  1.00  0.00     0.049 A 
ATOM     23  H   UNL A   1      41.978  27.567  29.906  1.00  0.00     0.167 HD
ATOM     24  C   UNL A   1      42.668  31.179  32.441  1.00  0.00     0.037 A 
ATOM     25  C   UNL A   1      42.673  25.265  28.506  1.00  0.00     0.037 A 
ATOM     26  C   UNL A   1      43.916  30.468  32.402  1.00  0.00     0.049 A 
ATOM     27  C   UNL A   1      43.899  25.751  29.232  1.00  0.00     0.074 A 
ATOM     28  C   UNL A   1      45.112  30.775  33.021  1.00  0.00     0.029 A 
ATOM     29  N   UNL A   1      44.121  29.294  31.684  1.00  0.00    -0.354 N 
ATOM     30  N   UNL A   1      44.038  26.810  29.996  1.00  0.00    -0.248 NA
ATOM     31  C   UNL A   1      45.124  24.959  29.076  1.00  0.00     0.031 C 
ATOM     32  C   UNL A   1      46.053  29.811  32.639  1.00  0.00     0.029 A 
ATOM     33  C   UNL A   1      45.430  28.873  31.828  1.00  0.00     0.049 A 
ATOM     34  H   UNL A   1      43.434  28.830  31.152  1.00  0.00     0.167 HD
ATOM     35  C   UNL A   1      45.354  26.804  30.428  1.00  0.00     0.074 A 
ATOM     36  C   UNL A   1      45.974  25.629  29.844  1.00  0.00     0.031 C 
ATOM     37  C   UNL A   1      45.997  27.685  31.236  1.00  0.00     0.037 A 
BRANCH  24  38
ATOM     38  C   UNL A   1      42.558  32.461  33.209  1.00  0.00     0.064 A 
ATOM     39  C   UNL A   1      42.900  33.702  32.647  1.00  0.00     0.173 A 
ATOM     40  C   UNL A   1      42.175  32.439  34.559  1.00  0.00     0.173 A 
ATOM     41  F   UNL A   1      43.303  33.776  31.369  1.00  0.00    -0.203 F 
ATOM     42  C   UNL A   1      42.909  34.861  33.420  1.00  0.00     0.198 A 
ATOM     43  C   UNL A   1      42.156  33.605  35.321  1.00  0.00     0.198 A 
ATOM     44  F   UNL A   1      41.844  31.280  35.149  1.00  0.00    -0.203 F 
ATOM     45  F   UNL A   1      43.318  36.019  32.883  1.00  0.00    -0.200 F 
ATOM     46  C   UNL A   1      42.538  34.812  34.755  1.00  0.00     0.200 A 
ATOM     47  F   UNL A   1      41.794  33.555  36.609  1.00  0.00    -0.200 F 
ATOM     48  F   UNL A   1      42.567  35.923  35.502  1.00  0.00    -0.200 F 
ENDBRANCH  24  38
BRANCH  25  49
ATOM     49  C   UNL A   1      42.687  24.057  27.643  1.00  0.00     0.064 A 
ATOM     50  C   UNL A   1      43.036  24.131  26.288  1.00  0.00     0.173 A 
ATOM     51  C   UNL A   1      42.400  22.787  28.170  1.00  0.00     0.173 A 
ATOM     52  F   UNL A   1      43.300  25.322  25.730  1.00  0.00    -0.203 F 
ATOM     53  C   UNL A   1      43.100  22.985  25.496  1.00  0.00     0.198 A 
ATOM     54  C   UNL A   1      42.489  21.640  27.385  1.00  0.00     0.198 A 
ATOM     55  F   UNL A   1      42.060  22.658  29.462  1.00  0.00    -0.203 F 
ATOM     56  F   UNL A   1      43.414  23.087  24.198  1.00  0.00    -0.200 F 
ATOM     57  C   UNL A   1      42.837  21.740  26.048  1.00  0.00     0.200 A 
ATOM     58  F   UNL A   1      42.249  20.438  27.929  1.00  0.00    -0.200 F 
ATOM     59  F   UNL A   1      42.917  20.637  25.291  1.00  0.00    -0.200 F 
ENDBRANCH  25  49
BRANCH  37  60
ATOM     60  C   UNL A   1      47.428  27.392  31.567  1.00  0.00     0.064 A 
ATOM     61  C   UNL A   1      48.480  27.937  30.820  1.00  0.00     0.173 A 
ATOM     62  C   UNL A   1      47.743  26.641  32.710  1.00  0.00     0.173 A 
ATOM     63  F   UNL A   1      48.224  28.651  29.713  1.00  0.00    -0.203 F 
ATOM     64  C   UNL A   1      49.802  27.737  31.205  1.00  0.00     0.198 A 
ATOM     65  C   UNL A   1      49.065  26.465  33.104  1.00  0.00     0.198 A 
ATOM     66  F   UNL A   1      46.766  26.108  33.458  1.00  0.00    -0.203 F 
ATOM     67  F   UNL A   1      50.797  28.249  30.467  1.00  0.00    -0.200 F 
ATOM     68  C   UNL A   1      50.092  27.012  32.352  1.00  0.00     0.200 A 
ATOM     69  F   UNL A   1      49.342  25.778  34.221  1.00  0.00    -0.200 F 
ATOM     70  F   UNL A   1      51.365  26.843  32.733  1.00  0.00    -0.200 F 
ENDBRANCH  37  60
ENDBRANCH  11  12
ENDBRANCH   4   6
ENDBRANCH   3   4
ENDBRANCH   2   3
ENDBRANCH   1   2
BRANCH   1  71
ATOM     71  O   UNL A   1      32.810  34.904  29.218  1.00  0.00    -0.374 OA
BRANCH  71  72
ATOM     72  C   UNL A   1      33.124  36.089  29.957  1.00  0.00     0.202 C 
BRANCH  72  73
ATOM     73  C   UNL A   1      32.515  35.998  31.357  1.00  0.00     0.261 C 
BRANCH  73  74
ATOM     74  O   UNL A   1      33.278  35.055  32.127  1.00  0.00    -0.459 OA
BRANCH  74  75
ATOM     75  C   UNL A   1      34.401  35.572  32.701  1.00  0.00     0.357 C 
ATOM     76  O   UNL A   1      34.592  36.730  33.021  1.00  0.00    -0.244 OA
BRANCH  75  77
ATOM     77  C   UNL A   1      35.294  34.430  33.043  1.00  0.00     0.149 A 
ATOM     78  C   UNL A   1      35.197  33.220  32.375  1.00  0.00     0.038 A 
ATOM     79  N   UNL A   1      36.136  34.638  34.087  1.00  0.00    -0.239 NA
ATOM     80  C   UNL A   1      36.021  32.177  32.796  1.00  0.00     0.033 A 
ATOM     81  C   UNL A   1      36.905  33.608  34.482  1.00  0.00     0.090 A 
ATOM     82  C   UNL A   1      36.897  32.342  33.859  1.00  0.00     0.089 A 
ATOM     83  C   UNL A   1      37.754  33.766  35.566  1.00  0.00     0.032 A 
ATOM     84  N   UNL A   1      37.678  31.316  34.251  1.00  0.00    -0.255 NA
ATOM     85  C   UNL A   1      38.569  32.720  35.990  1.00  0.00     0.022 A 
ATOM     86  C   UNL A   1      38.502  31.526  35.300  1.00  0.00     0.112 A 
ENDBRANCH  75  77
ENDBRANCH  74  75
ENDBRANCH  73  74
ENDBRANCH  72  73
ENDBRANCH  71  72
ENDBRANCH   1  71
TORSDOF 14
ENDMDL
MODEL 3
REMARK VINA RESULT:     -10.3      1.131      7.737
REMARK SMILES O=C(OCCOCCOC(=O)c1ccc2ncccc2n1)c1ccc(-c2c3nc(c(-c4c(F)c(F)c(F)c(F)c4F)c4ccc([nH]4)c(-c4c(F)c(F)c(F)c(F)c4F)c4nc(c(-c5c(F)c(F)c(F)c(F)c5F)c5ccc2[nH]5)C=C4)C=C3)cc1
REMARK SMILES IDX 5 1 4 2 3 3 2 4 1 5 22 6 23 7 84 8 24 9 83 10 25 11 26 12
REMARK SMILES IDX 27 13 77 14 28 15 82 16 76 17 78 18 29 19 81 20 75 21 74 22
REMARK SMILES IDX 30 24 62 25 42 26 61 27 43 28 46 29 60 30 79 31 44 32 45 33
REMARK SMILES IDX 59 35 80 36 47 37 31 38 32 39 40 40 33 41 34 42 38 43 41 44
REMARK SMILES IDX 35 45 36 46 39 47 37 48 63 49 64 50 72 51 65 52 66 53 70 54
REMARK SMILES IDX 73 55 67 56 68 57 71 58 69 59 48 60 49 61 57 62 50 63 51 64
REMARK SMILES IDX 55 65 58 66 52 67 53 68 56 69 54 70 6 71 7 72 8 73 9 74
REMARK SMILES IDX 10 75 11 76 12 77 13 78 21 79 14 80 20 81 15 82 19 83 16 84
REMARK SMILES IDX 18 85 17 86
REMARK H PARENT 78 23 46 34
REMARK Flexibility Score: inf
ROOT
ATOM      1  C   UNL A   1      40.985  19.789  26.375  1.00  0.00     0.202 C 
ENDROOT
BRANCH   1   2
ATOM      2  C   UNL A   1      40.843  21.312  26.320  1.00  0.00     0.261 C 
BRANCH   2   3
ATOM      3  O   UNL A   1      39.471  21.694  26.504  1.00  0.00    -0.460 OA
BRANCH   3   4
ATOM      4  C   UNL A   1      38.890  22.899  26.308  1.00  0.00     0.338 C 
ATOM      5  O   UNL A   1      37.831  22.938  25.682  1.00  0.00    -0.246 OA
BRANCH   4   6
ATOM      6  C   UNL A   1      39.431  24.196  26.825  1.00  0.00     0.060 A 
ATOM      7  C   UNL A   1      40.086  25.173  26.068  1.00  0.00     0.016 A 
ATOM      8  C   UNL A   1      39.168  24.483  28.177  1.00  0.00     0.016 A 
ATOM      9  C   UNL A   1      40.497  26.376  26.628  1.00  0.00     0.010 A 
ATOM     10  C   UNL A   1      39.564  25.695  28.747  1.00  0.00     0.010 A 
ATOM     11  C   UNL A   1      40.244  26.636  27.969  1.00  0.00    -0.014 A 
BRANCH  11  12
ATOM     12  C   UNL A   1      40.815  27.847  28.576  1.00  0.00     0.031 A 
ATOM     13  C   UNL A   1      39.882  28.953  28.941  1.00  0.00     0.074 A 
ATOM     14  C   UNL A   1      42.130  27.909  28.839  1.00  0.00     0.049 A 
ATOM     15  N   UNL A   1      40.146  30.155  29.370  1.00  0.00    -0.248 NA
ATOM     16  C   UNL A   1      38.446  28.656  28.808  1.00  0.00     0.031 C 
ATOM     17  C   UNL A   1      43.084  26.823  28.617  1.00  0.00     0.029 A 
ATOM     18  N   UNL A   1      42.888  28.928  29.348  1.00  0.00    -0.354 N 
ATOM     19  C   UNL A   1      38.912  30.772  29.525  1.00  0.00     0.074 A 
ATOM     20  C   UNL A   1      37.900  29.811  29.149  1.00  0.00     0.031 C 
ATOM     21  C   UNL A   1      44.309  27.240  28.972  1.00  0.00     0.029 A 
ATOM     22  C   UNL A   1      44.229  28.638  29.387  1.00  0.00     0.049 A 
ATOM     23  H   UNL A   1      42.509  29.782  29.657  1.00  0.00     0.167 HD
ATOM     24  C   UNL A   1      38.663  32.038  29.928  1.00  0.00     0.037 A 
ATOM     25  C   UNL A   1      45.270  29.440  29.677  1.00  0.00     0.037 A 
ATOM     26  C   UNL A   1      39.703  32.967  30.279  1.00  0.00     0.049 A 
ATOM     27  C   UNL A   1      44.980  30.869  30.050  1.00  0.00     0.074 A 
ATOM     28  C   UNL A   1      39.595  34.291  30.654  1.00  0.00     0.029 A 
ATOM     29  N   UNL A   1      41.058  32.652  30.284  1.00  0.00    -0.354 N 
ATOM     30  N   UNL A   1      43.819  31.475  30.147  1.00  0.00    -0.248 NA
ATOM     31  C   UNL A   1      46.132  31.729  30.343  1.00  0.00     0.031 C 
ATOM     32  C   UNL A   1      40.890  34.791  30.841  1.00  0.00     0.029 A 
ATOM     33  C   UNL A   1      41.801  33.764  30.637  1.00  0.00     0.049 A 
ATOM     34  H   UNL A   1      41.434  31.768  30.069  1.00  0.00     0.167 HD
ATOM     35  C   UNL A   1      44.095  32.778  30.529  1.00  0.00     0.074 A 
ATOM     36  C   UNL A   1      45.538  32.875  30.652  1.00  0.00     0.031 C 
ATOM     37  C   UNL A   1      43.238  33.805  30.760  1.00  0.00     0.037 A 
BRANCH  24  38
ATOM     38  C   UNL A   1      37.233  32.484  29.910  1.00  0.00     0.064 A 
ATOM     39  C   UNL A   1      36.658  33.106  28.790  1.00  0.00     0.173 A 
ATOM     40  C   UNL A   1      36.443  32.355  31.063  1.00  0.00     0.173 A 
ATOM     41  F   UNL A   1      37.379  33.283  27.672  1.00  0.00    -0.203 F 
ATOM     42  C   UNL A   1      35.366  33.624  28.842  1.00  0.00     0.198 A 
ATOM     43  C   UNL A   1      35.141  32.846  31.102  1.00  0.00     0.198 A 
ATOM     44  F   UNL A   1      36.944  31.774  32.164  1.00  0.00    -0.203 F 
ATOM     45  F   UNL A   1      34.868  34.286  27.788  1.00  0.00    -0.200 F 
ATOM     46  C   UNL A   1      34.609  33.494  29.997  1.00  0.00     0.200 A 
ATOM     47  F   UNL A   1      34.411  32.717  32.217  1.00  0.00    -0.200 F 
ATOM     48  F   UNL A   1      33.374  34.011  30.053  1.00  0.00    -0.200 F 
ENDBRANCH  24  38
BRANCH  25  49
ATOM     49  C   UNL A   1      46.654  28.910  29.576  1.00  0.00     0.064 A 
ATOM     50  C   UNL A   1      47.287  28.306  30.670  1.00  0.00     0.173 A 
ATOM     51  C   UNL A   1      47.357  28.950  28.360  1.00  0.00     0.173 A 
ATOM     52  F   UNL A   1      46.668  28.260  31.859  1.00  0.00    -0.203 F 
ATOM     53  C   UNL A   1      48.565  27.762  30.553  1.00  0.00     0.198 A 
ATOM     54  C   UNL A   1      48.623  28.383  28.237  1.00  0.00     0.198 A 
ATOM     55  F   UNL A   1      46.797  29.516  27.280  1.00  0.00    -0.203 F 
ATOM     56  F   UNL A   1      49.157  27.211  31.621  1.00  0.00    -0.200 F 
ATOM     57  C   UNL A   1      49.228  27.791  29.335  1.00  0.00     0.200 A 
ATOM     58  F   UNL A   1      49.251  28.400  27.053  1.00  0.00    -0.200 F 
ATOM     59  F   UNL A   1      50.449  27.251  29.218  1.00  0.00    -0.200 F 
ENDBRANCH  25  49
BRANCH  37  60
ATOM     60  C   UNL A   1      43.832  35.106  31.207  1.00  0.00     0.064 A 
ATOM     61  C   UNL A   1      44.143  36.121  30.295  1.00  0.00     0.173 A 
ATOM     62  C   UNL A   1      43.992  35.368  32.576  1.00  0.00     0.173 A 
ATOM     63  F   UNL A   1      44.017  35.909  28.977  1.00  0.00    -0.203 F 
ATOM     64  C   UNL A   1      44.597  37.359  30.739  1.00  0.00     0.198 A 
ATOM     65  C   UNL A   1      44.423  36.615  33.017  1.00  0.00     0.198 A 
ATOM     66  F   UNL A   1      43.699  34.425  33.484  1.00  0.00    -0.203 F 
ATOM     67  F   UNL A   1      44.909  38.314  29.851  1.00  0.00    -0.200 F 
ATOM     68  C   UNL A   1      44.726  37.609  32.098  1.00  0.00     0.200 A 
ATOM     69  F   UNL A   1      44.531  36.859  34.330  1.00  0.00    -0.200 F 
ATOM     70  F   UNL A   1      45.140  38.809  32.523  1.00  0.00    -0.200 F 
ENDBRANCH  37  60
ENDBRANCH  11  12
ENDBRANCH   4   6
ENDBRANCH   3   4
ENDBRANCH   2   3
ENDBRANCH   1   2
BRANCH   1  71
ATOM     71  O   UNL A   1      41.856  19.266  25.368  1.00  0.00    -0.374 OA
BRANCH  71  72
ATOM     72  C   UNL A   1      43.083  18.701  25.839  1.00  0.00     0.202 C 
BRANCH  72  73
ATOM     73  C   UNL A   1      44.158  18.837  24.759  1.00  0.00     0.261 C 
BRANCH  73  74
ATOM     74  O   UNL A   1      44.297  20.227  24.424  1.00  0.00    -0.459 OA
BRANCH  74  75
ATOM     75  C   UNL A   1      45.327  20.860  25.053  1.00  0.00     0.357 C 
ATOM     76  O   UNL A   1      46.405  20.384  25.352  1.00  0.00    -0.244 OA
BRANCH  75  77
ATOM     77  C   UNL A   1      44.971  22.304  25.147  1.00  0.00     0.149 A 
ATOM     78  C   UNL A   1      43.654  22.725  25.054  1.00  0.00     0.038 A 
ATOM     79  N   UNL A   1      46.021  23.159  25.251  1.00  0.00    -0.239 NA
ATOM     80  C   UNL A   1      43.407  24.097  25.085  1.00  0.00     0.033 A 
ATOM     81  C   UNL A   1      45.752  24.476  25.260  1.00  0.00     0.090 A 
ATOM     82  C   UNL A   1      44.447  25.009  25.190  1.00  0.00     0.089 A 
ATOM     83  C   UNL A   1      46.796  25.385  25.329  1.00  0.00     0.032 A 
ATOM     84  N   UNL A   1      44.183  26.330  25.210  1.00  0.00    -0.255 NA
ATOM     85  C   UNL A   1      46.547  26.754  25.350  1.00  0.00     0.022 A 
ATOM     86  C   UNL A   1      45.232  27.174  25.298  1.00  0.00     0.112 A 
ENDBRANCH  75  77
ENDBRANCH  74  75
ENDBRANCH  73  74
ENDBRANCH  72  73
ENDBRANCH  71  72
ENDBRANCH   1  71
TORSDOF 14
ENDMDL
