MODEL 1
REMARK VINA RESULT:     -12.3      0.000      0.000
REMARK SMILES Cc1ccc([C@H](C)Nc2ccc(C(=O)OCCOCCOC(=O)c3ccc(-c4c5nc(c(-c6c(F)c(F)c(F)c(F)c6F)c6ccc([nH]6)c(-c6c(F)c(F)c(F)c(F)c6F)c6nc(c(-c7c(F)c(F)c(F)c(F)c7F)c7ccc4[nH]7)C=C6)C=C5)cc3)cc2Cl)cc1F
REMARK SMILES IDX 17 1 16 2 15 3 13 4 14 5 12 6 9 7 10 8 88 9 11 10 87 11
REMARK SMILES IDX 89 12 8 13 6 15 7 16 5 17 1 18 2 19 3 20 91 21 4 22 90 23
REMARK SMILES IDX 92 24 18 25 19 26 20 27 21 28 22 29 23 30 24 31 25 32 86 33
REMARK SMILES IDX 26 34 85 35 27 36 28 37 29 38 79 39 30 40 84 41 78 42 80 43
REMARK SMILES IDX 31 44 83 45 77 46 76 47 32 49 64 50 44 51 63 52 45 53 48 54
REMARK SMILES IDX 62 55 81 56 46 57 47 58 61 60 82 61 49 62 33 63 34 64 42 65
REMARK SMILES IDX 35 66 36 67 40 68 43 69 37 70 38 71 41 72 39 73 65 74 66 75
REMARK SMILES IDX 74 76 67 77 68 78 72 79 75 80 69 81 70 82 73 83 71 84 50 85
REMARK SMILES IDX 51 86 59 87 52 88 53 89 57 90 60 91 54 92 55 93 58 94 56 95
REMARK H PARENT 8 14 80 48 48 59
REMARK Flexibility Score: inf
ROOT
ATOM      1  C   UNL A   1      32.039  29.552  26.549  1.00  0.00     0.202 C 
ENDROOT
BRANCH   1   2
ATOM      2  C   UNL A   1      31.967  28.173  27.236  1.00  0.00     0.261 C 
BRANCH   2   3
ATOM      3  O   UNL A   1      32.475  27.056  26.500  1.00  0.00    -0.460 OA
BRANCH   3   4
ATOM      4  C   UNL A   1      31.671  25.974  26.489  1.00  0.00     0.338 C 
ATOM      5  O   UNL A   1      30.443  25.970  26.522  1.00  0.00    -0.246 OA
BRANCH   4   6
ATOM      6  C   UNL A   1      32.464  24.748  26.274  1.00  0.00     0.061 A 
ATOM      7  C   UNL A   1      33.962  22.360  26.104  1.00  0.00     0.053 A 
ATOM      8  C   UNL A   1      32.591  22.337  26.407  1.00  0.00     0.028 A 
ATOM      9  C   UNL A   1      34.547  23.618  25.825  1.00  0.00     0.065 A 
ATOM     10  C   UNL A   1      31.855  23.514  26.514  1.00  0.00     0.018 A 
ATOM     11  C   UNL A   1      33.797  24.799  25.879  1.00  0.00     0.038 A 
ATOM     12  Cl  UNL A   1      36.198  23.812  25.345  1.00  0.00    -0.082 Cl
BRANCH   7  13
ATOM     13  N   UNL A   1      34.635  21.148  26.179  1.00  0.00    -0.377 N 
ATOM     14  H   UNL A   1      34.826  20.770  27.067  1.00  0.00     0.161 HD
BRANCH  13  15
ATOM     15  C   UNL A   1      35.075  20.406  24.993  1.00  0.00     0.106 C 
ATOM     16  C   UNL A   1      36.614  20.376  24.998  1.00  0.00     0.036 C 
BRANCH  15  17
ATOM     17  C   UNL A   1      34.342  19.067  24.969  1.00  0.00    -0.023 A 
ATOM     18  C   UNL A   1      32.641  15.096  25.374  1.00  0.00     0.047 C 
ATOM     19  C   UNL A   1      33.196  16.474  25.198  1.00  0.00    -0.015 A 
ATOM     20  C   UNL A   1      32.422  17.620  25.406  1.00  0.00     0.007 A 
ATOM     21  C   UNL A   1      34.533  16.635  24.856  1.00  0.00     0.126 A 
ATOM     22  C   UNL A   1      32.989  18.899  25.297  1.00  0.00     0.006 A 
ATOM     23  C   UNL A   1      35.092  17.899  24.730  1.00  0.00     0.045 A 
ATOM     24  F   UNL A   1      35.312  15.560  24.664  1.00  0.00    -0.207 F 
ENDBRANCH  15  17
ENDBRANCH  13  15
ENDBRANCH   7  13
ENDBRANCH   4   6
ENDBRANCH   3   4
ENDBRANCH   2   3
ENDBRANCH   1   2
BRANCH   1  25
ATOM     25  O   UNL A   1      32.625  30.670  27.188  1.00  0.00    -0.374 OA
BRANCH  25  26
ATOM     26  C   UNL A   1      34.024  30.783  27.388  1.00  0.00     0.202 C 
BRANCH  26  27
ATOM     27  C   UNL A   1      34.622  31.887  28.239  1.00  0.00     0.261 C 
BRANCH  27  28
ATOM     28  O   UNL A   1      35.292  31.488  29.445  1.00  0.00    -0.460 OA
BRANCH  28  29
ATOM     29  C   UNL A   1      36.626  31.300  29.305  1.00  0.00     0.338 C 
ATOM     30  O   UNL A   1      37.470  32.183  29.264  1.00  0.00    -0.246 OA
BRANCH  29  31
ATOM     31  C   UNL A   1      36.975  29.932  28.869  1.00  0.00     0.060 A 
ATOM     32  C   UNL A   1      37.366  29.100  29.931  1.00  0.00     0.016 A 
ATOM     33  C   UNL A   1      37.514  29.783  27.591  1.00  0.00     0.016 A 
ATOM     34  C   UNL A   1      38.568  28.430  29.822  1.00  0.00     0.010 A 
ATOM     35  C   UNL A   1      38.704  29.093  27.479  1.00  0.00     0.010 A 
ATOM     36  C   UNL A   1      39.277  28.540  28.626  1.00  0.00    -0.014 A 
BRANCH  36  37
ATOM     37  C   UNL A   1      40.626  28.024  28.518  1.00  0.00     0.031 A 
ATOM     38  C   UNL A   1      40.733  26.571  28.330  1.00  0.00     0.074 A 
ATOM     39  C   UNL A   1      41.707  28.825  28.667  1.00  0.00     0.049 A 
ATOM     40  N   UNL A   1      41.631  25.833  28.877  1.00  0.00    -0.248 NA
ATOM     41  C   UNL A   1      39.727  25.812  27.588  1.00  0.00     0.031 C 
ATOM     42  C   UNL A   1      43.098  28.478  28.416  1.00  0.00     0.029 A 
ATOM     43  N   UNL A   1      41.774  30.129  29.190  1.00  0.00    -0.354 N 
ATOM     44  C   UNL A   1      41.530  24.590  28.295  1.00  0.00     0.074 A 
ATOM     45  C   UNL A   1      40.250  24.582  27.626  1.00  0.00     0.031 C 
ATOM     46  C   UNL A   1      43.895  29.398  28.986  1.00  0.00     0.029 A 
ATOM     47  C   UNL A   1      43.062  30.315  29.746  1.00  0.00     0.049 A 
ATOM     48  H   UNL A   1      41.050  30.796  29.173  1.00  0.00     0.167 HD
ATOM     49  C   UNL A   1      42.632  23.789  28.275  1.00  0.00     0.037 A 
ATOM     50  C   UNL A   1      43.279  30.641  31.064  1.00  0.00     0.037 A 
ATOM     51  C   UNL A   1      43.739  24.445  28.973  1.00  0.00     0.049 A 
ATOM     52  C   UNL A   1      43.865  29.488  31.834  1.00  0.00     0.074 A 
ATOM     53  C   UNL A   1      44.761  25.255  28.504  1.00  0.00     0.029 A 
ATOM     54  N   UNL A   1      43.647  24.685  30.342  1.00  0.00    -0.354 N 
ATOM     55  N   UNL A   1      43.912  28.271  31.379  1.00  0.00    -0.248 NA
ATOM     56  C   UNL A   1      44.390  29.614  33.187  1.00  0.00     0.031 C 
ATOM     57  C   UNL A   1      45.237  26.034  29.586  1.00  0.00     0.029 A 
ATOM     58  C   UNL A   1      44.529  25.683  30.722  1.00  0.00     0.049 A 
ATOM     59  H   UNL A   1      43.040  24.210  30.955  1.00  0.00     0.167 HD
ATOM     60  C   UNL A   1      44.464  27.457  32.324  1.00  0.00     0.074 A 
ATOM     61  C   UNL A   1      44.763  28.347  33.433  1.00  0.00     0.031 C 
ATOM     62  C   UNL A   1      44.629  26.121  32.109  1.00  0.00     0.037 A 
BRANCH  49  63
ATOM     63  C   UNL A   1      42.790  22.641  27.307  1.00  0.00     0.064 A 
ATOM     64  C   UNL A   1      42.043  21.453  27.469  1.00  0.00     0.173 A 
ATOM     65  C   UNL A   1      43.698  22.627  26.231  1.00  0.00     0.173 A 
ATOM     66  F   UNL A   1      41.089  21.347  28.401  1.00  0.00    -0.203 F 
ATOM     67  C   UNL A   1      42.253  20.319  26.681  1.00  0.00     0.198 A 
ATOM     68  C   UNL A   1      43.942  21.475  25.472  1.00  0.00     0.198 A 
ATOM     69  F   UNL A   1      44.348  23.738  25.859  1.00  0.00    -0.203 F 
ATOM     70  F   UNL A   1      41.515  19.219  26.891  1.00  0.00    -0.200 F 
ATOM     71  C   UNL A   1      43.223  20.319  25.702  1.00  0.00     0.200 A 
ATOM     72  F   UNL A   1      44.882  21.493  24.515  1.00  0.00    -0.200 F 
ATOM     73  F   UNL A   1      43.447  19.220  24.968  1.00  0.00    -0.200 F 
ENDBRANCH  49  63
BRANCH  50  74
ATOM     74  C   UNL A   1      42.309  31.603  31.696  1.00  0.00     0.064 A 
ATOM     75  C   UNL A   1      41.362  30.972  32.520  1.00  0.00     0.173 A 
ATOM     76  C   UNL A   1      42.887  32.785  32.155  1.00  0.00     0.173 A 
ATOM     77  F   UNL A   1      40.609  29.971  32.042  1.00  0.00    -0.203 F 
ATOM     78  C   UNL A   1      41.463  31.144  33.886  1.00  0.00     0.198 A 
ATOM     79  C   UNL A   1      43.000  32.962  33.517  1.00  0.00     0.198 A 
ATOM     80  F   UNL A   1      43.590  33.570  31.327  1.00  0.00    -0.203 F 
ATOM     81  F   UNL A   1      40.850  30.298  34.726  1.00  0.00    -0.200 F 
ATOM     82  C   UNL A   1      42.401  32.039  34.365  1.00  0.00     0.200 A 
ATOM     83  F   UNL A   1      43.843  33.890  33.973  1.00  0.00    -0.200 F 
ATOM     84  F   UNL A   1      42.898  31.820  35.584  1.00  0.00    -0.200 F 
ENDBRANCH  50  74
BRANCH  62  85
ATOM     85  C   UNL A   1      45.053  25.136  33.160  1.00  0.00     0.064 A 
ATOM     86  C   UNL A   1      44.165  24.493  34.035  1.00  0.00     0.173 A 
ATOM     87  C   UNL A   1      46.405  24.730  33.249  1.00  0.00     0.173 A 
ATOM     88  F   UNL A   1      42.839  24.663  33.937  1.00  0.00    -0.203 F 
ATOM     89  C   UNL A   1      44.613  23.606  35.012  1.00  0.00     0.198 A 
ATOM     90  C   UNL A   1      46.834  23.780  34.167  1.00  0.00     0.198 A 
ATOM     91  F   UNL A   1      47.349  25.229  32.437  1.00  0.00    -0.203 F 
ATOM     92  F   UNL A   1      43.738  23.089  35.885  1.00  0.00    -0.200 F 
ATOM     93  C   UNL A   1      45.944  23.243  35.073  1.00  0.00     0.200 A 
ATOM     94  F   UNL A   1      48.115  23.382  34.160  1.00  0.00    -0.200 F 
ATOM     95  F   UNL A   1      46.365  22.361  35.988  1.00  0.00    -0.200 F 
ENDBRANCH  62  85
ENDBRANCH  36  37
ENDBRANCH  29  31
ENDBRANCH  28  29
ENDBRANCH  27  28
ENDBRANCH  26  27
ENDBRANCH  25  26
ENDBRANCH   1  25
TORSDOF 17
ENDMDL
MODEL 2
REMARK VINA RESULT:     -12.2      4.863     10.309
REMARK SMILES Cc1ccc([C@H](C)Nc2ccc(C(=O)OCCOCCOC(=O)c3ccc(-c4c5nc(c(-c6c(F)c(F)c(F)c(F)c6F)c6ccc([nH]6)c(-c6c(F)c(F)c(F)c(F)c6F)c6nc(c(-c7c(F)c(F)c(F)c(F)c7F)c7ccc4[nH]7)C=C6)C=C5)cc3)cc2Cl)cc1F
REMARK SMILES IDX 17 1 16 2 15 3 13 4 14 5 12 6 9 7 10 8 88 9 11 10 87 11
REMARK SMILES IDX 89 12 8 13 6 15 7 16 5 17 1 18 2 19 3 20 91 21 4 22 90 23
REMARK SMILES IDX 92 24 18 25 19 26 20 27 21 28 22 29 23 30 24 31 25 32 86 33
REMARK SMILES IDX 26 34 85 35 27 36 28 37 29 38 79 39 30 40 84 41 78 42 80 43
REMARK SMILES IDX 31 44 83 45 77 46 76 47 32 49 64 50 44 51 63 52 45 53 48 54
REMARK SMILES IDX 62 55 81 56 46 57 47 58 61 60 82 61 49 62 33 63 34 64 42 65
REMARK SMILES IDX 35 66 36 67 40 68 43 69 37 70 38 71 41 72 39 73 65 74 66 75
REMARK SMILES IDX 74 76 67 77 68 78 72 79 75 80 69 81 70 82 73 83 71 84 50 85
REMARK SMILES IDX 51 86 59 87 52 88 53 89 57 90 60 91 54 92 55 93 58 94 56 95
REMARK H PARENT 8 14 80 48 48 59
REMARK Flexibility Score: inf
ROOT
ATOM      1  C   UNL A   1      44.089  20.189  25.113  1.00  0.00     0.202 C 
ENDROOT
BRANCH   1   2
ATOM      2  C   UNL A   1      43.184  19.069  25.665  1.00  0.00     0.261 C 
BRANCH   2   3
ATOM      3  O   UNL A   1      41.774  19.228  25.483  1.00  0.00    -0.460 OA
BRANCH   3   4
ATOM      4  C   UNL A   1      41.140  19.849  26.497  1.00  0.00     0.338 C 
ATOM      5  O   UNL A   1      41.586  20.065  27.621  1.00  0.00    -0.246 OA
BRANCH   4   6
ATOM      6  C   UNL A   1      39.849  20.395  26.036  1.00  0.00     0.061 A 
ATOM      7  C   UNL A   1      37.454  21.399  24.925  1.00  0.00     0.053 A 
ATOM      8  C   UNL A   1      37.784  20.038  24.828  1.00  0.00     0.028 A 
ATOM      9  C   UNL A   1      38.335  22.233  25.654  1.00  0.00     0.065 A 
ATOM     10  C   UNL A   1      38.974  19.544  25.356  1.00  0.00     0.018 A 
ATOM     11  C   UNL A   1      39.507  21.729  26.231  1.00  0.00     0.038 A 
ATOM     12  Cl  UNL A   1      38.031  23.912  25.945  1.00  0.00    -0.082 Cl
BRANCH   7  13
ATOM     13  N   UNL A   1      36.327  21.816  24.229  1.00  0.00    -0.377 N 
ATOM     14  H   UNL A   1      36.395  21.943  23.255  1.00  0.00     0.161 HD
BRANCH  13  15
ATOM     15  C   UNL A   1      35.040  22.077  24.881  1.00  0.00     0.106 C 
ATOM     16  C   UNL A   1      35.126  21.549  26.325  1.00  0.00     0.036 C 
BRANCH  15  17
ATOM     17  C   UNL A   1      34.697  23.552  24.688  1.00  0.00    -0.023 A 
ATOM     18  C   UNL A   1      33.170  27.539  23.915  1.00  0.00     0.047 C 
ATOM     19  C   UNL A   1      33.737  26.185  24.198  1.00  0.00    -0.015 A 
ATOM     20  C   UNL A   1      34.068  25.773  25.493  1.00  0.00     0.007 A 
ATOM     21  C   UNL A   1      33.910  25.283  23.155  1.00  0.00     0.126 A 
ATOM     22  C   UNL A   1      34.537  24.472  25.735  1.00  0.00     0.006 A 
ATOM     23  C   UNL A   1      34.391  24.002  23.389  1.00  0.00     0.045 A 
ATOM     24  F   UNL A   1      33.589  25.635  21.901  1.00  0.00    -0.207 F 
ENDBRANCH  15  17
ENDBRANCH  13  15
ENDBRANCH   7  13
ENDBRANCH   4   6
ENDBRANCH   3   4
ENDBRANCH   2   3
ENDBRANCH   1   2
BRANCH   1  25
ATOM     25  O   UNL A   1      44.263  21.412  25.806  1.00  0.00    -0.374 OA
BRANCH  25  26
ATOM     26  C   UNL A   1      43.481  22.561  25.524  1.00  0.00     0.202 C 
BRANCH  26  27
ATOM     27  C   UNL A   1      43.620  23.837  26.331  1.00  0.00     0.261 C 
BRANCH  27  28
ATOM     28  O   UNL A   1      42.403  24.482  26.741  1.00  0.00    -0.460 OA
BRANCH  28  29
ATOM     29  C   UNL A   1      41.978  25.456  25.902  1.00  0.00     0.338 C 
ATOM     30  O   UNL A   1      42.596  25.886  24.938  1.00  0.00    -0.246 OA
BRANCH  29  31
ATOM     31  C   UNL A   1      40.824  26.212  26.431  1.00  0.00     0.060 A 
ATOM     32  C   UNL A   1      40.776  27.537  25.966  1.00  0.00     0.016 A 
ATOM     33  C   UNL A   1      40.359  25.869  27.701  1.00  0.00     0.016 A 
ATOM     34  C   UNL A   1      40.668  28.549  26.899  1.00  0.00     0.010 A 
ATOM     35  C   UNL A   1      40.230  26.883  28.626  1.00  0.00     0.010 A 
ATOM     36  C   UNL A   1      40.516  28.194  28.239  1.00  0.00    -0.014 A 
BRANCH  36  37
ATOM     37  C   UNL A   1      40.591  29.198  29.281  1.00  0.00     0.031 A 
ATOM     38  C   UNL A   1      39.462  30.136  29.336  1.00  0.00     0.074 A 
ATOM     39  C   UNL A   1      41.673  29.306  30.086  1.00  0.00     0.049 A 
ATOM     40  N   UNL A   1      39.572  31.390  29.591  1.00  0.00    -0.248 NA
ATOM     41  C   UNL A   1      38.104  29.734  28.973  1.00  0.00     0.031 C 
ATOM     42  C   UNL A   1      41.807  30.145  31.269  1.00  0.00     0.029 A 
ATOM     43  N   UNL A   1      42.948  28.733  29.933  1.00  0.00    -0.354 N 
ATOM     44  C   UNL A   1      38.295  31.873  29.763  1.00  0.00     0.074 A 
ATOM     45  C   UNL A   1      37.424  30.857  29.221  1.00  0.00     0.031 C 
ATOM     46  C   UNL A   1      43.106  30.240  31.600  1.00  0.00     0.029 A 
ATOM     47  C   UNL A   1      43.890  29.575  30.572  1.00  0.00     0.049 A 
ATOM     48  H   UNL A   1      43.151  27.893  29.462  1.00  0.00     0.167 HD
ATOM     49  C   UNL A   1      38.118  32.984  30.532  1.00  0.00     0.037 A 
ATOM     50  C   UNL A   1      44.955  30.152  29.921  1.00  0.00     0.037 A 
ATOM     51  C   UNL A   1      39.413  33.488  30.989  1.00  0.00     0.049 A 
ATOM     52  C   UNL A   1      44.770  31.636  29.754  1.00  0.00     0.074 A 
ATOM     53  C   UNL A   1      40.132  33.239  32.148  1.00  0.00     0.029 A 
ATOM     54  N   UNL A   1      40.327  33.986  30.063  1.00  0.00    -0.354 N 
ATOM     55  N   UNL A   1      43.640  32.246  29.960  1.00  0.00    -0.248 NA
ATOM     56  C   UNL A   1      45.826  32.529  29.295  1.00  0.00     0.031 C 
ATOM     57  C   UNL A   1      41.494  33.525  31.893  1.00  0.00     0.029 A 
ATOM     58  C   UNL A   1      41.608  33.975  30.589  1.00  0.00     0.049 A 
ATOM     59  H   UNL A   1      40.095  34.302  29.160  1.00  0.00     0.167 HD
ATOM     60  C   UNL A   1      43.787  33.574  29.688  1.00  0.00     0.074 A 
ATOM     61  C   UNL A   1      45.179  33.706  29.292  1.00  0.00     0.031 C 
ATOM     62  C   UNL A   1      42.750  34.450  29.817  1.00  0.00     0.037 A 
BRANCH  49  63
ATOM     63  C   UNL A   1      36.791  33.341  31.158  1.00  0.00     0.064 A 
ATOM     64  C   UNL A   1      35.788  33.990  30.404  1.00  0.00     0.173 A 
ATOM     65  C   UNL A   1      36.463  33.118  32.509  1.00  0.00     0.173 A 
ATOM     66  F   UNL A   1      35.926  34.202  29.090  1.00  0.00    -0.203 F 
ATOM     67  C   UNL A   1      34.602  34.458  30.975  1.00  0.00     0.198 A 
ATOM     68  C   UNL A   1      35.296  33.628  33.091  1.00  0.00     0.198 A 
ATOM     69  F   UNL A   1      37.246  32.367  33.296  1.00  0.00    -0.203 F 
ATOM     70  F   UNL A   1      33.694  35.074  30.204  1.00  0.00    -0.200 F 
ATOM     71  C   UNL A   1      34.368  34.304  32.323  1.00  0.00     0.200 A 
ATOM     72  F   UNL A   1      35.076  33.461  34.404  1.00  0.00    -0.200 F 
ATOM     73  F   UNL A   1      33.244  34.782  32.876  1.00  0.00    -0.200 F 
ENDBRANCH  49  63
BRANCH  50  74
ATOM     74  C   UNL A   1      45.646  29.319  28.875  1.00  0.00     0.064 A 
ATOM     75  C   UNL A   1      45.328  29.703  27.562  1.00  0.00     0.173 A 
ATOM     76  C   UNL A   1      46.978  29.023  29.163  1.00  0.00     0.173 A 
ATOM     77  F   UNL A   1      44.048  29.775  27.170  1.00  0.00    -0.203 F 
ATOM     78  C   UNL A   1      46.298  30.335  26.811  1.00  0.00     0.198 A 
ATOM     79  C   UNL A   1      47.954  29.655  28.423  1.00  0.00     0.198 A 
ATOM     80  F   UNL A   1      47.311  28.407  30.306  1.00  0.00    -0.203 F 
ATOM     81  F   UNL A   1      45.962  31.045  25.724  1.00  0.00    -0.200 F 
ATOM     82  C   UNL A   1      47.573  30.430  27.335  1.00  0.00     0.200 A 
ATOM     83  F   UNL A   1      49.202  29.669  28.892  1.00  0.00    -0.200 F 
ATOM     84  F   UNL A   1      48.328  31.458  26.941  1.00  0.00    -0.200 F 
ENDBRANCH  50  74
BRANCH  62  85
ATOM     85  C   UNL A   1      42.785  35.882  29.364  1.00  0.00     0.064 A 
ATOM     86  C   UNL A   1      42.107  36.361  28.233  1.00  0.00     0.173 A 
ATOM     87  C   UNL A   1      43.449  36.858  30.142  1.00  0.00     0.173 A 
ATOM     88  F   UNL A   1      41.304  35.569  27.509  1.00  0.00    -0.203 F 
ATOM     89  C   UNL A   1      42.193  37.695  27.839  1.00  0.00     0.198 A 
ATOM     90  C   UNL A   1      43.458  38.203  29.793  1.00  0.00     0.198 A 
ATOM     91  F   UNL A   1      44.093  36.541  31.276  1.00  0.00    -0.203 F 
ATOM     92  F   UNL A   1      41.605  38.086  26.700  1.00  0.00    -0.200 F 
ATOM     93  C   UNL A   1      42.861  38.616  28.622  1.00  0.00     0.200 A 
ATOM     94  F   UNL A   1      44.044  39.094  30.606  1.00  0.00    -0.200 F 
ATOM     95  F   UNL A   1      42.908  39.905  28.261  1.00  0.00    -0.200 F 
ENDBRANCH  62  85
ENDBRANCH  36  37
ENDBRANCH  29  31
ENDBRANCH  28  29
ENDBRANCH  27  28
ENDBRANCH  26  27
ENDBRANCH  25  26
ENDBRANCH   1  25
TORSDOF 17
ENDMDL
MODEL 3
REMARK VINA RESULT:     -12.2      4.394      9.737
REMARK SMILES Cc1ccc([C@H](C)Nc2ccc(C(=O)OCCOCCOC(=O)c3ccc(-c4c5nc(c(-c6c(F)c(F)c(F)c(F)c6F)c6ccc([nH]6)c(-c6c(F)c(F)c(F)c(F)c6F)c6nc(c(-c7c(F)c(F)c(F)c(F)c7F)c7ccc4[nH]7)C=C6)C=C5)cc3)cc2Cl)cc1F
REMARK SMILES IDX 17 1 16 2 15 3 13 4 14 5 12 6 9 7 10 8 88 9 11 10 87 11
REMARK SMILES IDX 89 12 8 13 6 15 7 16 5 17 1 18 2 19 3 20 91 21 4 22 90 23
REMARK SMILES IDX 92 24 18 25 19 26 20 27 21 28 22 29 23 30 24 31 25 32 86 33
REMARK SMILES IDX 26 34 85 35 27 36 28 37 29 38 79 39 30 40 84 41 78 42 80 43
REMARK SMILES IDX 31 44 83 45 77 46 76 47 32 49 64 50 44 51 63 52 45 53 48 54
REMARK SMILES IDX 62 55 81 56 46 57 47 58 61 60 82 61 49 62 33 63 34 64 42 65
REMARK SMILES IDX 35 66 36 67 40 68 43 69 37 70 38 71 41 72 39 73 65 74 66 75
REMARK SMILES IDX 74 76 67 77 68 78 72 79 75 80 69 81 70 82 73 83 71 84 50 85
REMARK SMILES IDX 51 86 59 87 52 88 53 89 57 90 60 91 54 92 55 93 58 94 56 95
REMARK H PARENT 8 14 80 48 48 59
REMARK Flexibility Score: inf
ROOT
ATOM      1  C   UNL A   1      41.440  19.036  26.085  1.00  0.00     0.202 C 
ENDROOT
BRANCH   1   2
ATOM      2  C   UNL A   1      40.623  20.230  26.619  1.00  0.00     0.261 C 
BRANCH   2   3
ATOM      3  O   UNL A   1      39.554  20.703  25.794  1.00  0.00    -0.460 OA
BRANCH   3   4
ATOM      4  C   UNL A   1      39.082  21.922  26.125  1.00  0.00     0.338 C 
ATOM      5  O   UNL A   1      39.683  22.800  26.739  1.00  0.00    -0.246 OA
BRANCH   4   6
ATOM      6  C   UNL A   1      37.760  22.143  25.509  1.00  0.00     0.061 A 
ATOM      7  C   UNL A   1      35.175  22.712  24.523  1.00  0.00     0.053 A 
ATOM      8  C   UNL A   1      36.165  23.707  24.581  1.00  0.00     0.028 A 
ATOM      9  C   UNL A   1      35.542  21.404  24.917  1.00  0.00     0.065 A 
ATOM     10  C   UNL A   1      37.433  23.435  25.088  1.00  0.00     0.018 A 
ATOM     11  C   UNL A   1      36.832  21.115  25.377  1.00  0.00     0.038 A 
ATOM     12  Cl  UNL A   1      34.472  20.047  24.820  1.00  0.00    -0.082 Cl
BRANCH   7  13
ATOM     13  N   UNL A   1      33.902  23.124  24.153  1.00  0.00    -0.377 N 
ATOM     14  H   UNL A   1      33.156  22.490  24.247  1.00  0.00     0.161 HD
BRANCH  13  15
ATOM     15  C   UNL A   1      33.620  24.465  23.627  1.00  0.00     0.106 C 
ATOM     16  C   UNL A   1      32.719  24.306  22.389  1.00  0.00     0.036 C 
BRANCH  15  17
ATOM     17  C   UNL A   1      33.099  25.327  24.774  1.00  0.00    -0.023 A 
ATOM     18  C   UNL A   1      31.547  28.231  27.600  1.00  0.00     0.047 C 
ATOM     19  C   UNL A   1      32.086  27.197  26.663  1.00  0.00    -0.015 A 
ATOM     20  C   UNL A   1      31.414  25.997  26.413  1.00  0.00     0.007 A 
ATOM     21  C   UNL A   1      33.272  27.443  25.981  1.00  0.00     0.126 A 
ATOM     22  C   UNL A   1      31.911  25.077  25.477  1.00  0.00     0.006 A 
ATOM     23  C   UNL A   1      33.776  26.526  25.069  1.00  0.00     0.045 A 
ATOM     24  F   UNL A   1      33.938  28.590  26.181  1.00  0.00    -0.207 F 
ENDBRANCH  15  17
ENDBRANCH  13  15
ENDBRANCH   7  13
ENDBRANCH   4   6
ENDBRANCH   3   4
ENDBRANCH   2   3
ENDBRANCH   1   2
BRANCH   1  25
ATOM     25  O   UNL A   1      42.437  19.202  25.094  1.00  0.00    -0.374 OA
BRANCH  25  26
ATOM     26  C   UNL A   1      43.798  18.880  25.327  1.00  0.00     0.202 C 
BRANCH  26  27
ATOM     27  C   UNL A   1      44.924  19.720  24.756  1.00  0.00     0.261 C 
BRANCH  27  28
ATOM     28  O   UNL A   1      45.143  21.007  25.355  1.00  0.00    -0.460 OA
BRANCH  28  29
ATOM     29  C   UNL A   1      44.549  22.035  24.703  1.00  0.00     0.338 C 
ATOM     30  O   UNL A   1      45.019  22.641  23.751  1.00  0.00    -0.246 OA
BRANCH  29  31
ATOM     31  C   UNL A   1      43.402  22.602  25.441  1.00  0.00     0.060 A 
ATOM     32  C   UNL A   1      43.012  23.865  24.964  1.00  0.00     0.016 A 
ATOM     33  C   UNL A   1      43.272  22.262  26.788  1.00  0.00     0.016 A 
ATOM     34  C   UNL A   1      42.903  24.897  25.874  1.00  0.00     0.010 A 
ATOM     35  C   UNL A   1      43.141  23.292  27.694  1.00  0.00     0.010 A 
ATOM     36  C   UNL A   1      43.091  24.606  27.225  1.00  0.00    -0.014 A 
BRANCH  36  37
ATOM     37  C   UNL A   1      43.181  25.671  28.203  1.00  0.00     0.031 A 
ATOM     38  C   UNL A   1      41.985  26.514  28.331  1.00  0.00     0.074 A 
ATOM     39  C   UNL A   1      44.325  25.915  28.884  1.00  0.00     0.049 A 
ATOM     40  N   UNL A   1      42.008  27.785  28.513  1.00  0.00    -0.248 NA
ATOM     41  C   UNL A   1      40.638  25.979  28.132  1.00  0.00     0.031 C 
ATOM     42  C   UNL A   1      44.502  26.827  30.005  1.00  0.00     0.029 A 
ATOM     43  N   UNL A   1      45.624  25.442  28.626  1.00  0.00    -0.354 N 
ATOM     44  C   UNL A   1      40.717  28.169  28.794  1.00  0.00     0.074 A 
ATOM     45  C   UNL A   1      39.890  27.055  28.396  1.00  0.00     0.031 C 
ATOM     46  C   UNL A   1      45.814  27.049  30.193  1.00  0.00     0.029 A 
ATOM     47  C   UNL A   1      46.546  26.395  29.121  1.00  0.00     0.049 A 
ATOM     48  H   UNL A   1      45.852  24.596  28.177  1.00  0.00     0.167 HD
ATOM     49  C   UNL A   1      40.520  29.304  29.523  1.00  0.00     0.037 A 
ATOM     50  C   UNL A   1      47.485  27.020  28.335  1.00  0.00     0.037 A 
ATOM     51  C   UNL A   1      41.805  29.939  29.816  1.00  0.00     0.049 A 
ATOM     52  C   UNL A   1      47.154  28.472  28.117  1.00  0.00     0.074 A 
ATOM     53  C   UNL A   1      42.656  29.817  30.905  1.00  0.00     0.029 A 
ATOM     54  N   UNL A   1      42.574  30.457  28.777  1.00  0.00    -0.354 N 
ATOM     55  N   UNL A   1      46.000  28.996  28.411  1.00  0.00    -0.248 NA
ATOM     56  C   UNL A   1      48.075  29.421  27.508  1.00  0.00     0.031 C 
ATOM     57  C   UNL A   1      43.955  30.200  30.494  1.00  0.00     0.029 A 
ATOM     58  C   UNL A   1      43.897  30.583  29.165  1.00  0.00     0.049 A 
ATOM     59  H   UNL A   1      42.225  30.701  27.889  1.00  0.00     0.167 HD
ATOM     60  C   UNL A   1      46.002  30.314  28.062  1.00  0.00     0.074 A 
ATOM     61  C   UNL A   1      47.330  30.538  27.515  1.00  0.00     0.031 C 
ATOM     62  C   UNL A   1      44.909  31.107  28.256  1.00  0.00     0.037 A 
BRANCH  49  63
ATOM     63  C   UNL A   1      39.236  29.584  30.267  1.00  0.00     0.064 A 
ATOM     64  C   UNL A   1      38.387  30.640  29.868  1.00  0.00     0.173 A 
ATOM     65  C   UNL A   1      38.812  28.883  31.412  1.00  0.00     0.173 A 
ATOM     66  F   UNL A   1      38.621  31.346  28.756  1.00  0.00    -0.203 F 
ATOM     67  C   UNL A   1      37.262  31.019  30.604  1.00  0.00     0.198 A 
ATOM     68  C   UNL A   1      37.712  29.293  32.176  1.00  0.00     0.198 A 
ATOM     69  F   UNL A   1      39.427  27.759  31.804  1.00  0.00    -0.203 F 
ATOM     70  F   UNL A   1      36.501  32.036  30.175  1.00  0.00    -0.200 F 
ATOM     71  C   UNL A   1      36.941  30.366  31.774  1.00  0.00     0.200 A 
ATOM     72  F   UNL A   1      37.404  28.641  33.306  1.00  0.00    -0.200 F 
ATOM     73  F   UNL A   1      35.880  30.752  32.497  1.00  0.00    -0.200 F 
ENDBRANCH  49  63
BRANCH  50  74
ATOM     74  C   UNL A   1      48.140  26.189  27.264  1.00  0.00     0.064 A 
ATOM     75  C   UNL A   1      47.650  26.462  25.976  1.00  0.00     0.173 A 
ATOM     76  C   UNL A   1      49.516  26.031  27.418  1.00  0.00     0.173 A 
ATOM     77  F   UNL A   1      46.335  26.395  25.724  1.00  0.00    -0.203 F 
ATOM     78  C   UNL A   1      48.472  27.129  25.090  1.00  0.00     0.198 A 
ATOM     79  C   UNL A   1      50.344  26.701  26.544  1.00  0.00     0.198 A 
ATOM     80  F   UNL A   1      50.024  25.519  28.548  1.00  0.00    -0.203 F 
ATOM     81  F   UNL A   1      47.957  27.739  24.012  1.00  0.00    -0.200 F 
ATOM     82  C   UNL A   1      49.779  27.370  25.466  1.00  0.00     0.200 A 
ATOM     83  F   UNL A   1      51.628  26.854  26.871  1.00  0.00    -0.200 F 
ATOM     84  F   UNL A   1      50.387  28.435  24.938  1.00  0.00    -0.200 F 
ENDBRANCH  50  74
BRANCH  62  85
ATOM     85  C   UNL A   1      44.771  32.508  27.733  1.00  0.00     0.064 A 
ATOM     86  C   UNL A   1      44.158  32.831  26.514  1.00  0.00     0.173 A 
ATOM     87  C   UNL A   1      45.184  33.605  28.523  1.00  0.00     0.173 A 
ATOM     88  F   UNL A   1      43.573  31.895  25.753  1.00  0.00    -0.203 F 
ATOM     89  C   UNL A   1      44.078  34.146  26.060  1.00  0.00     0.198 A 
ATOM     90  C   UNL A   1      45.024  34.921  28.106  1.00  0.00     0.198 A 
ATOM     91  F   UNL A   1      45.739  33.437  29.733  1.00  0.00    -0.203 F 
ATOM     92  F   UNL A   1      43.568  34.397  24.847  1.00  0.00    -0.200 F 
ATOM     93  C   UNL A   1      44.503  35.191  26.859  1.00  0.00     0.200 A 
ATOM     94  F   UNL A   1      45.369  35.923  28.926  1.00  0.00    -0.200 F 
ATOM     95  F   UNL A   1      44.390  36.456  26.436  1.00  0.00    -0.200 F 
ENDBRANCH  62  85
ENDBRANCH  36  37
ENDBRANCH  29  31
ENDBRANCH  28  29
ENDBRANCH  27  28
ENDBRANCH  26  27
ENDBRANCH  25  26
ENDBRANCH   1  25
TORSDOF 17
ENDMDL
