MODEL 1
REMARK VINA RESULT:     -11.9      0.000      0.000
REMARK SMILES C/C(=C(/F)C(=O)OCCOCCOC(=O)c1ccc(-c2c3nc(c(-c4c(F)c(F)c(F)c(F)c4F)c4ccc([nH]4)c(-c4c(F)c(F)c(F)c(F)c4F)c4nc(c(-c5c(F)c(F)c(F)c(F)c5F)c5ccc2[nH]5)C=C4)C=C3)cc1)c1cccc(-n2cnnn2)c1
REMARK SMILES IDX 10 1 9 2 8 3 7 4 5 5 6 6 3 7 1 8 2 9 4 10 79 11 80 12 89 13
REMARK SMILES IDX 81 14 83 15 82 16 84 17 85 18 88 19 86 20 87 21 11 22 12 23
REMARK SMILES IDX 13 24 14 25 15 26 16 27 17 28 78 29 18 30 77 31 19 32 20 33
REMARK SMILES IDX 21 34 71 35 22 36 76 37 70 38 72 39 23 40 75 41 69 42 68 43
REMARK SMILES IDX 24 45 56 46 36 47 55 48 37 49 40 50 54 51 73 52 38 53 39 54
REMARK SMILES IDX 53 56 74 57 41 58 25 59 26 60 34 61 27 62 28 63 32 64 35 65
REMARK SMILES IDX 29 66 30 67 33 68 31 69 57 70 58 71 66 72 59 73 60 74 64 75
REMARK SMILES IDX 67 76 61 77 62 78 65 79 63 80 42 81 43 82 51 83 44 84 45 85
REMARK SMILES IDX 49 86 52 87 46 88 47 89 50 90 48 91
REMARK H PARENT 72 44 40 55
REMARK Flexibility Score: inf
ROOT
ATOM      1  O   UNL A   1      32.197  30.971  26.994  1.00  0.00    -0.374 OA
ENDROOT
BRANCH   1   2
ATOM      2  C   UNL A   1      33.598  30.783  27.201  1.00  0.00     0.202 C 
BRANCH   2   3
ATOM      3  C   UNL A   1      34.080  29.331  27.169  1.00  0.00     0.261 C 
BRANCH   3   4
ATOM      4  O   UNL A   1      34.048  28.818  25.828  1.00  0.00    -0.458 OA
BRANCH   4   5
ATOM      5  C   UNL A   1      33.409  27.629  25.684  1.00  0.00     0.367 C 
ATOM      6  O   UNL A   1      33.846  26.530  25.989  1.00  0.00    -0.243 OA
BRANCH   5   7
ATOM      7  C   UNL A   1      32.037  27.867  25.175  1.00  0.00     0.211 C 
ATOM      8  C   UNL A   1      32.714  27.591  22.765  1.00  0.00     0.048 C 
ATOM      9  C   UNL A   1      31.723  27.907  23.863  1.00  0.00    -0.000 C 
ATOM     10  F   UNL A   1      31.101  28.020  26.137  1.00  0.00    -0.199 F 
BRANCH   9  11
ATOM     11  C   UNL A   1      30.365  28.322  23.411  1.00  0.00    -0.017 A 
ATOM     12  C   UNL A   1      29.293  27.421  23.520  1.00  0.00     0.008 A 
ATOM     13  C   UNL A   1      30.085  29.642  23.010  1.00  0.00     0.037 A 
ATOM     14  C   UNL A   1      27.980  27.826  23.277  1.00  0.00     0.003 A 
ATOM     15  C   UNL A   1      28.759  30.060  22.789  1.00  0.00     0.069 A 
ATOM     16  C   UNL A   1      27.708  29.148  22.936  1.00  0.00     0.028 A 
BRANCH  15  17
ATOM     17  N   UNL A   1      28.465  31.405  22.463  1.00  0.00    -0.201 N 
ATOM     18  C   UNL A   1      28.005  31.941  21.287  1.00  0.00     0.252 A 
ATOM     19  N   UNL A   1      28.634  32.421  23.341  1.00  0.00    -0.040 NA
ATOM     20  N   UNL A   1      27.935  33.248  21.401  1.00  0.00    -0.117 NA
ATOM     21  N   UNL A   1      28.340  33.530  22.678  1.00  0.00    -0.024 NA
ENDBRANCH  15  17
ENDBRANCH   9  11
ENDBRANCH   5   7
ENDBRANCH   4   5
ENDBRANCH   3   4
ENDBRANCH   2   3
ENDBRANCH   1   2
BRANCH   1  22
ATOM     22  C   UNL A   1      31.709  32.313  27.043  1.00  0.00     0.202 C 
BRANCH  22  23
ATOM     23  C   UNL A   1      32.759  33.410  27.256  1.00  0.00     0.261 C 
BRANCH  23  24
ATOM     24  O   UNL A   1      32.472  34.195  28.427  1.00  0.00    -0.460 OA
BRANCH  24  25
ATOM     25  C   UNL A   1      33.518  34.905  28.906  1.00  0.00     0.338 C 
ATOM     26  O   UNL A   1      33.534  36.089  29.208  1.00  0.00    -0.246 OA
BRANCH  25  27
ATOM     27  C   UNL A   1      34.645  34.001  29.199  1.00  0.00     0.060 A 
ATOM     28  C   UNL A   1      34.386  32.894  30.018  1.00  0.00     0.016 A 
ATOM     29  C   UNL A   1      35.939  34.258  28.741  1.00  0.00     0.016 A 
ATOM     30  C   UNL A   1      35.431  32.069  30.426  1.00  0.00     0.010 A 
ATOM     31  C   UNL A   1      36.988  33.433  29.157  1.00  0.00     0.010 A 
ATOM     32  C   UNL A   1      36.743  32.357  30.030  1.00  0.00    -0.014 A 
BRANCH  32  33
ATOM     33  C   UNL A   1      37.871  31.620  30.650  1.00  0.00     0.031 A 
ATOM     34  C   UNL A   1      38.248  31.931  32.071  1.00  0.00     0.074 A 
ATOM     35  C   UNL A   1      38.528  30.666  29.967  1.00  0.00     0.049 A 
ATOM     36  N   UNL A   1      39.216  31.438  32.802  1.00  0.00    -0.248 NA
ATOM     37  C   UNL A   1      37.423  32.934  32.763  1.00  0.00     0.031 C 
ATOM     38  C   UNL A   1      38.225  30.248  28.600  1.00  0.00     0.029 A 
ATOM     39  N   UNL A   1      39.591  29.880  30.334  1.00  0.00    -0.354 N 
ATOM     40  C   UNL A   1      39.118  32.070  34.034  1.00  0.00     0.074 A 
ATOM     41  C   UNL A   1      38.017  33.006  33.946  1.00  0.00     0.031 C 
ATOM     42  C   UNL A   1      39.092  29.286  28.238  1.00  0.00     0.029 A 
ATOM     43  C   UNL A   1      40.027  29.045  29.336  1.00  0.00     0.049 A 
ATOM     44  H   UNL A   1      40.002  29.912  31.229  1.00  0.00     0.167 HD
ATOM     45  C   UNL A   1      39.871  31.880  35.143  1.00  0.00     0.037 A 
ATOM     46  C   UNL A   1      41.075  28.199  29.310  1.00  0.00     0.037 A 
ATOM     47  C   UNL A   1      40.965  30.950  35.229  1.00  0.00     0.049 A 
ATOM     48  C   UNL A   1      41.944  28.062  30.532  1.00  0.00     0.074 A 
ATOM     49  C   UNL A   1      41.784  30.676  36.312  1.00  0.00     0.029 A 
ATOM     50  N   UNL A   1      41.397  30.143  34.187  1.00  0.00    -0.354 N 
ATOM     51  N   UNL A   1      41.832  28.647  31.700  1.00  0.00    -0.248 NA
ATOM     52  C   UNL A   1      43.088  27.142  30.433  1.00  0.00     0.031 C 
ATOM     53  C   UNL A   1      42.740  29.738  35.909  1.00  0.00     0.029 A 
ATOM     54  C   UNL A   1      42.486  29.389  34.594  1.00  0.00     0.049 A 
ATOM     55  H   UNL A   1      40.991  30.113  33.291  1.00  0.00     0.167 HD
ATOM     56  C   UNL A   1      42.865  28.146  32.482  1.00  0.00     0.074 A 
ATOM     57  C   UNL A   1      43.589  27.200  31.659  1.00  0.00     0.031 C 
ATOM     58  C   UNL A   1      43.186  28.441  33.765  1.00  0.00     0.037 A 
BRANCH  45  59
ATOM     59  C   UNL A   1      39.549  32.710  36.350  1.00  0.00     0.064 A 
ATOM     60  C   UNL A   1      40.215  33.915  36.614  1.00  0.00     0.173 A 
ATOM     61  C   UNL A   1      38.533  32.314  37.234  1.00  0.00     0.173 A 
ATOM     62  F   UNL A   1      41.204  34.331  35.809  1.00  0.00    -0.203 F 
ATOM     63  C   UNL A   1      39.891  34.685  37.730  1.00  0.00     0.198 A 
ATOM     64  C   UNL A   1      38.193  33.098  38.333  1.00  0.00     0.198 A 
ATOM     65  F   UNL A   1      37.863  31.170  37.025  1.00  0.00    -0.203 F 
ATOM     66  F   UNL A   1      40.569  35.812  37.985  1.00  0.00    -0.200 F 
ATOM     67  C   UNL A   1      38.875  34.279  38.583  1.00  0.00     0.200 A 
ATOM     68  F   UNL A   1      37.204  32.710  39.151  1.00  0.00    -0.200 F 
ATOM     69  F   UNL A   1      38.559  35.024  39.652  1.00  0.00    -0.200 F 
ENDBRANCH  45  59
BRANCH  46  70
ATOM     70  C   UNL A   1      41.374  27.422  28.078  1.00  0.00     0.064 A 
ATOM     71  C   UNL A   1      40.851  26.134  27.891  1.00  0.00     0.173 A 
ATOM     72  C   UNL A   1      42.208  27.939  27.076  1.00  0.00     0.173 A 
ATOM     73  F   UNL A   1      40.069  25.586  28.834  1.00  0.00    -0.203 F 
ATOM     74  C   UNL A   1      41.169  25.386  26.760  1.00  0.00     0.198 A 
ATOM     75  C   UNL A   1      42.503  27.201  25.933  1.00  0.00     0.198 A 
ATOM     76  F   UNL A   1      42.735  29.165  27.208  1.00  0.00    -0.203 F 
ATOM     77  F   UNL A   1      40.697  24.139  26.630  1.00  0.00    -0.200 F 
ATOM     78  C   UNL A   1      41.990  25.922  25.779  1.00  0.00     0.200 A 
ATOM     79  F   UNL A   1      43.288  27.727  24.982  1.00  0.00    -0.200 F 
ATOM     80  F   UNL A   1      42.297  25.201  24.692  1.00  0.00    -0.200 F 
ENDBRANCH  46  70
BRANCH  58  81
ATOM     81  C   UNL A   1      44.344  27.706  34.374  1.00  0.00     0.064 A 
ATOM     82  C   UNL A   1      44.187  26.448  34.972  1.00  0.00     0.173 A 
ATOM     83  C   UNL A   1      45.637  28.253  34.321  1.00  0.00     0.173 A 
ATOM     84  F   UNL A   1      42.971  25.890  35.062  1.00  0.00    -0.203 F 
ATOM     85  C   UNL A   1      45.278  25.773  35.515  1.00  0.00     0.198 A 
ATOM     86  C   UNL A   1      46.729  27.562  34.838  1.00  0.00     0.198 A 
ATOM     87  F   UNL A   1      45.841  29.450  33.752  1.00  0.00    -0.203 F 
ATOM     88  F   UNL A   1      45.098  24.592  36.122  1.00  0.00    -0.200 F 
ATOM     89  C   UNL A   1      46.547  26.327  35.441  1.00  0.00     0.200 A 
ATOM     90  F   UNL A   1      47.956  28.093  34.753  1.00  0.00    -0.200 F 
ATOM     91  F   UNL A   1      47.597  25.672  35.957  1.00  0.00    -0.200 F 
ENDBRANCH  58  81
ENDBRANCH  32  33
ENDBRANCH  25  27
ENDBRANCH  24  25
ENDBRANCH  23  24
ENDBRANCH  22  23
ENDBRANCH   1  22
TORSDOF 16
ENDMDL
MODEL 2
REMARK VINA RESULT:     -11.9      4.620      9.446
REMARK SMILES C/C(=C(/F)C(=O)OCCOCCOC(=O)c1ccc(-c2c3nc(c(-c4c(F)c(F)c(F)c(F)c4F)c4ccc([nH]4)c(-c4c(F)c(F)c(F)c(F)c4F)c4nc(c(-c5c(F)c(F)c(F)c(F)c5F)c5ccc2[nH]5)C=C4)C=C3)cc1)c1cccc(-n2cnnn2)c1
REMARK SMILES IDX 10 1 9 2 8 3 7 4 5 5 6 6 3 7 1 8 2 9 4 10 79 11 80 12 89 13
REMARK SMILES IDX 81 14 83 15 82 16 84 17 85 18 88 19 86 20 87 21 11 22 12 23
REMARK SMILES IDX 13 24 14 25 15 26 16 27 17 28 78 29 18 30 77 31 19 32 20 33
REMARK SMILES IDX 21 34 71 35 22 36 76 37 70 38 72 39 23 40 75 41 69 42 68 43
REMARK SMILES IDX 24 45 56 46 36 47 55 48 37 49 40 50 54 51 73 52 38 53 39 54
REMARK SMILES IDX 53 56 74 57 41 58 25 59 26 60 34 61 27 62 28 63 32 64 35 65
REMARK SMILES IDX 29 66 30 67 33 68 31 69 57 70 58 71 66 72 59 73 60 74 64 75
REMARK SMILES IDX 67 76 61 77 62 78 65 79 63 80 42 81 43 82 51 83 44 84 45 85
REMARK SMILES IDX 49 86 52 87 46 88 47 89 50 90 48 91
REMARK H PARENT 72 44 40 55
REMARK Flexibility Score: inf
ROOT
ATOM      1  O   UNL A   1      43.392  19.862  25.141  1.00  0.00    -0.374 OA
ENDROOT
BRANCH   1   2
ATOM      2  C   UNL A   1      42.323  19.147  25.761  1.00  0.00     0.202 C 
BRANCH   2   3
ATOM      3  C   UNL A   1      41.480  19.951  26.754  1.00  0.00     0.261 C 
BRANCH   3   4
ATOM      4  O   UNL A   1      40.244  20.363  26.150  1.00  0.00    -0.458 OA
BRANCH   4   5
ATOM      5  C   UNL A   1      39.744  21.537  26.610  1.00  0.00     0.367 C 
ATOM      6  O   UNL A   1      40.243  22.251  27.466  1.00  0.00    -0.243 OA
BRANCH   5   7
ATOM      7  C   UNL A   1      38.523  21.885  25.845  1.00  0.00     0.211 C 
ATOM      8  C   UNL A   1      38.566  24.296  26.571  1.00  0.00     0.048 C 
ATOM      9  C   UNL A   1      37.953  23.108  25.864  1.00  0.00    -0.000 C 
ATOM     10  F   UNL A   1      38.025  20.878  25.093  1.00  0.00    -0.199 F 
BRANCH   9  11
ATOM     11  C   UNL A   1      36.633  23.350  25.216  1.00  0.00    -0.017 A 
ATOM     12  C   UNL A   1      36.504  23.193  23.826  1.00  0.00     0.008 A 
ATOM     13  C   UNL A   1      35.467  23.591  25.967  1.00  0.00     0.037 A 
ATOM     14  C   UNL A   1      35.255  23.235  23.205  1.00  0.00     0.003 A 
ATOM     15  C   UNL A   1      34.203  23.608  25.348  1.00  0.00     0.069 A 
ATOM     16  C   UNL A   1      34.103  23.418  23.965  1.00  0.00     0.028 A 
BRANCH  15  17
ATOM     17  N   UNL A   1      33.022  23.771  26.110  1.00  0.00    -0.201 N 
ATOM     18  C   UNL A   1      32.478  22.954  27.069  1.00  0.00     0.252 A 
ATOM     19  N   UNL A   1      32.199  24.836  25.960  1.00  0.00    -0.040 NA
ATOM     20  N   UNL A   1      31.333  23.457  27.471  1.00  0.00    -0.117 NA
ATOM     21  N   UNL A   1      31.170  24.618  26.765  1.00  0.00    -0.024 NA
ENDBRANCH  15  17
ENDBRANCH   9  11
ENDBRANCH   5   7
ENDBRANCH   4   5
ENDBRANCH   3   4
ENDBRANCH   2   3
ENDBRANCH   1   2
BRANCH   1  22
ATOM     22  C   UNL A   1      43.729  21.134  25.696  1.00  0.00     0.202 C 
BRANCH  22  23
ATOM     23  C   UNL A   1      44.288  22.175  24.718  1.00  0.00     0.261 C 
BRANCH  23  24
ATOM     24  O   UNL A   1      43.499  23.377  24.719  1.00  0.00    -0.460 OA
BRANCH  24  25
ATOM     25  C   UNL A   1      44.184  24.507  25.006  1.00  0.00     0.338 C 
ATOM     26  O   UNL A   1      45.209  24.909  24.475  1.00  0.00    -0.246 OA
BRANCH  25  27
ATOM     27  C   UNL A   1      43.419  25.328  25.963  1.00  0.00     0.060 A 
ATOM     28  C   UNL A   1      43.755  26.685  26.060  1.00  0.00     0.016 A 
ATOM     29  C   UNL A   1      42.440  24.778  26.794  1.00  0.00     0.016 A 
ATOM     30  C   UNL A   1      43.151  27.486  27.025  1.00  0.00     0.010 A 
ATOM     31  C   UNL A   1      41.840  25.581  27.767  1.00  0.00     0.010 A 
ATOM     32  C   UNL A   1      42.219  26.929  27.910  1.00  0.00    -0.014 A 
BRANCH  32  33
ATOM     33  C   UNL A   1      41.754  27.720  29.075  1.00  0.00     0.031 A 
ATOM     34  C   UNL A   1      42.516  27.626  30.367  1.00  0.00     0.074 A 
ATOM     35  C   UNL A   1      40.689  28.535  28.974  1.00  0.00     0.049 A 
ATOM     36  N   UNL A   1      42.275  28.199  31.519  1.00  0.00    -0.248 NA
ATOM     37  C   UNL A   1      43.713  26.769  30.361  1.00  0.00     0.031 C 
ATOM     38  C   UNL A   1      39.898  28.741  27.763  1.00  0.00     0.029 A 
ATOM     39  N   UNL A   1      40.089  29.337  29.911  1.00  0.00    -0.354 N 
ATOM     40  C   UNL A   1      43.285  27.772  32.371  1.00  0.00     0.074 A 
ATOM     41  C   UNL A   1      44.125  26.868  31.616  1.00  0.00     0.031 C 
ATOM     42  C   UNL A   1      38.907  29.608  28.034  1.00  0.00     0.029 A 
ATOM     43  C   UNL A   1      38.977  29.991  29.443  1.00  0.00     0.049 A 
ATOM     44  H   UNL A   1      40.425  29.434  30.832  1.00  0.00     0.167 HD
ATOM     45  C   UNL A   1      43.497  28.113  33.665  1.00  0.00     0.037 A 
ATOM     46  C   UNL A   1      38.106  30.791  30.088  1.00  0.00     0.037 A 
ATOM     47  C   UNL A   1      42.661  29.012  34.414  1.00  0.00     0.049 A 
ATOM     48  C   UNL A   1      38.323  31.093  31.549  1.00  0.00     0.074 A 
ATOM     49  C   UNL A   1      42.798  29.428  35.727  1.00  0.00     0.029 A 
ATOM     50  N   UNL A   1      41.524  29.631  33.915  1.00  0.00    -0.354 N 
ATOM     51  N   UNL A   1      39.292  30.703  32.341  1.00  0.00    -0.248 NA
ATOM     52  C   UNL A   1      37.324  31.952  32.203  1.00  0.00     0.031 C 
ATOM     53  C   UNL A   1      41.719  30.263  36.036  1.00  0.00     0.029 A 
ATOM     54  C   UNL A   1      40.938  30.407  34.901  1.00  0.00     0.049 A 
ATOM     55  H   UNL A   1      41.185  29.532  32.996  1.00  0.00     0.167 HD
ATOM     56  C   UNL A   1      39.038  31.290  33.574  1.00  0.00     0.074 A 
ATOM     57  C   UNL A   1      37.830  32.073  33.423  1.00  0.00     0.031 C 
ATOM     58  C   UNL A   1      39.742  31.192  34.728  1.00  0.00     0.037 A 
BRANCH  45  59
ATOM     59  C   UNL A   1      44.674  27.494  34.360  1.00  0.00     0.064 A 
ATOM     60  C   UNL A   1      44.574  26.259  35.017  1.00  0.00     0.173 A 
ATOM     61  C   UNL A   1      45.927  28.124  34.334  1.00  0.00     0.173 A 
ATOM     62  F   UNL A   1      43.395  25.622  35.084  1.00  0.00    -0.203 F 
ATOM     63  C   UNL A   1      45.681  25.687  35.641  1.00  0.00     0.198 A 
ATOM     64  C   UNL A   1      47.037  27.538  34.935  1.00  0.00     0.198 A 
ATOM     65  F   UNL A   1      46.077  29.306  33.715  1.00  0.00    -0.203 F 
ATOM     66  F   UNL A   1      45.553  24.527  36.300  1.00  0.00    -0.200 F 
ATOM     67  C   UNL A   1      46.912  26.324  35.593  1.00  0.00     0.200 A 
ATOM     68  F   UNL A   1      48.229  28.149  34.878  1.00  0.00    -0.200 F 
ATOM     69  F   UNL A   1      47.979  25.769  36.187  1.00  0.00    -0.200 F 
ENDBRANCH  45  59
BRANCH  46  70
ATOM     70  C   UNL A   1      36.937  31.355  29.365  1.00  0.00     0.064 A 
ATOM     71  C   UNL A   1      35.859  30.543  28.987  1.00  0.00     0.173 A 
ATOM     72  C   UNL A   1      36.885  32.713  29.015  1.00  0.00     0.173 A 
ATOM     73  F   UNL A   1      35.874  29.233  29.277  1.00  0.00    -0.203 F 
ATOM     74  C   UNL A   1      34.785  31.062  28.268  1.00  0.00     0.198 A 
ATOM     75  C   UNL A   1      35.798  33.236  28.320  1.00  0.00     0.198 A 
ATOM     76  F   UNL A   1      37.892  33.532  29.351  1.00  0.00    -0.203 F 
ATOM     77  F   UNL A   1      33.792  30.253  27.874  1.00  0.00    -0.200 F 
ATOM     78  C   UNL A   1      34.752  32.409  27.939  1.00  0.00     0.200 A 
ATOM     79  F   UNL A   1      35.766  34.541  28.013  1.00  0.00    -0.200 F 
ATOM     80  F   UNL A   1      33.720  32.907  27.246  1.00  0.00    -0.200 F 
ENDBRANCH  46  70
BRANCH  58  81
ATOM     81  C   UNL A   1      39.250  31.979  35.908  1.00  0.00     0.064 A 
ATOM     82  C   UNL A   1      39.671  33.295  36.144  1.00  0.00     0.173 A 
ATOM     83  C   UNL A   1      38.311  31.420  36.790  1.00  0.00     0.173 A 
ATOM     84  F   UNL A   1      40.577  33.868  35.339  1.00  0.00    -0.203 F 
ATOM     85  C   UNL A   1      39.187  34.016  37.233  1.00  0.00     0.198 A 
ATOM     86  C   UNL A   1      37.808  32.154  37.860  1.00  0.00     0.198 A 
ATOM     87  F   UNL A   1      37.870  30.167  36.603  1.00  0.00    -0.203 F 
ATOM     88  F   UNL A   1      39.637  35.256  37.466  1.00  0.00    -0.200 F 
ATOM     89  C   UNL A   1      38.252  33.448  38.085  1.00  0.00     0.200 A 
ATOM     90  F   UNL A   1      36.894  31.608  38.674  1.00  0.00    -0.200 F 
ATOM     91  F   UNL A   1      37.782  34.146  39.129  1.00  0.00    -0.200 F 
ENDBRANCH  58  81
ENDBRANCH  32  33
ENDBRANCH  25  27
ENDBRANCH  24  25
ENDBRANCH  23  24
ENDBRANCH  22  23
ENDBRANCH   1  22
TORSDOF 16
ENDMDL
MODEL 3
REMARK VINA RESULT:     -11.7      1.625      2.934
REMARK SMILES C/C(=C(/F)C(=O)OCCOCCOC(=O)c1ccc(-c2c3nc(c(-c4c(F)c(F)c(F)c(F)c4F)c4ccc([nH]4)c(-c4c(F)c(F)c(F)c(F)c4F)c4nc(c(-c5c(F)c(F)c(F)c(F)c5F)c5ccc2[nH]5)C=C4)C=C3)cc1)c1cccc(-n2cnnn2)c1
REMARK SMILES IDX 10 1 9 2 8 3 7 4 5 5 6 6 3 7 1 8 2 9 4 10 79 11 80 12 89 13
REMARK SMILES IDX 81 14 83 15 82 16 84 17 85 18 88 19 86 20 87 21 11 22 12 23
REMARK SMILES IDX 13 24 14 25 15 26 16 27 17 28 78 29 18 30 77 31 19 32 20 33
REMARK SMILES IDX 21 34 71 35 22 36 76 37 70 38 72 39 23 40 75 41 69 42 68 43
REMARK SMILES IDX 24 45 56 46 36 47 55 48 37 49 40 50 54 51 73 52 38 53 39 54
REMARK SMILES IDX 53 56 74 57 41 58 25 59 26 60 34 61 27 62 28 63 32 64 35 65
REMARK SMILES IDX 29 66 30 67 33 68 31 69 57 70 58 71 66 72 59 73 60 74 64 75
REMARK SMILES IDX 67 76 61 77 62 78 65 79 63 80 42 81 43 82 51 83 44 84 45 85
REMARK SMILES IDX 49 86 52 87 46 88 47 89 50 90 48 91
REMARK H PARENT 72 44 40 55
REMARK Flexibility Score: inf
ROOT
ATOM      1  O   UNL A   1      32.531  27.662  26.314  1.00  0.00    -0.374 OA
ENDROOT
BRANCH   1   2
ATOM      2  C   UNL A   1      32.176  26.281  26.400  1.00  0.00     0.202 C 
BRANCH   2   3
ATOM      3  C   UNL A   1      32.693  25.395  25.263  1.00  0.00     0.261 C 
BRANCH   3   4
ATOM      4  O   UNL A   1      33.528  26.152  24.373  1.00  0.00    -0.458 OA
BRANCH   4   5
ATOM      5  C   UNL A   1      33.233  26.017  23.056  1.00  0.00     0.367 C 
ATOM      6  O   UNL A   1      33.926  25.472  22.210  1.00  0.00    -0.243 OA
BRANCH   5   7
ATOM      7  C   UNL A   1      31.877  26.557  22.798  1.00  0.00     0.211 C 
ATOM      8  C   UNL A   1      32.628  28.954  22.964  1.00  0.00     0.048 C 
ATOM      9  C   UNL A   1      31.582  27.873  22.810  1.00  0.00    -0.000 C 
ATOM     10  F   UNL A   1      30.943  25.620  22.522  1.00  0.00    -0.199 F 
BRANCH   9  11
ATOM     11  C   UNL A   1      30.171  28.345  22.717  1.00  0.00    -0.017 A 
ATOM     12  C   UNL A   1      29.140  27.559  23.259  1.00  0.00     0.008 A 
ATOM     13  C   UNL A   1      29.844  29.625  22.232  1.00  0.00     0.037 A 
ATOM     14  C   UNL A   1      27.835  28.041  23.353  1.00  0.00     0.003 A 
ATOM     15  C   UNL A   1      28.534  30.125  22.348  1.00  0.00     0.069 A 
ATOM     16  C   UNL A   1      27.534  29.330  22.921  1.00  0.00     0.028 A 
BRANCH  15  17
ATOM     17  N   UNL A   1      28.217  31.440  21.934  1.00  0.00    -0.201 N 
ATOM     18  C   UNL A   1      27.849  31.905  20.697  1.00  0.00     0.252 A 
ATOM     19  N   UNL A   1      28.261  32.499  22.776  1.00  0.00    -0.040 NA
ATOM     20  N   UNL A   1      27.716  33.211  20.744  1.00  0.00    -0.117 NA
ATOM     21  N   UNL A   1      27.986  33.565  22.038  1.00  0.00    -0.024 NA
ENDBRANCH  15  17
ENDBRANCH   9  11
ENDBRANCH   5   7
ENDBRANCH   4   5
ENDBRANCH   3   4
ENDBRANCH   2   3
ENDBRANCH   1   2
BRANCH   1  22
ATOM     22  C   UNL A   1      31.784  28.574  27.120  1.00  0.00     0.202 C 
BRANCH  22  23
ATOM     23  C   UNL A   1      31.864  30.053  26.721  1.00  0.00     0.261 C 
BRANCH  23  24
ATOM     24  O   UNL A   1      33.218  30.452  26.444  1.00  0.00    -0.460 OA
BRANCH  24  25
ATOM     25  C   UNL A   1      33.710  31.405  27.268  1.00  0.00     0.338 C 
ATOM     26  O   UNL A   1      33.121  32.383  27.706  1.00  0.00    -0.246 OA
BRANCH  25  27
ATOM     27  C   UNL A   1      35.052  31.016  27.739  1.00  0.00     0.060 A 
ATOM     28  C   UNL A   1      35.298  29.649  27.926  1.00  0.00     0.016 A 
ATOM     29  C   UNL A   1      36.030  31.963  28.053  1.00  0.00     0.016 A 
ATOM     30  C   UNL A   1      36.504  29.227  28.478  1.00  0.00     0.010 A 
ATOM     31  C   UNL A   1      37.238  31.538  28.613  1.00  0.00     0.010 A 
ATOM     32  C   UNL A   1      37.465  30.171  28.861  1.00  0.00    -0.014 A 
BRANCH  32  33
ATOM     33  C   UNL A   1      38.640  29.737  29.655  1.00  0.00     0.031 A 
ATOM     34  C   UNL A   1      38.833  30.302  31.035  1.00  0.00     0.074 A 
ATOM     35  C   UNL A   1      39.503  28.829  29.167  1.00  0.00     0.049 A 
ATOM     36  N   UNL A   1      39.800  30.092  31.891  1.00  0.00    -0.248 NA
ATOM     37  C   UNL A   1      37.795  31.229  31.514  1.00  0.00     0.031 C 
ATOM     38  C   UNL A   1      39.396  28.180  27.862  1.00  0.00     0.029 A 
ATOM     39  N   UNL A   1      40.645  28.301  29.715  1.00  0.00    -0.354 N 
ATOM     40  C   UNL A   1      39.489  30.860  33.006  1.00  0.00     0.074 A 
ATOM     41  C   UNL A   1      38.261  31.566  32.708  1.00  0.00     0.031 C 
ATOM     42  C   UNL A   1      40.439  27.346  27.705  1.00  0.00     0.029 A 
ATOM     43  C   UNL A   1      41.299  27.427  28.884  1.00  0.00     0.049 A 
ATOM     44  H   UNL A   1      40.964  28.528  30.619  1.00  0.00     0.167 HD
ATOM     45  C   UNL A   1      40.163  30.960  34.177  1.00  0.00     0.037 A 
ATOM     46  C   UNL A   1      42.470  26.783  29.052  1.00  0.00     0.037 A 
ATOM     47  C   UNL A   1      41.383  30.257  34.471  1.00  0.00     0.049 A 
ATOM     48  C   UNL A   1      43.239  26.971  30.335  1.00  0.00     0.074 A 
ATOM     49  C   UNL A   1      42.137  30.284  35.632  1.00  0.00     0.029 A 
ATOM     50  N   UNL A   1      42.034  29.405  33.592  1.00  0.00    -0.354 N 
ATOM     51  N   UNL A   1      42.928  27.682  31.391  1.00  0.00    -0.248 NA
ATOM     52  C   UNL A   1      44.523  26.262  30.448  1.00  0.00     0.031 C 
ATOM     53  C   UNL A   1      43.267  29.483  35.438  1.00  0.00     0.029 A 
ATOM     54  C   UNL A   1      43.191  28.918  34.176  1.00  0.00     0.049 A 
ATOM     55  H   UNL A   1      41.719  29.180  32.686  1.00  0.00     0.167 HD
ATOM     56  C   UNL A   1      43.956  27.483  32.304  1.00  0.00     0.074 A 
ATOM     57  C   UNL A   1      44.897  26.575  31.681  1.00  0.00     0.031 C 
ATOM     58  C   UNL A   1      44.109  28.003  33.546  1.00  0.00     0.037 A 
BRANCH  45  59
ATOM     59  C   UNL A   1      39.602  31.877  35.222  1.00  0.00     0.064 A 
ATOM     60  C   UNL A   1      38.743  31.409  36.227  1.00  0.00     0.173 A 
ATOM     61  C   UNL A   1      39.959  33.234  35.243  1.00  0.00     0.173 A 
ATOM     62  F   UNL A   1      38.358  30.124  36.244  1.00  0.00    -0.203 F 
ATOM     63  C   UNL A   1      38.245  32.271  37.203  1.00  0.00     0.198 A 
ATOM     64  C   UNL A   1      39.482  34.086  36.236  1.00  0.00     0.198 A 
ATOM     65  F   UNL A   1      40.781  33.731  34.306  1.00  0.00    -0.203 F 
ATOM     66  F   UNL A   1      37.392  31.811  38.129  1.00  0.00    -0.200 F 
ATOM     67  C   UNL A   1      38.622  33.605  37.211  1.00  0.00     0.200 A 
ATOM     68  F   UNL A   1      39.855  35.373  36.247  1.00  0.00    -0.200 F 
ATOM     69  F   UNL A   1      38.148  34.431  38.155  1.00  0.00    -0.200 F 
ENDBRANCH  45  59
BRANCH  46  70
ATOM     70  C   UNL A   1      43.001  25.909  27.974  1.00  0.00     0.064 A 
ATOM     71  C   UNL A   1      43.860  26.416  26.989  1.00  0.00     0.173 A 
ATOM     72  C   UNL A   1      42.640  24.556  27.891  1.00  0.00     0.173 A 
ATOM     73  F   UNL A   1      44.214  27.710  27.010  1.00  0.00    -0.203 F 
ATOM     74  C   UNL A   1      44.321  25.609  25.951  1.00  0.00     0.198 A 
ATOM     75  C   UNL A   1      43.123  23.743  26.868  1.00  0.00     0.198 A 
ATOM     76  F   UNL A   1      41.819  24.023  28.807  1.00  0.00    -0.203 F 
ATOM     77  F   UNL A   1      45.100  26.132  24.994  1.00  0.00    -0.200 F 
ATOM     78  C   UNL A   1      43.956  24.272  25.894  1.00  0.00     0.200 A 
ATOM     79  F   UNL A   1      42.777  22.449  26.823  1.00  0.00    -0.200 F 
ATOM     80  F   UNL A   1      44.398  23.497  24.895  1.00  0.00    -0.200 F 
ENDBRANCH  46  70
BRANCH  58  81
ATOM     81  C   UNL A   1      45.314  27.575  34.332  1.00  0.00     0.064 A 
ATOM     82  C   UNL A   1      46.512  28.302  34.299  1.00  0.00     0.173 A 
ATOM     83  C   UNL A   1      45.253  26.443  35.161  1.00  0.00     0.173 A 
ATOM     84  F   UNL A   1      46.626  29.381  33.511  1.00  0.00    -0.203 F 
ATOM     85  C   UNL A   1      47.614  27.899  35.051  1.00  0.00     0.198 A 
ATOM     86  C   UNL A   1      46.346  26.061  35.933  1.00  0.00     0.198 A 
ATOM     87  F   UNL A   1      44.127  25.718  35.234  1.00  0.00    -0.203 F 
ATOM     88  F   UNL A   1      48.763  28.583  34.970  1.00  0.00    -0.200 F 
ATOM     89  C   UNL A   1      47.527  26.785  35.872  1.00  0.00     0.200 A 
ATOM     90  F   UNL A   1      46.256  24.992  36.736  1.00  0.00    -0.200 F 
ATOM     91  F   UNL A   1      48.586  26.403  36.601  1.00  0.00    -0.200 F 
ENDBRANCH  58  81
ENDBRANCH  32  33
ENDBRANCH  25  27
ENDBRANCH  24  25
ENDBRANCH  23  24
ENDBRANCH  22  23
ENDBRANCH   1  22
TORSDOF 16
ENDMDL
