MODEL 1
REMARK VINA RESULT:      -9.2      0.000      0.000
REMARK SMILES C[C@@]1(C(=O)N[C@@H](CO)C(=O)OCCOCCOC(=O)c2ccc(-c3c4nc(c(-c5c(F)c(F)c(F)c(F)c5F)c5ccc([nH]5)c(-c5c(F)c(F)c(F)c(F)c5F)c5nc(c(-c6c(F)c(F)c(F)c(F)c6F)c6ccc3[nH]6)C=C5)C=C4)cc2)CCCO1
REMARK SMILES IDX 14 1 13 2 12 3 11 4 9 5 10 6 6 7 5 8 3 9 4 10 2 12 1 13
REMARK SMILES IDX 83 14 86 15 84 16 85 17 7 18 8 19 15 21 16 22 17 23 18 24
REMARK SMILES IDX 19 25 20 26 21 27 82 28 22 29 81 30 23 31 24 32 25 33 75 34
REMARK SMILES IDX 26 35 80 36 74 37 76 38 27 39 79 40 73 41 72 42 28 44 60 45
REMARK SMILES IDX 40 46 59 47 41 48 44 49 58 50 77 51 42 52 43 53 57 55 78 56
REMARK SMILES IDX 45 57 29 58 30 59 38 60 31 61 32 62 36 63 39 64 33 65 34 66
REMARK SMILES IDX 37 67 35 68 61 69 62 70 70 71 63 72 64 73 68 74 71 75 65 76
REMARK SMILES IDX 66 77 69 78 67 79 46 80 47 81 55 82 48 83 49 84 53 85 56 86
REMARK SMILES IDX 50 87 51 88 54 89 52 90
REMARK H PARENT 5 11 8 20 76 43 44 54
REMARK Flexibility Score: inf
ROOT
ATOM      1  O   UNL A   1      42.564  19.162  25.256  1.00  0.00    -0.374 OA
ENDROOT
BRANCH   1   2
ATOM      2  C   UNL A   1      43.965  18.906  25.369  1.00  0.00     0.202 C 
BRANCH   2   3
ATOM      3  C   UNL A   1      44.877  19.748  24.474  1.00  0.00     0.261 C 
BRANCH   3   4
ATOM      4  O   UNL A   1      45.304  20.939  25.155  1.00  0.00    -0.462 OA
BRANCH   4   5
ATOM      5  C   UNL A   1      44.716  22.091  24.728  1.00  0.00     0.331 C 
ATOM      6  O   UNL A   1      44.150  22.225  23.648  1.00  0.00    -0.250 OA
BRANCH   5   7
ATOM      7  C   UNL A   1      44.829  23.224  25.755  1.00  0.00     0.218 C 
BRANCH   7   8
ATOM      8  N   UNL A   1      44.113  24.458  25.390  1.00  0.00    -0.338 N 
ATOM      9  C   UNL A   1      44.508  25.758  25.320  1.00  0.00     0.252 C 
ATOM     10  O   UNL A   1      43.631  26.571  25.002  1.00  0.00    -0.272 OA
ATOM     11  H   UNL A   1      43.169  24.313  25.152  1.00  0.00     0.164 HD
BRANCH   9  12
ATOM     12  C   UNL A   1      45.992  26.217  25.506  1.00  0.00     0.143 C 
ATOM     13  C   UNL A   1      46.434  25.869  26.935  1.00  0.00     0.053 C 
ATOM     14  C   UNL A   1      46.101  27.737  25.304  1.00  0.00     0.048 C 
ATOM     15  O   UNL A   1      46.940  25.616  24.613  1.00  0.00    -0.365 OA
ATOM     16  C   UNL A   1      46.782  27.873  23.966  1.00  0.00     0.032 C 
ATOM     17  C   UNL A   1      47.685  26.661  23.965  1.00  0.00     0.162 C 
ENDBRANCH   9  12
ENDBRANCH   7   8
BRANCH   7  18
ATOM     18  C   UNL A   1      44.346  22.694  27.106  1.00  0.00     0.193 C 
BRANCH  18  19
ATOM     19  O   UNL A   1      43.264  23.481  27.611  1.00  0.00    -0.394 OA
ATOM     20  H   UNL A   1      42.746  23.832  26.870  1.00  0.00     0.210 HD
ENDBRANCH  18  19
ENDBRANCH   7  18
ENDBRANCH   5   7
ENDBRANCH   4   5
ENDBRANCH   3   4
ENDBRANCH   2   3
ENDBRANCH   1   2
BRANCH   1  21
ATOM     21  C   UNL A   1      41.965  19.998  26.244  1.00  0.00     0.202 C 
BRANCH  21  22
ATOM     22  C   UNL A   1      41.297  21.290  25.751  1.00  0.00     0.261 C 
BRANCH  22  23
ATOM     23  O   UNL A   1      40.726  22.063  26.819  1.00  0.00    -0.460 OA
BRANCH  23  24
ATOM     24  C   UNL A   1      39.564  22.682  26.505  1.00  0.00     0.338 C 
ATOM     25  O   UNL A   1      38.551  22.179  26.040  1.00  0.00    -0.246 OA
BRANCH  24  26
ATOM     26  C   UNL A   1      39.593  24.079  26.968  1.00  0.00     0.060 A 
ATOM     27  C   UNL A   1      40.221  25.019  26.141  1.00  0.00     0.016 A 
ATOM     28  C   UNL A   1      39.110  24.445  28.226  1.00  0.00     0.016 A 
ATOM     29  C   UNL A   1      40.409  26.323  26.588  1.00  0.00     0.010 A 
ATOM     30  C   UNL A   1      39.312  25.755  28.678  1.00  0.00     0.010 A 
ATOM     31  C   UNL A   1      39.993  26.688  27.875  1.00  0.00    -0.014 A 
BRANCH  31  32
ATOM     32  C   UNL A   1      40.411  27.999  28.426  1.00  0.00     0.031 A 
ATOM     33  C   UNL A   1      41.868  28.239  28.710  1.00  0.00     0.074 A 
ATOM     34  C   UNL A   1      39.510  28.976  28.632  1.00  0.00     0.049 A 
ATOM     35  N   UNL A   1      42.455  29.300  29.202  1.00  0.00    -0.248 NA
ATOM     36  C   UNL A   1      42.789  27.134  28.396  1.00  0.00     0.031 C 
ATOM     37  C   UNL A   1      38.078  28.875  28.357  1.00  0.00     0.029 A 
ATOM     38  N   UNL A   1      39.670  30.247  29.124  1.00  0.00    -0.354 N 
ATOM     39  C   UNL A   1      43.807  28.990  29.263  1.00  0.00     0.074 A 
ATOM     40  C   UNL A   1      43.956  27.634  28.778  1.00  0.00     0.031 C 
ATOM     41  C   UNL A   1      37.486  30.034  28.697  1.00  0.00     0.029 A 
ATOM     42  C   UNL A   1      38.493  30.945  29.237  1.00  0.00     0.049 A 
ATOM     43  H   UNL A   1      40.546  30.622  29.373  1.00  0.00     0.167 HD
ATOM     44  C   UNL A   1      44.833  29.769  29.681  1.00  0.00     0.037 A 
ATOM     45  C   UNL A   1      38.258  32.173  29.738  1.00  0.00     0.037 A 
ATOM     46  C   UNL A   1      44.686  31.121  30.148  1.00  0.00     0.049 A 
ATOM     47  C   UNL A   1      39.414  32.995  30.251  1.00  0.00     0.074 A 
ATOM     48  C   UNL A   1      45.670  32.004  30.560  1.00  0.00     0.029 A 
ATOM     49  N   UNL A   1      43.476  31.784  30.273  1.00  0.00    -0.354 N 
ATOM     50  N   UNL A   1      40.692  32.708  30.267  1.00  0.00    -0.248 NA
ATOM     51  C   UNL A   1      39.090  34.314  30.814  1.00  0.00     0.031 C 
ATOM     52  C   UNL A   1      45.051  33.185  30.977  1.00  0.00     0.029 A 
ATOM     53  C   UNL A   1      43.686  33.056  30.780  1.00  0.00     0.049 A 
ATOM     54  H   UNL A   1      42.597  31.408  30.036  1.00  0.00     0.167 HD
ATOM     55  C   UNL A   1      41.327  33.819  30.808  1.00  0.00     0.074 A 
ATOM     56  C   UNL A   1      40.294  34.791  31.098  1.00  0.00     0.031 C 
ATOM     57  C   UNL A   1      42.647  34.017  31.045  1.00  0.00     0.037 A 
BRANCH  44  58
ATOM     58  C   UNL A   1      46.210  29.176  29.673  1.00  0.00     0.064 A 
ATOM     59  C   UNL A   1      46.680  28.391  30.734  1.00  0.00     0.173 A 
ATOM     60  C   UNL A   1      47.043  29.343  28.557  1.00  0.00     0.173 A 
ATOM     61  F   UNL A   1      45.925  28.212  31.829  1.00  0.00    -0.203 F 
ATOM     62  C   UNL A   1      47.940  27.801  30.683  1.00  0.00     0.198 A 
ATOM     63  C   UNL A   1      48.294  28.734  28.499  1.00  0.00     0.198 A 
ATOM     64  F   UNL A   1      46.636  30.084  27.514  1.00  0.00    -0.203 F 
ATOM     65  F   UNL A   1      48.383  27.076  31.719  1.00  0.00    -0.200 F 
ATOM     66  C   UNL A   1      48.742  27.966  29.562  1.00  0.00     0.200 A 
ATOM     67  F   UNL A   1      49.061  28.885  27.411  1.00  0.00    -0.200 F 
ATOM     68  F   UNL A   1      49.949  27.385  29.508  1.00  0.00    -0.200 F 
ENDBRANCH  44  58
BRANCH  45  69
ATOM     69  C   UNL A   1      36.871  32.704  29.803  1.00  0.00     0.064 A 
ATOM     70  C   UNL A   1      36.334  33.458  28.750  1.00  0.00     0.173 A 
ATOM     71  C   UNL A   1      36.073  32.509  30.939  1.00  0.00     0.173 A 
ATOM     72  F   UNL A   1      37.069  33.696  27.653  1.00  0.00    -0.203 F 
ATOM     73  C   UNL A   1      35.061  34.018  28.842  1.00  0.00     0.198 A 
ATOM     74  C   UNL A   1      34.789  33.045  31.018  1.00  0.00     0.198 A 
ATOM     75  F   UNL A   1      36.541  31.799  31.976  1.00  0.00    -0.203 F 
ATOM     76  F   UNL A   1      34.594  34.782  27.845  1.00  0.00    -0.200 F 
ATOM     77  C   UNL A   1      34.288  33.808  29.974  1.00  0.00     0.200 A 
ATOM     78  F   UNL A   1      34.043  32.833  32.111  1.00  0.00    -0.200 F 
ATOM     79  F   UNL A   1      33.067  34.352  30.065  1.00  0.00    -0.200 F 
ENDBRANCH  45  69
BRANCH  57  80
ATOM     80  C   UNL A   1      43.055  35.348  31.605  1.00  0.00     0.064 A 
ATOM     81  C   UNL A   1      43.091  35.586  32.986  1.00  0.00     0.173 A 
ATOM     82  C   UNL A   1      43.459  36.383  30.747  1.00  0.00     0.173 A 
ATOM     83  F   UNL A   1      42.701  34.632  33.845  1.00  0.00    -0.203 F 
ATOM     84  C   UNL A   1      43.494  36.819  33.488  1.00  0.00     0.198 A 
ATOM     85  C   UNL A   1      43.888  37.606  31.255  1.00  0.00     0.198 A 
ATOM     86  F   UNL A   1      43.450  36.203  29.418  1.00  0.00    -0.203 F 
ATOM     87  F   UNL A   1      43.479  37.040  34.811  1.00  0.00    -0.200 F 
ATOM     88  C   UNL A   1      43.900  37.826  32.624  1.00  0.00     0.200 A 
ATOM     89  F   UNL A   1      44.292  38.572  30.418  1.00  0.00    -0.200 F 
ATOM     90  F   UNL A   1      44.294  39.010  33.111  1.00  0.00    -0.200 F 
ENDBRANCH  57  80
ENDBRANCH  31  32
ENDBRANCH  24  26
ENDBRANCH  23  24
ENDBRANCH  22  23
ENDBRANCH  21  22
ENDBRANCH   1  21
TORSDOF 18
ENDMDL
MODEL 2
REMARK VINA RESULT:      -9.1      5.277      9.310
REMARK SMILES C[C@@]1(C(=O)N[C@@H](CO)C(=O)OCCOCCOC(=O)c2ccc(-c3c4nc(c(-c5c(F)c(F)c(F)c(F)c5F)c5ccc([nH]5)c(-c5c(F)c(F)c(F)c(F)c5F)c5nc(c(-c6c(F)c(F)c(F)c(F)c6F)c6ccc3[nH]6)C=C5)C=C4)cc2)CCCO1
REMARK SMILES IDX 14 1 13 2 12 3 11 4 9 5 10 6 6 7 5 8 3 9 4 10 2 12 1 13
REMARK SMILES IDX 83 14 86 15 84 16 85 17 7 18 8 19 15 21 16 22 17 23 18 24
REMARK SMILES IDX 19 25 20 26 21 27 82 28 22 29 81 30 23 31 24 32 25 33 75 34
REMARK SMILES IDX 26 35 80 36 74 37 76 38 27 39 79 40 73 41 72 42 28 44 60 45
REMARK SMILES IDX 40 46 59 47 41 48 44 49 58 50 77 51 42 52 43 53 57 55 78 56
REMARK SMILES IDX 45 57 29 58 30 59 38 60 31 61 32 62 36 63 39 64 33 65 34 66
REMARK SMILES IDX 37 67 35 68 61 69 62 70 70 71 63 72 64 73 68 74 71 75 65 76
REMARK SMILES IDX 66 77 69 78 67 79 46 80 47 81 55 82 48 83 49 84 53 85 56 86
REMARK SMILES IDX 50 87 51 88 54 89 52 90
REMARK H PARENT 5 11 8 20 76 43 44 54
REMARK Flexibility Score: inf
ROOT
ATOM      1  O   UNL A   1      32.947  27.839  25.027  1.00  0.00    -0.374 OA
ENDROOT
BRANCH   1   2
ATOM      2  C   UNL A   1      32.100  27.164  24.097  1.00  0.00     0.202 C 
BRANCH   2   3
ATOM      3  C   UNL A   1      31.996  25.645  24.262  1.00  0.00     0.261 C 
BRANCH   3   4
ATOM      4  O   UNL A   1      32.117  25.272  25.644  1.00  0.00    -0.462 OA
BRANCH   4   5
ATOM      5  C   UNL A   1      31.018  24.669  26.178  1.00  0.00     0.331 C 
ATOM      6  O   UNL A   1      30.053  25.267  26.643  1.00  0.00    -0.250 OA
BRANCH   5   7
ATOM      7  C   UNL A   1      31.108  23.138  26.132  1.00  0.00     0.218 C 
BRANCH   7   8
ATOM      8  N   UNL A   1      32.202  22.564  26.932  1.00  0.00    -0.338 N 
ATOM      9  C   UNL A   1      33.279  21.802  26.595  1.00  0.00     0.252 C 
ATOM     10  O   UNL A   1      34.006  21.453  27.532  1.00  0.00    -0.272 OA
ATOM     11  H   UNL A   1      32.144  22.770  27.892  1.00  0.00     0.164 HD
BRANCH   9  12
ATOM     12  C   UNL A   1      33.669  21.470  25.116  1.00  0.00     0.143 C 
ATOM     13  C   UNL A   1      32.759  20.339  24.616  1.00  0.00     0.053 C 
ATOM     14  C   UNL A   1      35.131  21.004  25.051  1.00  0.00     0.048 C 
ATOM     15  O   UNL A   1      33.542  22.556  24.187  1.00  0.00    -0.365 OA
ATOM     16  C   UNL A   1      35.851  22.169  24.421  1.00  0.00     0.032 C 
ATOM     17  C   UNL A   1      34.791  22.709  23.491  1.00  0.00     0.162 C 
ENDBRANCH   9  12
ENDBRANCH   7   8
BRANCH   7  18
ATOM     18  C   UNL A   1      29.757  22.568  26.570  1.00  0.00     0.193 C 
BRANCH  18  19
ATOM     19  O   UNL A   1      29.600  22.647  27.988  1.00  0.00    -0.394 OA
ATOM     20  H   UNL A   1      29.842  21.796  28.388  1.00  0.00     0.210 HD
ENDBRANCH  18  19
ENDBRANCH   7  18
ENDBRANCH   5   7
ENDBRANCH   4   5
ENDBRANCH   3   4
ENDBRANCH   2   3
ENDBRANCH   1   2
BRANCH   1  21
ATOM     21  C   UNL A   1      33.047  29.258  24.918  1.00  0.00     0.202 C 
BRANCH  21  22
ATOM     22  C   UNL A   1      32.076  30.092  25.764  1.00  0.00     0.261 C 
BRANCH  22  23
ATOM     23  O   UNL A   1      32.531  30.275  27.115  1.00  0.00    -0.460 OA
BRANCH  23  24
ATOM     24  C   UNL A   1      33.244  31.407  27.319  1.00  0.00     0.338 C 
ATOM     25  O   UNL A   1      32.839  32.561  27.289  1.00  0.00    -0.246 OA
BRANCH  24  26
ATOM     26  C   UNL A   1      34.604  31.075  27.773  1.00  0.00     0.060 A 
ATOM     27  C   UNL A   1      34.867  29.739  28.099  1.00  0.00     0.016 A 
ATOM     28  C   UNL A   1      35.572  32.061  27.976  1.00  0.00     0.016 A 
ATOM     29  C   UNL A   1      36.085  29.388  28.672  1.00  0.00     0.010 A 
ATOM     30  C   UNL A   1      36.792  31.708  28.564  1.00  0.00     0.010 A 
ATOM     31  C   UNL A   1      37.039  30.377  28.946  1.00  0.00    -0.014 A 
BRANCH  31  32
ATOM     32  C   UNL A   1      38.223  30.032  29.769  1.00  0.00     0.031 A 
ATOM     33  C   UNL A   1      39.241  29.074  29.214  1.00  0.00     0.074 A 
ATOM     34  C   UNL A   1      38.407  30.595  30.976  1.00  0.00     0.049 A 
ATOM     35  N   UNL A   1      40.341  28.623  29.760  1.00  0.00    -0.248 NA
ATOM     36  C   UNL A   1      38.986  28.556  27.860  1.00  0.00     0.031 C 
ATOM     37  C   UNL A   1      37.511  31.565  31.601  1.00  0.00     0.029 A 
ATOM     38  N   UNL A   1      39.414  30.426  31.893  1.00  0.00    -0.354 N 
ATOM     39  C   UNL A   1      40.903  27.766  28.823  1.00  0.00     0.074 A 
ATOM     40  C   UNL A   1      40.015  27.741  27.681  1.00  0.00     0.031 C 
ATOM     41  C   UNL A   1      38.003  31.898  32.808  1.00  0.00     0.029 A 
ATOM     42  C   UNL A   1      39.231  31.143  33.049  1.00  0.00     0.049 A 
ATOM     43  H   UNL A   1      40.193  29.844  31.737  1.00  0.00     0.167 HD
ATOM     44  C   UNL A   1      42.060  27.067  28.908  1.00  0.00     0.037 A 
ATOM     45  C   UNL A   1      39.964  31.170  34.179  1.00  0.00     0.037 A 
ATOM     46  C   UNL A   1      42.950  27.104  30.038  1.00  0.00     0.049 A 
ATOM     47  C   UNL A   1      41.217  30.335  34.265  1.00  0.00     0.074 A 
ATOM     48  C   UNL A   1      44.163  26.458  30.202  1.00  0.00     0.029 A 
ATOM     49  N   UNL A   1      42.717  27.822  31.200  1.00  0.00    -0.354 N 
ATOM     50  N   UNL A   1      41.761  29.560  33.360  1.00  0.00    -0.248 NA
ATOM     51  C   UNL A   1      41.958  30.383  35.535  1.00  0.00     0.031 C 
ATOM     52  C   UNL A   1      44.643  26.749  31.482  1.00  0.00     0.029 A 
ATOM     53  C   UNL A   1      43.752  27.614  32.097  1.00  0.00     0.049 A 
ATOM     54  H   UNL A   1      41.933  28.395  31.364  1.00  0.00     0.167 HD
ATOM     55  C   UNL A   1      42.921  29.056  33.935  1.00  0.00     0.074 A 
ATOM     56  C   UNL A   1      43.009  29.621  35.264  1.00  0.00     0.031 C 
ATOM     57  C   UNL A   1      43.832  28.200  33.410  1.00  0.00     0.037 A 
BRANCH  44  58
ATOM     58  C   UNL A   1      42.429  26.182  27.755  1.00  0.00     0.064 A 
ATOM     59  C   UNL A   1      43.356  26.586  26.784  1.00  0.00     0.173 A 
ATOM     60  C   UNL A   1      41.895  24.889  27.659  1.00  0.00     0.173 A 
ATOM     61  F   UNL A   1      43.885  27.818  26.826  1.00  0.00    -0.203 F 
ATOM     62  C   UNL A   1      43.728  25.729  25.753  1.00  0.00     0.198 A 
ATOM     63  C   UNL A   1      42.286  24.026  26.639  1.00  0.00     0.198 A 
ATOM     64  F   UNL A   1      41.006  24.455  28.566  1.00  0.00    -0.203 F 
ATOM     65  F   UNL A   1      44.597  26.143  24.819  1.00  0.00    -0.200 F 
ATOM     66  C   UNL A   1      43.201  24.448  25.686  1.00  0.00     0.200 A 
ATOM     67  F   UNL A   1      41.784  22.785  26.583  1.00  0.00    -0.200 F 
ATOM     68  F   UNL A   1      43.572  23.618  24.701  1.00  0.00    -0.200 F 
ENDBRANCH  44  58
BRANCH  45  69
ATOM     69  C   UNL A   1      39.532  32.000  35.334  1.00  0.00     0.064 A 
ATOM     70  C   UNL A   1      38.626  31.505  36.282  1.00  0.00     0.173 A 
ATOM     71  C   UNL A   1      39.978  33.321  35.485  1.00  0.00     0.173 A 
ATOM     72  F   UNL A   1      38.147  30.258  36.165  1.00  0.00    -0.203 F 
ATOM     73  C   UNL A   1      38.163  32.308  37.324  1.00  0.00     0.198 A 
ATOM     74  C   UNL A   1      39.538  34.114  36.543  1.00  0.00     0.198 A 
ATOM     75  F   UNL A   1      40.842  33.844  34.603  1.00  0.00    -0.203 F 
ATOM     76  F   UNL A   1      37.253  31.829  38.183  1.00  0.00    -0.200 F 
ATOM     77  C   UNL A   1      38.622  33.610  37.455  1.00  0.00     0.200 A 
ATOM     78  F   UNL A   1      39.990  35.368  36.671  1.00  0.00    -0.200 F 
ATOM     79  F   UNL A   1      38.172  34.384  38.452  1.00  0.00    -0.200 F 
ENDBRANCH  45  69
BRANCH  57  80
ATOM     80  C   UNL A   1      45.023  27.857  34.254  1.00  0.00     0.064 A 
ATOM     81  C   UNL A   1      46.182  28.645  34.247  1.00  0.00     0.173 A 
ATOM     82  C   UNL A   1      44.984  26.751  35.118  1.00  0.00     0.173 A 
ATOM     83  F   UNL A   1      46.272  29.705  33.429  1.00  0.00    -0.203 F 
ATOM     84  C   UNL A   1      47.269  28.324  35.054  1.00  0.00     0.198 A 
ATOM     85  C   UNL A   1      46.063  26.449  35.945  1.00  0.00     0.198 A 
ATOM     86  F   UNL A   1      43.895  25.970  35.168  1.00  0.00    -0.203 F 
ATOM     87  F   UNL A   1      48.385  29.066  34.999  1.00  0.00    -0.200 F 
ATOM     88  C   UNL A   1      47.207  27.232  35.908  1.00  0.00     0.200 A 
ATOM     89  F   UNL A   1      45.995  25.402  36.778  1.00  0.00    -0.200 F 
ATOM     90  F   UNL A   1      48.252  26.931  36.690  1.00  0.00    -0.200 F 
ENDBRANCH  57  80
ENDBRANCH  31  32
ENDBRANCH  24  26
ENDBRANCH  23  24
ENDBRANCH  22  23
ENDBRANCH  21  22
ENDBRANCH   1  21
TORSDOF 18
ENDMDL
MODEL 3
REMARK VINA RESULT:      -9.1      5.483     10.876
REMARK SMILES C[C@@]1(C(=O)N[C@@H](CO)C(=O)OCCOCCOC(=O)c2ccc(-c3c4nc(c(-c5c(F)c(F)c(F)c(F)c5F)c5ccc([nH]5)c(-c5c(F)c(F)c(F)c(F)c5F)c5nc(c(-c6c(F)c(F)c(F)c(F)c6F)c6ccc3[nH]6)C=C5)C=C4)cc2)CCCO1
REMARK SMILES IDX 14 1 13 2 12 3 11 4 9 5 10 6 6 7 5 8 3 9 4 10 2 12 1 13
REMARK SMILES IDX 83 14 86 15 84 16 85 17 7 18 8 19 15 21 16 22 17 23 18 24
REMARK SMILES IDX 19 25 20 26 21 27 82 28 22 29 81 30 23 31 24 32 25 33 75 34
REMARK SMILES IDX 26 35 80 36 74 37 76 38 27 39 79 40 73 41 72 42 28 44 60 45
REMARK SMILES IDX 40 46 59 47 41 48 44 49 58 50 77 51 42 52 43 53 57 55 78 56
REMARK SMILES IDX 45 57 29 58 30 59 38 60 31 61 32 62 36 63 39 64 33 65 34 66
REMARK SMILES IDX 37 67 35 68 61 69 62 70 70 71 63 72 64 73 68 74 71 75 65 76
REMARK SMILES IDX 66 77 69 78 67 79 46 80 47 81 55 82 48 83 49 84 53 85 56 86
REMARK SMILES IDX 50 87 51 88 54 89 52 90
REMARK H PARENT 5 11 8 20 76 43 44 54
REMARK Flexibility Score: inf
ROOT
ATOM      1  O   UNL A   1      31.819  30.074  25.015  1.00  0.00    -0.374 OA
ENDROOT
BRANCH   1   2
ATOM      2  C   UNL A   1      31.307  29.038  24.177  1.00  0.00     0.202 C 
BRANCH   2   3
ATOM      3  C   UNL A   1      32.349  28.178  23.457  1.00  0.00     0.261 C 
BRANCH   3   4
ATOM      4  O   UNL A   1      32.349  26.836  23.970  1.00  0.00    -0.462 OA
BRANCH   4   5
ATOM      5  C   UNL A   1      31.707  25.921  23.192  1.00  0.00     0.331 C 
ATOM      6  O   UNL A   1      30.489  25.786  23.136  1.00  0.00    -0.250 OA
BRANCH   5   7
ATOM      7  C   UNL A   1      32.679  25.061  22.374  1.00  0.00     0.218 C 
BRANCH   7   8
ATOM      8  N   UNL A   1      32.374  23.621  22.375  1.00  0.00    -0.338 N 
ATOM      9  C   UNL A   1      32.903  22.574  23.066  1.00  0.00     0.252 C 
ATOM     10  O   UNL A   1      32.430  21.462  22.805  1.00  0.00    -0.272 OA
ATOM     11  H   UNL A   1      31.650  23.367  21.759  1.00  0.00     0.164 HD
BRANCH   9  12
ATOM     12  C   UNL A   1      33.958  22.744  24.210  1.00  0.00     0.143 C 
ATOM     13  C   UNL A   1      33.270  23.409  25.411  1.00  0.00     0.053 C 
ATOM     14  C   UNL A   1      35.110  23.643  23.731  1.00  0.00     0.048 C 
ATOM     15  O   UNL A   1      34.556  21.530  24.684  1.00  0.00    -0.365 OA
ATOM     16  C   UNL A   1      36.256  22.682  23.538  1.00  0.00     0.032 C 
ATOM     17  C   UNL A   1      35.985  21.669  24.625  1.00  0.00     0.162 C 
ENDBRANCH   9  12
ENDBRANCH   7   8
BRANCH   7  18
ATOM     18  C   UNL A   1      32.715  25.608  20.946  1.00  0.00     0.193 C 
BRANCH  18  19
ATOM     19  O   UNL A   1      31.403  25.955  20.494  1.00  0.00    -0.394 OA
ATOM     20  H   UNL A   1      31.177  26.844  20.809  1.00  0.00     0.210 HD
ENDBRANCH  18  19
ENDBRANCH   7  18
ENDBRANCH   5   7
ENDBRANCH   4   5
ENDBRANCH   3   4
ENDBRANCH   2   3
ENDBRANCH   1   2
BRANCH   1  21
ATOM     21  C   UNL A   1      30.914  31.097  25.426  1.00  0.00     0.202 C 
BRANCH  21  22
ATOM     22  C   UNL A   1      31.406  32.069  26.508  1.00  0.00     0.261 C 
BRANCH  22  23
ATOM     23  O   UNL A   1      32.578  31.595  27.189  1.00  0.00    -0.460 OA
BRANCH  23  24
ATOM     24  C   UNL A   1      33.408  32.572  27.624  1.00  0.00     0.338 C 
ATOM     25  O   UNL A   1      33.136  33.746  27.833  1.00  0.00    -0.246 OA
BRANCH  24  26
ATOM     26  C   UNL A   1      34.710  32.000  28.004  1.00  0.00     0.060 A 
ATOM     27  C   UNL A   1      34.753  30.630  28.292  1.00  0.00     0.016 A 
ATOM     28  C   UNL A   1      35.841  32.801  28.175  1.00  0.00     0.016 A 
ATOM     29  C   UNL A   1      35.918  30.061  28.796  1.00  0.00     0.010 A 
ATOM     30  C   UNL A   1      37.009  32.229  28.695  1.00  0.00     0.010 A 
ATOM     31  C   UNL A   1      37.040  30.865  29.040  1.00  0.00    -0.014 A 
BRANCH  31  32
ATOM     32  C   UNL A   1      38.184  30.301  29.796  1.00  0.00     0.031 A 
ATOM     33  C   UNL A   1      38.382  30.709  31.229  1.00  0.00     0.074 A 
ATOM     34  C   UNL A   1      39.009  29.407  29.224  1.00  0.00     0.049 A 
ATOM     35  N   UNL A   1      39.317  30.352  32.072  1.00  0.00    -0.248 NA
ATOM     36  C   UNL A   1      37.394  31.645  31.789  1.00  0.00     0.031 C 
ATOM     37  C   UNL A   1      38.894  28.905  27.856  1.00  0.00     0.029 A 
ATOM     38  N   UNL A   1      40.113  28.763  29.726  1.00  0.00    -0.354 N 
ATOM     39  C   UNL A   1      39.034  31.022  33.255  1.00  0.00     0.074 A 
ATOM     40  C   UNL A   1      37.854  31.825  33.018  1.00  0.00     0.031 C 
ATOM     41  C   UNL A   1      39.896  28.039  27.623  1.00  0.00     0.029 A 
ATOM     42  C   UNL A   1      40.737  27.948  28.815  1.00  0.00     0.049 A 
ATOM     43  H   UNL A   1      40.427  28.877  30.653  1.00  0.00     0.167 HD
ATOM     44  C   UNL A   1      39.698  30.968  34.434  1.00  0.00     0.037 A 
ATOM     45  C   UNL A   1      41.869  27.227  28.930  1.00  0.00     0.037 A 
ATOM     46  C   UNL A   1      40.862  30.158  34.674  1.00  0.00     0.049 A 
ATOM     47  C   UNL A   1      42.619  27.232  30.238  1.00  0.00     0.074 A 
ATOM     48  C   UNL A   1      41.584  30.008  35.845  1.00  0.00     0.029 A 
ATOM     49  N   UNL A   1      41.480  29.366  33.718  1.00  0.00    -0.354 N 
ATOM     50  N   UNL A   1      42.321  27.837  31.362  1.00  0.00    -0.248 NA
ATOM     51  C   UNL A   1      43.863  26.450  30.291  1.00  0.00     0.031 C 
ATOM     52  C   UNL A   1      42.665  29.161  35.587  1.00  0.00     0.029 A 
ATOM     53  C   UNL A   1      42.590  28.746  34.268  1.00  0.00     0.049 A 
ATOM     54  H   UNL A   1      41.175  29.259  32.789  1.00  0.00     0.167 HD
ATOM     55  C   UNL A   1      43.319  27.484  32.262  1.00  0.00     0.074 A 
ATOM     56  C   UNL A   1      44.225  26.603  31.558  1.00  0.00     0.031 C 
ATOM     57  C   UNL A   1      43.471  27.857  33.556  1.00  0.00     0.037 A 
BRANCH  44  58
ATOM     58  C   UNL A   1      39.195  31.822  35.560  1.00  0.00     0.064 A 
ATOM     59  C   UNL A   1      38.308  31.323  36.523  1.00  0.00     0.173 A 
ATOM     60  C   UNL A   1      39.662  33.136  35.711  1.00  0.00     0.173 A 
ATOM     61  F   UNL A   1      37.824  30.076  36.415  1.00  0.00    -0.203 F 
ATOM     62  C   UNL A   1      37.897  32.113  37.593  1.00  0.00     0.198 A 
ATOM     63  C   UNL A   1      39.266  33.916  36.794  1.00  0.00     0.198 A 
ATOM     64  F   UNL A   1      40.515  33.658  34.816  1.00  0.00    -0.203 F 
ATOM     65  F   UNL A   1      37.027  31.627  38.489  1.00  0.00    -0.200 F 
ATOM     66  C   UNL A   1      38.383  33.405  37.732  1.00  0.00     0.200 A 
ATOM     67  F   UNL A   1      39.746  35.159  36.933  1.00  0.00    -0.200 F 
ATOM     68  F   UNL A   1      37.999  34.160  38.771  1.00  0.00    -0.200 F 
ENDBRANCH  44  58
BRANCH  45  69
ATOM     69  C   UNL A   1      42.383  26.449  27.771  1.00  0.00     0.064 A 
ATOM     70  C   UNL A   1      41.975  25.127  27.547  1.00  0.00     0.173 A 
ATOM     71  C   UNL A   1      43.330  26.997  26.894  1.00  0.00     0.173 A 
ATOM     72  F   UNL A   1      41.092  24.549  28.376  1.00  0.00    -0.203 F 
ATOM     73  C   UNL A   1      42.513  24.374  26.505  1.00  0.00     0.198 A 
ATOM     74  C   UNL A   1      43.846  26.254  25.835  1.00  0.00     0.198 A 
ATOM     75  F   UNL A   1      43.757  28.257  27.067  1.00  0.00    -0.203 F 
ATOM     76  F   UNL A   1      42.148  23.095  26.348  1.00  0.00    -0.200 F 
ATOM     77  C   UNL A   1      43.445  24.939  25.648  1.00  0.00     0.200 A 
ATOM     78  F   UNL A   1      44.741  26.806  25.004  1.00  0.00    -0.200 F 
ATOM     79  F   UNL A   1      43.967  24.213  24.650  1.00  0.00    -0.200 F 
ENDBRANCH  45  69
BRANCH  57  80
ATOM     80  C   UNL A   1      44.634  27.280  34.307  1.00  0.00     0.064 A 
ATOM     81  C   UNL A   1      45.863  27.951  34.390  1.00  0.00     0.173 A 
ATOM     82  C   UNL A   1      44.502  26.062  34.992  1.00  0.00     0.173 A 
ATOM     83  F   UNL A   1      46.043  29.111  33.741  1.00  0.00    -0.203 F 
ATOM     84  C   UNL A   1      46.924  27.411  35.110  1.00  0.00     0.198 A 
ATOM     85  C   UNL A   1      45.556  25.539  35.735  1.00  0.00     0.198 A 
ATOM     86  F   UNL A   1      43.344  25.386  34.951  1.00  0.00    -0.203 F 
ATOM     87  F   UNL A   1      48.104  28.047  35.139  1.00  0.00    -0.200 F 
ATOM     88  C   UNL A   1      46.769  26.210  35.789  1.00  0.00     0.200 A 
ATOM     89  F   UNL A   1      45.400  24.386  36.400  1.00  0.00    -0.200 F 
ATOM     90  F   UNL A   1      47.790  25.697  36.487  1.00  0.00    -0.200 F 
ENDBRANCH  57  80
ENDBRANCH  31  32
ENDBRANCH  24  26
ENDBRANCH  23  24
ENDBRANCH  22  23
ENDBRANCH  21  22
ENDBRANCH   1  21
TORSDOF 18
ENDMDL
