MODEL 1
REMARK VINA RESULT:     -12.8      0.000      0.000
REMARK SMILES COc1ccc2c(c1)c(CC(=O)OCCOCCOC(=O)c1ccc(-c3c4nc(c(-c5c(F)c(F)c(F)c(F)c5F)c5ccc([nH]5)c(-c5c(F)c(F)c(F)c(F)c5F)c5nc(c(-c6c(F)c(F)c(F)c(F)c6F)c6ccc3[nH]6)C=C5)C=C4)cc1)c(C)n2C(=O)c1ccc(Cl)cc1
REMARK SMILES IDX 15 1 14 2 13 3 11 4 12 5 10 6 9 7 3 8 4 9 8 10 5 11 7 12
REMARK SMILES IDX 6 13 87 14 85 15 86 16 2 17 1 18 88 19 89 20 90 21 91 22
REMARK SMILES IDX 96 23 92 24 95 25 93 26 94 27 16 28 17 29 18 30 19 31 20 32
REMARK SMILES IDX 21 33 22 34 23 35 84 36 24 37 83 38 25 39 26 40 27 41 77 42
REMARK SMILES IDX 28 43 82 44 76 45 78 46 29 47 81 48 75 49 74 50 30 52 62 53
REMARK SMILES IDX 42 54 61 55 43 56 46 57 60 58 79 59 44 60 45 61 59 63 80 64
REMARK SMILES IDX 47 65 31 66 32 67 40 68 33 69 34 70 38 71 41 72 35 73 36 74
REMARK SMILES IDX 39 75 37 76 63 77 64 78 72 79 65 80 66 81 70 82 73 83 67 84
REMARK SMILES IDX 68 85 71 86 69 87 48 88 49 89 57 90 50 91 51 92 55 93 58 94
REMARK SMILES IDX 52 95 53 96 56 97 54 98
REMARK H PARENT 78 51 46 62
REMARK Flexibility Score: inf
ROOT
ATOM      1  C   UNL A   1      34.809  22.690  24.177  1.00  0.00     0.202 C 
ENDROOT
BRANCH   1   2
ATOM      2  C   UNL A   1      34.068  23.225  22.939  1.00  0.00     0.261 C 
BRANCH   2   3
ATOM      3  O   UNL A   1      34.290  24.614  22.641  1.00  0.00    -0.463 OA
BRANCH   3   4
ATOM      4  C   UNL A   1      33.235  25.238  22.050  1.00  0.00     0.310 C 
ATOM      5  O   UNL A   1      33.276  25.735  20.925  1.00  0.00    -0.252 OA
BRANCH   4   6
ATOM      6  C   UNL A   1      31.963  25.310  22.861  1.00  0.00     0.160 C 
BRANCH   6   7
ATOM      7  C   UNL A   1      31.734  26.447  23.825  1.00  0.00    -0.008 A 
ATOM      8  C   UNL A   1      29.818  29.435  22.374  1.00  0.00     0.119 A 
ATOM      9  C   UNL A   1      29.923  30.239  23.492  1.00  0.00     0.048 A 
ATOM     10  C   UNL A   1      30.476  28.200  22.364  1.00  0.00     0.057 A 
ATOM     11  C   UNL A   1      30.637  29.805  24.616  1.00  0.00     0.031 A 
ATOM     12  C   UNL A   1      31.109  27.692  23.524  1.00  0.00     0.008 A 
ATOM     13  C   UNL A   1      31.196  28.508  24.657  1.00  0.00     0.057 A 
ATOM     14  N   UNL A   1      31.914  27.809  25.649  1.00  0.00    -0.280 N 
ATOM     15  C   UNL A   1      32.224  26.539  25.124  1.00  0.00     0.028 A 
ATOM     16  C   UNL A   1      33.000  25.468  25.830  1.00  0.00     0.065 C 
BRANCH   8  17
ATOM     17  O   UNL A   1      29.076  29.702  21.259  1.00  0.00    -0.497 OA
ATOM     18  C   UNL A   1      28.037  30.669  21.379  1.00  0.00     0.278 C 
ENDBRANCH   8  17
BRANCH  14  19
ATOM     19  C   UNL A   1      32.293  28.320  26.930  1.00  0.00     0.262 C 
ATOM     20  O   UNL A   1      31.772  27.864  27.947  1.00  0.00    -0.268 OA
BRANCH  19  21
ATOM     21  C   UNL A   1      33.316  29.349  27.172  1.00  0.00     0.040 A 
ATOM     22  C   UNL A   1      34.664  28.993  27.286  1.00  0.00     0.015 A 
ATOM     23  C   UNL A   1      32.912  30.683  27.302  1.00  0.00     0.015 A 
ATOM     24  C   UNL A   1      35.602  29.972  27.625  1.00  0.00     0.021 A 
ATOM     25  C   UNL A   1      33.856  31.658  27.627  1.00  0.00     0.021 A 
ATOM     26  C   UNL A   1      35.192  31.296  27.806  1.00  0.00     0.041 A 
ATOM     27  Cl  UNL A   1      36.340  32.486  28.280  1.00  0.00    -0.084 Cl
ENDBRANCH  19  21
ENDBRANCH  14  19
ENDBRANCH   6   7
ENDBRANCH   4   6
ENDBRANCH   3   4
ENDBRANCH   2   3
ENDBRANCH   1   2
BRANCH   1  28
ATOM     28  O   UNL A   1      36.192  22.371  24.112  1.00  0.00    -0.374 OA
BRANCH  28  29
ATOM     29  C   UNL A   1      36.737  21.587  25.173  1.00  0.00     0.202 C 
BRANCH  29  30
ATOM     30  C   UNL A   1      38.262  21.552  25.385  1.00  0.00     0.261 C 
BRANCH  30  31
ATOM     31  O   UNL A   1      38.709  22.578  26.272  1.00  0.00    -0.460 OA
BRANCH  31  32
ATOM     32  C   UNL A   1      40.046  22.562  26.517  1.00  0.00     0.338 C 
ATOM     33  O   UNL A   1      40.870  21.751  26.139  1.00  0.00    -0.246 OA
BRANCH  32  34
ATOM     34  C   UNL A   1      40.341  23.936  26.948  1.00  0.00     0.060 A 
ATOM     35  C   UNL A   1      41.445  24.182  27.767  1.00  0.00     0.016 A 
ATOM     36  C   UNL A   1      39.284  24.856  26.837  1.00  0.00     0.016 A 
ATOM     37  C   UNL A   1      41.437  25.319  28.558  1.00  0.00     0.010 A 
ATOM     38  C   UNL A   1      39.272  25.983  27.646  1.00  0.00     0.010 A 
ATOM     39  C   UNL A   1      40.329  26.191  28.532  1.00  0.00    -0.014 A 
BRANCH  39  40
ATOM     40  C   UNL A   1      40.461  27.437  29.281  1.00  0.00     0.031 A 
ATOM     41  C   UNL A   1      41.456  28.348  28.655  1.00  0.00     0.074 A 
ATOM     42  C   UNL A   1      39.731  27.843  30.338  1.00  0.00     0.049 A 
ATOM     43  N   UNL A   1      42.577  28.764  29.145  1.00  0.00    -0.248 NA
ATOM     44  C   UNL A   1      41.239  28.706  27.244  1.00  0.00     0.031 C 
ATOM     45  C   UNL A   1      38.528  27.245  30.912  1.00  0.00     0.029 A 
ATOM     46  N   UNL A   1      39.902  28.973  31.087  1.00  0.00    -0.354 N 
ATOM     47  C   UNL A   1      43.146  29.558  28.155  1.00  0.00     0.074 A 
ATOM     48  C   UNL A   1      42.361  29.363  26.965  1.00  0.00     0.031 C 
ATOM     49  C   UNL A   1      37.966  28.121  31.780  1.00  0.00     0.029 A 
ATOM     50  C   UNL A   1      38.831  29.283  31.914  1.00  0.00     0.049 A 
ATOM     51  H   UNL A   1      40.718  29.522  31.044  1.00  0.00     0.167 HD
ATOM     52  C   UNL A   1      44.100  30.482  28.445  1.00  0.00     0.037 A 
ATOM     53  C   UNL A   1      38.652  30.444  32.596  1.00  0.00     0.037 A 
ATOM     54  C   UNL A   1      44.749  30.194  29.695  1.00  0.00     0.049 A 
ATOM     55  C   UNL A   1      39.977  31.102  32.718  1.00  0.00     0.074 A 
ATOM     56  C   UNL A   1      45.505  29.145  30.179  1.00  0.00     0.029 A 
ATOM     57  N   UNL A   1      44.384  30.923  30.799  1.00  0.00    -0.354 N 
ATOM     58  N   UNL A   1      40.953  30.657  33.456  1.00  0.00    -0.248 NA
ATOM     59  C   UNL A   1      40.354  32.066  31.695  1.00  0.00     0.031 C 
ATOM     60  C   UNL A   1      45.151  29.031  31.555  1.00  0.00     0.029 A 
ATOM     61  C   UNL A   1      44.228  30.039  31.834  1.00  0.00     0.049 A 
ATOM     62  H   UNL A   1      44.258  31.899  30.840  1.00  0.00     0.167 HD
ATOM     63  C   UNL A   1      42.098  30.944  32.731  1.00  0.00     0.074 A 
ATOM     64  C   UNL A   1      41.678  31.899  31.712  1.00  0.00     0.031 C 
ATOM     65  C   UNL A   1      43.215  30.171  32.852  1.00  0.00     0.037 A 
BRANCH  52  66
ATOM     66  C   UNL A   1      44.184  31.831  27.772  1.00  0.00     0.064 A 
ATOM     67  C   UNL A   1      45.238  32.082  26.872  1.00  0.00     0.173 A 
ATOM     68  C   UNL A   1      43.465  32.971  28.197  1.00  0.00     0.173 A 
ATOM     69  F   UNL A   1      46.000  31.077  26.415  1.00  0.00    -0.203 F 
ATOM     70  C   UNL A   1      45.597  33.380  26.500  1.00  0.00     0.198 A 
ATOM     71  C   UNL A   1      43.791  34.259  27.779  1.00  0.00     0.198 A 
ATOM     72  F   UNL A   1      42.497  32.908  29.118  1.00  0.00    -0.203 F 
ATOM     73  F   UNL A   1      46.692  33.576  25.753  1.00  0.00    -0.200 F 
ATOM     74  C   UNL A   1      44.878  34.466  26.960  1.00  0.00     0.200 A 
ATOM     75  F   UNL A   1      43.091  35.300  28.250  1.00  0.00    -0.200 F 
ATOM     76  F   UNL A   1      45.261  35.714  26.659  1.00  0.00    -0.200 F 
ENDBRANCH  52  66
BRANCH  53  77
ATOM     77  C   UNL A   1      37.395  31.178  32.885  1.00  0.00     0.064 A 
ATOM     78  C   UNL A   1      37.291  32.028  34.001  1.00  0.00     0.173 A 
ATOM     79  C   UNL A   1      36.383  31.300  31.914  1.00  0.00     0.173 A 
ATOM     80  F   UNL A   1      38.236  32.012  34.953  1.00  0.00    -0.203 F 
ATOM     81  C   UNL A   1      36.261  32.969  34.117  1.00  0.00     0.198 A 
ATOM     82  C   UNL A   1      35.350  32.232  32.035  1.00  0.00     0.198 A 
ATOM     83  F   UNL A   1      36.432  30.590  30.777  1.00  0.00    -0.203 F 
ATOM     84  F   UNL A   1      36.239  33.811  35.159  1.00  0.00    -0.200 F 
ATOM     85  C   UNL A   1      35.298  33.078  33.128  1.00  0.00     0.200 A 
ATOM     86  F   UNL A   1      34.447  32.353  31.052  1.00  0.00    -0.200 F 
ATOM     87  F   UNL A   1      34.352  34.023  33.203  1.00  0.00    -0.200 F 
ENDBRANCH  53  77
BRANCH  65  88
ATOM     88  C   UNL A   1      43.273  29.191  33.988  1.00  0.00     0.064 A 
ATOM     89  C   UNL A   1      43.812  29.489  35.251  1.00  0.00     0.173 A 
ATOM     90  C   UNL A   1      42.607  27.967  33.840  1.00  0.00     0.173 A 
ATOM     91  F   UNL A   1      44.379  30.677  35.498  1.00  0.00    -0.203 F 
ATOM     92  C   UNL A   1      43.712  28.585  36.308  1.00  0.00     0.198 A 
ATOM     93  C   UNL A   1      42.476  27.084  34.907  1.00  0.00     0.198 A 
ATOM     94  F   UNL A   1      42.029  27.654  32.669  1.00  0.00    -0.203 F 
ATOM     95  F   UNL A   1      44.233  28.892  37.505  1.00  0.00    -0.200 F 
ATOM     96  C   UNL A   1      43.034  27.389  36.137  1.00  0.00     0.200 A 
ATOM     97  F   UNL A   1      41.777  25.952  34.751  1.00  0.00    -0.200 F 
ATOM     98  F   UNL A   1      42.888  26.546  37.169  1.00  0.00    -0.200 F 
ENDBRANCH  65  88
ENDBRANCH  39  40
ENDBRANCH  32  34
ENDBRANCH  31  32
ENDBRANCH  30  31
ENDBRANCH  29  30
ENDBRANCH  28  29
ENDBRANCH   1  28
TORSDOF 18
ENDMDL
MODEL 2
REMARK VINA RESULT:     -12.5      3.117      5.560
REMARK SMILES COc1ccc2c(c1)c(CC(=O)OCCOCCOC(=O)c1ccc(-c3c4nc(c(-c5c(F)c(F)c(F)c(F)c5F)c5ccc([nH]5)c(-c5c(F)c(F)c(F)c(F)c5F)c5nc(c(-c6c(F)c(F)c(F)c(F)c6F)c6ccc3[nH]6)C=C5)C=C4)cc1)c(C)n2C(=O)c1ccc(Cl)cc1
REMARK SMILES IDX 15 1 14 2 13 3 11 4 12 5 10 6 9 7 3 8 4 9 8 10 5 11 7 12
REMARK SMILES IDX 6 13 87 14 85 15 86 16 2 17 1 18 88 19 89 20 90 21 91 22
REMARK SMILES IDX 96 23 92 24 95 25 93 26 94 27 16 28 17 29 18 30 19 31 20 32
REMARK SMILES IDX 21 33 22 34 23 35 84 36 24 37 83 38 25 39 26 40 27 41 77 42
REMARK SMILES IDX 28 43 82 44 76 45 78 46 29 47 81 48 75 49 74 50 30 52 62 53
REMARK SMILES IDX 42 54 61 55 43 56 46 57 60 58 79 59 44 60 45 61 59 63 80 64
REMARK SMILES IDX 47 65 31 66 32 67 40 68 33 69 34 70 38 71 41 72 35 73 36 74
REMARK SMILES IDX 39 75 37 76 63 77 64 78 72 79 65 80 66 81 70 82 73 83 67 84
REMARK SMILES IDX 68 85 71 86 69 87 48 88 49 89 57 90 50 91 51 92 55 93 58 94
REMARK SMILES IDX 52 95 53 96 56 97 54 98
REMARK H PARENT 78 51 46 62
REMARK Flexibility Score: inf
ROOT
ATOM      1  C   UNL A   1      41.077  20.515  26.661  1.00  0.00     0.202 C 
ENDROOT
BRANCH   1   2
ATOM      2  C   UNL A   1      40.227  21.697  26.164  1.00  0.00     0.261 C 
BRANCH   2   3
ATOM      3  O   UNL A   1      38.866  21.376  25.823  1.00  0.00    -0.463 OA
BRANCH   3   4
ATOM      4  C   UNL A   1      38.042  22.454  25.731  1.00  0.00     0.310 C 
ATOM      5  O   UNL A   1      38.149  23.460  26.431  1.00  0.00    -0.252 OA
BRANCH   4   6
ATOM      6  C   UNL A   1      36.938  22.364  24.703  1.00  0.00     0.160 C 
BRANCH   6   7
ATOM      7  C   UNL A   1      35.503  22.199  25.135  1.00  0.00    -0.008 A 
ATOM      8  C   UNL A   1      34.078  18.666  24.695  1.00  0.00     0.119 A 
ATOM      9  C   UNL A   1      32.790  18.973  25.086  1.00  0.00     0.048 A 
ATOM     10  C   UNL A   1      35.017  19.697  24.587  1.00  0.00     0.057 A 
ATOM     11  C   UNL A   1      32.441  20.288  25.416  1.00  0.00     0.031 A 
ATOM     12  C   UNL A   1      34.720  21.012  25.020  1.00  0.00     0.008 A 
ATOM     13  C   UNL A   1      33.417  21.310  25.430  1.00  0.00     0.057 A 
ATOM     14  N   UNL A   1      33.358  22.681  25.753  1.00  0.00    -0.280 N 
ATOM     15  C   UNL A   1      34.653  23.207  25.579  1.00  0.00     0.028 A 
ATOM     16  C   UNL A   1      35.051  24.637  25.791  1.00  0.00     0.065 C 
BRANCH   8  17
ATOM     17  O   UNL A   1      34.565  17.415  24.441  1.00  0.00    -0.497 OA
ATOM     18  C   UNL A   1      34.093  16.754  23.270  1.00  0.00     0.278 C 
ENDBRANCH   8  17
BRANCH  14  19
ATOM     19  C   UNL A   1      32.187  23.405  26.140  1.00  0.00     0.262 C 
ATOM     20  O   UNL A   1      31.708  23.236  27.260  1.00  0.00    -0.268 OA
BRANCH  19  21
ATOM     21  C   UNL A   1      31.489  24.406  25.317  1.00  0.00     0.040 A 
ATOM     22  C   UNL A   1      31.539  24.332  23.921  1.00  0.00     0.015 A 
ATOM     23  C   UNL A   1      30.792  25.436  25.958  1.00  0.00     0.015 A 
ATOM     24  C   UNL A   1      30.960  25.354  23.164  1.00  0.00     0.021 A 
ATOM     25  C   UNL A   1      30.205  26.447  25.195  1.00  0.00     0.021 A 
ATOM     26  C   UNL A   1      30.309  26.413  23.803  1.00  0.00     0.041 A 
ATOM     27  Cl  UNL A   1      29.650  27.698  22.868  1.00  0.00    -0.084 Cl
ENDBRANCH  19  21
ENDBRANCH  14  19
ENDBRANCH   6   7
ENDBRANCH   4   6
ENDBRANCH   3   4
ENDBRANCH   2   3
ENDBRANCH   1   2
BRANCH   1  28
ATOM     28  O   UNL A   1      41.439  19.461  25.778  1.00  0.00    -0.374 OA
BRANCH  28  29
ATOM     29  C   UNL A   1      42.628  18.730  26.078  1.00  0.00     0.202 C 
BRANCH  29  30
ATOM     30  C   UNL A   1      43.845  18.843  25.141  1.00  0.00     0.261 C 
BRANCH  30  31
ATOM     31  O   UNL A   1      43.983  20.153  24.590  1.00  0.00    -0.460 OA
BRANCH  31  32
ATOM     32  C   UNL A   1      45.246  20.654  24.647  1.00  0.00     0.338 C 
ATOM     33  O   UNL A   1      46.255  20.211  24.131  1.00  0.00    -0.246 OA
BRANCH  32  34
ATOM     34  C   UNL A   1      45.054  22.045  25.082  1.00  0.00     0.060 A 
ATOM     35  C   UNL A   1      45.846  22.565  26.107  1.00  0.00     0.016 A 
ATOM     36  C   UNL A   1      43.835  22.641  24.715  1.00  0.00     0.016 A 
ATOM     37  C   UNL A   1      45.357  23.636  26.837  1.00  0.00     0.010 A 
ATOM     38  C   UNL A   1      43.341  23.701  25.462  1.00  0.00     0.010 A 
ATOM     39  C   UNL A   1      44.086  24.170  26.545  1.00  0.00    -0.014 A 
BRANCH  39  40
ATOM     40  C   UNL A   1      43.707  25.385  27.260  1.00  0.00     0.031 A 
ATOM     41  C   UNL A   1      44.662  26.495  26.994  1.00  0.00     0.074 A 
ATOM     42  C   UNL A   1      42.594  25.600  27.986  1.00  0.00     0.049 A 
ATOM     43  N   UNL A   1      45.442  27.094  27.833  1.00  0.00    -0.248 NA
ATOM     44  C   UNL A   1      44.883  26.864  25.587  1.00  0.00     0.031 C 
ATOM     45  C   UNL A   1      41.405  24.760  28.121  1.00  0.00     0.029 A 
ATOM     46  N   UNL A   1      42.274  26.709  28.717  1.00  0.00    -0.354 N 
ATOM     47  C   UNL A   1      46.155  28.023  27.081  1.00  0.00     0.074 A 
ATOM     48  C   UNL A   1      45.883  27.734  25.698  1.00  0.00     0.031 C 
ATOM     49  C   UNL A   1      40.420  25.477  28.716  1.00  0.00     0.029 A 
ATOM     50  C   UNL A   1      40.944  26.775  29.112  1.00  0.00     0.049 A 
ATOM     51  H   UNL A   1      42.932  27.404  28.946  1.00  0.00     0.167 HD
ATOM     52  C   UNL A   1      46.752  29.098  27.660  1.00  0.00     0.037 A 
ATOM     53  C   UNL A   1      40.321  27.850  29.658  1.00  0.00     0.037 A 
ATOM     54  C   UNL A   1      46.970  28.886  29.065  1.00  0.00     0.049 A 
ATOM     55  C   UNL A   1      41.368  28.742  30.215  1.00  0.00     0.074 A 
ATOM     56  C   UNL A   1      47.700  27.979  29.809  1.00  0.00     0.029 A 
ATOM     57  N   UNL A   1      46.113  29.484  29.954  1.00  0.00    -0.354 N 
ATOM     58  N   UNL A   1      42.095  28.459  31.258  1.00  0.00    -0.248 NA
ATOM     59  C   UNL A   1      41.882  29.802  29.362  1.00  0.00     0.031 C 
ATOM     60  C   UNL A   1      46.920  27.742  30.979  1.00  0.00     0.029 A 
ATOM     61  C   UNL A   1      45.782  28.544  30.893  1.00  0.00     0.049 A 
ATOM     62  H   UNL A   1      45.796  30.416  29.922  1.00  0.00     0.167 HD
ATOM     63  C   UNL A   1      43.341  28.989  30.970  1.00  0.00     0.074 A 
ATOM     64  C   UNL A   1      43.125  29.890  29.842  1.00  0.00     0.031 C 
ATOM     65  C   UNL A   1      44.474  28.438  31.492  1.00  0.00     0.037 A 
BRANCH  52  66
ATOM     66  C   UNL A   1      46.802  30.466  27.023  1.00  0.00     0.064 A 
ATOM     67  C   UNL A   1      48.025  31.164  26.997  1.00  0.00     0.173 A 
ATOM     68  C   UNL A   1      45.657  31.236  26.717  1.00  0.00     0.173 A 
ATOM     69  F   UNL A   1      49.176  30.538  27.288  1.00  0.00    -0.203 F 
ATOM     70  C   UNL A   1      48.083  32.541  26.771  1.00  0.00     0.198 A 
ATOM     71  C   UNL A   1      45.727  32.598  26.435  1.00  0.00     0.198 A 
ATOM     72  F   UNL A   1      44.417  30.740  26.788  1.00  0.00    -0.203 F 
ATOM     73  F   UNL A   1      49.253  33.184  26.893  1.00  0.00    -0.200 F 
ATOM     74  C   UNL A   1      46.934  33.258  26.498  1.00  0.00     0.200 A 
ATOM     75  F   UNL A   1      44.597  33.277  26.189  1.00  0.00    -0.200 F 
ATOM     76  F   UNL A   1      46.979  34.588  26.347  1.00  0.00    -0.200 F 
ENDBRANCH  52  66
BRANCH  53  77
ATOM     77  C   UNL A   1      38.925  28.320  29.472  1.00  0.00     0.064 A 
ATOM     78  C   UNL A   1      38.091  28.571  30.577  1.00  0.00     0.173 A 
ATOM     79  C   UNL A   1      38.484  28.821  28.233  1.00  0.00     0.173 A 
ATOM     80  F   UNL A   1      38.454  28.169  31.803  1.00  0.00    -0.203 F 
ATOM     81  C   UNL A   1      36.909  29.311  30.454  1.00  0.00     0.198 A 
ATOM     82  C   UNL A   1      37.300  29.552  28.110  1.00  0.00     0.198 A 
ATOM     83  F   UNL A   1      39.242  28.702  27.134  1.00  0.00    -0.203 F 
ATOM     84  F   UNL A   1      36.180  29.593  31.543  1.00  0.00    -0.200 F 
ATOM     85  C   UNL A   1      36.521  29.812  29.223  1.00  0.00     0.200 A 
ATOM     86  F   UNL A   1      36.957  30.063  26.919  1.00  0.00    -0.200 F 
ATOM     87  F   UNL A   1      35.428  30.579  29.115  1.00  0.00    -0.200 F 
ENDBRANCH  53  77
BRANCH  65  88
ATOM     88  C   UNL A   1      44.323  27.439  32.602  1.00  0.00     0.064 A 
ATOM     89  C   UNL A   1      44.103  27.790  33.945  1.00  0.00     0.173 A 
ATOM     90  C   UNL A   1      44.231  26.082  32.264  1.00  0.00     0.173 A 
ATOM     91  F   UNL A   1      44.080  29.073  34.329  1.00  0.00    -0.203 F 
ATOM     92  C   UNL A   1      43.831  26.819  34.908  1.00  0.00     0.198 A 
ATOM     93  C   UNL A   1      43.923  25.120  33.220  1.00  0.00     0.198 A 
ATOM     94  F   UNL A   1      44.382  25.697  30.986  1.00  0.00    -0.203 F 
ATOM     95  F   UNL A   1      43.623  27.178  36.183  1.00  0.00    -0.200 F 
ATOM     96  C   UNL A   1      43.730  25.487  34.542  1.00  0.00     0.200 A 
ATOM     97  F   UNL A   1      43.776  23.840  32.852  1.00  0.00    -0.200 F 
ATOM     98  F   UNL A   1      43.413  24.560  35.457  1.00  0.00    -0.200 F 
ENDBRANCH  65  88
ENDBRANCH  39  40
ENDBRANCH  32  34
ENDBRANCH  31  32
ENDBRANCH  30  31
ENDBRANCH  29  30
ENDBRANCH  28  29
ENDBRANCH   1  28
TORSDOF 18
ENDMDL
MODEL 3
REMARK VINA RESULT:     -12.3      1.769      3.335
REMARK SMILES COc1ccc2c(c1)c(CC(=O)OCCOCCOC(=O)c1ccc(-c3c4nc(c(-c5c(F)c(F)c(F)c(F)c5F)c5ccc([nH]5)c(-c5c(F)c(F)c(F)c(F)c5F)c5nc(c(-c6c(F)c(F)c(F)c(F)c6F)c6ccc3[nH]6)C=C5)C=C4)cc1)c(C)n2C(=O)c1ccc(Cl)cc1
REMARK SMILES IDX 15 1 14 2 13 3 11 4 12 5 10 6 9 7 3 8 4 9 8 10 5 11 7 12
REMARK SMILES IDX 6 13 87 14 85 15 86 16 2 17 1 18 88 19 89 20 90 21 91 22
REMARK SMILES IDX 96 23 92 24 95 25 93 26 94 27 16 28 17 29 18 30 19 31 20 32
REMARK SMILES IDX 21 33 22 34 23 35 84 36 24 37 83 38 25 39 26 40 27 41 77 42
REMARK SMILES IDX 28 43 82 44 76 45 78 46 29 47 81 48 75 49 74 50 30 52 62 53
REMARK SMILES IDX 42 54 61 55 43 56 46 57 60 58 79 59 44 60 45 61 59 63 80 64
REMARK SMILES IDX 47 65 31 66 32 67 40 68 33 69 34 70 38 71 41 72 35 73 36 74
REMARK SMILES IDX 39 75 37 76 63 77 64 78 72 79 65 80 66 81 70 82 73 83 67 84
REMARK SMILES IDX 68 85 71 86 69 87 48 88 49 89 57 90 50 91 51 92 55 93 58 94
REMARK SMILES IDX 52 95 53 96 56 97 54 98
REMARK H PARENT 78 51 46 62
REMARK Flexibility Score: inf
ROOT
ATOM      1  C   UNL A   1      36.089  21.025  25.205  1.00  0.00     0.202 C 
ENDROOT
BRANCH   1   2
ATOM      2  C   UNL A   1      35.195  22.263  25.008  1.00  0.00     0.261 C 
BRANCH   2   3
ATOM      3  O   UNL A   1      35.020  22.685  23.644  1.00  0.00    -0.463 OA
BRANCH   3   4
ATOM      4  C   UNL A   1      34.284  23.820  23.498  1.00  0.00     0.310 C 
ATOM      5  O   UNL A   1      34.364  24.567  22.523  1.00  0.00    -0.252 OA
BRANCH   4   6
ATOM      6  C   UNL A   1      33.335  24.149  24.625  1.00  0.00     0.160 C 
BRANCH   6   7
ATOM      7  C   UNL A   1      32.446  25.366  24.546  1.00  0.00    -0.008 A 
ATOM      8  C   UNL A   1      33.722  28.427  26.470  1.00  0.00     0.119 A 
ATOM      9  C   UNL A   1      32.620  29.225  26.233  1.00  0.00     0.048 A 
ATOM     10  C   UNL A   1      33.705  27.099  26.031  1.00  0.00     0.057 A 
ATOM     11  C   UNL A   1      31.521  28.727  25.523  1.00  0.00     0.031 A 
ATOM     12  C   UNL A   1      32.656  26.606  25.216  1.00  0.00     0.008 A 
ATOM     13  C   UNL A   1      31.551  27.427  24.968  1.00  0.00     0.057 A 
ATOM     14  N   UNL A   1      30.626  26.699  24.192  1.00  0.00    -0.280 N 
ATOM     15  C   UNL A   1      31.201  25.440  23.930  1.00  0.00     0.028 A 
ATOM     16  C   UNL A   1      30.557  24.331  23.153  1.00  0.00     0.065 C 
BRANCH   8  17
ATOM     17  O   UNL A   1      34.888  28.822  27.064  1.00  0.00    -0.497 OA
ATOM     18  C   UNL A   1      34.894  30.088  27.718  1.00  0.00     0.278 C 
ENDBRANCH   8  17
BRANCH  14  19
ATOM     19  C   UNL A   1      29.330  27.147  23.788  1.00  0.00     0.262 C 
ATOM     20  O   UNL A   1      28.335  26.496  24.101  1.00  0.00    -0.268 OA
BRANCH  19  21
ATOM     21  C   UNL A   1      29.046  28.384  23.042  1.00  0.00     0.040 A 
ATOM     22  C   UNL A   1      30.022  28.950  22.215  1.00  0.00     0.015 A 
ATOM     23  C   UNL A   1      27.792  28.986  23.190  1.00  0.00     0.015 A 
ATOM     24  C   UNL A   1      29.767  30.181  21.604  1.00  0.00     0.021 A 
ATOM     25  C   UNL A   1      27.539  30.209  22.566  1.00  0.00     0.021 A 
ATOM     26  C   UNL A   1      28.533  30.810  21.793  1.00  0.00     0.041 A 
ATOM     27  Cl  UNL A   1      28.247  32.352  21.086  1.00  0.00    -0.084 Cl
ENDBRANCH  19  21
ENDBRANCH  14  19
ENDBRANCH   6   7
ENDBRANCH   4   6
ENDBRANCH   3   4
ENDBRANCH   2   3
ENDBRANCH   1   2
BRANCH   1  28
ATOM     28  O   UNL A   1      37.471  21.070  24.879  1.00  0.00    -0.374 OA
BRANCH  28  29
ATOM     29  C   UNL A   1      38.307  21.915  25.670  1.00  0.00     0.202 C 
BRANCH  29  30
ATOM     30  C   UNL A   1      39.682  21.402  26.135  1.00  0.00     0.261 C 
BRANCH  30  31
ATOM     31  O   UNL A   1      40.407  22.388  26.870  1.00  0.00    -0.460 OA
BRANCH  31  32
ATOM     32  C   UNL A   1      41.542  22.819  26.259  1.00  0.00     0.338 C 
ATOM     33  O   UNL A   1      42.166  22.279  25.363  1.00  0.00    -0.246 OA
BRANCH  32  34
ATOM     34  C   UNL A   1      41.603  24.248  26.596  1.00  0.00     0.060 A 
ATOM     35  C   UNL A   1      42.580  24.709  27.481  1.00  0.00     0.016 A 
ATOM     36  C   UNL A   1      40.446  24.995  26.319  1.00  0.00     0.016 A 
ATOM     37  C   UNL A   1      42.340  25.887  28.169  1.00  0.00     0.010 A 
ATOM     38  C   UNL A   1      40.201  26.164  27.026  1.00  0.00     0.010 A 
ATOM     39  C   UNL A   1      41.131  26.586  27.977  1.00  0.00    -0.014 A 
BRANCH  39  40
ATOM     40  C   UNL A   1      41.018  27.888  28.626  1.00  0.00     0.031 A 
ATOM     41  C   UNL A   1      42.087  28.819  28.174  1.00  0.00     0.074 A 
ATOM     42  C   UNL A   1      40.038  28.317  29.445  1.00  0.00     0.049 A 
ATOM     43  N   UNL A   1      43.036  29.344  28.875  1.00  0.00    -0.248 NA
ATOM     44  C   UNL A   1      42.195  29.058  26.726  1.00  0.00     0.031 C 
ATOM     45  C   UNL A   1      38.764  27.680  29.771  1.00  0.00     0.029 A 
ATOM     46  N   UNL A   1      39.969  29.507  30.113  1.00  0.00    -0.354 N 
ATOM     47  C   UNL A   1      43.785  30.103  27.980  1.00  0.00     0.074 A 
ATOM     48  C   UNL A   1      43.317  29.770  26.661  1.00  0.00     0.031 C 
ATOM     49  C   UNL A   1      37.969  28.576  30.405  1.00  0.00     0.029 A 
ATOM     50  C   UNL A   1      38.718  29.802  30.637  1.00  0.00     0.049 A 
ATOM     51  H   UNL A   1      40.743  30.107  30.215  1.00  0.00     0.167 HD
ATOM     52  C   UNL A   1      44.595  31.109  28.405  1.00  0.00     0.037 A 
ATOM     53  C   UNL A   1      38.324  30.993  31.156  1.00  0.00     0.037 A 
ATOM     54  C   UNL A   1      44.940  30.956  29.792  1.00  0.00     0.049 A 
ATOM     55  C   UNL A   1      39.547  31.748  31.527  1.00  0.00     0.074 A 
ATOM     56  C   UNL A   1      45.612  29.998  30.527  1.00  0.00     0.029 A 
ATOM     57  N   UNL A   1      44.287  31.735  30.714  1.00  0.00    -0.354 N 
ATOM     58  N   UNL A   1      40.340  31.425  32.508  1.00  0.00    -0.248 NA
ATOM     59  C   UNL A   1      40.108  32.659  30.542  1.00  0.00     0.031 C 
ATOM     60  C   UNL A   1      44.945  29.960  31.787  1.00  0.00     0.029 A 
ATOM     61  C   UNL A   1      43.934  30.919  31.755  1.00  0.00     0.049 A 
ATOM     62  H   UNL A   1      44.107  32.700  30.640  1.00  0.00     0.167 HD
ATOM     63  C   UNL A   1      41.609  31.738  32.049  1.00  0.00     0.074 A 
ATOM     64  C   UNL A   1      41.397  32.586  30.882  1.00  0.00     0.031 C 
ATOM     65  C   UNL A   1      42.702  31.054  32.494  1.00  0.00     0.037 A 
BRANCH  52  66
ATOM     66  C   UNL A   1      44.770  32.408  27.657  1.00  0.00     0.064 A 
ATOM     67  C   UNL A   1      45.933  32.604  26.889  1.00  0.00     0.173 A 
ATOM     68  C   UNL A   1      44.003  33.570  27.904  1.00  0.00     0.173 A 
ATOM     69  F   UNL A   1      46.747  31.576  26.606  1.00  0.00    -0.203 F 
ATOM     70  C   UNL A   1      46.341  33.876  26.478  1.00  0.00     0.198 A 
ATOM     71  C   UNL A   1      44.384  34.828  27.444  1.00  0.00     0.198 A 
ATOM     72  F   UNL A   1      42.922  33.563  28.692  1.00  0.00    -0.203 F 
ATOM     73  F   UNL A   1      47.525  34.028  25.869  1.00  0.00    -0.200 F 
ATOM     74  C   UNL A   1      45.570  34.986  26.763  1.00  0.00     0.200 A 
ATOM     75  F   UNL A   1      43.629  35.894  27.746  1.00  0.00    -0.200 F 
ATOM     76  F   UNL A   1      45.992  36.213  26.429  1.00  0.00    -0.200 F 
ENDBRANCH  52  66
BRANCH  53  77
ATOM     77  C   UNL A   1      36.999  31.658  31.079  1.00  0.00     0.064 A 
ATOM     78  C   UNL A   1      36.207  31.832  32.229  1.00  0.00     0.173 A 
ATOM     79  C   UNL A   1      36.622  32.402  29.945  1.00  0.00     0.173 A 
ATOM     80  F   UNL A   1      36.520  31.198  33.368  1.00  0.00    -0.203 F 
ATOM     81  C   UNL A   1      35.129  32.726  32.252  1.00  0.00     0.198 A 
ATOM     82  C   UNL A   1      35.542  33.286  29.967  1.00  0.00     0.198 A 
ATOM     83  F   UNL A   1      37.356  32.365  28.824  1.00  0.00    -0.203 F 
ATOM     84  F   UNL A   1      34.446  32.919  33.388  1.00  0.00    -0.200 F 
ATOM     85  C   UNL A   1      34.806  33.461  31.124  1.00  0.00     0.200 A 
ATOM     86  F   UNL A   1      35.263  34.020  28.880  1.00  0.00    -0.200 F 
ATOM     87  F   UNL A   1      33.819  34.367  31.165  1.00  0.00    -0.200 F 
ENDBRANCH  53  77
BRANCH  65  88
ATOM     88  C   UNL A   1      42.536  30.163  33.691  1.00  0.00     0.064 A 
ATOM     89  C   UNL A   1      42.079  28.836  33.620  1.00  0.00     0.173 A 
ATOM     90  C   UNL A   1      43.015  30.619  34.926  1.00  0.00     0.173 A 
ATOM     91  F   UNL A   1      41.695  28.298  32.455  1.00  0.00    -0.203 F 
ATOM     92  C   UNL A   1      42.078  28.014  34.747  1.00  0.00     0.198 A 
ATOM     93  C   UNL A   1      43.048  29.784  36.039  1.00  0.00     0.198 A 
ATOM     94  F   UNL A   1      43.511  31.862  35.037  1.00  0.00    -0.203 F 
ATOM     95  F   UNL A   1      41.639  26.751  34.656  1.00  0.00    -0.200 F 
ATOM     96  C   UNL A   1      42.573  28.486  35.951  1.00  0.00     0.200 A 
ATOM     97  F   UNL A   1      43.574  30.229  37.188  1.00  0.00    -0.200 F 
ATOM     98  F   UNL A   1      42.625  27.679  37.020  1.00  0.00    -0.200 F 
ENDBRANCH  65  88
ENDBRANCH  39  40
ENDBRANCH  32  34
ENDBRANCH  31  32
ENDBRANCH  30  31
ENDBRANCH  29  30
ENDBRANCH  28  29
ENDBRANCH   1  28
TORSDOF 18
ENDMDL
