MODEL 1
REMARK VINA RESULT:     -11.3      0.000      0.000
REMARK SMILES CC(C)c1nc(OCC(=O)OCCOCCOC(=O)c2ccc(-c3c4nc(c(-c5c(F)c(F)c(F)c(F)c5F)c5ccc([nH]5)c(-c5c(F)c(F)c(F)c(F)c5F)c5nc(c(-c6c(F)c(F)c(F)c(F)c6F)c6ccc3[nH]6)C=C5)C=C4)cc2)cc(-c2ccccn2)n1
REMARK SMILES IDX 13 1 12 2 11 3 9 4 10 5 8 6 7 7 6 8 4 9 5 10 91 11 84 12
REMARK SMILES IDX 83 13 2 14 1 15 3 16 85 17 86 18 90 19 87 20 89 21 88 22
REMARK SMILES IDX 14 23 15 24 16 25 17 26 18 27 19 28 20 29 21 30 82 31 22 32
REMARK SMILES IDX 81 33 23 34 24 35 25 36 75 37 26 38 80 39 74 40 76 41 27 42
REMARK SMILES IDX 79 43 73 44 72 45 28 47 60 48 40 49 59 50 41 51 44 52 58 53
REMARK SMILES IDX 77 54 42 55 43 56 57 58 78 59 45 60 29 61 30 62 38 63 31 64
REMARK SMILES IDX 32 65 36 66 39 67 33 68 34 69 37 70 35 71 61 72 62 73 70 74
REMARK SMILES IDX 63 75 64 76 68 77 71 78 65 79 66 80 69 81 67 82 46 83 47 84
REMARK SMILES IDX 55 85 48 86 49 87 53 88 56 89 50 90 51 91 54 92 52 93
REMARK H PARENT 76 46 44 57
REMARK Flexibility Score: inf
ROOT
ATOM      1  C   UNL A   1      32.186  28.975  23.078  1.00  0.00     0.202 C 
ENDROOT
BRANCH   1   2
ATOM      2  C   UNL A   1      32.872  27.797  22.376  1.00  0.00     0.261 C 
BRANCH   2   3
ATOM      3  O   UNL A   1      32.735  26.553  23.102  1.00  0.00    -0.461 OA
BRANCH   3   4
ATOM      4  C   UNL A   1      32.767  25.422  22.341  1.00  0.00     0.344 C 
ATOM      5  O   UNL A   1      33.278  25.351  21.226  1.00  0.00    -0.248 OA
BRANCH   4   6
ATOM      6  C   UNL A   1      32.100  24.206  22.994  1.00  0.00     0.353 C 
BRANCH   6   7
ATOM      7  O   UNL A   1      32.511  22.903  22.650  1.00  0.00    -0.466 OA
BRANCH   7   8
ATOM      8  C   UNL A   1      33.180  22.098  23.521  1.00  0.00     0.217 A 
ATOM      9  C   UNL A   1      35.285  21.841  24.438  1.00  0.00     0.135 A 
ATOM     10  N   UNL A   1      34.392  22.611  23.798  1.00  0.00    -0.198 NA
ATOM     11  N   UNL A   1      35.055  20.557  24.754  1.00  0.00    -0.231 NA
ATOM     12  C   UNL A   1      33.818  20.063  24.517  1.00  0.00     0.096 A 
ATOM     13  C   UNL A   1      32.819  20.828  23.920  1.00  0.00     0.099 A 
BRANCH   9  14
ATOM     14  C   UNL A   1      36.688  22.385  24.644  1.00  0.00     0.051 C 
ATOM     15  C   UNL A   1      36.757  23.487  25.709  1.00  0.00     0.016 C 
ATOM     16  C   UNL A   1      37.677  21.272  25.002  1.00  0.00     0.016 C 
ENDBRANCH   9  14
BRANCH  12  17
ATOM     17  C   UNL A   1      33.664  18.612  24.755  1.00  0.00     0.089 A 
ATOM     18  C   UNL A   1      34.584  17.688  24.252  1.00  0.00     0.030 A 
ATOM     19  N   UNL A   1      32.599  18.210  25.486  1.00  0.00    -0.255 NA
ATOM     20  C   UNL A   1      34.394  16.323  24.444  1.00  0.00     0.004 A 
ATOM     21  C   UNL A   1      32.477  16.879  25.723  1.00  0.00     0.112 A 
ATOM     22  C   UNL A   1      33.322  15.907  25.209  1.00  0.00     0.020 A 
ENDBRANCH  12  17
ENDBRANCH   7   8
ENDBRANCH   6   7
ENDBRANCH   4   6
ENDBRANCH   3   4
ENDBRANCH   2   3
ENDBRANCH   1   2
BRANCH   1  23
ATOM     23  O   UNL A   1      32.516  29.200  24.446  1.00  0.00    -0.374 OA
BRANCH  23  24
ATOM     24  C   UNL A   1      31.537  29.811  25.270  1.00  0.00     0.202 C 
BRANCH  24  25
ATOM     25  C   UNL A   1      32.001  30.714  26.419  1.00  0.00     0.261 C 
BRANCH  25  26
ATOM     26  O   UNL A   1      33.385  30.734  26.662  1.00  0.00    -0.460 OA
BRANCH  26  27
ATOM     27  C   UNL A   1      33.774  31.763  27.431  1.00  0.00     0.338 C 
ATOM     28  O   UNL A   1      33.227  32.837  27.623  1.00  0.00    -0.246 OA
BRANCH  27  29
ATOM     29  C   UNL A   1      34.968  31.286  28.105  1.00  0.00     0.060 A 
ATOM     30  C   UNL A   1      35.005  29.940  28.452  1.00  0.00     0.016 A 
ATOM     31  C   UNL A   1      36.042  32.157  28.333  1.00  0.00     0.016 A 
ATOM     32  C   UNL A   1      36.123  29.462  29.102  1.00  0.00     0.010 A 
ATOM     33  C   UNL A   1      37.171  31.672  28.970  1.00  0.00     0.010 A 
ATOM     34  C   UNL A   1      37.184  30.337  29.390  1.00  0.00    -0.014 A 
BRANCH  34  35
ATOM     35  C   UNL A   1      38.243  29.851  30.280  1.00  0.00     0.031 A 
ATOM     36  C   UNL A   1      39.274  28.929  29.710  1.00  0.00     0.074 A 
ATOM     37  C   UNL A   1      38.309  30.336  31.528  1.00  0.00     0.049 A 
ATOM     38  N   UNL A   1      40.385  28.505  30.245  1.00  0.00    -0.248 NA
ATOM     39  C   UNL A   1      39.025  28.422  28.348  1.00  0.00     0.031 C 
ATOM     40  C   UNL A   1      37.333  31.246  32.129  1.00  0.00     0.029 A 
ATOM     41  N   UNL A   1      39.254  30.160  32.497  1.00  0.00    -0.354 N 
ATOM     42  C   UNL A   1      40.973  27.695  29.285  1.00  0.00     0.074 A 
ATOM     43  C   UNL A   1      40.077  27.643  28.152  1.00  0.00     0.031 C 
ATOM     44  C   UNL A   1      37.748  31.573  33.363  1.00  0.00     0.029 A 
ATOM     45  C   UNL A   1      39.005  30.883  33.635  1.00  0.00     0.049 A 
ATOM     46  H   UNL A   1      40.037  29.572  32.390  1.00  0.00     0.167 HD
ATOM     47  C   UNL A   1      42.170  27.070  29.348  1.00  0.00     0.037 A 
ATOM     48  C   UNL A   1      39.733  30.975  34.760  1.00  0.00     0.037 A 
ATOM     49  C   UNL A   1      43.032  27.138  30.496  1.00  0.00     0.049 A 
ATOM     50  C   UNL A   1      41.047  30.245  34.811  1.00  0.00     0.074 A 
ATOM     51  C   UNL A   1      44.266  26.550  30.691  1.00  0.00     0.029 A 
ATOM     52  N   UNL A   1      42.733  27.844  31.656  1.00  0.00    -0.354 N 
ATOM     53  N   UNL A   1      41.621  29.507  33.889  1.00  0.00    -0.248 NA
ATOM     54  C   UNL A   1      41.820  30.370  36.050  1.00  0.00     0.031 C 
ATOM     55  C   UNL A   1      44.693  26.862  31.987  1.00  0.00     0.029 A 
ATOM     56  C   UNL A   1      43.750  27.690  32.580  1.00  0.00     0.049 A 
ATOM     57  H   UNL A   1      41.917  28.376  31.798  1.00  0.00     0.167 HD
ATOM     58  C   UNL A   1      42.831  29.096  34.425  1.00  0.00     0.074 A 
ATOM     59  C   UNL A   1      42.917  29.691  35.746  1.00  0.00     0.031 C 
ATOM     60  C   UNL A   1      43.787  28.297  33.887  1.00  0.00     0.037 A 
BRANCH  47  61
ATOM     61  C   UNL A   1      42.585  26.252  28.161  1.00  0.00     0.064 A 
ATOM     62  C   UNL A   1      42.280  24.885  28.062  1.00  0.00     0.173 A 
ATOM     63  C   UNL A   1      43.301  26.840  27.108  1.00  0.00     0.173 A 
ATOM     64  F   UNL A   1      41.619  24.267  29.054  1.00  0.00    -0.203 F 
ATOM     65  C   UNL A   1      42.695  24.135  26.965  1.00  0.00     0.198 A 
ATOM     66  C   UNL A   1      43.691  26.093  26.000  1.00  0.00     0.198 A 
ATOM     67  F   UNL A   1      43.627  28.140  27.157  1.00  0.00    -0.203 F 
ATOM     68  F   UNL A   1      42.436  22.820  26.916  1.00  0.00    -0.200 F 
ATOM     69  C   UNL A   1      43.393  24.741  25.931  1.00  0.00     0.200 A 
ATOM     70  F   UNL A   1      44.361  26.682  25.000  1.00  0.00    -0.200 F 
ATOM     71  F   UNL A   1      43.790  24.018  24.874  1.00  0.00    -0.200 F 
ENDBRANCH  47  61
BRANCH  48  72
ATOM     72  C   UNL A   1      39.245  31.802  35.891  1.00  0.00     0.064 A 
ATOM     73  C   UNL A   1      39.721  33.104  36.101  1.00  0.00     0.173 A 
ATOM     74  C   UNL A   1      38.275  31.311  36.779  1.00  0.00     0.173 A 
ATOM     75  F   UNL A   1      40.656  33.614  35.286  1.00  0.00    -0.203 F 
ATOM     76  C   UNL A   1      39.260  33.874  37.167  1.00  0.00     0.198 A 
ATOM     77  C   UNL A   1      37.794  32.094  37.826  1.00  0.00     0.198 A 
ATOM     78  F   UNL A   1      37.779  30.076  36.615  1.00  0.00    -0.203 F 
ATOM     79  F   UNL A   1      39.760  35.101  37.369  1.00  0.00    -0.200 F 
ATOM     80  C   UNL A   1      38.294  33.371  38.025  1.00  0.00     0.200 A 
ATOM     81  F   UNL A   1      36.847  31.610  38.641  1.00  0.00    -0.200 F 
ATOM     82  F   UNL A   1      37.846  34.116  39.045  1.00  0.00    -0.200 F 
ENDBRANCH  48  72
BRANCH  60  83
ATOM     83  C   UNL A   1      45.002  28.047  34.729  1.00  0.00     0.064 A 
ATOM     84  C   UNL A   1      46.113  28.902  34.683  1.00  0.00     0.173 A 
ATOM     85  C   UNL A   1      45.046  26.951  35.603  1.00  0.00     0.173 A 
ATOM     86  F   UNL A   1      46.122  29.955  33.852  1.00  0.00    -0.203 F 
ATOM     87  C   UNL A   1      47.243  28.643  35.454  1.00  0.00     0.198 A 
ATOM     88  C   UNL A   1      46.163  26.716  36.397  1.00  0.00     0.198 A 
ATOM     89  F   UNL A   1      44.003  26.112  35.689  1.00  0.00    -0.203 F 
ATOM     90  F   UNL A   1      48.318  29.436  35.347  1.00  0.00    -0.200 F 
ATOM     91  C   UNL A   1      47.265  27.555  36.313  1.00  0.00     0.200 A 
ATOM     92  F   UNL A   1      46.178  25.674  37.238  1.00  0.00    -0.200 F 
ATOM     93  F   UNL A   1      48.353  27.307  37.054  1.00  0.00    -0.200 F 
ENDBRANCH  60  83
ENDBRANCH  34  35
ENDBRANCH  27  29
ENDBRANCH  26  27
ENDBRANCH  25  26
ENDBRANCH  24  25
ENDBRANCH  23  24
ENDBRANCH   1  23
TORSDOF 18
ENDMDL
MODEL 2
REMARK VINA RESULT:     -11.3      0.663      7.318
REMARK SMILES CC(C)c1nc(OCC(=O)OCCOCCOC(=O)c2ccc(-c3c4nc(c(-c5c(F)c(F)c(F)c(F)c5F)c5ccc([nH]5)c(-c5c(F)c(F)c(F)c(F)c5F)c5nc(c(-c6c(F)c(F)c(F)c(F)c6F)c6ccc3[nH]6)C=C5)C=C4)cc2)cc(-c2ccccn2)n1
REMARK SMILES IDX 13 1 12 2 11 3 9 4 10 5 8 6 7 7 6 8 4 9 5 10 91 11 84 12
REMARK SMILES IDX 83 13 2 14 1 15 3 16 85 17 86 18 90 19 87 20 89 21 88 22
REMARK SMILES IDX 14 23 15 24 16 25 17 26 18 27 19 28 20 29 21 30 82 31 22 32
REMARK SMILES IDX 81 33 23 34 24 35 25 36 75 37 26 38 80 39 74 40 76 41 27 42
REMARK SMILES IDX 79 43 73 44 72 45 28 47 60 48 40 49 59 50 41 51 44 52 58 53
REMARK SMILES IDX 77 54 42 55 43 56 57 58 78 59 45 60 29 61 30 62 38 63 31 64
REMARK SMILES IDX 32 65 36 66 39 67 33 68 34 69 37 70 35 71 61 72 62 73 70 74
REMARK SMILES IDX 63 75 64 76 68 77 71 78 65 79 66 80 69 81 67 82 46 83 47 84
REMARK SMILES IDX 55 85 48 86 49 87 53 88 56 89 50 90 51 91 54 92 52 93
REMARK H PARENT 76 46 44 57
REMARK Flexibility Score: inf
ROOT
ATOM      1  C   UNL A   1      32.149  28.974  23.090  1.00  0.00     0.202 C 
ENDROOT
BRANCH   1   2
ATOM      2  C   UNL A   1      32.817  27.800  22.364  1.00  0.00     0.261 C 
BRANCH   2   3
ATOM      3  O   UNL A   1      32.681  26.548  23.077  1.00  0.00    -0.461 OA
BRANCH   3   4
ATOM      4  C   UNL A   1      32.785  25.423  22.314  1.00  0.00     0.344 C 
ATOM      5  O   UNL A   1      33.326  25.380  21.212  1.00  0.00    -0.248 OA
BRANCH   4   6
ATOM      6  C   UNL A   1      32.157  24.175  22.946  1.00  0.00     0.353 C 
BRANCH   6   7
ATOM      7  O   UNL A   1      32.626  22.893  22.597  1.00  0.00    -0.466 OA
BRANCH   7   8
ATOM      8  C   UNL A   1      33.266  22.085  23.489  1.00  0.00     0.217 A 
ATOM      9  C   UNL A   1      35.346  21.812  24.457  1.00  0.00     0.135 A 
ATOM     10  N   UNL A   1      34.476  22.588  23.792  1.00  0.00    -0.198 NA
ATOM     11  N   UNL A   1      35.095  20.532  24.775  1.00  0.00    -0.231 NA
ATOM     12  C   UNL A   1      33.858  20.050  24.511  1.00  0.00     0.096 A 
ATOM     13  C   UNL A   1      32.882  20.822  23.887  1.00  0.00     0.099 A 
BRANCH   9  14
ATOM     14  C   UNL A   1      36.749  22.343  24.693  1.00  0.00     0.051 C 
ATOM     15  C   UNL A   1      36.800  23.476  25.725  1.00  0.00     0.016 C 
ATOM     16  C   UNL A   1      37.708  21.227  25.119  1.00  0.00     0.016 C 
ENDBRANCH   9  14
BRANCH  12  17
ATOM     17  C   UNL A   1      33.683  18.602  24.753  1.00  0.00     0.089 A 
ATOM     18  C   UNL A   1      34.668  17.677  24.395  1.00  0.00     0.030 A 
ATOM     19  N   UNL A   1      32.532  18.204  25.343  1.00  0.00    -0.255 NA
ATOM     20  C   UNL A   1      34.463  16.315  24.585  1.00  0.00     0.004 A 
ATOM     21  C   UNL A   1      32.388  16.876  25.586  1.00  0.00     0.112 A 
ATOM     22  C   UNL A   1      33.301  15.903  25.208  1.00  0.00     0.020 A 
ENDBRANCH  12  17
ENDBRANCH   7   8
ENDBRANCH   6   7
ENDBRANCH   4   6
ENDBRANCH   3   4
ENDBRANCH   2   3
ENDBRANCH   1   2
BRANCH   1  23
ATOM     23  O   UNL A   1      32.498  29.178  24.457  1.00  0.00    -0.374 OA
BRANCH  23  24
ATOM     24  C   UNL A   1      31.504  29.703  25.321  1.00  0.00     0.202 C 
BRANCH  24  25
ATOM     25  C   UNL A   1      31.931  30.661  26.439  1.00  0.00     0.261 C 
BRANCH  25  26
ATOM     26  O   UNL A   1      33.314  30.749  26.675  1.00  0.00    -0.460 OA
BRANCH  26  27
ATOM     27  C   UNL A   1      33.676  31.887  27.289  1.00  0.00     0.338 C 
ATOM     28  O   UNL A   1      33.139  32.982  27.269  1.00  0.00    -0.246 OA
BRANCH  27  29
ATOM     29  C   UNL A   1      34.818  31.515  28.104  1.00  0.00     0.060 A 
ATOM     30  C   UNL A   1      35.807  32.477  28.286  1.00  0.00     0.016 A 
ATOM     31  C   UNL A   1      34.868  30.253  28.712  1.00  0.00     0.016 A 
ATOM     32  C   UNL A   1      36.907  32.147  29.048  1.00  0.00     0.010 A 
ATOM     33  C   UNL A   1      35.965  29.930  29.490  1.00  0.00     0.010 A 
ATOM     34  C   UNL A   1      37.000  30.866  29.615  1.00  0.00    -0.014 A 
BRANCH  34  35
ATOM     35  C   UNL A   1      38.280  30.478  30.216  1.00  0.00     0.031 A 
ATOM     36  C   UNL A   1      38.564  30.922  31.615  1.00  0.00     0.074 A 
ATOM     37  C   UNL A   1      39.088  29.655  29.534  1.00  0.00     0.049 A 
ATOM     38  N   UNL A   1      39.537  30.572  32.409  1.00  0.00    -0.248 NA
ATOM     39  C   UNL A   1      37.618  31.887  32.207  1.00  0.00     0.031 C 
ATOM     40  C   UNL A   1      38.852  29.185  28.169  1.00  0.00     0.029 A 
ATOM     41  N   UNL A   1      40.249  29.043  29.911  1.00  0.00    -0.354 N 
ATOM     42  C   UNL A   1      39.316  31.259  33.593  1.00  0.00     0.074 A 
ATOM     43  C   UNL A   1      38.146  32.086  33.404  1.00  0.00     0.031 C 
ATOM     44  C   UNL A   1      39.829  28.329  27.830  1.00  0.00     0.029 A 
ATOM     45  C   UNL A   1      40.759  28.209  28.949  1.00  0.00     0.049 A 
ATOM     46  H   UNL A   1      40.678  29.186  30.785  1.00  0.00     0.167 HD
ATOM     47  C   UNL A   1      40.024  31.181  34.742  1.00  0.00     0.037 A 
ATOM     48  C   UNL A   1      41.854  27.433  28.991  1.00  0.00     0.037 A 
ATOM     49  C   UNL A   1      41.189  30.352  34.891  1.00  0.00     0.049 A 
ATOM     50  C   UNL A   1      42.639  27.388  30.273  1.00  0.00     0.074 A 
ATOM     51  C   UNL A   1      41.999  30.184  35.997  1.00  0.00     0.029 A 
ATOM     52  N   UNL A   1      41.710  29.549  33.883  1.00  0.00    -0.354 N 
ATOM     53  N   UNL A   1      42.409  28.011  31.406  1.00  0.00    -0.248 NA
ATOM     54  C   UNL A   1      43.823  26.526  30.288  1.00  0.00     0.031 C 
ATOM     55  C   UNL A   1      43.038  29.316  35.643  1.00  0.00     0.029 A 
ATOM     56  C   UNL A   1      42.845  28.899  34.334  1.00  0.00     0.049 A 
ATOM     57  H   UNL A   1      41.328  29.457  32.981  1.00  0.00     0.167 HD
ATOM     58  C   UNL A   1      43.406  27.602  32.277  1.00  0.00     0.074 A 
ATOM     59  C   UNL A   1      44.228  26.655  31.544  1.00  0.00     0.031 C 
ATOM     60  C   UNL A   1      43.635  27.971  33.563  1.00  0.00     0.037 A 
BRANCH  47  61
ATOM     61  C   UNL A   1      39.570  32.028  35.893  1.00  0.00     0.064 A 
ATOM     62  C   UNL A   1      40.132  33.289  36.150  1.00  0.00     0.173 A 
ATOM     63  C   UNL A   1      38.560  31.575  36.754  1.00  0.00     0.173 A 
ATOM     64  F   UNL A   1      41.119  33.760  35.373  1.00  0.00    -0.203 F 
ATOM     65  C   UNL A   1      39.715  34.052  37.239  1.00  0.00     0.198 A 
ATOM     66  C   UNL A   1      38.126  32.352  37.825  1.00  0.00     0.198 A 
ATOM     67  F   UNL A   1      37.996  30.374  36.559  1.00  0.00    -0.203 F 
ATOM     68  F   UNL A   1      40.301  35.230  37.494  1.00  0.00    -0.200 F 
ATOM     69  C   UNL A   1      38.708  33.586  38.070  1.00  0.00     0.200 A 
ATOM     70  F   UNL A   1      37.149  31.901  38.624  1.00  0.00    -0.200 F 
ATOM     71  F   UNL A   1      38.306  34.322  39.116  1.00  0.00    -0.200 F 
ENDBRANCH  47  61
BRANCH  48  72
ATOM     72  C   UNL A   1      42.237  26.629  27.803  1.00  0.00     0.064 A 
ATOM     73  C   UNL A   1      43.208  27.083  26.899  1.00  0.00     0.173 A 
ATOM     74  C   UNL A   1      41.652  25.377  27.558  1.00  0.00     0.173 A 
ATOM     75  F   UNL A   1      43.789  28.277  27.084  1.00  0.00    -0.203 F 
ATOM     76  C   UNL A   1      43.562  26.324  25.785  1.00  0.00     0.198 A 
ATOM     77  C   UNL A   1      42.029  24.608  26.460  1.00  0.00     0.198 A 
ATOM     78  F   UNL A   1      40.727  24.893  28.399  1.00  0.00    -0.203 F 
ATOM     79  F   UNL A   1      44.464  26.798  24.914  1.00  0.00    -0.200 F 
ATOM     80  C   UNL A   1      42.977  25.086  25.569  1.00  0.00     0.200 A 
ATOM     81  F   UNL A   1      41.474  23.404  26.267  1.00  0.00    -0.200 F 
ATOM     82  F   UNL A   1      43.324  24.354  24.501  1.00  0.00    -0.200 F 
ENDBRANCH  48  72
BRANCH  60  83
ATOM     83  C   UNL A   1      44.806  27.331  34.245  1.00  0.00     0.064 A 
ATOM     84  C   UNL A   1      46.075  27.927  34.234  1.00  0.00     0.173 A 
ATOM     85  C   UNL A   1      44.650  26.118  34.931  1.00  0.00     0.173 A 
ATOM     86  F   UNL A   1      46.275  29.081  33.579  1.00  0.00    -0.203 F 
ATOM     87  C   UNL A   1      47.158  27.309  34.853  1.00  0.00     0.198 A 
ATOM     88  C   UNL A   1      45.727  25.520  35.577  1.00  0.00     0.198 A 
ATOM     89  F   UNL A   1      43.453  25.515  34.978  1.00  0.00    -0.203 F 
ATOM     90  F   UNL A   1      48.376  27.863  34.775  1.00  0.00    -0.200 F 
ATOM     91  C   UNL A   1      46.982  26.110  35.526  1.00  0.00     0.200 A 
ATOM     92  F   UNL A   1      45.554  24.370  36.242  1.00  0.00    -0.200 F 
ATOM     93  F   UNL A   1      48.026  25.515  36.121  1.00  0.00    -0.200 F 
ENDBRANCH  60  83
ENDBRANCH  34  35
ENDBRANCH  27  29
ENDBRANCH  26  27
ENDBRANCH  25  26
ENDBRANCH  24  25
ENDBRANCH  23  24
ENDBRANCH   1  23
TORSDOF 18
ENDMDL
MODEL 3
REMARK VINA RESULT:     -11.3      1.604      7.520
REMARK SMILES CC(C)c1nc(OCC(=O)OCCOCCOC(=O)c2ccc(-c3c4nc(c(-c5c(F)c(F)c(F)c(F)c5F)c5ccc([nH]5)c(-c5c(F)c(F)c(F)c(F)c5F)c5nc(c(-c6c(F)c(F)c(F)c(F)c6F)c6ccc3[nH]6)C=C5)C=C4)cc2)cc(-c2ccccn2)n1
REMARK SMILES IDX 13 1 12 2 11 3 9 4 10 5 8 6 7 7 6 8 4 9 5 10 91 11 84 12
REMARK SMILES IDX 83 13 2 14 1 15 3 16 85 17 86 18 90 19 87 20 89 21 88 22
REMARK SMILES IDX 14 23 15 24 16 25 17 26 18 27 19 28 20 29 21 30 82 31 22 32
REMARK SMILES IDX 81 33 23 34 24 35 25 36 75 37 26 38 80 39 74 40 76 41 27 42
REMARK SMILES IDX 79 43 73 44 72 45 28 47 60 48 40 49 59 50 41 51 44 52 58 53
REMARK SMILES IDX 77 54 42 55 43 56 57 58 78 59 45 60 29 61 30 62 38 63 31 64
REMARK SMILES IDX 32 65 36 66 39 67 33 68 34 69 37 70 35 71 61 72 62 73 70 74
REMARK SMILES IDX 63 75 64 76 68 77 71 78 65 79 66 80 69 81 67 82 46 83 47 84
REMARK SMILES IDX 55 85 48 86 49 87 53 88 56 89 50 90 51 91 54 92 52 93
REMARK H PARENT 76 46 44 57
REMARK Flexibility Score: inf
ROOT
ATOM      1  C   UNL A   1      33.287  28.949  23.173  1.00  0.00     0.202 C 
ENDROOT
BRANCH   1   2
ATOM      2  C   UNL A   1      33.508  27.684  22.334  1.00  0.00     0.261 C 
BRANCH   2   3
ATOM      3  O   UNL A   1      32.893  26.510  22.916  1.00  0.00    -0.461 OA
BRANCH   3   4
ATOM      4  C   UNL A   1      32.825  25.418  22.102  1.00  0.00     0.344 C 
ATOM      5  O   UNL A   1      33.262  25.380  20.955  1.00  0.00    -0.248 OA
BRANCH   4   6
ATOM      6  C   UNL A   1      32.142  24.202  22.739  1.00  0.00     0.353 C 
BRANCH   6   7
ATOM      7  O   UNL A   1      32.619  22.903  22.473  1.00  0.00    -0.466 OA
BRANCH   7   8
ATOM      8  C   UNL A   1      33.059  22.074  23.460  1.00  0.00     0.217 A 
ATOM      9  C   UNL A   1      34.828  21.850  24.928  1.00  0.00     0.135 A 
ATOM     10  N   UNL A   1      34.110  22.620  24.097  1.00  0.00    -0.198 NA
ATOM     11  N   UNL A   1      34.594  20.539  25.104  1.00  0.00    -0.231 NA
ATOM     12  C   UNL A   1      33.505  20.010  24.499  1.00  0.00     0.096 A 
ATOM     13  C   UNL A   1      32.674  20.768  23.678  1.00  0.00     0.099 A 
BRANCH   9  14
ATOM     14  C   UNL A   1      36.081  22.438  25.554  1.00  0.00     0.051 C 
ATOM     15  C   UNL A   1      37.370  21.764  25.070  1.00  0.00     0.016 C 
ATOM     16  C   UNL A   1      36.176  23.947  25.311  1.00  0.00     0.016 C 
ENDBRANCH   9  14
BRANCH  12  17
ATOM     17  C   UNL A   1      33.375  18.541  24.613  1.00  0.00     0.089 A 
ATOM     18  C   UNL A   1      34.098  17.677  23.785  1.00  0.00     0.030 A 
ATOM     19  N   UNL A   1      32.532  18.062  25.557  1.00  0.00    -0.255 NA
ATOM     20  C   UNL A   1      33.923  16.300  23.874  1.00  0.00     0.004 A 
ATOM     21  C   UNL A   1      32.436  16.713  25.674  1.00  0.00     0.112 A 
ATOM     22  C   UNL A   1      33.082  15.803  24.851  1.00  0.00     0.020 A 
ENDBRANCH  12  17
ENDBRANCH   7   8
ENDBRANCH   6   7
ENDBRANCH   4   6
ENDBRANCH   3   4
ENDBRANCH   2   3
ENDBRANCH   1   2
BRANCH   1  23
ATOM     23  O   UNL A   1      33.305  28.802  24.590  1.00  0.00    -0.374 OA
BRANCH  23  24
ATOM     24  C   UNL A   1      32.347  29.529  25.342  1.00  0.00     0.202 C 
BRANCH  24  25
ATOM     25  C   UNL A   1      32.822  30.334  26.557  1.00  0.00     0.261 C 
BRANCH  25  26
ATOM     26  O   UNL A   1      34.076  29.973  27.079  1.00  0.00    -0.460 OA
BRANCH  26  27
ATOM     27  C   UNL A   1      34.598  30.903  27.894  1.00  0.00     0.338 C 
ATOM     28  O   UNL A   1      34.100  31.935  28.312  1.00  0.00    -0.246 OA
BRANCH  27  29
ATOM     29  C   UNL A   1      35.889  30.364  28.284  1.00  0.00     0.060 A 
ATOM     30  C   UNL A   1      35.949  29.672  29.490  1.00  0.00     0.016 A 
ATOM     31  C   UNL A   1      36.996  30.505  27.436  1.00  0.00     0.016 A 
ATOM     32  C   UNL A   1      37.164  29.158  29.889  1.00  0.00     0.010 A 
ATOM     33  C   UNL A   1      38.210  29.973  27.830  1.00  0.00     0.010 A 
ATOM     34  C   UNL A   1      38.295  29.342  29.078  1.00  0.00    -0.014 A 
BRANCH  34  35
ATOM     35  C   UNL A   1      39.602  28.989  29.641  1.00  0.00     0.031 A 
ATOM     36  C   UNL A   1      40.051  29.699  30.878  1.00  0.00     0.074 A 
ATOM     37  C   UNL A   1      40.285  27.973  29.095  1.00  0.00     0.049 A 
ATOM     38  N   UNL A   1      41.075  29.449  31.646  1.00  0.00    -0.248 NA
ATOM     39  C   UNL A   1      39.231  30.844  31.316  1.00  0.00     0.031 C 
ATOM     40  C   UNL A   1      39.885  27.240  27.893  1.00  0.00     0.029 A 
ATOM     41  N   UNL A   1      41.437  27.363  29.500  1.00  0.00    -0.354 N 
ATOM     42  C   UNL A   1      41.016  30.392  32.661  1.00  0.00     0.074 A 
ATOM     43  C   UNL A   1      39.887  31.252  32.390  1.00  0.00     0.031 C 
ATOM     44  C   UNL A   1      40.768  26.254  27.673  1.00  0.00     0.029 A 
ATOM     45  C   UNL A   1      41.795  26.301  28.709  1.00  0.00     0.049 A 
ATOM     46  H   UNL A   1      41.959  27.655  30.282  1.00  0.00     0.167 HD
ATOM     47  C   UNL A   1      41.828  30.505  33.736  1.00  0.00     0.037 A 
ATOM     48  C   UNL A   1      42.837  25.464  28.832  1.00  0.00     0.037 A 
ATOM     49  C   UNL A   1      42.948  29.633  33.968  1.00  0.00     0.049 A 
ATOM     50  C   UNL A   1      43.742  25.632  30.022  1.00  0.00     0.074 A 
ATOM     51  C   UNL A   1      43.852  29.642  35.012  1.00  0.00     0.029 A 
ATOM     52  N   UNL A   1      43.315  28.591  33.124  1.00  0.00    -0.354 N 
ATOM     53  N   UNL A   1      43.665  26.502  31.003  1.00  0.00    -0.248 NA
ATOM     54  C   UNL A   1      44.866  24.698  30.131  1.00  0.00     0.031 C 
ATOM     55  C   UNL A   1      44.794  28.634  34.776  1.00  0.00     0.029 A 
ATOM     56  C   UNL A   1      44.446  27.962  33.613  1.00  0.00     0.049 A 
ATOM     57  H   UNL A   1      42.840  28.338  32.300  1.00  0.00     0.167 HD
ATOM     58  C   UNL A   1      44.717  26.209  31.857  1.00  0.00     0.074 A 
ATOM     59  C   UNL A   1      45.400  25.062  31.288  1.00  0.00     0.031 C 
ATOM     60  C   UNL A   1      45.095  26.827  33.005  1.00  0.00     0.037 A 
BRANCH  47  61
ATOM     61  C   UNL A   1      41.545  31.615  34.703  1.00  0.00     0.064 A 
ATOM     62  C   UNL A   1      40.595  31.479  35.728  1.00  0.00     0.173 A 
ATOM     63  C   UNL A   1      42.229  32.835  34.603  1.00  0.00     0.173 A 
ATOM     64  F   UNL A   1      39.893  30.342  35.852  1.00  0.00    -0.203 F 
ATOM     65  C   UNL A   1      40.326  32.531  36.601  1.00  0.00     0.198 A 
ATOM     66  C   UNL A   1      41.978  33.875  35.495  1.00  0.00     0.198 A 
ATOM     67  F   UNL A   1      43.140  33.022  33.637  1.00  0.00    -0.203 F 
ATOM     68  F   UNL A   1      39.379  32.395  37.540  1.00  0.00    -0.200 F 
ATOM     69  C   UNL A   1      41.023  33.724  36.489  1.00  0.00     0.200 A 
ATOM     70  F   UNL A   1      42.656  35.026  35.388  1.00  0.00    -0.200 F 
ATOM     71  F   UNL A   1      40.765  34.734  37.332  1.00  0.00    -0.200 F 
ENDBRANCH  47  61
BRANCH  48  72
ATOM     72  C   UNL A   1      43.050  24.394  27.825  1.00  0.00     0.064 A 
ATOM     73  C   UNL A   1      42.553  23.098  28.022  1.00  0.00     0.173 A 
ATOM     74  C   UNL A   1      43.741  24.653  26.631  1.00  0.00     0.173 A 
ATOM     75  F   UNL A   1      41.895  22.798  29.152  1.00  0.00    -0.203 F 
ATOM     76  C   UNL A   1      42.758  22.098  27.074  1.00  0.00     0.198 A 
ATOM     77  C   UNL A   1      43.919  23.660  25.671  1.00  0.00     0.198 A 
ATOM     78  F   UNL A   1      44.226  25.879  26.389  1.00  0.00    -0.203 F 
ATOM     79  F   UNL A   1      42.308  20.857  27.305  1.00  0.00    -0.200 F 
ATOM     80  C   UNL A   1      43.436  22.380  25.897  1.00  0.00     0.200 A 
ATOM     81  F   UNL A   1      44.558  23.943  24.528  1.00  0.00    -0.200 F 
ATOM     82  F   UNL A   1      43.626  21.420  24.983  1.00  0.00    -0.200 F 
ENDBRANCH  48  72
BRANCH  60  83
ATOM     83  C   UNL A   1      46.286  26.254  33.713  1.00  0.00     0.064 A 
ATOM     84  C   UNL A   1      46.151  25.238  34.669  1.00  0.00     0.173 A 
ATOM     85  C   UNL A   1      47.576  26.716  33.416  1.00  0.00     0.173 A 
ATOM     86  F   UNL A   1      44.934  24.774  34.995  1.00  0.00    -0.203 F 
ATOM     87  C   UNL A   1      47.264  24.732  35.334  1.00  0.00     0.198 A 
ATOM     88  C   UNL A   1      48.690  26.184  34.058  1.00  0.00     0.198 A 
ATOM     89  F   UNL A   1      47.757  27.680  32.500  1.00  0.00    -0.203 F 
ATOM     90  F   UNL A   1      47.106  23.807  36.290  1.00  0.00    -0.200 F 
ATOM     91  C   UNL A   1      48.531  25.202  35.024  1.00  0.00     0.200 A 
ATOM     92  F   UNL A   1      49.915  26.626  33.747  1.00  0.00    -0.200 F 
ATOM     93  F   UNL A   1      49.602  24.714  35.666  1.00  0.00    -0.200 F 
ENDBRANCH  60  83
ENDBRANCH  34  35
ENDBRANCH  27  29
ENDBRANCH  26  27
ENDBRANCH  25  26
ENDBRANCH  24  25
ENDBRANCH  23  24
ENDBRANCH   1  23
TORSDOF 18
ENDMDL
