MODEL 1
REMARK VINA RESULT:     -12.4      0.000      0.000
REMARK SMILES Cc1nn(C)cc1-c1cc(C(F)(F)F)c2c(C)nn(CC(=O)OCCOCCOC(=O)c3ccc(-c4c5nc(c(-c6c(F)c(F)c(F)c(F)c6F)c6ccc([nH]6)c(-c6c(F)c(F)c(F)c(F)c6F)c6nc(c(-c7c(F)c(F)c(F)c(F)c7F)c7ccc4[nH]7)C=C6)C=C5)cc3)c2n1
REMARK SMILES IDX 26 1 25 2 24 3 23 4 21 5 22 6 20 7 19 8 8 9 9 10 96 11 10 12
REMARK SMILES IDX 95 13 15 14 16 15 18 16 17 17 7 18 1 19 2 20 3 21 4 22 6 23
REMARK SMILES IDX 5 24 11 25 12 26 13 27 14 28 27 29 28 30 29 31 30 32 31 33
REMARK SMILES IDX 32 34 33 35 94 36 34 37 93 38 35 39 36 40 37 41 87 42 38 43
REMARK SMILES IDX 92 44 86 45 88 46 39 47 91 48 85 49 84 50 40 52 72 53 52 54
REMARK SMILES IDX 71 55 53 56 56 57 70 58 89 59 54 60 55 61 69 63 90 64 57 65
REMARK SMILES IDX 41 66 42 67 50 68 43 69 44 70 48 71 51 72 45 73 46 74 49 75
REMARK SMILES IDX 47 76 73 77 74 78 82 79 75 80 76 81 80 82 83 83 77 84 78 85
REMARK SMILES IDX 81 86 79 87 58 88 59 89 67 90 60 91 61 92 65 93 68 94 62 95
REMARK SMILES IDX 63 96 66 97 64 98
REMARK H PARENT 88 51 56 62
REMARK Flexibility Score: inf
ROOT
ATOM      1  O   UNL A   1      37.307  21.074  25.680  1.00  0.00    -0.374 OA
ENDROOT
BRANCH   1   2
ATOM      2  C   UNL A   1      36.386  21.311  24.626  1.00  0.00     0.202 C 
BRANCH   2   3
ATOM      3  C   UNL A   1      36.632  22.513  23.703  1.00  0.00     0.261 C 
BRANCH   3   4
ATOM      4  O   UNL A   1      35.572  23.498  23.705  1.00  0.00    -0.462 OA
BRANCH   4   5
ATOM      5  C   UNL A   1      35.287  24.048  24.911  1.00  0.00     0.327 C 
ATOM      6  O   UNL A   1      36.140  24.439  25.706  1.00  0.00    -0.250 OA
BRANCH   5   7
ATOM      7  C   UNL A   1      33.839  24.117  25.273  1.00  0.00     0.269 C 
BRANCH   7   8
ATOM      8  N   UNL A   1      33.088  25.352  24.949  1.00  0.00    -0.236 N 
ATOM      9  C   UNL A   1      31.649  28.115  27.005  1.00  0.00     0.077 A 
ATOM     10  C   UNL A   1      32.458  29.203  27.299  1.00  0.00     0.043 A 
ATOM     11  N   UNL A   1      32.141  26.859  27.276  1.00  0.00    -0.228 NA
ATOM     12  C   UNL A   1      33.654  29.353  26.550  1.00  0.00     0.071 A 
ATOM     13  C   UNL A   1      33.125  26.669  26.342  1.00  0.00     0.159 A 
ATOM     14  C   UNL A   1      33.788  28.282  25.632  1.00  0.00     0.054 A 
ATOM     15  C   UNL A   1      33.933  27.998  23.632  1.00  0.00     0.070 A 
ATOM     16  N   UNL A   1      33.562  26.239  23.293  1.00  0.00    -0.175 NA
ATOM     17  C   UNL A   1      33.775  29.088  22.613  1.00  0.00     0.069 C 
BRANCH   9  18
ATOM     18  C   UNL A   1      31.324  28.083  25.563  1.00  0.00     0.041 A 
ATOM     19  C   UNL A   1      30.181  24.932  25.844  1.00  0.00     0.069 C 
ATOM     20  C   UNL A   1      30.618  26.869  24.947  1.00  0.00     0.069 A 
ATOM     21  N   UNL A   1      30.255  27.371  23.673  1.00  0.00    -0.178 NA
ATOM     22  N   UNL A   1      30.762  28.602  23.565  1.00  0.00    -0.275 N 
ATOM     23  C   UNL A   1      31.652  28.925  24.538  1.00  0.00     0.119 A 
ATOM     24  C   UNL A   1      30.253  29.454  22.516  1.00  0.00     0.173 C 
ENDBRANCH   9  18
BRANCH  12  25
ATOM     25  C   UNL A   1      34.856  29.845  27.322  1.00  0.00     0.417 C 
ATOM     26  F   UNL A   1      34.674  29.678  28.666  1.00  0.00    -0.166 F 
ATOM     27  F   UNL A   1      36.004  29.188  27.019  1.00  0.00    -0.166 F 
ATOM     28  F   UNL A   1      35.103  31.171  27.150  1.00  0.00    -0.166 F 
ENDBRANCH  12  25
ENDBRANCH   7   8
ENDBRANCH   5   7
ENDBRANCH   4   5
ENDBRANCH   3   4
ENDBRANCH   2   3
ENDBRANCH   1   2
BRANCH   1  29
ATOM     29  C   UNL A   1      38.490  21.855  25.730  1.00  0.00     0.202 C 
BRANCH  29  30
ATOM     30  C   UNL A   1      39.814  21.182  26.104  1.00  0.00     0.261 C 
BRANCH  30  31
ATOM     31  O   UNL A   1      41.013  21.982  26.075  1.00  0.00    -0.460 OA
BRANCH  31  32
ATOM     32  C   UNL A   1      41.358  22.519  27.277  1.00  0.00     0.338 C 
ATOM     33  O   UNL A   1      41.260  21.959  28.360  1.00  0.00    -0.246 OA
BRANCH  32  34
ATOM     34  C   UNL A   1      41.608  23.976  27.182  1.00  0.00     0.060 A 
ATOM     35  C   UNL A   1      42.383  24.542  28.199  1.00  0.00     0.016 A 
ATOM     36  C   UNL A   1      40.886  24.807  26.340  1.00  0.00     0.016 A 
ATOM     37  C   UNL A   1      42.159  25.858  28.592  1.00  0.00     0.010 A 
ATOM     38  C   UNL A   1      40.709  26.139  26.717  1.00  0.00     0.010 A 
ATOM     39  C   UNL A   1      41.187  26.614  27.942  1.00  0.00    -0.014 A 
BRANCH  39  40
ATOM     40  C   UNL A   1      40.876  27.972  28.412  1.00  0.00     0.031 A 
ATOM     41  C   UNL A   1      41.908  28.926  27.954  1.00  0.00     0.074 A 
ATOM     42  C   UNL A   1      39.838  28.433  29.155  1.00  0.00     0.049 A 
ATOM     43  N   UNL A   1      42.926  29.308  28.648  1.00  0.00    -0.248 NA
ATOM     44  C   UNL A   1      41.943  29.329  26.543  1.00  0.00     0.031 C 
ATOM     45  C   UNL A   1      38.580  27.796  29.546  1.00  0.00     0.029 A 
ATOM     46  N   UNL A   1      39.697  29.680  29.716  1.00  0.00    -0.354 N 
ATOM     47  C   UNL A   1      43.656  30.132  27.811  1.00  0.00     0.074 A 
ATOM     48  C   UNL A   1      43.131  29.934  26.486  1.00  0.00     0.031 C 
ATOM     49  C   UNL A   1      37.729  28.709  30.078  1.00  0.00     0.029 A 
ATOM     50  C   UNL A   1      38.435  29.966  30.240  1.00  0.00     0.049 A 
ATOM     51  H   UNL A   1      40.437  30.329  29.746  1.00  0.00     0.167 HD
ATOM     52  C   UNL A   1      44.469  31.095  28.319  1.00  0.00     0.037 A 
ATOM     53  C   UNL A   1      38.012  31.137  30.793  1.00  0.00     0.037 A 
ATOM     54  C   UNL A   1      44.717  30.885  29.723  1.00  0.00     0.049 A 
ATOM     55  C   UNL A   1      39.220  31.862  31.245  1.00  0.00     0.074 A 
ATOM     56  C   UNL A   1      45.298  29.875  30.467  1.00  0.00     0.029 A 
ATOM     57  N   UNL A   1      43.993  31.633  30.618  1.00  0.00    -0.354 N 
ATOM     58  N   UNL A   1      39.959  31.481  32.247  1.00  0.00    -0.248 NA
ATOM     59  C   UNL A   1      39.851  32.765  30.299  1.00  0.00     0.031 C 
ATOM     60  C   UNL A   1      44.517  29.790  31.658  1.00  0.00     0.029 A 
ATOM     61  C   UNL A   1      43.546  30.789  31.602  1.00  0.00     0.049 A 
ATOM     62  H   UNL A   1      43.826  32.601  30.563  1.00  0.00     0.167 HD
ATOM     63  C   UNL A   1      41.255  31.715  31.822  1.00  0.00     0.074 A 
ATOM     64  C   UNL A   1      41.124  32.576  30.648  1.00  0.00     0.031 C 
ATOM     65  C   UNL A   1      42.289  30.960  32.290  1.00  0.00     0.037 A 
BRANCH  52  66
ATOM     66  C   UNL A   1      44.727  32.409  27.637  1.00  0.00     0.064 A 
ATOM     67  C   UNL A   1      45.924  32.580  26.918  1.00  0.00     0.173 A 
ATOM     68  C   UNL A   1      43.989  33.588  27.886  1.00  0.00     0.173 A 
ATOM     69  F   UNL A   1      46.720  31.532  26.659  1.00  0.00    -0.203 F 
ATOM     70  C   UNL A   1      46.374  33.844  26.532  1.00  0.00     0.198 A 
ATOM     71  C   UNL A   1      44.410  34.838  27.445  1.00  0.00     0.198 A 
ATOM     72  F   UNL A   1      42.900  33.602  28.664  1.00  0.00    -0.203 F 
ATOM     73  F   UNL A   1      47.580  33.972  25.963  1.00  0.00    -0.200 F 
ATOM     74  C   UNL A   1      45.618  34.971  26.794  1.00  0.00     0.200 A 
ATOM     75  F   UNL A   1      43.672  35.919  27.733  1.00  0.00    -0.200 F 
ATOM     76  F   UNL A   1      46.072  36.188  26.473  1.00  0.00    -0.200 F 
ENDBRANCH  52  66
BRANCH  53  77
ATOM     77  C   UNL A   1      36.699  31.837  30.707  1.00  0.00     0.064 A 
ATOM     78  C   UNL A   1      35.850  31.937  31.830  1.00  0.00     0.173 A 
ATOM     79  C   UNL A   1      36.416  32.710  29.642  1.00  0.00     0.173 A 
ATOM     80  F   UNL A   1      36.064  31.170  32.910  1.00  0.00    -0.203 F 
ATOM     81  C   UNL A   1      34.823  32.887  31.902  1.00  0.00     0.198 A 
ATOM     82  C   UNL A   1      35.389  33.657  29.714  1.00  0.00     0.198 A 
ATOM     83  F   UNL A   1      37.200  32.734  28.554  1.00  0.00    -0.203 F 
ATOM     84  F   UNL A   1      34.092  33.002  33.020  1.00  0.00    -0.200 F 
ATOM     85  C   UNL A   1      34.605  33.759  30.850  1.00  0.00     0.200 A 
ATOM     86  F   UNL A   1      35.213  34.522  28.705  1.00  0.00    -0.200 F 
ATOM     87  F   UNL A   1      33.678  34.722  30.947  1.00  0.00    -0.200 F 
ENDBRANCH  53  77
BRANCH  65  88
ATOM     88  C   UNL A   1      42.034  30.069  33.474  1.00  0.00     0.064 A 
ATOM     89  C   UNL A   1      41.591  28.737  33.384  1.00  0.00     0.173 A 
ATOM     90  C   UNL A   1      42.402  30.542  34.741  1.00  0.00     0.173 A 
ATOM     91  F   UNL A   1      41.301  28.182  32.200  1.00  0.00    -0.203 F 
ATOM     92  C   UNL A   1      41.500  27.930  34.519  1.00  0.00     0.198 A 
ATOM     93  C   UNL A   1      42.346  29.723  35.864  1.00  0.00     0.198 A 
ATOM     94  F   UNL A   1      42.871  31.792  34.880  1.00  0.00    -0.203 F 
ATOM     95  F   UNL A   1      41.074  26.663  34.409  1.00  0.00    -0.200 F 
ATOM     96  C   UNL A   1      41.890  28.420  35.755  1.00  0.00     0.200 A 
ATOM     97  F   UNL A   1      42.767  30.188  37.048  1.00  0.00    -0.200 F 
ATOM     98  F   UNL A   1      41.851  27.628  36.836  1.00  0.00    -0.200 F 
ENDBRANCH  65  88
ENDBRANCH  39  40
ENDBRANCH  32  34
ENDBRANCH  31  32
ENDBRANCH  30  31
ENDBRANCH  29  30
ENDBRANCH   1  29
TORSDOF 17
ENDMDL
MODEL 2
REMARK VINA RESULT:     -12.1      3.905      5.861
REMARK SMILES Cc1nn(C)cc1-c1cc(C(F)(F)F)c2c(C)nn(CC(=O)OCCOCCOC(=O)c3ccc(-c4c5nc(c(-c6c(F)c(F)c(F)c(F)c6F)c6ccc([nH]6)c(-c6c(F)c(F)c(F)c(F)c6F)c6nc(c(-c7c(F)c(F)c(F)c(F)c7F)c7ccc4[nH]7)C=C6)C=C5)cc3)c2n1
REMARK SMILES IDX 26 1 25 2 24 3 23 4 21 5 22 6 20 7 19 8 8 9 9 10 96 11 10 12
REMARK SMILES IDX 95 13 15 14 16 15 18 16 17 17 7 18 1 19 2 20 3 21 4 22 6 23
REMARK SMILES IDX 5 24 11 25 12 26 13 27 14 28 27 29 28 30 29 31 30 32 31 33
REMARK SMILES IDX 32 34 33 35 94 36 34 37 93 38 35 39 36 40 37 41 87 42 38 43
REMARK SMILES IDX 92 44 86 45 88 46 39 47 91 48 85 49 84 50 40 52 72 53 52 54
REMARK SMILES IDX 71 55 53 56 56 57 70 58 89 59 54 60 55 61 69 63 90 64 57 65
REMARK SMILES IDX 41 66 42 67 50 68 43 69 44 70 48 71 51 72 45 73 46 74 49 75
REMARK SMILES IDX 47 76 73 77 74 78 82 79 75 80 76 81 80 82 83 83 77 84 78 85
REMARK SMILES IDX 81 86 79 87 58 88 59 89 67 90 60 91 61 92 65 93 68 94 62 95
REMARK SMILES IDX 63 96 66 97 64 98
REMARK H PARENT 88 51 56 62
REMARK Flexibility Score: inf
ROOT
ATOM      1  O   UNL A   1      41.645  21.250  26.035  1.00  0.00    -0.374 OA
ENDROOT
BRANCH   1   2
ATOM      2  C   UNL A   1      40.499  21.779  26.686  1.00  0.00     0.202 C 
BRANCH   2   3
ATOM      3  C   UNL A   1      39.116  21.439  26.114  1.00  0.00     0.261 C 
BRANCH   3   4
ATOM      4  O   UNL A   1      38.254  22.583  25.908  1.00  0.00    -0.462 OA
BRANCH   4   5
ATOM      5  C   UNL A   1      37.420  22.502  24.842  1.00  0.00     0.327 C 
ATOM      6  O   UNL A   1      37.289  21.495  24.148  1.00  0.00    -0.250 OA
BRANCH   5   7
ATOM      7  C   UNL A   1      36.673  23.750  24.499  1.00  0.00     0.269 C 
BRANCH   7   8
ATOM      8  N   UNL A   1      35.207  23.774  24.702  1.00  0.00    -0.236 N 
ATOM      9  C   UNL A   1      32.301  22.554  22.703  1.00  0.00     0.077 A 
ATOM     10  C   UNL A   1      31.870  21.250  22.902  1.00  0.00     0.043 A 
ATOM     11  N   UNL A   1      33.638  22.754  22.448  1.00  0.00    -0.228 NA
ATOM     12  C   UNL A   1      32.338  20.573  24.056  1.00  0.00     0.071 A 
ATOM     13  C   UNL A   1      34.256  22.490  23.642  1.00  0.00     0.159 A 
ATOM     14  C   UNL A   1      33.220  21.409  24.784  1.00  0.00     0.054 A 
ATOM     15  C   UNL A   1      33.361  22.241  26.625  1.00  0.00     0.070 A 
ATOM     16  N   UNL A   1      34.587  23.596  26.530  1.00  0.00    -0.175 NA
ATOM     17  C   UNL A   1      32.280  22.176  27.664  1.00  0.00     0.069 C 
BRANCH   9  18
ATOM     18  C   UNL A   1      32.022  23.382  23.896  1.00  0.00     0.041 A 
ATOM     19  C   UNL A   1      33.829  25.914  22.617  1.00  0.00     0.069 C 
ATOM     20  C   UNL A   1      32.503  24.836  23.968  1.00  0.00     0.069 A 
ATOM     21  N   UNL A   1      31.792  25.311  25.098  1.00  0.00    -0.178 NA
ATOM     22  N   UNL A   1      31.123  24.278  25.618  1.00  0.00    -0.275 N 
ATOM     23  C   UNL A   1      31.483  23.070  25.112  1.00  0.00     0.119 A 
ATOM     24  C   UNL A   1      30.063  24.561  26.557  1.00  0.00     0.173 C 
ENDBRANCH   9  18
BRANCH  12  25
ATOM     25  C   UNL A   1      32.660  19.107  23.874  1.00  0.00     0.417 C 
ATOM     26  F   UNL A   1      32.119  18.361  24.883  1.00  0.00    -0.166 F 
ATOM     27  F   UNL A   1      32.172  18.582  22.722  1.00  0.00    -0.166 F 
ATOM     28  F   UNL A   1      33.992  18.839  23.897  1.00  0.00    -0.166 F 
ENDBRANCH  12  25
ENDBRANCH   7   8
ENDBRANCH   5   7
ENDBRANCH   4   5
ENDBRANCH   3   4
ENDBRANCH   2   3
ENDBRANCH   1   2
BRANCH   1  29
ATOM     29  C   UNL A   1      41.907  19.862  26.156  1.00  0.00     0.202 C 
BRANCH  29  30
ATOM     30  C   UNL A   1      43.254  19.312  25.677  1.00  0.00     0.261 C 
BRANCH  30  31
ATOM     31  O   UNL A   1      43.707  19.679  24.359  1.00  0.00    -0.460 OA
BRANCH  31  32
ATOM     32  C   UNL A   1      45.012  20.061  24.301  1.00  0.00     0.338 C 
ATOM     33  O   UNL A   1      45.975  19.310  24.348  1.00  0.00    -0.246 OA
BRANCH  32  34
ATOM     34  C   UNL A   1      45.168  21.526  24.458  1.00  0.00     0.060 A 
ATOM     35  C   UNL A   1      46.051  21.955  25.454  1.00  0.00     0.016 A 
ATOM     36  C   UNL A   1      44.289  22.438  23.896  1.00  0.00     0.016 A 
ATOM     37  C   UNL A   1      45.816  23.153  26.121  1.00  0.00     0.010 A 
ATOM     38  C   UNL A   1      44.097  23.659  24.544  1.00  0.00     0.010 A 
ATOM     39  C   UNL A   1      44.721  23.936  25.764  1.00  0.00    -0.014 A 
BRANCH  39  40
ATOM     40  C   UNL A   1      44.410  25.155  26.525  1.00  0.00     0.031 A 
ATOM     41  C   UNL A   1      45.489  26.152  26.370  1.00  0.00     0.074 A 
ATOM     42  C   UNL A   1      43.334  25.465  27.295  1.00  0.00     0.049 A 
ATOM     43  N   UNL A   1      46.468  26.321  27.193  1.00  0.00    -0.248 NA
ATOM     44  C   UNL A   1      45.626  26.876  25.100  1.00  0.00     0.031 C 
ATOM     45  C   UNL A   1      42.040  24.799  27.448  1.00  0.00     0.029 A 
ATOM     46  N   UNL A   1      43.184  26.548  28.127  1.00  0.00    -0.354 N 
ATOM     47  C   UNL A   1      47.269  27.292  26.622  1.00  0.00     0.074 A 
ATOM     48  C   UNL A   1      46.828  27.433  25.258  1.00  0.00     0.031 C 
ATOM     49  C   UNL A   1      41.176  25.592  28.131  1.00  0.00     0.029 A 
ATOM     50  C   UNL A   1      41.897  26.747  28.629  1.00  0.00     0.049 A 
ATOM     51  H   UNL A   1      43.935  27.144  28.355  1.00  0.00     0.167 HD
ATOM     52  C   UNL A   1      48.067  28.077  27.391  1.00  0.00     0.037 A 
ATOM     53  C   UNL A   1      41.464  27.769  29.420  1.00  0.00     0.037 A 
ATOM     54  C   UNL A   1      48.218  27.532  28.717  1.00  0.00     0.049 A 
ATOM     55  C   UNL A   1      42.655  28.321  30.102  1.00  0.00     0.074 A 
ATOM     56  C   UNL A   1      48.726  26.354  29.231  1.00  0.00     0.029 A 
ATOM     57  N   UNL A   1      47.453  28.073  29.720  1.00  0.00    -0.354 N 
ATOM     58  N   UNL A   1      43.318  27.687  31.026  1.00  0.00    -0.248 NA
ATOM     59  C   UNL A   1      43.367  29.400  29.438  1.00  0.00     0.031 C 
ATOM     60  C   UNL A   1      47.868  26.018  30.319  1.00  0.00     0.029 A 
ATOM     61  C   UNL A   1      46.924  27.036  30.446  1.00  0.00     0.049 A 
ATOM     62  H   UNL A   1      47.311  29.031  29.888  1.00  0.00     0.167 HD
ATOM     63  C   UNL A   1      44.645  27.968  30.746  1.00  0.00     0.074 A 
ATOM     64  C   UNL A   1      44.610  29.086  29.806  1.00  0.00     0.031 C 
ATOM     65  C   UNL A   1      45.629  27.086  31.080  1.00  0.00     0.037 A 
BRANCH  52  66
ATOM     66  C   UNL A   1      48.398  29.505  27.059  1.00  0.00     0.064 A 
ATOM     67  C   UNL A   1      49.744  29.914  27.075  1.00  0.00     0.173 A 
ATOM     68  C   UNL A   1      47.443  30.545  26.998  1.00  0.00     0.173 A 
ATOM     69  F   UNL A   1      50.731  29.010  27.168  1.00  0.00    -0.203 F 
ATOM     70  C   UNL A   1      50.101  31.263  27.089  1.00  0.00     0.198 A 
ATOM     71  C   UNL A   1      47.805  31.887  26.949  1.00  0.00     0.198 A 
ATOM     72  F   UNL A   1      46.129  30.318  27.105  1.00  0.00    -0.203 F 
ATOM     73  F   UNL A   1      51.387  31.607  27.233  1.00  0.00    -0.200 F 
ATOM     74  C   UNL A   1      49.132  32.249  27.025  1.00  0.00     0.200 A 
ATOM     75  F   UNL A   1      46.847  32.824  26.913  1.00  0.00    -0.200 F 
ATOM     76  F   UNL A   1      49.469  33.542  27.093  1.00  0.00    -0.200 F 
ENDBRANCH  52  66
BRANCH  53  77
ATOM     77  C   UNL A   1      40.175  28.517  29.427  1.00  0.00     0.064 A 
ATOM     78  C   UNL A   1      39.628  29.041  28.236  1.00  0.00     0.173 A 
ATOM     79  C   UNL A   1      39.298  28.431  30.522  1.00  0.00     0.173 A 
ATOM     80  F   UNL A   1      40.379  29.127  27.128  1.00  0.00    -0.203 F 
ATOM     81  C   UNL A   1      38.277  29.398  28.135  1.00  0.00     0.198 A 
ATOM     82  C   UNL A   1      37.950  28.790  30.420  1.00  0.00     0.198 A 
ATOM     83  F   UNL A   1      39.705  27.895  31.681  1.00  0.00    -0.203 F 
ATOM     84  F   UNL A   1      37.779  29.814  26.962  1.00  0.00    -0.200 F 
ATOM     85  C   UNL A   1      37.434  29.255  29.223  1.00  0.00     0.200 A 
ATOM     86  F   UNL A   1      37.135  28.611  31.469  1.00  0.00    -0.200 F 
ATOM     87  F   UNL A   1      36.126  29.520  29.107  1.00  0.00    -0.200 F 
ENDBRANCH  53  77
BRANCH  65  88
ATOM     88  C   UNL A   1      45.277  25.950  32.000  1.00  0.00     0.064 A 
ATOM     89  C   UNL A   1      45.310  26.027  33.404  1.00  0.00     0.173 A 
ATOM     90  C   UNL A   1      44.738  24.787  31.430  1.00  0.00     0.173 A 
ATOM     91  F   UNL A   1      45.730  27.135  34.027  1.00  0.00    -0.203 F 
ATOM     92  C   UNL A   1      44.846  24.974  34.194  1.00  0.00     0.198 A 
ATOM     93  C   UNL A   1      44.242  23.756  32.221  1.00  0.00     0.198 A 
ATOM     94  F   UNL A   1      44.644  24.676  30.096  1.00  0.00    -0.203 F 
ATOM     95  F   UNL A   1      44.889  25.070  35.532  1.00  0.00    -0.200 F 
ATOM     96  C   UNL A   1      44.301  23.846  33.603  1.00  0.00     0.200 A 
ATOM     97  F   UNL A   1      43.675  22.688  31.644  1.00  0.00    -0.200 F 
ATOM     98  F   UNL A   1      43.809  22.858  34.362  1.00  0.00    -0.200 F 
ENDBRANCH  65  88
ENDBRANCH  39  40
ENDBRANCH  32  34
ENDBRANCH  31  32
ENDBRANCH  30  31
ENDBRANCH  29  30
ENDBRANCH   1  29
TORSDOF 17
ENDMDL
MODEL 3
REMARK VINA RESULT:     -12.0      3.616      8.976
REMARK SMILES Cc1nn(C)cc1-c1cc(C(F)(F)F)c2c(C)nn(CC(=O)OCCOCCOC(=O)c3ccc(-c4c5nc(c(-c6c(F)c(F)c(F)c(F)c6F)c6ccc([nH]6)c(-c6c(F)c(F)c(F)c(F)c6F)c6nc(c(-c7c(F)c(F)c(F)c(F)c7F)c7ccc4[nH]7)C=C6)C=C5)cc3)c2n1
REMARK SMILES IDX 26 1 25 2 24 3 23 4 21 5 22 6 20 7 19 8 8 9 9 10 96 11 10 12
REMARK SMILES IDX 95 13 15 14 16 15 18 16 17 17 7 18 1 19 2 20 3 21 4 22 6 23
REMARK SMILES IDX 5 24 11 25 12 26 13 27 14 28 27 29 28 30 29 31 30 32 31 33
REMARK SMILES IDX 32 34 33 35 94 36 34 37 93 38 35 39 36 40 37 41 87 42 38 43
REMARK SMILES IDX 92 44 86 45 88 46 39 47 91 48 85 49 84 50 40 52 72 53 52 54
REMARK SMILES IDX 71 55 53 56 56 57 70 58 89 59 54 60 55 61 69 63 90 64 57 65
REMARK SMILES IDX 41 66 42 67 50 68 43 69 44 70 48 71 51 72 45 73 46 74 49 75
REMARK SMILES IDX 47 76 73 77 74 78 82 79 75 80 76 81 80 82 83 83 77 84 78 85
REMARK SMILES IDX 81 86 79 87 58 88 59 89 67 90 60 91 61 92 65 93 68 94 62 95
REMARK SMILES IDX 63 96 66 97 64 98
REMARK H PARENT 88 51 56 62
REMARK Flexibility Score: inf
ROOT
ATOM      1  O   UNL A   1      32.088  30.838  26.880  1.00  0.00    -0.374 OA
ENDROOT
BRANCH   1   2
ATOM      2  C   UNL A   1      31.799  29.457  26.724  1.00  0.00     0.202 C 
BRANCH   2   3
ATOM      3  C   UNL A   1      32.088  28.804  25.365  1.00  0.00     0.261 C 
BRANCH   3   4
ATOM      4  O   UNL A   1      31.028  27.954  24.870  1.00  0.00    -0.462 OA
BRANCH   4   5
ATOM      5  C   UNL A   1      31.418  26.735  24.419  1.00  0.00     0.327 C 
ATOM      6  O   UNL A   1      30.695  25.979  23.774  1.00  0.00    -0.250 OA
BRANCH   5   7
ATOM      7  C   UNL A   1      32.800  26.310  24.797  1.00  0.00     0.269 C 
BRANCH   7   8
ATOM      8  N   UNL A   1      33.118  24.864  24.800  1.00  0.00    -0.236 N 
ATOM      9  C   UNL A   1      35.942  22.836  23.441  1.00  0.00     0.077 A 
ATOM     10  C   UNL A   1      37.054  22.639  24.247  1.00  0.00     0.043 A 
ATOM     11  N   UNL A   1      35.501  24.128  23.263  1.00  0.00    -0.228 NA
ATOM     12  C   UNL A   1      36.926  22.938  25.628  1.00  0.00     0.071 A 
ATOM     13  C   UNL A   1      34.968  24.476  24.476  1.00  0.00     0.159 A 
ATOM     14  C   UNL A   1      35.625  23.431  25.898  1.00  0.00     0.054 A 
ATOM     15  C   UNL A   1      34.018  22.950  27.031  1.00  0.00     0.070 A 
ATOM     16  N   UNL A   1      32.578  23.866  26.371  1.00  0.00    -0.175 NA
ATOM     17  C   UNL A   1      33.897  21.685  27.828  1.00  0.00     0.069 C 
BRANCH   9  18
ATOM     18  C   UNL A   1      34.771  22.116  23.985  1.00  0.00     0.041 A 
ATOM     19  C   UNL A   1      32.721  23.783  21.904  1.00  0.00     0.069 C 
ATOM     20  C   UNL A   1      33.376  22.325  23.384  1.00  0.00     0.069 A 
ATOM     21  N   UNL A   1      32.650  21.267  23.985  1.00  0.00    -0.178 NA
ATOM     22  N   UNL A   1      33.468  20.652  24.843  1.00  0.00    -0.275 N 
ATOM     23  C   UNL A   1      34.624  21.321  25.087  1.00  0.00     0.119 A 
ATOM     24  C   UNL A   1      33.086  19.345  25.325  1.00  0.00     0.173 C 
ENDBRANCH   9  18
BRANCH  12  25
ATOM     25  C   UNL A   1      38.130  23.581  26.277  1.00  0.00     0.417 C 
ATOM     26  F   UNL A   1      39.022  22.633  26.695  1.00  0.00    -0.166 F 
ATOM     27  F   UNL A   1      38.823  24.401  25.446  1.00  0.00    -0.166 F 
ATOM     28  F   UNL A   1      37.824  24.307  27.384  1.00  0.00    -0.166 F 
ENDBRANCH  12  25
ENDBRANCH   7   8
ENDBRANCH   5   7
ENDBRANCH   4   5
ENDBRANCH   3   4
ENDBRANCH   2   3
ENDBRANCH   1   2
BRANCH   1  29
ATOM     29  C   UNL A   1      33.372  31.208  27.355  1.00  0.00     0.202 C 
BRANCH  29  30
ATOM     30  C   UNL A   1      33.579  32.611  27.933  1.00  0.00     0.261 C 
BRANCH  30  31
ATOM     31  O   UNL A   1      34.521  32.767  29.014  1.00  0.00    -0.460 OA
BRANCH  31  32
ATOM     32  C   UNL A   1      35.818  32.869  28.616  1.00  0.00     0.338 C 
ATOM     33  O   UNL A   1      36.216  33.491  27.641  1.00  0.00    -0.246 OA
BRANCH  32  34
ATOM     34  C   UNL A   1      36.694  31.909  29.327  1.00  0.00     0.060 A 
ATOM     35  C   UNL A   1      37.986  32.349  29.628  1.00  0.00     0.016 A 
ATOM     36  C   UNL A   1      36.400  30.558  29.426  1.00  0.00     0.016 A 
ATOM     37  C   UNL A   1      39.038  31.439  29.669  1.00  0.00     0.010 A 
ATOM     38  C   UNL A   1      37.460  29.655  29.517  1.00  0.00     0.010 A 
ATOM     39  C   UNL A   1      38.787  30.088  29.446  1.00  0.00    -0.014 A 
BRANCH  39  40
ATOM     40  C   UNL A   1      39.904  29.132  29.393  1.00  0.00     0.031 A 
ATOM     41  C   UNL A   1      40.359  28.792  30.757  1.00  0.00     0.074 A 
ATOM     42  C   UNL A   1      40.525  28.559  28.330  1.00  0.00     0.049 A 
ATOM     43  N   UNL A   1      41.343  29.354  31.373  1.00  0.00    -0.248 NA
ATOM     44  C   UNL A   1      39.533  27.913  31.595  1.00  0.00     0.031 C 
ATOM     45  C   UNL A   1      40.163  28.520  26.912  1.00  0.00     0.029 A 
ATOM     46  N   UNL A   1      41.680  27.815  28.336  1.00  0.00    -0.354 N 
ATOM     47  C   UNL A   1      41.363  28.785  32.634  1.00  0.00     0.074 A 
ATOM     48  C   UNL A   1      40.116  28.082  32.783  1.00  0.00     0.031 C 
ATOM     49  C   UNL A   1      40.938  27.627  26.248  1.00  0.00     0.029 A 
ATOM     50  C   UNL A   1      41.979  27.157  27.142  1.00  0.00     0.049 A 
ATOM     51  H   UNL A   1      42.259  27.750  29.130  1.00  0.00     0.167 HD
ATOM     52  C   UNL A   1      42.513  28.734  33.354  1.00  0.00     0.037 A 
ATOM     53  C   UNL A   1      43.021  26.314  26.897  1.00  0.00     0.037 A 
ATOM     54  C   UNL A   1      43.512  29.620  32.812  1.00  0.00     0.049 A 
ATOM     55  C   UNL A   1      44.070  26.623  27.893  1.00  0.00     0.074 A 
ATOM     56  C   UNL A   1      43.593  30.985  32.610  1.00  0.00     0.029 A 
ATOM     57  N   UNL A   1      44.493  29.071  32.024  1.00  0.00    -0.354 N 
ATOM     58  N   UNL A   1      44.765  27.725  27.893  1.00  0.00    -0.248 NA
ATOM     59  C   UNL A   1      44.034  25.897  29.151  1.00  0.00     0.031 C 
ATOM     60  C   UNL A   1      44.281  31.139  31.370  1.00  0.00     0.029 A 
ATOM     61  C   UNL A   1      44.633  29.869  30.917  1.00  0.00     0.049 A 
ATOM     62  H   UNL A   1      45.002  28.253  32.218  1.00  0.00     0.167 HD
ATOM     63  C   UNL A   1      44.865  28.065  29.231  1.00  0.00     0.074 A 
ATOM     64  C   UNL A   1      44.464  26.865  29.962  1.00  0.00     0.031 C 
ATOM     65  C   UNL A   1      44.988  29.367  29.612  1.00  0.00     0.037 A 
BRANCH  52  66
ATOM     66  C   UNL A   1      42.847  27.622  34.308  1.00  0.00     0.064 A 
ATOM     67  C   UNL A   1      43.323  26.402  33.794  1.00  0.00     0.173 A 
ATOM     68  C   UNL A   1      42.460  27.603  35.668  1.00  0.00     0.173 A 
ATOM     69  F   UNL A   1      43.682  26.299  32.506  1.00  0.00    -0.203 F 
ATOM     70  C   UNL A   1      43.353  25.241  34.567  1.00  0.00     0.198 A 
ATOM     71  C   UNL A   1      42.551  26.458  36.452  1.00  0.00     0.198 A 
ATOM     72  F   UNL A   1      41.870  28.647  36.260  1.00  0.00    -0.203 F 
ATOM     73  F   UNL A   1      43.693  24.076  34.000  1.00  0.00    -0.200 F 
ATOM     74  C   UNL A   1      42.968  25.269  35.896  1.00  0.00     0.200 A 
ATOM     75  F   UNL A   1      42.148  26.504  37.730  1.00  0.00    -0.200 F 
ATOM     76  F   UNL A   1      42.945  24.146  36.623  1.00  0.00    -0.200 F 
ENDBRANCH  52  66
BRANCH  53  77
ATOM     77  C   UNL A   1      43.095  25.065  26.086  1.00  0.00     0.064 A 
ATOM     78  C   UNL A   1      44.146  24.851  25.170  1.00  0.00     0.173 A 
ATOM     79  C   UNL A   1      42.349  23.929  26.444  1.00  0.00     0.173 A 
ATOM     80  F   UNL A   1      44.937  25.870  24.798  1.00  0.00    -0.203 F 
ATOM     81  C   UNL A   1      44.464  23.574  24.689  1.00  0.00     0.198 A 
ATOM     82  C   UNL A   1      42.665  22.655  25.962  1.00  0.00     0.198 A 
ATOM     83  F   UNL A   1      41.366  24.017  27.351  1.00  0.00    -0.203 F 
ATOM     84  F   UNL A   1      45.522  23.403  23.884  1.00  0.00    -0.200 F 
ATOM     85  C   UNL A   1      43.733  22.473  25.100  1.00  0.00     0.200 A 
ATOM     86  F   UNL A   1      41.975  21.591  26.397  1.00  0.00    -0.200 F 
ATOM     87  F   UNL A   1      44.083  21.241  24.707  1.00  0.00    -0.200 F 
ENDBRANCH  53  77
BRANCH  65  88
ATOM     88  C   UNL A   1      45.296  30.387  28.551  1.00  0.00     0.064 A 
ATOM     89  C   UNL A   1      44.327  31.008  27.742  1.00  0.00     0.173 A 
ATOM     90  C   UNL A   1      46.612  30.862  28.460  1.00  0.00     0.173 A 
ATOM     91  F   UNL A   1      43.034  30.672  27.830  1.00  0.00    -0.203 F 
ATOM     92  C   UNL A   1      44.671  32.040  26.868  1.00  0.00     0.198 A 
ATOM     93  C   UNL A   1      46.945  31.916  27.615  1.00  0.00     0.198 A 
ATOM     94  F   UNL A   1      47.570  30.335  29.238  1.00  0.00    -0.203 F 
ATOM     95  F   UNL A   1      43.730  32.616  26.106  1.00  0.00    -0.200 F 
ATOM     96  C   UNL A   1      45.977  32.501  26.815  1.00  0.00     0.200 A 
ATOM     97  F   UNL A   1      48.199  32.388  27.602  1.00  0.00    -0.200 F 
ATOM     98  F   UNL A   1      46.297  33.526  26.013  1.00  0.00    -0.200 F 
ENDBRANCH  65  88
ENDBRANCH  39  40
ENDBRANCH  32  34
ENDBRANCH  31  32
ENDBRANCH  30  31
ENDBRANCH  29  30
ENDBRANCH   1  29
TORSDOF 17
ENDMDL
