MODEL 1
REMARK VINA RESULT:     -10.5      0.000      0.000
REMARK SMILES CCC(CC)[C@@H](C(=O)OCCOCCOC(=O)c1ccc(-c2c3nc(c(-c4c(F)c(F)c(F)c(F)c4F)c4ccc([nH]4)c(-c4c(F)c(F)c(F)c(F)c4F)c4nc(c(-c5c(F)c(F)c(F)c(F)c5F)c5ccc2[nH]5)C=C4)C=C3)cc1)S(=O)(=O)c1cccc(OC)c1
REMARK SMILES IDX 11 1 10 2 9 3 7 4 8 5 6 6 3 7 2 8 1 9 4 10 5 11 81 12 82 13
REMARK SMILES IDX 83 14 84 15 85 16 91 17 86 18 88 19 87 20 89 21 90 22 12 23
REMARK SMILES IDX 13 24 14 25 15 26 16 27 17 28 18 29 19 30 80 31 20 32 79 33
REMARK SMILES IDX 21 34 22 35 23 36 73 37 24 38 78 39 72 40 74 41 25 42 77 43
REMARK SMILES IDX 71 44 70 45 26 47 58 48 38 49 57 50 39 51 42 52 56 53 75 54
REMARK SMILES IDX 40 55 41 56 55 58 76 59 43 60 27 61 28 62 36 63 29 64 30 65
REMARK SMILES IDX 34 66 37 67 31 68 32 69 35 70 33 71 59 72 60 73 68 74 61 75
REMARK SMILES IDX 62 76 66 77 69 78 63 79 64 80 67 81 65 82 44 83 45 84 53 85
REMARK SMILES IDX 46 86 47 87 51 88 54 89 48 90 49 91 52 92 50 93
REMARK H PARENT 74 46 42 57
REMARK Flexibility Score: inf
ROOT
ATOM      1  C   UNL A   1      32.621  27.668  26.213  1.00  0.00     0.202 C 
ENDROOT
BRANCH   1   2
ATOM      2  C   UNL A   1      33.855  26.760  26.079  1.00  0.00     0.261 C 
BRANCH   2   3
ATOM      3  O   UNL A   1      33.511  25.357  26.072  1.00  0.00    -0.462 OA
BRANCH   3   4
ATOM      4  C   UNL A   1      34.326  24.561  25.325  1.00  0.00     0.325 C 
ATOM      5  O   UNL A   1      35.542  24.645  25.404  1.00  0.00    -0.251 OA
BRANCH   4   6
ATOM      6  C   UNL A   1      33.542  23.594  24.437  1.00  0.00     0.226 C 
BRANCH   6   7
ATOM      7  C   UNL A   1      34.159  22.151  24.190  1.00  0.00     0.018 C 
BRANCH   7   8
ATOM      8  C   UNL A   1      35.083  21.634  25.338  1.00  0.00     0.002 C 
ATOM      9  C   UNL A   1      35.916  20.395  25.004  1.00  0.00     0.004 C 
ENDBRANCH   7   8
BRANCH   7  10
ATOM     10  C   UNL A   1      33.094  21.064  23.871  1.00  0.00     0.002 C 
ATOM     11  C   UNL A   1      32.149  20.731  25.017  1.00  0.00     0.004 C 
ENDBRANCH   7  10
ENDBRANCH   6   7
BRANCH   6  12
ATOM     12  S   UNL A   1      33.212  24.509  22.881  1.00  0.00     0.192 S 
ATOM     13  O   UNL A   1      34.302  25.439  22.639  1.00  0.00    -0.223 OA
ATOM     14  O   UNL A   1      32.895  23.584  21.808  1.00  0.00    -0.223 OA
BRANCH  12  15
ATOM     15  C   UNL A   1      31.760  25.524  23.172  1.00  0.00     0.071 A 
ATOM     16  C   UNL A   1      30.747  25.081  24.027  1.00  0.00     0.020 A 
ATOM     17  C   UNL A   1      31.599  26.716  22.452  1.00  0.00     0.066 A 
ATOM     18  C   UNL A   1      29.612  25.872  24.225  1.00  0.00     0.005 A 
ATOM     19  C   UNL A   1      30.453  27.494  22.633  1.00  0.00     0.120 A 
ATOM     20  C   UNL A   1      29.477  27.082  23.542  1.00  0.00     0.046 A 
BRANCH  19  21
ATOM     21  O   UNL A   1      30.184  28.673  21.996  1.00  0.00    -0.497 OA
ATOM     22  C   UNL A   1      29.259  29.543  22.640  1.00  0.00     0.278 C 
ENDBRANCH  19  21
ENDBRANCH  12  15
ENDBRANCH   6  12
ENDBRANCH   4   6
ENDBRANCH   3   4
ENDBRANCH   2   3
ENDBRANCH   1   2
BRANCH   1  23
ATOM     23  O   UNL A   1      32.535  28.789  25.333  1.00  0.00    -0.374 OA
BRANCH  23  24
ATOM     24  C   UNL A   1      31.452  29.692  25.532  1.00  0.00     0.202 C 
BRANCH  24  25
ATOM     25  C   UNL A   1      31.746  31.010  26.246  1.00  0.00     0.261 C 
BRANCH  25  26
ATOM     26  O   UNL A   1      32.670  30.811  27.320  1.00  0.00    -0.460 OA
BRANCH  26  27
ATOM     27  C   UNL A   1      33.492  31.865  27.520  1.00  0.00     0.338 C 
ATOM     28  O   UNL A   1      33.195  33.050  27.535  1.00  0.00    -0.246 OA
BRANCH  27  29
ATOM     29  C   UNL A   1      34.819  31.375  27.923  1.00  0.00     0.060 A 
ATOM     30  C   UNL A   1      34.924  30.013  28.226  1.00  0.00     0.016 A 
ATOM     31  C   UNL A   1      35.924  32.223  28.026  1.00  0.00     0.016 A 
ATOM     32  C   UNL A   1      36.120  29.503  28.711  1.00  0.00     0.010 A 
ATOM     33  C   UNL A   1      37.125  31.711  28.517  1.00  0.00     0.010 A 
ATOM     34  C   UNL A   1      37.209  30.361  28.905  1.00  0.00    -0.014 A 
BRANCH  34  35
ATOM     35  C   UNL A   1      38.372  29.881  29.681  1.00  0.00     0.031 A 
ATOM     36  C   UNL A   1      38.562  30.396  31.080  1.00  0.00     0.074 A 
ATOM     37  C   UNL A   1      39.210  28.971  29.161  1.00  0.00     0.049 A 
ATOM     38  N   UNL A   1      39.522  30.149  31.933  1.00  0.00    -0.248 NA
ATOM     39  C   UNL A   1      37.531  31.319  31.584  1.00  0.00     0.031 C 
ATOM     40  C   UNL A   1      39.086  28.372  27.833  1.00  0.00     0.029 A 
ATOM     41  N   UNL A   1      40.336  28.397  29.689  1.00  0.00    -0.354 N 
ATOM     42  C   UNL A   1      39.216  30.891  33.066  1.00  0.00     0.074 A 
ATOM     43  C   UNL A   1      38.003  31.626  32.783  1.00  0.00     0.031 C 
ATOM     44  C   UNL A   1      40.107  27.517  27.646  1.00  0.00     0.029 A 
ATOM     45  C   UNL A   1      40.971  27.541  28.824  1.00  0.00     0.049 A 
ATOM     46  H   UNL A   1      40.659  28.580  30.602  1.00  0.00     0.167 HD
ATOM     47  C   UNL A   1      39.887  30.944  34.241  1.00  0.00     0.037 A 
ATOM     48  C   UNL A   1      42.135  26.878  28.963  1.00  0.00     0.037 A 
ATOM     49  C   UNL A   1      41.091  30.204  34.510  1.00  0.00     0.049 A 
ATOM     50  C   UNL A   1      42.901  27.016  30.253  1.00  0.00     0.074 A 
ATOM     51  C   UNL A   1      41.840  30.169  35.672  1.00  0.00     0.029 A 
ATOM     52  N   UNL A   1      41.726  29.373  33.598  1.00  0.00    -0.354 N 
ATOM     53  N   UNL A   1      42.599  27.699  31.331  1.00  0.00    -0.248 NA
ATOM     54  C   UNL A   1      44.172  26.283  30.348  1.00  0.00     0.031 C 
ATOM     55  C   UNL A   1      42.963  29.368  35.441  1.00  0.00     0.029 A 
ATOM     56  C   UNL A   1      42.876  28.846  34.159  1.00  0.00     0.049 A 
ATOM     57  H   UNL A   1      41.405  29.186  32.686  1.00  0.00     0.167 HD
ATOM     58  C   UNL A   1      43.620  27.456  32.240  1.00  0.00     0.074 A 
ATOM     59  C   UNL A   1      44.544  26.549  31.593  1.00  0.00     0.031 C 
ATOM     60  C   UNL A   1      43.779  27.936  33.499  1.00  0.00     0.037 A 
BRANCH  47  61
ATOM     61  C   UNL A   1      39.354  31.856  35.308  1.00  0.00     0.064 A 
ATOM     62  C   UNL A   1      39.675  33.222  35.347  1.00  0.00     0.173 A 
ATOM     63  C   UNL A   1      38.481  31.362  36.289  1.00  0.00     0.173 A 
ATOM     64  F   UNL A   1      40.519  33.744  34.443  1.00  0.00    -0.203 F 
ATOM     65  C   UNL A   1      39.162  34.051  36.342  1.00  0.00     0.198 A 
ATOM     66  C   UNL A   1      37.944  32.200  37.261  1.00  0.00     0.198 A 
ATOM     67  F   UNL A   1      38.140  30.065  36.298  1.00  0.00    -0.203 F 
ATOM     68  F   UNL A   1      39.523  35.341  36.388  1.00  0.00    -0.200 F 
ATOM     69  C   UNL A   1      38.290  33.542  37.292  1.00  0.00     0.200 A 
ATOM     70  F   UNL A   1      37.091  31.708  38.171  1.00  0.00    -0.200 F 
ATOM     71  F   UNL A   1      37.789  34.343  38.243  1.00  0.00    -0.200 F 
ENDBRANCH  47  61
BRANCH  48  72
ATOM     72  C   UNL A   1      42.652  26.043  27.848  1.00  0.00     0.064 A 
ATOM     73  C   UNL A   1      43.502  26.582  26.873  1.00  0.00     0.173 A 
ATOM     74  C   UNL A   1      42.293  24.692  27.726  1.00  0.00     0.173 A 
ATOM     75  F   UNL A   1      43.858  27.873  26.934  1.00  0.00    -0.203 F 
ATOM     76  C   UNL A   1      43.954  25.808  25.805  1.00  0.00     0.198 A 
ATOM     77  C   UNL A   1      42.772  23.911  26.677  1.00  0.00     0.198 A 
ATOM     78  F   UNL A   1      41.485  24.126  28.634  1.00  0.00    -0.203 F 
ATOM     79  F   UNL A   1      44.723  26.362  24.858  1.00  0.00    -0.200 F 
ATOM     80  C   UNL A   1      43.593  24.472  25.712  1.00  0.00     0.200 A 
ATOM     81  F   UNL A   1      42.435  22.616  26.600  1.00  0.00    -0.200 F 
ATOM     82  F   UNL A   1      44.031  23.728  24.687  1.00  0.00    -0.200 F 
ENDBRANCH  48  72
BRANCH  60  83
ATOM     83  C   UNL A   1      44.972  27.457  34.275  1.00  0.00     0.064 A 
ATOM     84  C   UNL A   1      46.186  28.159  34.276  1.00  0.00     0.173 A 
ATOM     85  C   UNL A   1      44.881  26.301  35.069  1.00  0.00     0.173 A 
ATOM     86  F   UNL A   1      46.329  29.261  33.525  1.00  0.00    -0.203 F 
ATOM     87  C   UNL A   1      47.274  27.705  35.019  1.00  0.00     0.198 A 
ATOM     88  C   UNL A   1      45.959  25.872  35.838  1.00  0.00     0.198 A 
ATOM     89  F   UNL A   1      43.739  25.598  35.112  1.00  0.00    -0.203 F 
ATOM     90  F   UNL A   1      48.441  28.363  34.962  1.00  0.00    -0.200 F 
ATOM     91  C   UNL A   1      47.156  26.569  35.805  1.00  0.00     0.200 A 
ATOM     92  F   UNL A   1      45.836  24.785  36.612  1.00  0.00    -0.200 F 
ATOM     93  F   UNL A   1      48.201  26.142  36.528  1.00  0.00    -0.200 F 
ENDBRANCH  60  83
ENDBRANCH  34  35
ENDBRANCH  27  29
ENDBRANCH  26  27
ENDBRANCH  25  26
ENDBRANCH  24  25
ENDBRANCH  23  24
ENDBRANCH   1  23
TORSDOF 20
ENDMDL
MODEL 2
REMARK VINA RESULT:     -10.4      1.322      7.972
REMARK SMILES CCC(CC)[C@@H](C(=O)OCCOCCOC(=O)c1ccc(-c2c3nc(c(-c4c(F)c(F)c(F)c(F)c4F)c4ccc([nH]4)c(-c4c(F)c(F)c(F)c(F)c4F)c4nc(c(-c5c(F)c(F)c(F)c(F)c5F)c5ccc2[nH]5)C=C4)C=C3)cc1)S(=O)(=O)c1cccc(OC)c1
REMARK SMILES IDX 11 1 10 2 9 3 7 4 8 5 6 6 3 7 2 8 1 9 4 10 5 11 81 12 82 13
REMARK SMILES IDX 83 14 84 15 85 16 91 17 86 18 88 19 87 20 89 21 90 22 12 23
REMARK SMILES IDX 13 24 14 25 15 26 16 27 17 28 18 29 19 30 80 31 20 32 79 33
REMARK SMILES IDX 21 34 22 35 23 36 73 37 24 38 78 39 72 40 74 41 25 42 77 43
REMARK SMILES IDX 71 44 70 45 26 47 58 48 38 49 57 50 39 51 42 52 56 53 75 54
REMARK SMILES IDX 40 55 41 56 55 58 76 59 43 60 27 61 28 62 36 63 29 64 30 65
REMARK SMILES IDX 34 66 37 67 31 68 32 69 35 70 33 71 59 72 60 73 68 74 61 75
REMARK SMILES IDX 62 76 66 77 69 78 63 79 64 80 67 81 65 82 44 83 45 84 53 85
REMARK SMILES IDX 46 86 47 87 51 88 54 89 48 90 49 91 52 92 50 93
REMARK H PARENT 74 46 42 57
REMARK Flexibility Score: inf
ROOT
ATOM      1  C   UNL A   1      31.186  26.861  26.070  1.00  0.00     0.202 C 
ENDROOT
BRANCH   1   2
ATOM      2  C   UNL A   1      31.335  25.331  26.032  1.00  0.00     0.261 C 
BRANCH   2   3
ATOM      3  O   UNL A   1      32.712  24.905  26.133  1.00  0.00    -0.462 OA
BRANCH   3   4
ATOM      4  C   UNL A   1      33.269  24.455  24.975  1.00  0.00     0.325 C 
ATOM      5  O   UNL A   1      33.636  25.228  24.104  1.00  0.00    -0.251 OA
BRANCH   4   6
ATOM      6  C   UNL A   1      33.376  22.930  24.934  1.00  0.00     0.226 C 
BRANCH   6   7
ATOM      7  C   UNL A   1      34.821  22.286  25.092  1.00  0.00     0.018 C 
BRANCH   7   8
ATOM      8  C   UNL A   1      35.992  23.183  24.581  1.00  0.00     0.002 C 
ATOM      9  C   UNL A   1      36.828  23.857  25.671  1.00  0.00     0.004 C 
ENDBRANCH   7   8
BRANCH   7  10
ATOM     10  C   UNL A   1      35.139  21.818  26.540  1.00  0.00     0.002 C 
ATOM     11  C   UNL A   1      33.967  21.879  27.510  1.00  0.00     0.004 C 
ENDBRANCH   7  10
ENDBRANCH   6   7
BRANCH   6  12
ATOM     12  S   UNL A   1      32.527  22.416  23.390  1.00  0.00     0.192 S 
ATOM     13  O   UNL A   1      31.146  22.866  23.438  1.00  0.00    -0.223 OA
ATOM     14  O   UNL A   1      33.302  22.815  22.230  1.00  0.00    -0.223 OA
BRANCH  12  15
ATOM     15  C   UNL A   1      32.457  20.622  23.409  1.00  0.00     0.071 A 
ATOM     16  C   UNL A   1      32.244  19.909  22.226  1.00  0.00     0.020 A 
ATOM     17  C   UNL A   1      32.508  19.946  24.636  1.00  0.00     0.066 A 
ATOM     18  C   UNL A   1      32.168  18.515  22.261  1.00  0.00     0.005 A 
ATOM     19  C   UNL A   1      32.409  18.553  24.672  1.00  0.00     0.120 A 
ATOM     20  C   UNL A   1      32.268  17.841  23.479  1.00  0.00     0.046 A 
BRANCH  19  21
ATOM     21  O   UNL A   1      32.450  17.782  25.800  1.00  0.00    -0.497 OA
ATOM     22  C   UNL A   1      33.127  16.534  25.689  1.00  0.00     0.278 C 
ENDBRANCH  19  21
ENDBRANCH  12  15
ENDBRANCH   6  12
ENDBRANCH   4   6
ENDBRANCH   3   4
ENDBRANCH   2   3
ENDBRANCH   1   2
BRANCH   1  23
ATOM     23  O   UNL A   1      32.385  27.634  26.123  1.00  0.00    -0.374 OA
BRANCH  23  24
ATOM     24  C   UNL A   1      32.500  28.722  25.211  1.00  0.00     0.202 C 
BRANCH  24  25
ATOM     25  C   UNL A   1      32.155  30.119  25.722  1.00  0.00     0.261 C 
BRANCH  25  26
ATOM     26  O   UNL A   1      32.572  30.282  27.081  1.00  0.00    -0.460 OA
BRANCH  26  27
ATOM     27  C   UNL A   1      33.247  31.432  27.300  1.00  0.00     0.338 C 
ATOM     28  O   UNL A   1      32.808  32.571  27.272  1.00  0.00    -0.246 OA
BRANCH  27  29
ATOM     29  C   UNL A   1      34.600  31.116  27.782  1.00  0.00     0.060 A 
ATOM     30  C   UNL A   1      34.870  29.773  28.069  1.00  0.00     0.016 A 
ATOM     31  C   UNL A   1      35.570  32.102  27.973  1.00  0.00     0.016 A 
ATOM     32  C   UNL A   1      36.091  29.418  28.626  1.00  0.00     0.010 A 
ATOM     33  C   UNL A   1      36.796  31.745  28.535  1.00  0.00     0.010 A 
ATOM     34  C   UNL A   1      37.038  30.410  28.907  1.00  0.00    -0.014 A 
BRANCH  34  35
ATOM     35  C   UNL A   1      38.203  30.072  29.751  1.00  0.00     0.031 A 
ATOM     36  C   UNL A   1      39.229  29.119  29.208  1.00  0.00     0.074 A 
ATOM     37  C   UNL A   1      38.359  30.642  30.957  1.00  0.00     0.049 A 
ATOM     38  N   UNL A   1      40.308  28.647  29.777  1.00  0.00    -0.248 NA
ATOM     39  C   UNL A   1      39.006  28.627  27.837  1.00  0.00     0.031 C 
ATOM     40  C   UNL A   1      37.448  31.615  31.554  1.00  0.00     0.029 A 
ATOM     41  N   UNL A   1      39.343  30.476  31.896  1.00  0.00    -0.354 N 
ATOM     42  C   UNL A   1      40.885  27.799  28.840  1.00  0.00     0.074 A 
ATOM     43  C   UNL A   1      40.021  27.790  27.681  1.00  0.00     0.031 C 
ATOM     44  C   UNL A   1      37.912  31.955  32.769  1.00  0.00     0.029 A 
ATOM     45  C   UNL A   1      39.128  31.194  33.046  1.00  0.00     0.049 A 
ATOM     46  H   UNL A   1      40.129  29.897  31.759  1.00  0.00     0.167 HD
ATOM     47  C   UNL A   1      42.039  27.098  28.941  1.00  0.00     0.037 A 
ATOM     48  C   UNL A   1      39.825  31.208  34.197  1.00  0.00     0.037 A 
ATOM     49  C   UNL A   1      42.891  27.120  30.099  1.00  0.00     0.049 A 
ATOM     50  C   UNL A   1      41.064  30.359  34.310  1.00  0.00     0.074 A 
ATOM     51  C   UNL A   1      44.092  26.464  30.299  1.00  0.00     0.029 A 
ATOM     52  N   UNL A   1      42.624  27.832  31.260  1.00  0.00    -0.354 N 
ATOM     53  N   UNL A   1      41.619  29.576  33.417  1.00  0.00    -0.248 NA
ATOM     54  C   UNL A   1      41.779  30.400  35.594  1.00  0.00     0.031 C 
ATOM     55  C   UNL A   1      44.520  26.727  31.605  1.00  0.00     0.029 A 
ATOM     56  C   UNL A   1      43.622  27.605  32.194  1.00  0.00     0.049 A 
ATOM     57  H   UNL A   1      41.842  28.413  31.400  1.00  0.00     0.167 HD
ATOM     58  C   UNL A   1      42.760  29.057  34.014  1.00  0.00     0.074 A 
ATOM     59  C   UNL A   1      42.826  29.626  35.344  1.00  0.00     0.031 C 
ATOM     60  C   UNL A   1      43.674  28.191  33.510  1.00  0.00     0.037 A 
BRANCH  47  61
ATOM     61  C   UNL A   1      42.428  26.225  27.783  1.00  0.00     0.064 A 
ATOM     62  C   UNL A   1      41.867  24.952  27.590  1.00  0.00     0.173 A 
ATOM     63  C   UNL A   1      43.353  26.682  26.832  1.00  0.00     0.173 A 
ATOM     64  F   UNL A   1      40.990  24.459  28.478  1.00  0.00    -0.203 F 
ATOM     65  C   UNL A   1      42.237  24.163  26.503  1.00  0.00     0.198 A 
ATOM     66  C   UNL A   1      43.694  25.905  25.729  1.00  0.00     0.198 A 
ATOM     67  F   UNL A   1      43.919  27.891  26.967  1.00  0.00    -0.203 F 
ATOM     68  F   UNL A   1      41.726  22.931  26.368  1.00  0.00    -0.200 F 
ATOM     69  C   UNL A   1      43.143  24.643  25.570  1.00  0.00     0.200 A 
ATOM     70  F   UNL A   1      44.560  26.377  24.821  1.00  0.00    -0.200 F 
ATOM     71  F   UNL A   1      43.490  23.886  24.519  1.00  0.00    -0.200 F 
ENDBRANCH  47  61
BRANCH  48  72
ATOM     72  C   UNL A   1      39.357  32.038  35.339  1.00  0.00     0.064 A 
ATOM     73  C   UNL A   1      38.507  31.509  36.320  1.00  0.00     0.173 A 
ATOM     74  C   UNL A   1      39.736  33.384  35.462  1.00  0.00     0.173 A 
ATOM     75  F   UNL A   1      38.099  30.235  36.236  1.00  0.00    -0.203 F 
ATOM     76  C   UNL A   1      38.036  32.300  37.366  1.00  0.00     0.198 A 
ATOM     77  C   UNL A   1      39.291  34.164  36.526  1.00  0.00     0.198 A 
ATOM     78  F   UNL A   1      40.550  33.939  34.552  1.00  0.00    -0.203 F 
ATOM     79  F   UNL A   1      37.184  31.783  38.261  1.00  0.00    -0.200 F 
ATOM     80  C   UNL A   1      38.434  33.625  37.472  1.00  0.00     0.200 A 
ATOM     81  F   UNL A   1      39.692  35.438  36.634  1.00  0.00    -0.200 F 
ATOM     82  F   UNL A   1      37.984  34.383  38.481  1.00  0.00    -0.200 F 
ENDBRANCH  48  72
BRANCH  60  83
ATOM     83  C   UNL A   1      44.845  27.838  34.381  1.00  0.00     0.064 A 
ATOM     84  C   UNL A   1      44.835  26.714  35.218  1.00  0.00     0.173 A 
ATOM     85  C   UNL A   1      46.016  28.614  34.338  1.00  0.00     0.173 A 
ATOM     86  F   UNL A   1      43.737  25.948  35.306  1.00  0.00    -0.203 F 
ATOM     87  C   UNL A   1      45.941  26.396  36.004  1.00  0.00     0.198 A 
ATOM     88  C   UNL A   1      47.132  28.272  35.096  1.00  0.00     0.198 A 
ATOM     89  F   UNL A   1      46.083  29.694  33.545  1.00  0.00    -0.203 F 
ATOM     90  F   UNL A   1      45.888  25.347  36.837  1.00  0.00    -0.200 F 
ATOM     91  C   UNL A   1      47.090  27.169  35.935  1.00  0.00     0.200 A 
ATOM     92  F   UNL A   1      48.248  29.009  35.012  1.00  0.00    -0.200 F 
ATOM     93  F   UNL A   1      48.157  26.854  36.682  1.00  0.00    -0.200 F 
ENDBRANCH  60  83
ENDBRANCH  34  35
ENDBRANCH  27  29
ENDBRANCH  26  27
ENDBRANCH  25  26
ENDBRANCH  24  25
ENDBRANCH  23  24
ENDBRANCH   1  23
TORSDOF 20
ENDMDL
MODEL 3
REMARK VINA RESULT:     -10.3      0.756      7.199
REMARK SMILES CCC(CC)[C@@H](C(=O)OCCOCCOC(=O)c1ccc(-c2c3nc(c(-c4c(F)c(F)c(F)c(F)c4F)c4ccc([nH]4)c(-c4c(F)c(F)c(F)c(F)c4F)c4nc(c(-c5c(F)c(F)c(F)c(F)c5F)c5ccc2[nH]5)C=C4)C=C3)cc1)S(=O)(=O)c1cccc(OC)c1
REMARK SMILES IDX 11 1 10 2 9 3 7 4 8 5 6 6 3 7 2 8 1 9 4 10 5 11 81 12 82 13
REMARK SMILES IDX 83 14 84 15 85 16 91 17 86 18 88 19 87 20 89 21 90 22 12 23
REMARK SMILES IDX 13 24 14 25 15 26 16 27 17 28 18 29 19 30 80 31 20 32 79 33
REMARK SMILES IDX 21 34 22 35 23 36 73 37 24 38 78 39 72 40 74 41 25 42 77 43
REMARK SMILES IDX 71 44 70 45 26 47 58 48 38 49 57 50 39 51 42 52 56 53 75 54
REMARK SMILES IDX 40 55 41 56 55 58 76 59 43 60 27 61 28 62 36 63 29 64 30 65
REMARK SMILES IDX 34 66 37 67 31 68 32 69 35 70 33 71 59 72 60 73 68 74 61 75
REMARK SMILES IDX 62 76 66 77 69 78 63 79 64 80 67 81 65 82 44 83 45 84 53 85
REMARK SMILES IDX 46 86 47 87 51 88 54 89 48 90 49 91 52 92 50 93
REMARK H PARENT 74 46 42 57
REMARK Flexibility Score: inf
ROOT
ATOM      1  C   UNL A   1      33.047  27.774  26.132  1.00  0.00     0.202 C 
ENDROOT
BRANCH   1   2
ATOM      2  C   UNL A   1      34.025  26.752  25.529  1.00  0.00     0.261 C 
BRANCH   2   3
ATOM      3  O   UNL A   1      33.898  25.444  26.129  1.00  0.00    -0.462 OA
BRANCH   3   4
ATOM      4  C   UNL A   1      34.361  24.410  25.374  1.00  0.00     0.325 C 
ATOM      5  O   UNL A   1      35.506  24.396  24.950  1.00  0.00    -0.251 OA
BRANCH   4   6
ATOM      6  C   UNL A   1      33.305  23.325  25.163  1.00  0.00     0.226 C 
BRANCH   6   7
ATOM      7  C   UNL A   1      33.736  21.815  25.410  1.00  0.00     0.018 C 
BRANCH   7   8
ATOM      8  C   UNL A   1      34.833  21.284  24.435  1.00  0.00     0.002 C 
ATOM      9  C   UNL A   1      36.207  21.038  25.061  1.00  0.00     0.004 C 
ENDBRANCH   7   8
BRANCH   7  10
ATOM     10  C   UNL A   1      34.177  21.524  26.872  1.00  0.00     0.002 C 
ATOM     11  C   UNL A   1      33.340  22.205  27.946  1.00  0.00     0.004 C 
ENDBRANCH   7  10
ENDBRANCH   6   7
BRANCH   6  12
ATOM     12  S   UNL A   1      32.632  23.612  23.479  1.00  0.00     0.192 S 
ATOM     13  O   UNL A   1      33.707  24.062  22.611  1.00  0.00    -0.223 OA
ATOM     14  O   UNL A   1      31.875  22.457  23.034  1.00  0.00    -0.223 OA
BRANCH  12  15
ATOM     15  C   UNL A   1      31.494  24.994  23.605  1.00  0.00     0.071 A 
ATOM     16  C   UNL A   1      30.488  24.998  24.575  1.00  0.00     0.020 A 
ATOM     17  C   UNL A   1      31.552  26.021  22.651  1.00  0.00     0.066 A 
ATOM     18  C   UNL A   1      29.595  26.071  24.644  1.00  0.00     0.005 A 
ATOM     19  C   UNL A   1      30.644  27.081  22.708  1.00  0.00     0.120 A 
ATOM     20  C   UNL A   1      29.687  27.115  23.723  1.00  0.00     0.046 A 
BRANCH  19  21
ATOM     21  O   UNL A   1      30.603  28.139  21.842  1.00  0.00    -0.497 OA
ATOM     22  C   UNL A   1      30.146  29.376  22.379  1.00  0.00     0.278 C 
ENDBRANCH  19  21
ENDBRANCH  12  15
ENDBRANCH   6  12
ENDBRANCH   4   6
ENDBRANCH   3   4
ENDBRANCH   2   3
ENDBRANCH   1   2
BRANCH   1  23
ATOM     23  O   UNL A   1      32.517  28.769  25.255  1.00  0.00    -0.374 OA
BRANCH  23  24
ATOM     24  C   UNL A   1      31.483  29.605  25.767  1.00  0.00     0.202 C 
BRANCH  24  25
ATOM     25  C   UNL A   1      31.840  31.049  26.113  1.00  0.00     0.261 C 
BRANCH  25  26
ATOM     26  O   UNL A   1      32.478  31.122  27.392  1.00  0.00    -0.460 OA
BRANCH  26  27
ATOM     27  C   UNL A   1      33.295  32.190  27.522  1.00  0.00     0.338 C 
ATOM     28  O   UNL A   1      32.999  33.372  27.425  1.00  0.00    -0.246 OA
BRANCH  27  29
ATOM     29  C   UNL A   1      34.610  31.740  28.003  1.00  0.00     0.060 A 
ATOM     30  C   UNL A   1      34.731  30.385  28.333  1.00  0.00     0.016 A 
ATOM     31  C   UNL A   1      35.686  32.617  28.154  1.00  0.00     0.016 A 
ATOM     32  C   UNL A   1      35.911  29.913  28.890  1.00  0.00     0.010 A 
ATOM     33  C   UNL A   1      36.871  32.142  28.716  1.00  0.00     0.010 A 
ATOM     34  C   UNL A   1      36.967  30.801  29.130  1.00  0.00    -0.014 A 
BRANCH  34  35
ATOM     35  C   UNL A   1      38.097  30.361  29.975  1.00  0.00     0.031 A 
ATOM     36  C   UNL A   1      39.081  29.381  29.403  1.00  0.00     0.074 A 
ATOM     37  C   UNL A   1      38.261  30.864  31.210  1.00  0.00     0.049 A 
ATOM     38  N   UNL A   1      40.123  28.826  29.965  1.00  0.00    -0.248 NA
ATOM     39  C   UNL A   1      38.857  28.968  28.007  1.00  0.00     0.031 C 
ATOM     40  C   UNL A   1      37.392  31.856  31.839  1.00  0.00     0.029 A 
ATOM     41  N   UNL A   1      39.218  30.602  32.155  1.00  0.00    -0.354 N 
ATOM     42  C   UNL A   1      40.670  27.993  28.998  1.00  0.00     0.074 A 
ATOM     43  C   UNL A   1      39.828  28.085  27.826  1.00  0.00     0.031 C 
ATOM     44  C   UNL A   1      37.851  32.113  33.076  1.00  0.00     0.029 A 
ATOM     45  C   UNL A   1      39.020  31.276  33.334  1.00  0.00     0.049 A 
ATOM     46  H   UNL A   1      39.974  29.989  32.003  1.00  0.00     0.167 HD
ATOM     47  C   UNL A   1      41.784  27.227  29.083  1.00  0.00     0.037 A 
ATOM     48  C   UNL A   1      39.695  31.198  34.496  1.00  0.00     0.037 A 
ATOM     49  C   UNL A   1      42.614  27.148  30.254  1.00  0.00     0.049 A 
ATOM     50  C   UNL A   1      40.886  30.279  34.587  1.00  0.00     0.074 A 
ATOM     51  C   UNL A   1      43.775  26.420  30.441  1.00  0.00     0.029 A 
ATOM     52  N   UNL A   1      42.365  27.818  31.444  1.00  0.00    -0.354 N 
ATOM     53  N   UNL A   1      41.414  29.510  33.666  1.00  0.00    -0.248 NA
ATOM     54  C   UNL A   1      41.578  30.220  35.883  1.00  0.00     0.031 C 
ATOM     55  C   UNL A   1      44.192  26.598  31.765  1.00  0.00     0.029 A 
ATOM     56  C   UNL A   1      43.332  27.494  32.381  1.00  0.00     0.049 A 
ATOM     57  H   UNL A   1      41.612  28.433  31.599  1.00  0.00     0.167 HD
ATOM     58  C   UNL A   1      42.516  28.903  34.256  1.00  0.00     0.074 A 
ATOM     59  C   UNL A   1      42.587  29.404  35.612  1.00  0.00     0.031 C 
ATOM     60  C   UNL A   1      43.391  28.013  33.725  1.00  0.00     0.037 A 
BRANCH  47  61
ATOM     61  C   UNL A   1      42.146  26.390  27.890  1.00  0.00     0.064 A 
ATOM     62  C   UNL A   1      43.107  26.805  26.955  1.00  0.00     0.173 A 
ATOM     63  C   UNL A   1      41.546  25.136  27.698  1.00  0.00     0.173 A 
ATOM     64  F   UNL A   1      43.700  28.002  27.082  1.00  0.00    -0.203 F 
ATOM     65  C   UNL A   1      43.434  26.007  25.861  1.00  0.00     0.198 A 
ATOM     66  C   UNL A   1      41.899  24.328  26.622  1.00  0.00     0.198 A 
ATOM     67  F   UNL A   1      40.622  24.690  28.561  1.00  0.00    -0.203 F 
ATOM     68  F   UNL A   1      44.317  26.447  24.954  1.00  0.00    -0.200 F 
ATOM     69  C   UNL A   1      42.837  24.766  25.700  1.00  0.00     0.200 A 
ATOM     70  F   UNL A   1      41.330  23.123  26.476  1.00  0.00    -0.200 F 
ATOM     71  F   UNL A   1      43.160  23.996  24.651  1.00  0.00    -0.200 F 
ENDBRANCH  47  61
BRANCH  48  72
ATOM     72  C   UNL A   1      39.251  31.997  35.668  1.00  0.00     0.064 A 
ATOM     73  C   UNL A   1      39.743  33.290  35.893  1.00  0.00     0.173 A 
ATOM     74  C   UNL A   1      38.338  31.477  36.598  1.00  0.00     0.173 A 
ATOM     75  F   UNL A   1      40.634  33.824  35.045  1.00  0.00    -0.203 F 
ATOM     76  C   UNL A   1      39.358  34.022  37.014  1.00  0.00     0.198 A 
ATOM     77  C   UNL A   1      37.928  32.222  37.700  1.00  0.00     0.198 A 
ATOM     78  F   UNL A   1      37.834  30.246  36.429  1.00  0.00    -0.203 F 
ATOM     79  F   UNL A   1      39.884  35.235  37.232  1.00  0.00    -0.200 F 
ATOM     80  C   UNL A   1      38.446  33.490  37.913  1.00  0.00     0.200 A 
ATOM     81  F   UNL A   1      37.033  31.711  38.557  1.00  0.00    -0.200 F 
ATOM     82  F   UNL A   1      38.073  34.196  38.989  1.00  0.00    -0.200 F 
ENDBRANCH  48  72
BRANCH  60  83
ATOM     83  C   UNL A   1      44.526  27.557  34.595  1.00  0.00     0.064 A 
ATOM     84  C   UNL A   1      45.734  28.266  34.670  1.00  0.00     0.173 A 
ATOM     85  C   UNL A   1      44.382  26.417  35.404  1.00  0.00     0.173 A 
ATOM     86  F   UNL A   1      45.927  29.353  33.909  1.00  0.00    -0.203 F 
ATOM     87  C   UNL A   1      46.766  27.834  35.500  1.00  0.00     0.198 A 
ATOM     88  C   UNL A   1      45.403  26.010  36.259  1.00  0.00     0.198 A 
ATOM     89  F   UNL A   1      43.243  25.709  35.378  1.00  0.00    -0.203 F 
ATOM     90  F   UNL A   1      47.931  28.496  35.515  1.00  0.00    -0.200 F 
ATOM     91  C   UNL A   1      46.597  26.713  36.299  1.00  0.00     0.200 A 
ATOM     92  F   UNL A   1      45.228  24.938  37.044  1.00  0.00    -0.200 F 
ATOM     93  F   UNL A   1      47.587  26.307  37.105  1.00  0.00    -0.200 F 
ENDBRANCH  60  83
ENDBRANCH  34  35
ENDBRANCH  27  29
ENDBRANCH  26  27
ENDBRANCH  25  26
ENDBRANCH  24  25
ENDBRANCH  23  24
ENDBRANCH   1  23
TORSDOF 20
ENDMDL
