MODEL 1
REMARK VINA RESULT:     -11.0      0.000      0.000
REMARK SMILES C[C@H](NC(=O)C(=O)c1ccccc1)C(=O)OCCOCCOC(=O)c1ccc(-c2c3nc(c(-c4c(F)c(F)c(F)c(F)c4F)c4ccc([nH]4)c(-c4c(F)c(F)c(F)c(F)c4F)c4nc(c(-c5c(F)c(F)c(F)c(F)c5F)c5ccc2[nH]5)C=C4)C=C3)cc1
REMARK SMILES IDX 18 1 17 2 16 3 14 4 15 5 2 6 1 7 3 8 4 9 5 11 6 12 7 13 8 14
REMARK SMILES IDX 9 15 13 16 10 17 12 18 11 19 19 20 20 21 21 22 22 23 23 24
REMARK SMILES IDX 24 25 25 26 26 27 87 28 27 29 86 30 28 31 29 32 30 33 80 34
REMARK SMILES IDX 31 35 85 36 79 37 81 38 32 39 84 40 78 41 77 42 33 44 65 45
REMARK SMILES IDX 45 46 64 47 46 48 49 49 63 50 82 51 47 52 48 53 62 55 83 56
REMARK SMILES IDX 50 57 34 58 35 59 43 60 36 61 37 62 41 63 44 64 38 65 39 66
REMARK SMILES IDX 42 67 40 68 66 69 67 70 75 71 68 72 69 73 73 74 76 75 70 76
REMARK SMILES IDX 71 77 74 78 72 79 51 80 52 81 60 82 53 83 54 84 58 85 61 86
REMARK SMILES IDX 55 87 56 88 59 89 57 90
REMARK H PARENT 3 10 81 43 49 54
REMARK Flexibility Score: inf
ROOT
ATOM      1  C   UNL A   1      32.317  28.181  24.741  1.00  0.00     0.202 C 
ENDROOT
BRANCH   1   2
ATOM      2  C   UNL A   1      31.679  27.477  25.942  1.00  0.00     0.261 C 
BRANCH   2   3
ATOM      3  O   UNL A   1      30.841  26.384  25.520  1.00  0.00    -0.462 OA
BRANCH   3   4
ATOM      4  C   UNL A   1      31.327  25.142  25.798  1.00  0.00     0.328 C 
ATOM      5  O   UNL A   1      31.373  24.655  26.924  1.00  0.00    -0.250 OA
BRANCH   4   6
ATOM      6  C   UNL A   1      31.953  24.454  24.570  1.00  0.00     0.189 C 
ATOM      7  C   UNL A   1      31.093  24.823  23.363  1.00  0.00     0.043 C 
BRANCH   6   8
ATOM      8  N   UNL A   1      32.088  22.991  24.615  1.00  0.00    -0.336 N 
ATOM      9  C   UNL A   1      33.104  22.207  24.118  1.00  0.00     0.293 C 
ATOM     10  H   UNL A   1      31.355  22.508  25.061  1.00  0.00     0.164 HD
ATOM     11  O   UNL A   1      33.029  20.985  24.157  1.00  0.00    -0.265 OA
BRANCH   9  12
ATOM     12  C   UNL A   1      34.369  22.864  23.566  1.00  0.00     0.250 C 
ATOM     13  O   UNL A   1      34.321  23.435  22.480  1.00  0.00    -0.283 OA
BRANCH  12  14
ATOM     14  C   UNL A   1      35.612  22.898  24.376  1.00  0.00     0.028 A 
ATOM     15  C   UNL A   1      36.511  21.829  24.250  1.00  0.00     0.012 A 
ATOM     16  C   UNL A   1      35.890  23.937  25.270  1.00  0.00     0.012 A 
ATOM     17  C   UNL A   1      37.688  21.806  25.001  1.00  0.00     0.001 A 
ATOM     18  C   UNL A   1      37.064  23.900  26.031  1.00  0.00     0.001 A 
ATOM     19  C   UNL A   1      37.961  22.839  25.895  1.00  0.00     0.000 A 
ENDBRANCH  12  14
ENDBRANCH   9  12
ENDBRANCH   6   8
ENDBRANCH   4   6
ENDBRANCH   3   4
ENDBRANCH   2   3
ENDBRANCH   1   2
BRANCH   1  20
ATOM     20  O   UNL A   1      32.437  29.601  24.842  1.00  0.00    -0.374 OA
BRANCH  20  21
ATOM     21  C   UNL A   1      31.314  30.306  25.370  1.00  0.00     0.202 C 
BRANCH  21  22
ATOM     22  C   UNL A   1      31.606  31.280  26.516  1.00  0.00     0.261 C 
BRANCH  22  23
ATOM     23  O   UNL A   1      32.804  30.944  27.238  1.00  0.00    -0.460 OA
BRANCH  23  24
ATOM     24  C   UNL A   1      33.579  32.006  27.554  1.00  0.00     0.338 C 
ATOM     25  O   UNL A   1      33.224  33.171  27.686  1.00  0.00    -0.246 OA
BRANCH  24  26
ATOM     26  C   UNL A   1      34.947  31.576  27.890  1.00  0.00     0.060 A 
ATOM     27  C   UNL A   1      35.150  30.205  28.093  1.00  0.00     0.016 A 
ATOM     28  C   UNL A   1      35.989  32.485  28.102  1.00  0.00     0.016 A 
ATOM     29  C   UNL A   1      36.373  29.744  28.569  1.00  0.00     0.010 A 
ATOM     30  C   UNL A   1      37.219  32.018  28.586  1.00  0.00     0.010 A 
ATOM     31  C   UNL A   1      37.402  30.650  28.860  1.00  0.00    -0.014 A 
BRANCH  31  32
ATOM     32  C   UNL A   1      38.605  30.150  29.570  1.00  0.00     0.031 A 
ATOM     33  C   UNL A   1      38.869  30.599  30.983  1.00  0.00     0.074 A 
ATOM     34  C   UNL A   1      39.404  29.233  28.997  1.00  0.00     0.049 A 
ATOM     35  N   UNL A   1      39.802  30.214  31.817  1.00  0.00    -0.248 NA
ATOM     36  C   UNL A   1      37.955  31.612  31.532  1.00  0.00     0.031 C 
ATOM     37  C   UNL A   1      39.244  28.704  27.644  1.00  0.00     0.029 A 
ATOM     38  N   UNL A   1      40.505  28.576  29.488  1.00  0.00    -0.354 N 
ATOM     39  C   UNL A   1      39.578  30.922  32.990  1.00  0.00     0.074 A 
ATOM     40  C   UNL A   1      38.448  31.793  32.748  1.00  0.00     0.031 C 
ATOM     41  C   UNL A   1      40.211  27.801  27.412  1.00  0.00     0.029 A 
ATOM     42  C   UNL A   1      41.065  27.698  28.594  1.00  0.00     0.049 A 
ATOM     43  H   UNL A   1      40.858  28.721  30.396  1.00  0.00     0.167 HD
ATOM     44  C   UNL A   1      40.240  30.839  34.169  1.00  0.00     0.037 A 
ATOM     45  C   UNL A   1      42.145  26.903  28.717  1.00  0.00     0.037 A 
ATOM     46  C   UNL A   1      41.370  29.980  34.411  1.00  0.00     0.049 A 
ATOM     47  C   UNL A   1      42.892  26.863  30.025  1.00  0.00     0.074 A 
ATOM     48  C   UNL A   1      42.110  29.832  35.572  1.00  0.00     0.029 A 
ATOM     49  N   UNL A   1      41.927  29.126  33.471  1.00  0.00    -0.354 N 
ATOM     50  N   UNL A   1      42.651  27.515  31.137  1.00  0.00    -0.248 NA
ATOM     51  C   UNL A   1      44.052  25.964  30.098  1.00  0.00     0.031 C 
ATOM     52  C   UNL A   1      43.138  28.914  35.322  1.00  0.00     0.029 A 
ATOM     53  C   UNL A   1      43.011  28.460  34.020  1.00  0.00     0.049 A 
ATOM     54  H   UNL A   1      41.601  29.011  32.549  1.00  0.00     0.167 HD
ATOM     55  C   UNL A   1      43.616  27.094  32.043  1.00  0.00     0.074 A 
ATOM     56  C   UNL A   1      44.429  26.111  31.360  1.00  0.00     0.031 C 
ATOM     57  C   UNL A   1      43.814  27.489  33.324  1.00  0.00     0.037 A 
BRANCH  44  58
ATOM     58  C   UNL A   1      39.760  31.707  35.294  1.00  0.00     0.064 A 
ATOM     59  C   UNL A   1      40.306  32.980  35.517  1.00  0.00     0.173 A 
ATOM     60  C   UNL A   1      38.714  31.285  36.127  1.00  0.00     0.173 A 
ATOM     61  F   UNL A   1      41.316  33.424  34.754  1.00  0.00    -0.203 F 
ATOM     62  C   UNL A   1      39.832  33.793  36.543  1.00  0.00     0.198 A 
ATOM     63  C   UNL A   1      38.227  32.110  37.138  1.00  0.00     0.198 A 
ATOM     64  F   UNL A   1      38.156  30.078  35.953  1.00  0.00    -0.203 F 
ATOM     65  F   UNL A   1      40.390  34.992  36.760  1.00  0.00    -0.200 F 
ATOM     66  C   UNL A   1      38.788  33.360  37.348  1.00  0.00     0.200 A 
ATOM     67  F   UNL A   1      37.211  31.695  37.908  1.00  0.00    -0.200 F 
ATOM     68  F   UNL A   1      38.326  34.148  38.330  1.00  0.00    -0.200 F 
ENDBRANCH  44  58
BRANCH  45  69
ATOM     69  C   UNL A   1      42.593  26.076  27.566  1.00  0.00     0.064 A 
ATOM     70  C   UNL A   1      42.044  24.811  27.321  1.00  0.00     0.173 A 
ATOM     71  C   UNL A   1      43.602  26.530  26.705  1.00  0.00     0.173 A 
ATOM     72  F   UNL A   1      41.094  24.323  28.131  1.00  0.00    -0.203 F 
ATOM     73  C   UNL A   1      42.505  24.020  26.269  1.00  0.00     0.198 A 
ATOM     74  C   UNL A   1      44.043  25.750  25.638  1.00  0.00     0.198 A 
ATOM     75  F   UNL A   1      44.161  27.734  26.898  1.00  0.00    -0.203 F 
ATOM     76  F   UNL A   1      41.999  22.792  26.087  1.00  0.00    -0.200 F 
ATOM     77  C   UNL A   1      43.500  24.492  25.427  1.00  0.00     0.200 A 
ATOM     78  F   UNL A   1      44.997  26.215  24.821  1.00  0.00    -0.200 F 
ATOM     79  F   UNL A   1      43.944  23.731  24.418  1.00  0.00    -0.200 F 
ENDBRANCH  45  69
BRANCH  57  80
ATOM     80  C   UNL A   1      44.948  26.846  34.069  1.00  0.00     0.064 A 
ATOM     81  C   UNL A   1      44.774  25.648  34.778  1.00  0.00     0.173 A 
ATOM     82  C   UNL A   1      46.226  27.426  34.063  1.00  0.00     0.173 A 
ATOM     83  F   UNL A   1      43.568  25.061  34.825  1.00  0.00    -0.203 F 
ATOM     84  C   UNL A   1      45.829  25.073  35.482  1.00  0.00     0.198 A 
ATOM     85  C   UNL A   1      47.286  26.833  34.745  1.00  0.00     0.198 A 
ATOM     86  F   UNL A   1      46.448  28.568  33.395  1.00  0.00    -0.203 F 
ATOM     87  F   UNL A   1      45.626  23.958  36.197  1.00  0.00    -0.200 F 
ATOM     88  C   UNL A   1      47.083  25.662  35.461  1.00  0.00     0.200 A 
ATOM     89  F   UNL A   1      48.500  27.398  34.716  1.00  0.00    -0.200 F 
ATOM     90  F   UNL A   1      48.096  25.109  36.142  1.00  0.00    -0.200 F 
ENDBRANCH  57  80
ENDBRANCH  31  32
ENDBRANCH  24  26
ENDBRANCH  23  24
ENDBRANCH  22  23
ENDBRANCH  21  22
ENDBRANCH  20  21
ENDBRANCH   1  20
TORSDOF 17
ENDMDL
MODEL 2
REMARK VINA RESULT:     -10.8      2.127      3.853
REMARK SMILES C[C@H](NC(=O)C(=O)c1ccccc1)C(=O)OCCOCCOC(=O)c1ccc(-c2c3nc(c(-c4c(F)c(F)c(F)c(F)c4F)c4ccc([nH]4)c(-c4c(F)c(F)c(F)c(F)c4F)c4nc(c(-c5c(F)c(F)c(F)c(F)c5F)c5ccc2[nH]5)C=C4)C=C3)cc1
REMARK SMILES IDX 18 1 17 2 16 3 14 4 15 5 2 6 1 7 3 8 4 9 5 11 6 12 7 13 8 14
REMARK SMILES IDX 9 15 13 16 10 17 12 18 11 19 19 20 20 21 21 22 22 23 23 24
REMARK SMILES IDX 24 25 25 26 26 27 87 28 27 29 86 30 28 31 29 32 30 33 80 34
REMARK SMILES IDX 31 35 85 36 79 37 81 38 32 39 84 40 78 41 77 42 33 44 65 45
REMARK SMILES IDX 45 46 64 47 46 48 49 49 63 50 82 51 47 52 48 53 62 55 83 56
REMARK SMILES IDX 50 57 34 58 35 59 43 60 36 61 37 62 41 63 44 64 38 65 39 66
REMARK SMILES IDX 42 67 40 68 66 69 67 70 75 71 68 72 69 73 73 74 76 75 70 76
REMARK SMILES IDX 71 77 74 78 72 79 51 80 52 81 60 82 53 83 54 84 58 85 61 86
REMARK SMILES IDX 55 87 56 88 59 89 57 90
REMARK H PARENT 3 10 81 43 49 54
REMARK Flexibility Score: inf
ROOT
ATOM      1  C   UNL A   1      33.108  30.240  27.235  1.00  0.00     0.202 C 
ENDROOT
BRANCH   1   2
ATOM      2  C   UNL A   1      33.384  28.793  26.816  1.00  0.00     0.261 C 
BRANCH   2   3
ATOM      3  O   UNL A   1      32.362  28.306  25.924  1.00  0.00    -0.462 OA
BRANCH   3   4
ATOM      4  C   UNL A   1      31.536  27.360  26.453  1.00  0.00     0.328 C 
ATOM      5  O   UNL A   1      31.057  27.415  27.581  1.00  0.00    -0.250 OA
BRANCH   4   6
ATOM      6  C   UNL A   1      31.374  26.129  25.541  1.00  0.00     0.189 C 
ATOM      7  C   UNL A   1      32.278  25.034  26.102  1.00  0.00     0.043 C 
BRANCH   6   8
ATOM      8  N   UNL A   1      31.687  26.305  24.114  1.00  0.00    -0.336 N 
ATOM      9  C   UNL A   1      30.843  26.669  23.090  1.00  0.00     0.293 C 
ATOM     10  H   UNL A   1      32.623  26.141  23.858  1.00  0.00     0.164 HD
ATOM     11  O   UNL A   1      31.237  26.687  21.930  1.00  0.00    -0.265 OA
BRANCH   9  12
ATOM     12  C   UNL A   1      29.415  27.115  23.405  1.00  0.00     0.250 C 
ATOM     13  O   UNL A   1      28.587  26.274  23.743  1.00  0.00    -0.283 OA
BRANCH  12  14
ATOM     14  C   UNL A   1      29.061  28.556  23.398  1.00  0.00     0.028 A 
ATOM     15  C   UNL A   1      27.768  28.916  22.988  1.00  0.00     0.012 A 
ATOM     16  C   UNL A   1      29.976  29.550  23.758  1.00  0.00     0.012 A 
ATOM     17  C   UNL A   1      27.390  30.259  22.950  1.00  0.00     0.001 A 
ATOM     18  C   UNL A   1      29.595  30.896  23.703  1.00  0.00     0.001 A 
ATOM     19  C   UNL A   1      28.305  31.248  23.303  1.00  0.00     0.000 A 
ENDBRANCH  12  14
ENDBRANCH   9  12
ENDBRANCH   6   8
ENDBRANCH   4   6
ENDBRANCH   3   4
ENDBRANCH   2   3
ENDBRANCH   1   2
BRANCH   1  20
ATOM     20  O   UNL A   1      32.317  31.012  26.328  1.00  0.00    -0.374 OA
BRANCH  20  21
ATOM     21  C   UNL A   1      31.575  32.096  26.884  1.00  0.00     0.202 C 
BRANCH  21  22
ATOM     22  C   UNL A   1      32.345  33.405  27.093  1.00  0.00     0.261 C 
BRANCH  22  23
ATOM     23  O   UNL A   1      32.256  33.890  28.444  1.00  0.00    -0.460 OA
BRANCH  23  24
ATOM     24  C   UNL A   1      33.293  34.670  28.824  1.00  0.00     0.338 C 
ATOM     25  O   UNL A   1      33.268  35.869  29.077  1.00  0.00    -0.246 OA
BRANCH  24  26
ATOM     26  C   UNL A   1      34.500  33.859  29.061  1.00  0.00     0.060 A 
ATOM     27  C   UNL A   1      34.358  32.734  29.882  1.00  0.00     0.016 A 
ATOM     28  C   UNL A   1      35.761  34.232  28.583  1.00  0.00     0.016 A 
ATOM     29  C   UNL A   1      35.480  32.016  30.281  1.00  0.00     0.010 A 
ATOM     30  C   UNL A   1      36.891  33.508  28.990  1.00  0.00     0.010 A 
ATOM     31  C   UNL A   1      36.758  32.422  29.874  1.00  0.00    -0.014 A 
BRANCH  31  32
ATOM     32  C   UNL A   1      37.939  31.771  30.493  1.00  0.00     0.031 A 
ATOM     33  C   UNL A   1      38.309  32.109  31.913  1.00  0.00     0.074 A 
ATOM     34  C   UNL A   1      38.619  30.819  29.830  1.00  0.00     0.049 A 
ATOM     35  N   UNL A   1      39.238  31.590  32.675  1.00  0.00    -0.248 NA
ATOM     36  C   UNL A   1      37.522  33.169  32.562  1.00  0.00     0.031 C 
ATOM     37  C   UNL A   1      38.347  30.388  28.461  1.00  0.00     0.029 A 
ATOM     38  N   UNL A   1      39.673  30.034  30.228  1.00  0.00    -0.354 N 
ATOM     39  C   UNL A   1      39.137  32.245  33.895  1.00  0.00     0.074 A 
ATOM     40  C   UNL A   1      38.086  33.231  33.759  1.00  0.00     0.031 C 
ATOM     41  C   UNL A   1      39.212  29.414  28.131  1.00  0.00     0.029 A 
ATOM     42  C   UNL A   1      40.105  29.162  29.260  1.00  0.00     0.049 A 
ATOM     43  H   UNL A   1      40.080  30.092  31.123  1.00  0.00     0.167 HD
ATOM     44  C   UNL A   1      39.841  32.031  35.033  1.00  0.00     0.037 A 
ATOM     45  C   UNL A   1      41.108  28.264  29.284  1.00  0.00     0.037 A 
ATOM     46  C   UNL A   1      40.893  31.059  35.170  1.00  0.00     0.049 A 
ATOM     47  C   UNL A   1      41.906  28.077  30.548  1.00  0.00     0.074 A 
ATOM     48  C   UNL A   1      41.668  30.773  36.281  1.00  0.00     0.029 A 
ATOM     49  N   UNL A   1      41.322  30.214  34.157  1.00  0.00    -0.354 N 
ATOM     50  N   UNL A   1      41.780  28.682  31.704  1.00  0.00    -0.248 NA
ATOM     51  C   UNL A   1      42.978  27.072  30.512  1.00  0.00     0.031 C 
ATOM     52  C   UNL A   1      42.591  29.781  35.930  1.00  0.00     0.029 A 
ATOM     53  C   UNL A   1      42.361  29.417  34.613  1.00  0.00     0.049 A 
ATOM     54  H   UNL A   1      40.944  30.184  33.248  1.00  0.00     0.167 HD
ATOM     55  C   UNL A   1      42.741  28.120  32.537  1.00  0.00     0.074 A 
ATOM     56  C   UNL A   1      43.425  27.108  31.760  1.00  0.00     0.031 C 
ATOM     57  C   UNL A   1      43.035  28.419  33.825  1.00  0.00     0.037 A 
BRANCH  44  58
ATOM     58  C   UNL A   1      39.498  32.873  36.227  1.00  0.00     0.064 A 
ATOM     59  C   UNL A   1      38.513  32.472  37.143  1.00  0.00     0.173 A 
ATOM     60  C   UNL A   1      40.190  34.064  36.485  1.00  0.00     0.173 A 
ATOM     61  F   UNL A   1      37.815  31.346  36.934  1.00  0.00    -0.203 F 
ATOM     62  C   UNL A   1      38.225  33.243  38.266  1.00  0.00     0.198 A 
ATOM     63  C   UNL A   1      39.915  34.820  37.621  1.00  0.00     0.198 A 
ATOM     64  F   UNL A   1      41.143  34.488  35.641  1.00  0.00    -0.203 F 
ATOM     65  F   UNL A   1      37.257  32.859  39.111  1.00  0.00    -0.200 F 
ATOM     66  C   UNL A   1      38.931  34.412  38.508  1.00  0.00     0.200 A 
ATOM     67  F   UNL A   1      40.605  35.944  37.860  1.00  0.00    -0.200 F 
ATOM     68  F   UNL A   1      38.658  35.148  39.595  1.00  0.00    -0.200 F 
ENDBRANCH  44  58
BRANCH  45  69
ATOM     69  C   UNL A   1      41.421  27.469  28.069  1.00  0.00     0.064 A 
ATOM     70  C   UNL A   1      40.884  26.189  27.876  1.00  0.00     0.173 A 
ATOM     71  C   UNL A   1      42.290  27.967  27.087  1.00  0.00     0.173 A 
ATOM     72  F   UNL A   1      40.068  25.659  28.799  1.00  0.00    -0.203 F 
ATOM     73  C   UNL A   1      41.222  25.428  26.758  1.00  0.00     0.198 A 
ATOM     74  C   UNL A   1      42.607  27.217  25.957  1.00  0.00     0.198 A 
ATOM     75  F   UNL A   1      42.833  29.186  27.226  1.00  0.00    -0.203 F 
ATOM     76  F   UNL A   1      40.734  24.187  26.623  1.00  0.00    -0.200 F 
ATOM     77  C   UNL A   1      42.080  25.945  25.798  1.00  0.00     0.200 A 
ATOM     78  F   UNL A   1      43.426  27.724  25.027  1.00  0.00    -0.200 F 
ATOM     79  F   UNL A   1      42.406  25.213  24.725  1.00  0.00    -0.200 F 
ENDBRANCH  45  69
BRANCH  57  80
ATOM     80  C   UNL A   1      44.135  27.630  34.475  1.00  0.00     0.064 A 
ATOM     81  C   UNL A   1      43.891  26.383  35.069  1.00  0.00     0.173 A 
ATOM     82  C   UNL A   1      45.450  28.120  34.492  1.00  0.00     0.173 A 
ATOM     83  F   UNL A   1      42.648  25.878  35.090  1.00  0.00    -0.203 F 
ATOM     84  C   UNL A   1      44.915  25.671  35.686  1.00  0.00     0.198 A 
ATOM     85  C   UNL A   1      46.478  27.392  35.085  1.00  0.00     0.198 A 
ATOM     86  F   UNL A   1      45.739  29.304  33.932  1.00  0.00    -0.203 F 
ATOM     87  F   UNL A   1      44.648  24.508  36.295  1.00  0.00    -0.200 F 
ATOM     88  C   UNL A   1      46.208  26.173  35.690  1.00  0.00     0.200 A 
ATOM     89  F   UNL A   1      47.728  27.873  35.080  1.00  0.00    -0.200 F 
ATOM     90  F   UNL A   1      47.192  25.488  36.288  1.00  0.00    -0.200 F 
ENDBRANCH  57  80
ENDBRANCH  31  32
ENDBRANCH  24  26
ENDBRANCH  23  24
ENDBRANCH  22  23
ENDBRANCH  21  22
ENDBRANCH  20  21
ENDBRANCH   1  20
TORSDOF 17
ENDMDL
MODEL 3
REMARK VINA RESULT:     -10.8      4.115      9.902
REMARK SMILES C[C@H](NC(=O)C(=O)c1ccccc1)C(=O)OCCOCCOC(=O)c1ccc(-c2c3nc(c(-c4c(F)c(F)c(F)c(F)c4F)c4ccc([nH]4)c(-c4c(F)c(F)c(F)c(F)c4F)c4nc(c(-c5c(F)c(F)c(F)c(F)c5F)c5ccc2[nH]5)C=C4)C=C3)cc1
REMARK SMILES IDX 18 1 17 2 16 3 14 4 15 5 2 6 1 7 3 8 4 9 5 11 6 12 7 13 8 14
REMARK SMILES IDX 9 15 13 16 10 17 12 18 11 19 19 20 20 21 21 22 22 23 23 24
REMARK SMILES IDX 24 25 25 26 26 27 87 28 27 29 86 30 28 31 29 32 30 33 80 34
REMARK SMILES IDX 31 35 85 36 79 37 81 38 32 39 84 40 78 41 77 42 33 44 65 45
REMARK SMILES IDX 45 46 64 47 46 48 49 49 63 50 82 51 47 52 48 53 62 55 83 56
REMARK SMILES IDX 50 57 34 58 35 59 43 60 36 61 37 62 41 63 44 64 38 65 39 66
REMARK SMILES IDX 42 67 40 68 66 69 67 70 75 71 68 72 69 73 73 74 76 75 70 76
REMARK SMILES IDX 71 77 74 78 72 79 51 80 52 81 60 82 53 83 54 84 58 85 61 86
REMARK SMILES IDX 55 87 56 88 59 89 57 90
REMARK H PARENT 3 10 81 43 49 54
REMARK Flexibility Score: inf
ROOT
ATOM      1  C   UNL A   1      33.792  21.250  26.331  1.00  0.00     0.202 C 
ENDROOT
BRANCH   1   2
ATOM      2  C   UNL A   1      32.654  22.171  25.881  1.00  0.00     0.261 C 
BRANCH   2   3
ATOM      3  O   UNL A   1      33.007  23.557  26.053  1.00  0.00    -0.462 OA
BRANCH   3   4
ATOM      4  C   UNL A   1      32.512  24.401  25.105  1.00  0.00     0.328 C 
ATOM      5  O   UNL A   1      32.804  24.351  23.915  1.00  0.00    -0.250 OA
BRANCH   4   6
ATOM      6  C   UNL A   1      31.651  25.531  25.702  1.00  0.00     0.189 C 
ATOM      7  C   UNL A   1      30.278  24.937  26.005  1.00  0.00     0.043 C 
BRANCH   6   8
ATOM      8  N   UNL A   1      31.466  26.739  24.883  1.00  0.00    -0.336 N 
ATOM      9  C   UNL A   1      31.424  28.052  25.290  1.00  0.00     0.293 C 
ATOM     10  H   UNL A   1      31.357  26.587  23.917  1.00  0.00     0.164 HD
ATOM     11  O   UNL A   1      31.173  28.948  24.491  1.00  0.00    -0.265 OA
BRANCH   9  12
ATOM     12  C   UNL A   1      31.756  28.411  26.738  1.00  0.00     0.250 C 
ATOM     13  O   UNL A   1      31.037  27.987  27.638  1.00  0.00    -0.283 OA
BRANCH  12  14
ATOM     14  C   UNL A   1      32.987  29.175  27.059  1.00  0.00     0.028 A 
ATOM     15  C   UNL A   1      32.863  30.551  27.307  1.00  0.00     0.012 A 
ATOM     16  C   UNL A   1      34.250  28.576  27.092  1.00  0.00     0.012 A 
ATOM     17  C   UNL A   1      33.992  31.318  27.599  1.00  0.00     0.001 A 
ATOM     18  C   UNL A   1      35.379  29.353  27.371  1.00  0.00     0.001 A 
ATOM     19  C   UNL A   1      35.250  30.720  27.626  1.00  0.00     0.000 A 
ENDBRANCH  12  14
ENDBRANCH   9  12
ENDBRANCH   6   8
ENDBRANCH   4   6
ENDBRANCH   3   4
ENDBRANCH   2   3
ENDBRANCH   1   2
BRANCH   1  20
ATOM     20  O   UNL A   1      34.848  21.057  25.386  1.00  0.00    -0.374 OA
BRANCH  20  21
ATOM     21  C   UNL A   1      36.137  21.546  25.753  1.00  0.00     0.202 C 
BRANCH  21  22
ATOM     22  C   UNL A   1      37.333  20.696  25.310  1.00  0.00     0.261 C 
BRANCH  22  23
ATOM     23  O   UNL A   1      38.542  21.465  25.182  1.00  0.00    -0.460 OA
BRANCH  23  24
ATOM     24  C   UNL A   1      39.474  21.194  26.123  1.00  0.00     0.338 C 
ATOM     25  O   UNL A   1      40.017  20.117  26.343  1.00  0.00    -0.246 OA
BRANCH  24  26
ATOM     26  C   UNL A   1      39.909  22.427  26.801  1.00  0.00     0.060 A 
ATOM     27  C   UNL A   1      39.316  23.624  26.383  1.00  0.00     0.016 A 
ATOM     28  C   UNL A   1      40.938  22.440  27.749  1.00  0.00     0.016 A 
ATOM     29  C   UNL A   1      39.790  24.841  26.861  1.00  0.00     0.010 A 
ATOM     30  C   UNL A   1      41.416  23.668  28.226  1.00  0.00     0.010 A 
ATOM     31  C   UNL A   1      40.871  24.876  27.753  1.00  0.00    -0.014 A 
BRANCH  31  32
ATOM     32  C   UNL A   1      41.488  26.188  28.067  1.00  0.00     0.031 A 
ATOM     33  C   UNL A   1      42.877  26.488  27.570  1.00  0.00     0.074 A 
ATOM     34  C   UNL A   1      40.784  27.137  28.708  1.00  0.00     0.049 A 
ATOM     35  N   UNL A   1      43.565  27.600  27.647  1.00  0.00    -0.248 NA
ATOM     36  C   UNL A   1      43.582  25.392  26.888  1.00  0.00     0.031 C 
ATOM     37  C   UNL A   1      39.425  26.976  29.221  1.00  0.00     0.029 A 
ATOM     38  N   UNL A   1      41.114  28.431  29.025  1.00  0.00    -0.354 N 
ATOM     39  C   UNL A   1      44.772  27.343  27.012  1.00  0.00     0.074 A 
ATOM     40  C   UNL A   1      44.743  25.958  26.593  1.00  0.00     0.031 C 
ATOM     41  C   UNL A   1      39.036  28.130  29.789  1.00  0.00     0.029 A 
ATOM     42  C   UNL A   1      40.120  29.104  29.691  1.00  0.00     0.049 A 
ATOM     43  H   UNL A   1      41.982  28.838  28.797  1.00  0.00     0.167 HD
ATOM     44  C   UNL A   1      45.804  28.190  26.779  1.00  0.00     0.037 A 
ATOM     45  C   UNL A   1      40.091  30.363  30.168  1.00  0.00     0.037 A 
ATOM     46  C   UNL A   1      45.842  29.565  27.202  1.00  0.00     0.049 A 
ATOM     47  C   UNL A   1      41.271  31.272  29.935  1.00  0.00     0.074 A 
ATOM     48  C   UNL A   1      46.846  30.500  27.017  1.00  0.00     0.029 A 
ATOM     49  N   UNL A   1      44.827  30.203  27.900  1.00  0.00    -0.354 N 
ATOM     50  N   UNL A   1      42.394  31.026  29.306  1.00  0.00    -0.248 NA
ATOM     51  C   UNL A   1      41.170  32.637  30.469  1.00  0.00     0.031 C 
ATOM     52  C   UNL A   1      46.454  31.693  27.637  1.00  0.00     0.029 A 
ATOM     53  C   UNL A   1      45.188  31.514  28.169  1.00  0.00     0.049 A 
ATOM     54  H   UNL A   1      43.976  29.786  28.167  1.00  0.00     0.167 HD
ATOM     55  C   UNL A   1      43.125  32.207  29.352  1.00  0.00     0.074 A 
ATOM     56  C   UNL A   1      42.306  33.177  30.049  1.00  0.00     0.031 C 
ATOM     57  C   UNL A   1      44.364  32.465  28.868  1.00  0.00     0.037 A 
BRANCH  44  58
ATOM     58  C   UNL A   1      46.988  27.649  26.033  1.00  0.00     0.064 A 
ATOM     59  C   UNL A   1      47.055  27.706  24.632  1.00  0.00     0.173 A 
ATOM     60  C   UNL A   1      48.084  27.112  26.723  1.00  0.00     0.173 A 
ATOM     61  F   UNL A   1      46.027  28.199  23.926  1.00  0.00    -0.203 F 
ATOM     62  C   UNL A   1      48.172  27.232  23.950  1.00  0.00     0.198 A 
ATOM     63  C   UNL A   1      49.209  26.661  26.038  1.00  0.00     0.198 A 
ATOM     64  F   UNL A   1      48.070  27.039  28.062  1.00  0.00    -0.203 F 
ATOM     65  F   UNL A   1      48.203  27.266  22.610  1.00  0.00    -0.200 F 
ATOM     66  C   UNL A   1      49.251  26.716  24.653  1.00  0.00     0.200 A 
ATOM     67  F   UNL A   1      50.255  26.173  26.719  1.00  0.00    -0.200 F 
ATOM     68  F   UNL A   1      50.330  26.269  23.995  1.00  0.00    -0.200 F 
ENDBRANCH  44  58
BRANCH  45  69
ATOM     69  C   UNL A   1      38.903  30.846  30.918  1.00  0.00     0.064 A 
ATOM     70  C   UNL A   1      38.786  30.653  32.301  1.00  0.00     0.173 A 
ATOM     71  C   UNL A   1      37.847  31.489  30.256  1.00  0.00     0.173 A 
ATOM     72  F   UNL A   1      39.758  30.021  32.974  1.00  0.00    -0.203 F 
ATOM     73  C   UNL A   1      37.646  31.064  32.990  1.00  0.00     0.198 A 
ATOM     74  C   UNL A   1      36.720  31.924  30.950  1.00  0.00     0.198 A 
ATOM     75  F   UNL A   1      37.910  31.697  28.933  1.00  0.00    -0.203 F 
ATOM     76  F   UNL A   1      37.537  30.821  34.304  1.00  0.00    -0.200 F 
ATOM     77  C   UNL A   1      36.617  31.702  32.314  1.00  0.00     0.200 A 
ATOM     78  F   UNL A   1      35.733  32.550  30.296  1.00  0.00    -0.200 F 
ATOM     79  F   UNL A   1      35.521  32.096  32.977  1.00  0.00    -0.200 F 
ENDBRANCH  45  69
BRANCH  57  80
ATOM     80  C   UNL A   1      44.899  33.853  29.065  1.00  0.00     0.064 A 
ATOM     81  C   UNL A   1      44.657  34.871  28.131  1.00  0.00     0.173 A 
ATOM     82  C   UNL A   1      45.649  34.174  30.206  1.00  0.00     0.173 A 
ATOM     83  F   UNL A   1      43.957  34.612  27.016  1.00  0.00    -0.203 F 
ATOM     84  C   UNL A   1      45.177  36.150  28.314  1.00  0.00     0.198 A 
ATOM     85  C   UNL A   1      46.143  35.461  30.401  1.00  0.00     0.198 A 
ATOM     86  F   UNL A   1      45.903  33.239  31.134  1.00  0.00    -0.203 F 
ATOM     87  F   UNL A   1      44.980  37.092  27.382  1.00  0.00    -0.200 F 
ATOM     88  C   UNL A   1      45.915  36.445  29.450  1.00  0.00     0.200 A 
ATOM     89  F   UNL A   1      46.847  35.748  31.504  1.00  0.00    -0.200 F 
ATOM     90  F   UNL A   1      46.416  37.675  29.624  1.00  0.00    -0.200 F 
ENDBRANCH  57  80
ENDBRANCH  31  32
ENDBRANCH  24  26
ENDBRANCH  23  24
ENDBRANCH  22  23
ENDBRANCH  21  22
ENDBRANCH  20  21
ENDBRANCH   1  20
TORSDOF 17
ENDMDL
