MODEL 1
REMARK VINA RESULT:     -11.2      0.000      0.000
REMARK SMILES O=C(CC[N@H+]1CCC[C@H](c2nccn2Cc2cscn2)C1)OCCOCCOC(=O)c1ccc(-c2c3nc(c(-c4c(F)c(F)c(F)c(F)c4F)c4ccc([nH]4)c(-c4c(F)c(F)c(F)c(F)c4F)c4nc(c(-c5c(F)c(F)c(F)c(F)c5F)c5ccc2[nH]5)C=C4)C=C3)cc1
REMARK SMILES IDX 23 1 22 2 2 3 1 4 3 5 4 6 5 7 6 8 21 9 7 11 9 12 8 13 10 14
REMARK SMILES IDX 11 15 14 16 12 17 13 18 15 19 16 20 17 21 20 22 18 23 19 24
REMARK SMILES IDX 24 25 25 26 26 27 27 28 28 29 29 30 30 31 31 32 32 33 93 34
REMARK SMILES IDX 33 35 92 36 34 37 35 38 36 39 86 40 37 41 91 42 85 43 87 44
REMARK SMILES IDX 38 45 90 46 84 47 83 48 39 50 71 51 51 52 70 53 52 54 55 55
REMARK SMILES IDX 69 56 88 57 53 58 54 59 68 61 89 62 56 63 40 64 41 65 49 66
REMARK SMILES IDX 42 67 43 68 47 69 50 70 44 71 45 72 48 73 46 74 72 75 73 76
REMARK SMILES IDX 81 77 74 78 75 79 79 80 82 81 76 82 77 83 80 84 78 85 57 86
REMARK SMILES IDX 58 87 66 88 59 89 60 90 64 91 67 92 61 93 62 94 65 95 63 96
REMARK H PARENT 5 10 87 49 55 60
REMARK Flexibility Score: inf
ROOT
ATOM      1  C   UNL A   1      38.241  22.250  25.770  1.00  0.00     0.261 C 
ENDROOT
BRANCH   1   2
ATOM      2  O   UNL A   1      37.706  21.043  25.224  1.00  0.00    -0.463 OA
BRANCH   2   3
ATOM      3  C   UNL A   1      36.368  20.881  25.380  1.00  0.00     0.311 C 
ATOM      4  O   UNL A   1      35.758  19.980  24.822  1.00  0.00    -0.252 OA
BRANCH   3   5
ATOM      5  C   UNL A   1      35.712  22.028  26.100  1.00  0.00     0.184 C 
BRANCH   5   6
ATOM      6  C   UNL A   1      34.212  21.821  26.357  1.00  0.00     0.274 C 
BRANCH   6   7
ATOM      7  N   UNL A   1      33.236  22.886  26.008  1.00  0.00    -0.334 N 
ATOM      8  C   UNL A   1      32.144  22.974  26.973  1.00  0.00     0.262 C 
ATOM      9  C   UNL A   1      33.869  24.184  25.766  1.00  0.00     0.273 C 
ATOM     10  H   UNL A   1      32.823  22.607  25.118  1.00  0.00     0.348 HD
ATOM     11  C   UNL A   1      31.132  24.031  26.536  1.00  0.00     0.062 C 
ATOM     12  C   UNL A   1      33.016  25.437  25.534  1.00  0.00     0.111 C 
ATOM     13  C   UNL A   1      31.772  25.413  26.448  1.00  0.00     0.023 C 
BRANCH  12  14
ATOM     14  C   UNL A   1      32.726  25.964  24.141  1.00  0.00     0.117 A 
ATOM     15  N   UNL A   1      31.842  25.332  23.373  1.00  0.00    -0.241 NA
ATOM     16  N   UNL A   1      33.043  27.178  23.552  1.00  0.00    -0.328 N 
ATOM     17  C   UNL A   1      31.559  26.141  22.316  1.00  0.00     0.131 A 
ATOM     18  C   UNL A   1      32.284  27.293  22.403  1.00  0.00     0.108 A 
BRANCH  16  19
ATOM     19  C   UNL A   1      33.944  28.245  23.960  1.00  0.00     0.180 C 
BRANCH  19  20
ATOM     20  C   UNL A   1      33.371  29.009  25.106  1.00  0.00     0.071 A 
ATOM     21  C   UNL A   1      32.137  29.637  25.144  1.00  0.00     0.092 A 
ATOM     22  N   UNL A   1      34.097  29.111  26.281  1.00  0.00    -0.248 NA
ATOM     23  S   UNL A   1      31.944  30.482  26.622  1.00  0.00    -0.130 S 
ATOM     24  C   UNL A   1      33.485  29.923  27.114  1.00  0.00     0.175 A 
ENDBRANCH  19  20
ENDBRANCH  16  19
ENDBRANCH  12  14
ENDBRANCH   6   7
ENDBRANCH   5   6
ENDBRANCH   3   5
ENDBRANCH   2   3
ENDBRANCH   1   2
BRANCH   1  25
ATOM     25  C   UNL A   1      39.703  22.139  26.220  1.00  0.00     0.202 C 
BRANCH  25  26
ATOM     26  O   UNL A   1      40.037  21.158  27.195  1.00  0.00    -0.374 OA
BRANCH  26  27
ATOM     27  C   UNL A   1      40.729  19.995  26.734  1.00  0.00     0.202 C 
BRANCH  27  28
ATOM     28  C   UNL A   1      42.251  20.121  26.735  1.00  0.00     0.261 C 
BRANCH  28  29
ATOM     29  O   UNL A   1      42.712  20.387  25.420  1.00  0.00    -0.460 OA
BRANCH  29  30
ATOM     30  C   UNL A   1      44.050  20.450  25.257  1.00  0.00     0.338 C 
ATOM     31  O   UNL A   1      44.845  19.525  25.148  1.00  0.00    -0.246 OA
BRANCH  30  32
ATOM     32  C   UNL A   1      44.397  21.878  25.220  1.00  0.00     0.060 A 
ATOM     33  C   UNL A   1      45.513  22.294  25.939  1.00  0.00     0.016 A 
ATOM     34  C   UNL A   1      43.515  22.796  24.611  1.00  0.00     0.016 A 
ATOM     35  C   UNL A   1      45.569  23.615  26.313  1.00  0.00     0.010 A 
ATOM     36  C   UNL A   1      43.564  24.107  24.988  1.00  0.00     0.010 A 
ATOM     37  C   UNL A   1      44.514  24.453  25.938  1.00  0.00    -0.014 A 
BRANCH  37  38
ATOM     38  C   UNL A   1      44.295  25.639  26.727  1.00  0.00     0.031 A 
ATOM     39  C   UNL A   1      45.280  26.709  26.544  1.00  0.00     0.074 A 
ATOM     40  C   UNL A   1      43.195  25.734  27.498  1.00  0.00     0.049 A 
ATOM     41  N   UNL A   1      46.136  27.143  27.405  1.00  0.00    -0.248 NA
ATOM     42  C   UNL A   1      45.408  27.291  25.202  1.00  0.00     0.031 C 
ATOM     43  C   UNL A   1      42.007  24.874  27.492  1.00  0.00     0.029 A 
ATOM     44  N   UNL A   1      42.874  26.701  28.394  1.00  0.00    -0.354 N 
ATOM     45  C   UNL A   1      46.796  28.184  26.769  1.00  0.00     0.074 A 
ATOM     46  C   UNL A   1      46.444  28.110  25.375  1.00  0.00     0.031 C 
ATOM     47  C   UNL A   1      41.021  25.478  28.193  1.00  0.00     0.029 A 
ATOM     48  C   UNL A   1      41.546  26.696  28.786  1.00  0.00     0.049 A 
ATOM     49  H   UNL A   1      43.530  27.351  28.737  1.00  0.00     0.167 HD
ATOM     50  C   UNL A   1      47.371  29.185  27.482  1.00  0.00     0.037 A 
ATOM     51  C   UNL A   1      40.921  27.682  29.474  1.00  0.00     0.037 A 
ATOM     52  C   UNL A   1      47.596  28.803  28.852  1.00  0.00     0.049 A 
ATOM     53  C   UNL A   1      41.974  28.518  30.110  1.00  0.00     0.074 A 
ATOM     54  C   UNL A   1      48.315  27.794  29.464  1.00  0.00     0.029 A 
ATOM     55  N   UNL A   1      46.738  29.283  29.812  1.00  0.00    -0.354 N 
ATOM     56  N   UNL A   1      42.730  28.124  31.098  1.00  0.00    -0.248 NA
ATOM     57  C   UNL A   1      42.481  29.660  29.361  1.00  0.00     0.031 C 
ATOM     58  C   UNL A   1      47.543  27.417  30.601  1.00  0.00     0.029 A 
ATOM     59  C   UNL A   1      46.415  28.237  30.639  1.00  0.00     0.049 A 
ATOM     60  H   UNL A   1      46.414  30.210  29.891  1.00  0.00     0.167 HD
ATOM     61  C   UNL A   1      43.974  28.681  30.838  1.00  0.00     0.074 A 
ATOM     62  C   UNL A   1      43.732  29.699  29.825  1.00  0.00     0.031 C 
ATOM     63  C   UNL A   1      45.120  28.070  31.259  1.00  0.00     0.037 A 
BRANCH  50  64
ATOM     64  C   UNL A   1      47.401  30.612  27.012  1.00  0.00     0.064 A 
ATOM     65  C   UNL A   1      48.611  31.325  27.047  1.00  0.00     0.173 A 
ATOM     66  C   UNL A   1      46.240  31.387  26.780  1.00  0.00     0.173 A 
ATOM     67  F   UNL A   1      49.767  30.692  27.300  1.00  0.00    -0.203 F 
ATOM     68  C   UNL A   1      48.650  32.714  26.911  1.00  0.00     0.198 A 
ATOM     69  C   UNL A   1      46.289  32.763  26.580  1.00  0.00     0.198 A 
ATOM     70  F   UNL A   1      45.008  30.868  26.854  1.00  0.00    -0.203 F 
ATOM     71  F   UNL A   1      49.810  33.364  27.071  1.00  0.00    -0.200 F 
ATOM     72  C   UNL A   1      47.490  33.431  26.674  1.00  0.00     0.200 A 
ATOM     73  F   UNL A   1      45.151  33.440  26.375  1.00  0.00    -0.200 F 
ATOM     74  F   UNL A   1      47.520  34.767  26.593  1.00  0.00    -0.200 F 
ENDBRANCH  50  64
BRANCH  51  75
ATOM     75  C   UNL A   1      39.510  28.117  29.363  1.00  0.00     0.064 A 
ATOM     76  C   UNL A   1      38.691  28.198  30.499  1.00  0.00     0.173 A 
ATOM     77  C   UNL A   1      39.010  28.710  28.187  1.00  0.00     0.173 A 
ATOM     78  F   UNL A   1      39.111  27.699  31.670  1.00  0.00    -0.203 F 
ATOM     79  C   UNL A   1      37.456  28.853  30.467  1.00  0.00     0.198 A 
ATOM     80  C   UNL A   1      37.771  29.351  28.152  1.00  0.00     0.198 A 
ATOM     81  F   UNL A   1      39.748  28.765  27.070  1.00  0.00    -0.203 F 
ATOM     82  F   UNL A   1      36.731  28.968  31.589  1.00  0.00    -0.200 F 
ATOM     83  C   UNL A   1      37.001  29.436  29.296  1.00  0.00     0.200 A 
ATOM     84  F   UNL A   1      37.359  29.938  27.019  1.00  0.00    -0.200 F 
ATOM     85  F   UNL A   1      35.844  30.113  29.278  1.00  0.00    -0.200 F 
ENDBRANCH  51  75
BRANCH  63  86
ATOM     86  C   UNL A   1      44.985  26.952  32.257  1.00  0.00     0.064 A 
ATOM     87  C   UNL A   1      44.911  27.151  33.646  1.00  0.00     0.173 A 
ATOM     88  C   UNL A   1      44.793  25.649  31.780  1.00  0.00     0.173 A 
ATOM     89  F   UNL A   1      44.974  28.381  34.170  1.00  0.00    -0.203 F 
ATOM     90  C   UNL A   1      44.708  26.083  34.519  1.00  0.00     0.198 A 
ATOM     91  C   UNL A   1      44.552  24.590  32.652  1.00  0.00     0.198 A 
ATOM     92  F   UNL A   1      44.794  25.408  30.459  1.00  0.00    -0.203 F 
ATOM     93  F   UNL A   1      44.657  26.297  35.842  1.00  0.00    -0.200 F 
ATOM     94  C   UNL A   1      44.522  24.805  34.020  1.00  0.00     0.200 A 
ATOM     95  F   UNL A   1      44.321  23.364  32.162  1.00  0.00    -0.200 F 
ATOM     96  F   UNL A   1      44.287  23.784  34.856  1.00  0.00    -0.200 F 
ENDBRANCH  63  86
ENDBRANCH  37  38
ENDBRANCH  30  32
ENDBRANCH  29  30
ENDBRANCH  28  29
ENDBRANCH  27  28
ENDBRANCH  26  27
ENDBRANCH  25  26
ENDBRANCH   1  25
TORSDOF 19
ENDMDL
MODEL 2
REMARK VINA RESULT:     -11.2      3.193      4.858
REMARK SMILES O=C(CC[N@H+]1CCC[C@H](c2nccn2Cc2cscn2)C1)OCCOCCOC(=O)c1ccc(-c2c3nc(c(-c4c(F)c(F)c(F)c(F)c4F)c4ccc([nH]4)c(-c4c(F)c(F)c(F)c(F)c4F)c4nc(c(-c5c(F)c(F)c(F)c(F)c5F)c5ccc2[nH]5)C=C4)C=C3)cc1
REMARK SMILES IDX 23 1 22 2 2 3 1 4 3 5 4 6 5 7 6 8 21 9 7 11 9 12 8 13 10 14
REMARK SMILES IDX 11 15 14 16 12 17 13 18 15 19 16 20 17 21 20 22 18 23 19 24
REMARK SMILES IDX 24 25 25 26 26 27 27 28 28 29 29 30 30 31 31 32 32 33 93 34
REMARK SMILES IDX 33 35 92 36 34 37 35 38 36 39 86 40 37 41 91 42 85 43 87 44
REMARK SMILES IDX 38 45 90 46 84 47 83 48 39 50 71 51 51 52 70 53 52 54 55 55
REMARK SMILES IDX 69 56 88 57 53 58 54 59 68 61 89 62 56 63 40 64 41 65 49 66
REMARK SMILES IDX 42 67 43 68 47 69 50 70 44 71 45 72 48 73 46 74 72 75 73 76
REMARK SMILES IDX 81 77 74 78 75 79 79 80 82 81 76 82 77 83 80 84 78 85 57 86
REMARK SMILES IDX 58 87 66 88 59 89 60 90 64 91 67 92 61 93 62 94 65 95 63 96
REMARK H PARENT 5 10 87 49 55 60
REMARK Flexibility Score: inf
ROOT
ATOM      1  C   UNL A   1      41.336  19.287  26.610  1.00  0.00     0.261 C 
ENDROOT
BRANCH   1   2
ATOM      2  O   UNL A   1      40.612  20.351  25.989  1.00  0.00    -0.463 OA
BRANCH   2   3
ATOM      3  C   UNL A   1      40.296  21.389  26.804  1.00  0.00     0.311 C 
ATOM      4  O   UNL A   1      40.699  21.450  27.957  1.00  0.00    -0.252 OA
BRANCH   3   5
ATOM      5  C   UNL A   1      39.249  22.300  26.223  1.00  0.00     0.184 C 
BRANCH   5   6
ATOM      6  C   UNL A   1      38.125  21.558  25.484  1.00  0.00     0.274 C 
BRANCH   6   7
ATOM      7  N   UNL A   1      36.761  22.145  25.407  1.00  0.00    -0.334 N 
ATOM      8  C   UNL A   1      36.632  23.354  26.217  1.00  0.00     0.262 C 
ATOM      9  C   UNL A   1      36.304  22.348  24.031  1.00  0.00     0.273 C 
ATOM     10  H   UNL A   1      36.134  21.450  25.811  1.00  0.00     0.348 HD
ATOM     11  C   UNL A   1      35.200  23.880  26.162  1.00  0.00     0.062 C 
ATOM     12  C   UNL A   1      34.984  23.074  23.746  1.00  0.00     0.111 C 
ATOM     13  C   UNL A   1      34.794  24.243  24.738  1.00  0.00     0.023 C 
BRANCH  12  14
ATOM     14  C   UNL A   1      33.700  22.321  23.455  1.00  0.00     0.117 A 
ATOM     15  N   UNL A   1      33.037  22.567  22.329  1.00  0.00    -0.241 NA
ATOM     16  N   UNL A   1      33.163  21.190  24.052  1.00  0.00    -0.328 N 
ATOM     17  C   UNL A   1      32.104  21.589  22.174  1.00  0.00     0.131 A 
ATOM     18  C   UNL A   1      32.161  20.720  23.224  1.00  0.00     0.108 A 
BRANCH  16  19
ATOM     19  C   UNL A   1      33.502  20.493  25.283  1.00  0.00     0.180 C 
BRANCH  19  20
ATOM     20  C   UNL A   1      33.492  19.017  25.072  1.00  0.00     0.071 A 
ATOM     21  C   UNL A   1      34.349  18.293  24.258  1.00  0.00     0.092 A 
ATOM     22  N   UNL A   1      32.569  18.242  25.755  1.00  0.00    -0.248 NA
ATOM     23  S   UNL A   1      33.902  16.640  24.242  1.00  0.00    -0.130 S 
ATOM     24  C   UNL A   1      32.638  16.997  25.340  1.00  0.00     0.175 A 
ENDBRANCH  19  20
ENDBRANCH  16  19
ENDBRANCH  12  14
ENDBRANCH   6   7
ENDBRANCH   5   6
ENDBRANCH   3   5
ENDBRANCH   2   3
ENDBRANCH   1   2
BRANCH   1  25
ATOM     25  C   UNL A   1      42.641  18.919  25.894  1.00  0.00     0.202 C 
BRANCH  25  26
ATOM     26  O   UNL A   1      43.231  19.879  25.026  1.00  0.00    -0.374 OA
BRANCH  26  27
ATOM     27  C   UNL A   1      44.565  20.294  25.328  1.00  0.00     0.202 C 
BRANCH  27  28
ATOM     28  C   UNL A   1      44.691  21.748  25.777  1.00  0.00     0.261 C 
BRANCH  28  29
ATOM     29  O   UNL A   1      43.401  22.325  25.902  1.00  0.00    -0.460 OA
BRANCH  29  30
ATOM     30  C   UNL A   1      43.252  23.570  25.403  1.00  0.00     0.338 C 
ATOM     31  O   UNL A   1      43.666  24.015  24.339  1.00  0.00    -0.246 OA
BRANCH  30  32
ATOM     32  C   UNL A   1      42.466  24.323  26.391  1.00  0.00     0.060 A 
ATOM     33  C   UNL A   1      41.425  25.119  25.922  1.00  0.00     0.016 A 
ATOM     34  C   UNL A   1      42.883  24.352  27.738  1.00  0.00     0.016 A 
ATOM     35  C   UNL A   1      41.018  26.162  26.719  1.00  0.00     0.010 A 
ATOM     36  C   UNL A   1      42.486  25.393  28.529  1.00  0.00     0.010 A 
ATOM     37  C   UNL A   1      41.664  26.347  27.946  1.00  0.00    -0.014 A 
BRANCH  37  38
ATOM     38  C   UNL A   1      41.631  27.668  28.521  1.00  0.00     0.031 A 
ATOM     39  C   UNL A   1      42.747  28.544  28.153  1.00  0.00     0.074 A 
ATOM     40  C   UNL A   1      40.577  28.045  29.270  1.00  0.00     0.049 A 
ATOM     41  N   UNL A   1      43.678  28.993  28.922  1.00  0.00    -0.248 NA
ATOM     42  C   UNL A   1      42.915  28.866  26.730  1.00  0.00     0.031 C 
ATOM     43  C   UNL A   1      39.283  27.371  29.417  1.00  0.00     0.029 A 
ATOM     44  N   UNL A   1      40.417  29.185  29.988  1.00  0.00    -0.354 N 
ATOM     45  C   UNL A   1      44.456  29.809  28.113  1.00  0.00     0.074 A 
ATOM     46  C   UNL A   1      44.058  29.550  26.755  1.00  0.00     0.031 C 
ATOM     47  C   UNL A   1      38.409  28.216  30.009  1.00  0.00     0.029 A 
ATOM     48  C   UNL A   1      39.113  29.431  30.382  1.00  0.00     0.049 A 
ATOM     49  H   UNL A   1      41.165  29.786  30.211  1.00  0.00     0.167 HD
ATOM     50  C   UNL A   1      45.183  30.827  28.641  1.00  0.00     0.037 A 
ATOM     51  C   UNL A   1      38.648  30.597  30.893  1.00  0.00     0.037 A 
ATOM     52  C   UNL A   1      45.393  30.655  30.055  1.00  0.00     0.049 A 
ATOM     53  C   UNL A   1      39.823  31.374  31.371  1.00  0.00     0.074 A 
ATOM     54  C   UNL A   1      45.984  29.674  30.828  1.00  0.00     0.029 A 
ATOM     55  N   UNL A   1      44.636  31.405  30.923  1.00  0.00    -0.354 N 
ATOM     56  N   UNL A   1      40.546  31.051  32.408  1.00  0.00    -0.248 NA
ATOM     57  C   UNL A   1      40.459  32.291  30.435  1.00  0.00     0.031 C 
ATOM     58  C   UNL A   1      45.201  29.606  32.017  1.00  0.00     0.029 A 
ATOM     59  C   UNL A   1      44.197  30.570  31.918  1.00  0.00     0.049 A 
ATOM     60  H   UNL A   1      44.445  32.368  30.843  1.00  0.00     0.167 HD
ATOM     61  C   UNL A   1      41.847  31.377  32.051  1.00  0.00     0.074 A 
ATOM     62  C   UNL A   1      41.717  32.233  30.878  1.00  0.00     0.031 C 
ATOM     63  C   UNL A   1      42.910  30.692  32.564  1.00  0.00     0.037 A 
BRANCH  50  64
ATOM     64  C   UNL A   1      45.394  32.135  27.932  1.00  0.00     0.064 A 
ATOM     65  C   UNL A   1      44.294  32.976  27.697  1.00  0.00     0.173 A 
ATOM     66  C   UNL A   1      46.582  32.471  27.242  1.00  0.00     0.173 A 
ATOM     67  F   UNL A   1      43.107  32.723  28.270  1.00  0.00    -0.203 F 
ATOM     68  C   UNL A   1      44.365  34.044  26.799  1.00  0.00     0.198 A 
ATOM     69  C   UNL A   1      46.667  33.575  26.398  1.00  0.00     0.198 A 
ATOM     70  F   UNL A   1      47.667  31.688  27.263  1.00  0.00    -0.203 F 
ATOM     71  F   UNL A   1      43.260  34.745  26.514  1.00  0.00    -0.200 F 
ATOM     72  C   UNL A   1      45.551  34.344  26.154  1.00  0.00     0.200 A 
ATOM     73  F   UNL A   1      47.821  33.833  25.767  1.00  0.00    -0.200 F 
ATOM     74  F   UNL A   1      45.607  35.336  25.256  1.00  0.00    -0.200 F 
ENDBRANCH  50  64
BRANCH  51  75
ATOM     75  C   UNL A   1      37.307  31.199  30.715  1.00  0.00     0.064 A 
ATOM     76  C   UNL A   1      36.504  31.506  31.824  1.00  0.00     0.173 A 
ATOM     77  C   UNL A   1      36.891  31.726  29.477  1.00  0.00     0.173 A 
ATOM     78  F   UNL A   1      36.853  31.083  33.048  1.00  0.00    -0.203 F 
ATOM     79  C   UNL A   1      35.367  32.311  31.706  1.00  0.00     0.198 A 
ATOM     80  C   UNL A   1      35.748  32.516  29.356  1.00  0.00     0.198 A 
ATOM     81  F   UNL A   1      37.632  31.565  28.371  1.00  0.00    -0.203 F 
ATOM     82  F   UNL A   1      34.662  32.638  32.798  1.00  0.00    -0.200 F 
ATOM     83  C   UNL A   1      34.995  32.822  30.473  1.00  0.00     0.200 A 
ATOM     84  F   UNL A   1      35.419  33.029  28.162  1.00  0.00    -0.200 F 
ATOM     85  F   UNL A   1      33.937  33.639  30.368  1.00  0.00    -0.200 F 
ENDBRANCH  51  75
BRANCH  63  86
ATOM     86  C   UNL A   1      42.652  29.790  33.740  1.00  0.00     0.064 A 
ATOM     87  C   UNL A   1      42.815  30.186  35.078  1.00  0.00     0.173 A 
ATOM     88  C   UNL A   1      42.097  28.525  33.504  1.00  0.00     0.173 A 
ATOM     89  F   UNL A   1      43.236  31.419  35.385  1.00  0.00    -0.203 F 
ATOM     90  C   UNL A   1      42.486  29.331  36.130  1.00  0.00     0.198 A 
ATOM     91  C   UNL A   1      41.734  27.688  34.556  1.00  0.00     0.198 A 
ATOM     92  F   UNL A   1      41.863  28.116  32.247  1.00  0.00    -0.203 F 
ATOM     93  F   UNL A   1      42.667  29.727  37.399  1.00  0.00    -0.200 F 
ATOM     94  C   UNL A   1      41.941  28.087  35.867  1.00  0.00     0.200 A 
ATOM     95  F   UNL A   1      41.158  26.506  34.299  1.00  0.00    -0.200 F 
ATOM     96  F   UNL A   1      41.587  27.280  36.878  1.00  0.00    -0.200 F 
ENDBRANCH  63  86
ENDBRANCH  37  38
ENDBRANCH  30  32
ENDBRANCH  29  30
ENDBRANCH  28  29
ENDBRANCH  27  28
ENDBRANCH  26  27
ENDBRANCH  25  26
ENDBRANCH   1  25
TORSDOF 19
ENDMDL
MODEL 3
REMARK VINA RESULT:     -11.1      2.695      4.417
REMARK SMILES O=C(CC[N@H+]1CCC[C@H](c2nccn2Cc2cscn2)C1)OCCOCCOC(=O)c1ccc(-c2c3nc(c(-c4c(F)c(F)c(F)c(F)c4F)c4ccc([nH]4)c(-c4c(F)c(F)c(F)c(F)c4F)c4nc(c(-c5c(F)c(F)c(F)c(F)c5F)c5ccc2[nH]5)C=C4)C=C3)cc1
REMARK SMILES IDX 23 1 22 2 2 3 1 4 3 5 4 6 5 7 6 8 21 9 7 11 9 12 8 13 10 14
REMARK SMILES IDX 11 15 14 16 12 17 13 18 15 19 16 20 17 21 20 22 18 23 19 24
REMARK SMILES IDX 24 25 25 26 26 27 27 28 28 29 29 30 30 31 31 32 32 33 93 34
REMARK SMILES IDX 33 35 92 36 34 37 35 38 36 39 86 40 37 41 91 42 85 43 87 44
REMARK SMILES IDX 38 45 90 46 84 47 83 48 39 50 71 51 51 52 70 53 52 54 55 55
REMARK SMILES IDX 69 56 88 57 53 58 54 59 68 61 89 62 56 63 40 64 41 65 49 66
REMARK SMILES IDX 42 67 43 68 47 69 50 70 44 71 45 72 48 73 46 74 72 75 73 76
REMARK SMILES IDX 81 77 74 78 75 79 79 80 82 81 76 82 77 83 80 84 78 85 57 86
REMARK SMILES IDX 58 87 66 88 59 89 60 90 64 91 67 92 61 93 62 94 65 95 63 96
REMARK H PARENT 5 10 87 49 55 60
REMARK Flexibility Score: inf
ROOT
ATOM      1  C   UNL A   1      42.579  18.842  25.965  1.00  0.00     0.261 C 
ENDROOT
BRANCH   1   2
ATOM      2  O   UNL A   1      41.768  19.937  25.536  1.00  0.00    -0.463 OA
BRANCH   2   3
ATOM      3  C   UNL A   1      40.988  20.490  26.499  1.00  0.00     0.311 C 
ATOM      4  O   UNL A   1      41.390  20.651  27.643  1.00  0.00    -0.252 OA
BRANCH   3   5
ATOM      5  C   UNL A   1      39.555  20.663  26.073  1.00  0.00     0.184 C 
BRANCH   5   6
ATOM      6  C   UNL A   1      39.085  22.125  26.059  1.00  0.00     0.274 C 
BRANCH   6   7
ATOM      7  N   UNL A   1      37.644  22.450  25.898  1.00  0.00    -0.334 N 
ATOM      8  C   UNL A   1      37.373  23.873  26.087  1.00  0.00     0.262 C 
ATOM      9  C   UNL A   1      37.079  21.939  24.648  1.00  0.00     0.273 C 
ATOM     10  H   UNL A   1      37.160  21.955  26.647  1.00  0.00     0.348 HD
ATOM     11  C   UNL A   1      35.874  24.147  25.982  1.00  0.00     0.062 C 
ATOM     12  C   UNL A   1      35.646  22.295  24.235  1.00  0.00     0.111 C 
ATOM     13  C   UNL A   1      35.332  23.760  24.610  1.00  0.00     0.023 C 
BRANCH  12  14
ATOM     14  C   UNL A   1      34.483  21.351  24.478  1.00  0.00     0.117 A 
ATOM     15  N   UNL A   1      34.493  20.561  25.547  1.00  0.00    -0.241 NA
ATOM     16  N   UNL A   1      33.223  21.307  23.900  1.00  0.00    -0.328 N 
ATOM     17  C   UNL A   1      33.246  20.035  25.686  1.00  0.00     0.131 A 
ATOM     18  C   UNL A   1      32.436  20.483  24.682  1.00  0.00     0.108 A 
BRANCH  16  19
ATOM     19  C   UNL A   1      32.674  21.968  22.727  1.00  0.00     0.180 C 
BRANCH  19  20
ATOM     20  C   UNL A   1      32.157  23.322  23.078  1.00  0.00     0.071 A 
ATOM     21  C   UNL A   1      32.546  24.526  22.513  1.00  0.00     0.092 A 
ATOM     22  N   UNL A   1      31.171  23.440  24.043  1.00  0.00    -0.248 NA
ATOM     23  S   UNL A   1      31.766  25.833  23.300  1.00  0.00    -0.130 S 
ATOM     24  C   UNL A   1      30.946  24.710  24.298  1.00  0.00     0.175 A 
ENDBRANCH  19  20
ENDBRANCH  16  19
ENDBRANCH  12  14
ENDBRANCH   6   7
ENDBRANCH   5   6
ENDBRANCH   3   5
ENDBRANCH   2   3
ENDBRANCH   1   2
BRANCH   1  25
ATOM     25  C   UNL A   1      44.005  18.863  25.403  1.00  0.00     0.202 C 
BRANCH  25  26
ATOM     26  O   UNL A   1      44.470  20.055  24.780  1.00  0.00    -0.374 OA
BRANCH  26  27
ATOM     27  C   UNL A   1      45.558  20.735  25.410  1.00  0.00     0.202 C 
BRANCH  27  28
ATOM     28  C   UNL A   1      45.556  22.250  25.216  1.00  0.00     0.261 C 
BRANCH  28  29
ATOM     29  O   UNL A   1      44.590  22.842  26.070  1.00  0.00    -0.460 OA
BRANCH  29  30
ATOM     30  C   UNL A   1      43.420  23.193  25.496  1.00  0.00     0.338 C 
ATOM     31  O   UNL A   1      43.030  22.950  24.361  1.00  0.00    -0.246 OA
BRANCH  30  32
ATOM     32  C   UNL A   1      42.665  23.937  26.514  1.00  0.00     0.060 A 
ATOM     33  C   UNL A   1      41.550  24.658  26.097  1.00  0.00     0.016 A 
ATOM     34  C   UNL A   1      43.173  24.036  27.826  1.00  0.00     0.016 A 
ATOM     35  C   UNL A   1      41.142  25.705  26.888  1.00  0.00     0.010 A 
ATOM     36  C   UNL A   1      42.775  25.081  28.610  1.00  0.00     0.010 A 
ATOM     37  C   UNL A   1      41.861  25.968  28.059  1.00  0.00    -0.014 A 
BRANCH  37  38
ATOM     38  C   UNL A   1      41.794  27.304  28.593  1.00  0.00     0.031 A 
ATOM     39  C   UNL A   1      42.919  28.178  28.248  1.00  0.00     0.074 A 
ATOM     40  C   UNL A   1      40.706  27.695  29.283  1.00  0.00     0.049 A 
ATOM     41  N   UNL A   1      43.813  28.657  29.044  1.00  0.00    -0.248 NA
ATOM     42  C   UNL A   1      43.148  28.460  26.825  1.00  0.00     0.031 C 
ATOM     43  C   UNL A   1      39.410  27.015  29.394  1.00  0.00     0.029 A 
ATOM     44  N   UNL A   1      40.506  28.854  29.960  1.00  0.00    -0.354 N 
ATOM     45  C   UNL A   1      44.620  29.456  28.247  1.00  0.00     0.074 A 
ATOM     46  C   UNL A   1      44.284  29.154  26.881  1.00  0.00     0.031 C 
ATOM     47  C   UNL A   1      38.506  27.869  29.921  1.00  0.00     0.029 A 
ATOM     48  C   UNL A   1      39.184  29.101  30.289  1.00  0.00     0.049 A 
ATOM     49  H   UNL A   1      41.240  29.467  30.198  1.00  0.00     0.167 HD
ATOM     50  C   UNL A   1      45.316  30.494  28.776  1.00  0.00     0.037 A 
ATOM     51  C   UNL A   1      38.690  30.277  30.745  1.00  0.00     0.037 A 
ATOM     52  C   UNL A   1      45.464  30.364  30.203  1.00  0.00     0.049 A 
ATOM     53  C   UNL A   1      39.837  31.077  31.252  1.00  0.00     0.074 A 
ATOM     54  C   UNL A   1      46.028  29.411  31.029  1.00  0.00     0.029 A 
ATOM     55  N   UNL A   1      44.665  31.134  31.014  1.00  0.00    -0.354 N 
ATOM     56  N   UNL A   1      40.516  30.790  32.328  1.00  0.00    -0.248 NA
ATOM     57  C   UNL A   1      40.508  31.971  30.317  1.00  0.00     0.031 C 
ATOM     58  C   UNL A   1      45.193  29.371  32.184  1.00  0.00     0.029 A 
ATOM     59  C   UNL A   1      44.189  30.324  32.013  1.00  0.00     0.049 A 
ATOM     60  H   UNL A   1      44.471  32.092  30.898  1.00  0.00     0.167 HD
ATOM     61  C   UNL A   1      41.829  31.116  32.019  1.00  0.00     0.074 A 
ATOM     62  C   UNL A   1      41.746  31.936  30.817  1.00  0.00     0.031 C 
ATOM     63  C   UNL A   1      42.873  30.454  32.598  1.00  0.00     0.037 A 
BRANCH  50  64
ATOM     64  C   UNL A   1      45.549  31.783  28.040  1.00  0.00     0.064 A 
ATOM     65  C   UNL A   1      44.451  32.588  27.695  1.00  0.00     0.173 A 
ATOM     66  C   UNL A   1      46.777  32.126  27.427  1.00  0.00     0.173 A 
ATOM     67  F   UNL A   1      43.231  32.323  28.187  1.00  0.00    -0.203 F 
ATOM     68  C   UNL A   1      44.564  33.626  26.768  1.00  0.00     0.198 A 
ATOM     69  C   UNL A   1      46.900  33.203  26.554  1.00  0.00     0.198 A 
ATOM     70  F   UNL A   1      47.875  31.371  27.555  1.00  0.00    -0.203 F 
ATOM     71  F   UNL A   1      43.468  34.289  26.378  1.00  0.00    -0.200 F 
ATOM     72  C   UNL A   1      45.788  33.935  26.201  1.00  0.00     0.200 A 
ATOM     73  F   UNL A   1      48.091  33.468  26.000  1.00  0.00    -0.200 F 
ATOM     74  F   UNL A   1      45.888  34.897  25.276  1.00  0.00    -0.200 F 
ENDBRANCH  50  64
BRANCH  51  75
ATOM     75  C   UNL A   1      37.354  30.864  30.491  1.00  0.00     0.064 A 
ATOM     76  C   UNL A   1      36.519  31.239  31.555  1.00  0.00     0.173 A 
ATOM     77  C   UNL A   1      36.973  31.309  29.210  1.00  0.00     0.173 A 
ATOM     78  F   UNL A   1      36.834  30.895  32.812  1.00  0.00    -0.203 F 
ATOM     79  C   UNL A   1      35.385  32.031  31.353  1.00  0.00     0.198 A 
ATOM     80  C   UNL A   1      35.833  32.087  29.007  1.00  0.00     0.198 A 
ATOM     81  F   UNL A   1      37.745  31.080  28.139  1.00  0.00    -0.203 F 
ATOM     82  F   UNL A   1      34.649  32.425  32.402  1.00  0.00    -0.200 F 
ATOM     83  C   UNL A   1      35.048  32.461  30.080  1.00  0.00     0.200 A 
ATOM     84  F   UNL A   1      35.538  32.522  27.774  1.00  0.00    -0.200 F 
ATOM     85  F   UNL A   1      33.994  33.267  29.893  1.00  0.00    -0.200 F 
ENDBRANCH  51  75
BRANCH  63  86
ATOM     86  C   UNL A   1      42.570  29.584  33.787  1.00  0.00     0.064 A 
ATOM     87  C   UNL A   1      42.076  28.273  33.688  1.00  0.00     0.173 A 
ATOM     88  C   UNL A   1      42.916  30.049  35.063  1.00  0.00     0.173 A 
ATOM     89  F   UNL A   1      41.826  27.718  32.496  1.00  0.00    -0.203 F 
ATOM     90  C   UNL A   1      41.886  27.485  34.823  1.00  0.00     0.198 A 
ATOM     91  C   UNL A   1      42.763  29.247  36.190  1.00  0.00     0.198 A 
ATOM     92  F   UNL A   1      43.450  31.273  35.211  1.00  0.00    -0.203 F 
ATOM     93  F   UNL A   1      41.397  26.242  34.704  1.00  0.00    -0.200 F 
ATOM     94  C   UNL A   1      42.236  27.971  36.071  1.00  0.00     0.200 A 
ATOM     95  F   UNL A   1      43.151  29.701  37.389  1.00  0.00    -0.200 F 
ATOM     96  F   UNL A   1      42.092  27.199  37.159  1.00  0.00    -0.200 F 
ENDBRANCH  63  86
ENDBRANCH  37  38
ENDBRANCH  30  32
ENDBRANCH  29  30
ENDBRANCH  28  29
ENDBRANCH  27  28
ENDBRANCH  26  27
ENDBRANCH  25  26
ENDBRANCH   1  25
TORSDOF 19
ENDMDL
