MODEL 1
REMARK VINA RESULT:     -11.1      0.000      0.000
REMARK SMILES C[C@@](NC(=O)CN1CSCC1=O)(C(=O)OCCOCCOC(=O)c1ccc(-c2c3nc(c(-c4c(F)c(F)c(F)c(F)c4F)c4ccc([nH]4)c(-c4c(F)c(F)c(F)c(F)c4F)c4nc(c(-c5c(F)c(F)c(F)c(F)c5F)c5ccc2[nH]5)C=C4)C=C3)cc1)C(F)(F)F
REMARK SMILES IDX 17 1 16 2 15 3 13 4 14 5 2 6 1 7 3 8 4 9 5 11 6 12 7 13 8 14
REMARK SMILES IDX 11 15 9 16 10 17 12 18 87 19 88 20 89 21 90 22 18 23 19 24
REMARK SMILES IDX 20 25 21 26 22 27 23 28 24 29 25 30 86 31 26 32 85 33 27 34
REMARK SMILES IDX 28 35 29 36 79 37 30 38 84 39 78 40 80 41 31 42 83 43 77 44
REMARK SMILES IDX 76 45 32 47 64 48 44 49 63 50 45 51 48 52 62 53 81 54 46 55
REMARK SMILES IDX 47 56 61 58 82 59 49 60 33 61 34 62 42 63 35 64 36 65 40 66
REMARK SMILES IDX 43 67 37 68 38 69 41 70 39 71 65 72 66 73 74 74 67 75 68 76
REMARK SMILES IDX 72 77 75 78 69 79 70 80 73 81 71 82 50 83 51 84 59 85 52 86
REMARK SMILES IDX 53 87 57 88 60 89 54 90 55 91 58 92 56 93
REMARK H PARENT 3 10 80 46 48 57
REMARK Flexibility Score: inf
ROOT
ATOM      1  C   UNL A   1      32.876  29.255  27.101  1.00  0.00     0.202 C 
ENDROOT
BRANCH   1   2
ATOM      2  C   UNL A   1      31.748  28.340  26.633  1.00  0.00     0.261 C 
BRANCH   2   3
ATOM      3  O   UNL A   1      32.171  27.611  25.459  1.00  0.00    -0.461 OA
BRANCH   3   4
ATOM      4  C   UNL A   1      31.229  27.458  24.486  1.00  0.00     0.341 C 
ATOM      5  O   UNL A   1      30.225  26.774  24.633  1.00  0.00    -0.249 OA
BRANCH   4   6
ATOM      6  C   UNL A   1      31.694  28.044  23.152  1.00  0.00     0.231 C 
ATOM      7  C   UNL A   1      32.931  28.967  23.196  1.00  0.00     0.058 C 
BRANCH   6   8
ATOM      8  N   UNL A   1      31.910  26.963  22.133  1.00  0.00    -0.332 N 
ATOM      9  C   UNL A   1      32.932  26.077  21.948  1.00  0.00     0.240 C 
ATOM     10  H   UNL A   1      31.180  26.878  21.477  1.00  0.00     0.165 HD
ATOM     11  O   UNL A   1      33.177  25.755  20.782  1.00  0.00    -0.273 OA
BRANCH   9  12
ATOM     12  C   UNL A   1      33.767  25.510  23.106  1.00  0.00     0.220 C 
BRANCH  12  13
ATOM     13  N   UNL A   1      33.424  24.171  23.573  1.00  0.00    -0.323 N 
ATOM     14  C   UNL A   1      32.121  23.855  24.083  1.00  0.00     0.190 C 
ATOM     15  C   UNL A   1      34.275  23.096  23.377  1.00  0.00     0.233 C 
ATOM     16  S   UNL A   1      32.210  22.230  24.819  1.00  0.00    -0.130 SA
ATOM     17  C   UNL A   1      33.678  21.801  23.876  1.00  0.00     0.171 C 
ATOM     18  O   UNL A   1      35.360  23.158  22.810  1.00  0.00    -0.274 OA
ENDBRANCH  12  13
ENDBRANCH   9  12
ENDBRANCH   6   8
BRANCH   6  19
ATOM     19  C   UNL A   1      30.507  28.970  22.775  1.00  0.00     0.422 C 
ATOM     20  F   UNL A   1      29.398  28.253  22.480  1.00  0.00    -0.168 F 
ATOM     21  F   UNL A   1      30.189  29.764  23.835  1.00  0.00    -0.168 F 
ATOM     22  F   UNL A   1      30.762  29.803  21.749  1.00  0.00    -0.168 F 
ENDBRANCH   6  19
ENDBRANCH   4   6
ENDBRANCH   3   4
ENDBRANCH   2   3
ENDBRANCH   1   2
BRANCH   1  23
ATOM     23  O   UNL A   1      32.883  30.542  26.482  1.00  0.00    -0.374 OA
BRANCH  23  24
ATOM     24  C   UNL A   1      31.674  31.293  26.532  1.00  0.00     0.202 C 
BRANCH  24  25
ATOM     25  C   UNL A   1      31.775  32.700  27.134  1.00  0.00     0.261 C 
BRANCH  25  26
ATOM     26  O   UNL A   1      33.058  33.324  26.945  1.00  0.00    -0.460 OA
BRANCH  26  27
ATOM     27  C   UNL A   1      33.628  33.757  28.094  1.00  0.00     0.338 C 
ATOM     28  O   UNL A   1      33.156  34.566  28.891  1.00  0.00    -0.246 OA
BRANCH  27  29
ATOM     29  C   UNL A   1      34.889  33.047  28.375  1.00  0.00     0.060 A 
ATOM     30  C   UNL A   1      34.804  31.702  28.753  1.00  0.00     0.016 A 
ATOM     31  C   UNL A   1      36.121  33.704  28.393  1.00  0.00     0.016 A 
ATOM     32  C   UNL A   1      35.937  31.028  29.211  1.00  0.00     0.010 A 
ATOM     33  C   UNL A   1      37.261  33.020  28.840  1.00  0.00     0.010 A 
ATOM     34  C   UNL A   1      37.168  31.692  29.296  1.00  0.00    -0.014 A 
BRANCH  34  35
ATOM     35  C   UNL A   1      38.304  31.037  30.001  1.00  0.00     0.031 A 
ATOM     36  C   UNL A   1      38.582  31.391  31.437  1.00  0.00     0.074 A 
ATOM     37  C   UNL A   1      39.047  30.088  29.398  1.00  0.00     0.049 A 
ATOM     38  N   UNL A   1      39.464  30.883  32.262  1.00  0.00    -0.248 NA
ATOM     39  C   UNL A   1      37.747  32.449  32.030  1.00  0.00     0.031 C 
ATOM     40  C   UNL A   1      38.861  29.614  28.032  1.00  0.00     0.029 A 
ATOM     41  N   UNL A   1      40.113  29.355  29.858  1.00  0.00    -0.354 N 
ATOM     42  C   UNL A   1      39.265  31.532  33.473  1.00  0.00     0.074 A 
ATOM     43  C   UNL A   1      38.234  32.523  33.260  1.00  0.00     0.031 C 
ATOM     44  C   UNL A   1      39.812  28.712  27.739  1.00  0.00     0.029 A 
ATOM     45  C   UNL A   1      40.656  28.519  28.913  1.00  0.00     0.049 A 
ATOM     46  H   UNL A   1      40.455  29.422  30.779  1.00  0.00     0.167 HD
ATOM     47  C   UNL A   1      39.859  31.296  34.668  1.00  0.00     0.037 A 
ATOM     48  C   UNL A   1      41.705  27.679  28.986  1.00  0.00     0.037 A 
ATOM     49  C   UNL A   1      40.896  30.322  34.884  1.00  0.00     0.049 A 
ATOM     50  C   UNL A   1      42.403  27.489  30.306  1.00  0.00     0.074 A 
ATOM     51  C   UNL A   1      41.557  30.008  36.058  1.00  0.00     0.029 A 
ATOM     52  N   UNL A   1      41.433  29.510  33.895  1.00  0.00    -0.354 N 
ATOM     53  N   UNL A   1      42.159  28.060  31.460  1.00  0.00    -0.248 NA
ATOM     54  C   UNL A   1      43.495  26.506  30.342  1.00  0.00     0.031 C 
ATOM     55  C   UNL A   1      42.526  29.040  35.772  1.00  0.00     0.029 A 
ATOM     56  C   UNL A   1      42.432  28.710  34.430  1.00  0.00     0.049 A 
ATOM     57  H   UNL A   1      41.147  29.501  32.954  1.00  0.00     0.167 HD
ATOM     58  C   UNL A   1      43.039  27.481  32.366  1.00  0.00     0.074 A 
ATOM     59  C   UNL A   1      43.809  26.500  31.629  1.00  0.00     0.031 C 
ATOM     60  C   UNL A   1      43.192  27.737  33.689  1.00  0.00     0.037 A 
BRANCH  47  61
ATOM     61  C   UNL A   1      39.389  32.106  35.842  1.00  0.00     0.064 A 
ATOM     62  C   UNL A   1      38.392  31.627  36.706  1.00  0.00     0.173 A 
ATOM     63  C   UNL A   1      39.960  33.355  36.127  1.00  0.00     0.173 A 
ATOM     64  F   UNL A   1      37.803  30.445  36.470  1.00  0.00    -0.203 F 
ATOM     65  C   UNL A   1      37.967  32.380  37.798  1.00  0.00     0.198 A 
ATOM     66  C   UNL A   1      39.554  34.091  37.236  1.00  0.00     0.198 A 
ATOM     67  F   UNL A   1      40.918  33.856  35.334  1.00  0.00    -0.203 F 
ATOM     68  F   UNL A   1      36.982  31.923  38.583  1.00  0.00    -0.200 F 
ATOM     69  C   UNL A   1      38.554  33.607  38.067  1.00  0.00     0.200 A 
ATOM     70  F   UNL A   1      40.129  35.273  37.501  1.00  0.00    -0.200 F 
ATOM     71  F   UNL A   1      38.151  34.327  39.122  1.00  0.00    -0.200 F 
ENDBRANCH  47  61
BRANCH  48  72
ATOM     72  C   UNL A   1      42.144  26.929  27.780  1.00  0.00     0.064 A 
ATOM     73  C   UNL A   1      41.620  25.666  27.474  1.00  0.00     0.173 A 
ATOM     74  C   UNL A   1      43.127  27.451  26.925  1.00  0.00     0.173 A 
ATOM     75  F   UNL A   1      40.693  25.115  28.272  1.00  0.00    -0.203 F 
ATOM     76  C   UNL A   1      42.085  24.938  26.380  1.00  0.00     0.198 A 
ATOM     77  C   UNL A   1      43.572  26.735  25.815  1.00  0.00     0.198 A 
ATOM     78  F   UNL A   1      43.658  28.657  27.172  1.00  0.00    -0.203 F 
ATOM     79  F   UNL A   1      41.610  23.708  26.147  1.00  0.00    -0.200 F 
ATOM     80  C   UNL A   1      43.059  25.475  25.551  1.00  0.00     0.200 A 
ATOM     81  F   UNL A   1      44.506  27.261  25.011  1.00  0.00    -0.200 F 
ATOM     82  F   UNL A   1      43.511  24.770  24.504  1.00  0.00    -0.200 F 
ENDBRANCH  48  72
BRANCH  60  83
ATOM     83  C   UNL A   1      44.212  26.921  34.430  1.00  0.00     0.064 A 
ATOM     84  C   UNL A   1      43.889  25.685  35.011  1.00  0.00     0.173 A 
ATOM     85  C   UNL A   1      45.535  27.374  34.550  1.00  0.00     0.173 A 
ATOM     86  F   UNL A   1      42.635  25.213  34.936  1.00  0.00    -0.203 F 
ATOM     87  C   UNL A   1      44.840  24.953  35.717  1.00  0.00     0.198 A 
ATOM     88  C   UNL A   1      46.493  26.623  35.226  1.00  0.00     0.198 A 
ATOM     89  F   UNL A   1      45.902  28.545  34.006  1.00  0.00    -0.203 F 
ATOM     90  F   UNL A   1      44.490  23.806  36.316  1.00  0.00    -0.200 F 
ATOM     91  C   UNL A   1      46.142  25.419  35.819  1.00  0.00     0.200 A 
ATOM     92  F   UNL A   1      47.755  27.068  35.310  1.00  0.00    -0.200 F 
ATOM     93  F   UNL A   1      47.057  24.714  36.498  1.00  0.00    -0.200 F 
ENDBRANCH  60  83
ENDBRANCH  34  35
ENDBRANCH  27  29
ENDBRANCH  26  27
ENDBRANCH  25  26
ENDBRANCH  24  25
ENDBRANCH  23  24
ENDBRANCH   1  23
TORSDOF 18
ENDMDL
MODEL 2
REMARK VINA RESULT:     -10.7      1.514      2.240
REMARK SMILES C[C@@](NC(=O)CN1CSCC1=O)(C(=O)OCCOCCOC(=O)c1ccc(-c2c3nc(c(-c4c(F)c(F)c(F)c(F)c4F)c4ccc([nH]4)c(-c4c(F)c(F)c(F)c(F)c4F)c4nc(c(-c5c(F)c(F)c(F)c(F)c5F)c5ccc2[nH]5)C=C4)C=C3)cc1)C(F)(F)F
REMARK SMILES IDX 17 1 16 2 15 3 13 4 14 5 2 6 1 7 3 8 4 9 5 11 6 12 7 13 8 14
REMARK SMILES IDX 11 15 9 16 10 17 12 18 87 19 88 20 89 21 90 22 18 23 19 24
REMARK SMILES IDX 20 25 21 26 22 27 23 28 24 29 25 30 86 31 26 32 85 33 27 34
REMARK SMILES IDX 28 35 29 36 79 37 30 38 84 39 78 40 80 41 31 42 83 43 77 44
REMARK SMILES IDX 76 45 32 47 64 48 44 49 63 50 45 51 48 52 62 53 81 54 46 55
REMARK SMILES IDX 47 56 61 58 82 59 49 60 33 61 34 62 42 63 35 64 36 65 40 66
REMARK SMILES IDX 43 67 37 68 38 69 41 70 39 71 65 72 66 73 74 74 67 75 68 76
REMARK SMILES IDX 72 77 75 78 69 79 70 80 73 81 71 82 50 83 51 84 59 85 52 86
REMARK SMILES IDX 53 87 57 88 60 89 54 90 55 91 58 92 56 93
REMARK H PARENT 3 10 80 46 48 57
REMARK Flexibility Score: inf
ROOT
ATOM      1  C   UNL A   1      33.174  29.552  27.315  1.00  0.00     0.202 C 
ENDROOT
BRANCH   1   2
ATOM      2  C   UNL A   1      33.599  28.313  26.531  1.00  0.00     0.261 C 
BRANCH   2   3
ATOM      3  O   UNL A   1      32.499  27.858  25.712  1.00  0.00    -0.461 OA
BRANCH   3   4
ATOM      4  C   UNL A   1      31.532  27.151  26.361  1.00  0.00     0.341 C 
ATOM      5  O   UNL A   1      31.038  27.516  27.420  1.00  0.00    -0.249 OA
BRANCH   4   6
ATOM      6  C   UNL A   1      31.320  25.773  25.732  1.00  0.00     0.231 C 
ATOM      7  C   UNL A   1      32.373  25.316  24.699  1.00  0.00     0.058 C 
BRANCH   6   8
ATOM      8  N   UNL A   1      31.160  24.716  26.787  1.00  0.00    -0.332 N 
ATOM      9  C   UNL A   1      30.843  23.391  26.707  1.00  0.00     0.240 C 
ATOM     10  H   UNL A   1      31.313  25.039  27.705  1.00  0.00     0.165 HD
ATOM     11  O   UNL A   1      30.195  22.923  27.648  1.00  0.00    -0.273 OA
BRANCH   9  12
ATOM     12  C   UNL A   1      31.236  22.507  25.514  1.00  0.00     0.220 C 
BRANCH  12  13
ATOM     13  N   UNL A   1      32.569  21.914  25.542  1.00  0.00    -0.323 N 
ATOM     14  C   UNL A   1      33.489  22.164  26.613  1.00  0.00     0.190 C 
ATOM     15  C   UNL A   1      32.945  20.938  24.635  1.00  0.00     0.233 C 
ATOM     16  S   UNL A   1      35.079  21.517  26.120  1.00  0.00    -0.130 SA
ATOM     17  C   UNL A   1      34.340  20.421  24.903  1.00  0.00     0.171 C 
ATOM     18  O   UNL A   1      32.223  20.487  23.753  1.00  0.00    -0.274 OA
ENDBRANCH  12  13
ENDBRANCH   9  12
ENDBRANCH   6   8
BRANCH   6  19
ATOM     19  C   UNL A   1      30.016  25.985  24.920  1.00  0.00     0.422 C 
ATOM     20  F   UNL A   1      29.979  27.218  24.362  1.00  0.00    -0.168 F 
ATOM     21  F   UNL A   1      29.963  25.091  23.895  1.00  0.00    -0.168 F 
ATOM     22  F   UNL A   1      28.888  25.805  25.630  1.00  0.00    -0.168 F 
ENDBRANCH   6  19
ENDBRANCH   4   6
ENDBRANCH   3   4
ENDBRANCH   2   3
ENDBRANCH   1   2
BRANCH   1  23
ATOM     23  O   UNL A   1      32.963  30.713  26.510  1.00  0.00    -0.374 OA
BRANCH  23  24
ATOM     24  C   UNL A   1      31.835  31.524  26.824  1.00  0.00     0.202 C 
BRANCH  24  25
ATOM     25  C   UNL A   1      32.100  33.029  26.959  1.00  0.00     0.261 C 
BRANCH  25  26
ATOM     26  O   UNL A   1      32.433  33.444  28.296  1.00  0.00    -0.460 OA
BRANCH  26  27
ATOM     27  C   UNL A   1      33.552  34.204  28.369  1.00  0.00     0.338 C 
ATOM     28  O   UNL A   1      33.610  35.432  28.330  1.00  0.00    -0.246 OA
BRANCH  27  29
ATOM     29  C   UNL A   1      34.750  33.384  28.623  1.00  0.00     0.060 A 
ATOM     30  C   UNL A   1      34.578  32.189  29.331  1.00  0.00     0.016 A 
ATOM     31  C   UNL A   1      36.032  33.823  28.290  1.00  0.00     0.016 A 
ATOM     32  C   UNL A   1      35.687  31.463  29.764  1.00  0.00     0.010 A 
ATOM     33  C   UNL A   1      37.147  33.085  28.714  1.00  0.00     0.010 A 
ATOM     34  C   UNL A   1      36.983  31.924  29.495  1.00  0.00    -0.014 A 
BRANCH  34  35
ATOM     35  C   UNL A   1      38.144  31.272  30.159  1.00  0.00     0.031 A 
ATOM     36  C   UNL A   1      38.480  31.637  31.580  1.00  0.00     0.074 A 
ATOM     37  C   UNL A   1      38.859  30.316  29.536  1.00  0.00     0.049 A 
ATOM     38  N   UNL A   1      39.392  31.133  32.373  1.00  0.00    -0.248 NA
ATOM     39  C   UNL A   1      37.673  32.703  32.197  1.00  0.00     0.031 C 
ATOM     40  C   UNL A   1      38.618  29.830  28.182  1.00  0.00     0.029 A 
ATOM     41  N   UNL A   1      39.941  29.583  29.959  1.00  0.00    -0.354 N 
ATOM     42  C   UNL A   1      39.244  31.793  33.586  1.00  0.00     0.074 A 
ATOM     43  C   UNL A   1      38.209  32.786  33.405  1.00  0.00     0.031 C 
ATOM     44  C   UNL A   1      39.554  28.923  27.859  1.00  0.00     0.029 A 
ATOM     45  C   UNL A   1      40.444  28.736  29.000  1.00  0.00     0.049 A 
ATOM     46  H   UNL A   1      40.320  29.656  30.865  1.00  0.00     0.167 HD
ATOM     47  C   UNL A   1      39.884  31.566  34.758  1.00  0.00     0.037 A 
ATOM     48  C   UNL A   1      41.492  27.894  29.039  1.00  0.00     0.037 A 
ATOM     49  C   UNL A   1      40.927  30.590  34.941  1.00  0.00     0.049 A 
ATOM     50  C   UNL A   1      42.241  27.713  30.332  1.00  0.00     0.074 A 
ATOM     51  C   UNL A   1      41.632  30.284  36.091  1.00  0.00     0.029 A 
ATOM     52  N   UNL A   1      41.421  29.767  33.939  1.00  0.00    -0.354 N 
ATOM     53  N   UNL A   1      42.045  28.295  31.489  1.00  0.00    -0.248 NA
ATOM     54  C   UNL A   1      43.330  26.726  30.333  1.00  0.00     0.031 C 
ATOM     55  C   UNL A   1      42.587  29.310  35.774  1.00  0.00     0.029 A 
ATOM     56  C   UNL A   1      42.438  28.969  34.440  1.00  0.00     0.049 A 
ATOM     57  H   UNL A   1      41.097  29.751  33.010  1.00  0.00     0.167 HD
ATOM     58  C   UNL A   1      42.959  27.721  32.365  1.00  0.00     0.074 A 
ATOM     59  C   UNL A   1      43.695  26.731  31.606  1.00  0.00     0.031 C 
ATOM     60  C   UNL A   1      43.165  27.987  33.678  1.00  0.00     0.037 A 
BRANCH  47  61
ATOM     61  C   UNL A   1      39.464  32.387  35.943  1.00  0.00     0.064 A 
ATOM     62  C   UNL A   1      38.494  31.923  36.845  1.00  0.00     0.173 A 
ATOM     63  C   UNL A   1      40.057  33.632  36.199  1.00  0.00     0.173 A 
ATOM     64  F   UNL A   1      37.886  30.745  36.637  1.00  0.00    -0.203 F 
ATOM     65  C   UNL A   1      38.115  32.687  37.946  1.00  0.00     0.198 A 
ATOM     66  C   UNL A   1      39.697  34.379  37.318  1.00  0.00     0.198 A 
ATOM     67  F   UNL A   1      40.990  34.120  35.370  1.00  0.00    -0.203 F 
ATOM     68  F   UNL A   1      37.154  32.244  38.768  1.00  0.00    -0.200 F 
ATOM     69  C   UNL A   1      38.723  33.910  38.187  1.00  0.00     0.200 A 
ATOM     70  F   UNL A   1      40.292  35.557  37.555  1.00  0.00    -0.200 F 
ATOM     71  F   UNL A   1      38.364  34.640  39.250  1.00  0.00    -0.200 F 
ENDBRANCH  47  61
BRANCH  48  72
ATOM     72  C   UNL A   1      41.880  27.132  27.823  1.00  0.00     0.064 A 
ATOM     73  C   UNL A   1      41.388  25.843  27.580  1.00  0.00     0.173 A 
ATOM     74  C   UNL A   1      42.783  27.671  26.893  1.00  0.00     0.173 A 
ATOM     75  F   UNL A   1      40.539  25.276  28.450  1.00  0.00    -0.203 F 
ATOM     76  C   UNL A   1      41.809  25.107  26.474  1.00  0.00     0.198 A 
ATOM     77  C   UNL A   1      43.182  26.946  25.772  1.00  0.00     0.198 A 
ATOM     78  F   UNL A   1      43.280  28.903  27.077  1.00  0.00    -0.203 F 
ATOM     79  F   UNL A   1      41.370  23.854  26.300  1.00  0.00    -0.200 F 
ATOM     80  C   UNL A   1      42.704  25.660  25.570  1.00  0.00     0.200 A 
ATOM     81  F   UNL A   1      44.039  27.487  24.896  1.00  0.00    -0.200 F 
ATOM     82  F   UNL A   1      43.114  24.949  24.511  1.00  0.00    -0.200 F 
ENDBRANCH  48  72
BRANCH  60  83
ATOM     83  C   UNL A   1      44.212  27.174  34.385  1.00  0.00     0.064 A 
ATOM     84  C   UNL A   1      45.541  27.610  34.488  1.00  0.00     0.173 A 
ATOM     85  C   UNL A   1      43.877  25.948  34.980  1.00  0.00     0.173 A 
ATOM     86  F   UNL A   1      45.917  28.769  33.925  1.00  0.00    -0.203 F 
ATOM     87  C   UNL A   1      46.504  26.832  35.125  1.00  0.00     0.198 A 
ATOM     88  C   UNL A   1      44.834  25.189  35.648  1.00  0.00     0.198 A 
ATOM     89  F   UNL A   1      42.618  25.487  34.920  1.00  0.00    -0.203 F 
ATOM     90  F   UNL A   1      47.780  27.240  35.155  1.00  0.00    -0.200 F 
ATOM     91  C   UNL A   1      46.149  25.625  35.709  1.00  0.00     0.200 A 
ATOM     92  F   UNL A   1      44.485  24.030  36.225  1.00  0.00    -0.200 F 
ATOM     93  F   UNL A   1      47.077  24.877  36.322  1.00  0.00    -0.200 F 
ENDBRANCH  60  83
ENDBRANCH  34  35
ENDBRANCH  27  29
ENDBRANCH  26  27
ENDBRANCH  25  26
ENDBRANCH  24  25
ENDBRANCH  23  24
ENDBRANCH   1  23
TORSDOF 18
ENDMDL
MODEL 3
REMARK VINA RESULT:     -10.6      1.438      2.263
REMARK SMILES C[C@@](NC(=O)CN1CSCC1=O)(C(=O)OCCOCCOC(=O)c1ccc(-c2c3nc(c(-c4c(F)c(F)c(F)c(F)c4F)c4ccc([nH]4)c(-c4c(F)c(F)c(F)c(F)c4F)c4nc(c(-c5c(F)c(F)c(F)c(F)c5F)c5ccc2[nH]5)C=C4)C=C3)cc1)C(F)(F)F
REMARK SMILES IDX 17 1 16 2 15 3 13 4 14 5 2 6 1 7 3 8 4 9 5 11 6 12 7 13 8 14
REMARK SMILES IDX 11 15 9 16 10 17 12 18 87 19 88 20 89 21 90 22 18 23 19 24
REMARK SMILES IDX 20 25 21 26 22 27 23 28 24 29 25 30 86 31 26 32 85 33 27 34
REMARK SMILES IDX 28 35 29 36 79 37 30 38 84 39 78 40 80 41 31 42 83 43 77 44
REMARK SMILES IDX 76 45 32 47 64 48 44 49 63 50 45 51 48 52 62 53 81 54 46 55
REMARK SMILES IDX 47 56 61 58 82 59 49 60 33 61 34 62 42 63 35 64 36 65 40 66
REMARK SMILES IDX 43 67 37 68 38 69 41 70 39 71 65 72 66 73 74 74 67 75 68 76
REMARK SMILES IDX 72 77 75 78 69 79 70 80 73 81 71 82 50 83 51 84 59 85 52 86
REMARK SMILES IDX 53 87 57 88 60 89 54 90 55 91 58 92 56 93
REMARK H PARENT 3 10 80 46 48 57
REMARK Flexibility Score: inf
ROOT
ATOM      1  C   UNL A   1      32.859  28.716  26.533  1.00  0.00     0.202 C 
ENDROOT
BRANCH   1   2
ATOM      2  C   UNL A   1      33.451  27.675  25.586  1.00  0.00     0.261 C 
BRANCH   2   3
ATOM      3  O   UNL A   1      32.647  26.474  25.624  1.00  0.00    -0.461 OA
BRANCH   3   4
ATOM      4  C   UNL A   1      32.220  26.010  24.416  1.00  0.00     0.341 C 
ATOM      5  O   UNL A   1      32.828  26.211  23.373  1.00  0.00    -0.249 OA
BRANCH   4   6
ATOM      6  C   UNL A   1      30.809  25.426  24.503  1.00  0.00     0.231 C 
ATOM      7  C   UNL A   1      30.457  24.316  23.488  1.00  0.00     0.058 C 
BRANCH   6   8
ATOM      8  N   UNL A   1      30.506  24.948  25.894  1.00  0.00    -0.332 N 
ATOM      9  C   UNL A   1      30.360  23.694  26.414  1.00  0.00     0.240 C 
ATOM     10  H   UNL A   1      30.392  25.673  26.551  1.00  0.00     0.165 HD
ATOM     11  O   UNL A   1      29.553  23.574  27.340  1.00  0.00    -0.273 OA
BRANCH   9  12
ATOM     12  C   UNL A   1      31.128  22.474  25.885  1.00  0.00     0.220 C 
BRANCH  12  13
ATOM     13  N   UNL A   1      32.580  22.496  26.023  1.00  0.00    -0.323 N 
ATOM     14  C   UNL A   1      33.448  22.663  24.894  1.00  0.00     0.190 C 
ATOM     15  C   UNL A   1      33.188  22.543  27.267  1.00  0.00     0.233 C 
ATOM     16  S   UNL A   1      35.115  22.330  25.441  1.00  0.00    -0.130 SA
ATOM     17  C   UNL A   1      34.692  22.635  27.160  1.00  0.00     0.171 C 
ATOM     18  O   UNL A   1      32.590  22.573  28.336  1.00  0.00    -0.274 OA
ENDBRANCH  12  13
ENDBRANCH   9  12
ENDBRANCH   6   8
BRANCH   6  19
ATOM     19  C   UNL A   1      29.932  26.640  24.101  1.00  0.00     0.422 C 
ATOM     20  F   UNL A   1      30.336  27.769  24.728  1.00  0.00    -0.168 F 
ATOM     21  F   UNL A   1      30.051  26.871  22.764  1.00  0.00    -0.168 F 
ATOM     22  F   UNL A   1      28.617  26.471  24.333  1.00  0.00    -0.168 F 
ENDBRANCH   6  19
ENDBRANCH   4   6
ENDBRANCH   3   4
ENDBRANCH   2   3
ENDBRANCH   1   2
BRANCH   1  23
ATOM     23  O   UNL A   1      32.902  30.054  26.036  1.00  0.00    -0.374 OA
BRANCH  23  24
ATOM     24  C   UNL A   1      31.704  30.820  26.129  1.00  0.00     0.202 C 
BRANCH  24  25
ATOM     25  C   UNL A   1      31.818  32.168  26.851  1.00  0.00     0.261 C 
BRANCH  25  26
ATOM     26  O   UNL A   1      32.726  32.157  27.967  1.00  0.00    -0.460 OA
BRANCH  26  27
ATOM     27  C   UNL A   1      33.743  33.043  27.851  1.00  0.00     0.338 C 
ATOM     28  O   UNL A   1      33.647  34.247  27.616  1.00  0.00    -0.246 OA
BRANCH  27  29
ATOM     29  C   UNL A   1      35.043  32.421  28.160  1.00  0.00     0.060 A 
ATOM     30  C   UNL A   1      35.050  31.055  28.464  1.00  0.00     0.016 A 
ATOM     31  C   UNL A   1      36.215  33.171  28.273  1.00  0.00     0.016 A 
ATOM     32  C   UNL A   1      36.211  30.449  28.944  1.00  0.00     0.010 A 
ATOM     33  C   UNL A   1      37.385  32.556  28.742  1.00  0.00     0.010 A 
ATOM     34  C   UNL A   1      37.379  31.202  29.125  1.00  0.00    -0.014 A 
BRANCH  34  35
ATOM     35  C   UNL A   1      38.531  30.601  29.852  1.00  0.00     0.031 A 
ATOM     36  C   UNL A   1      38.796  31.010  31.276  1.00  0.00     0.074 A 
ATOM     37  C   UNL A   1      39.300  29.653  29.282  1.00  0.00     0.049 A 
ATOM     38  N   UNL A   1      39.690  30.553  32.118  1.00  0.00    -0.248 NA
ATOM     39  C   UNL A   1      37.933  32.064  31.833  1.00  0.00     0.031 C 
ATOM     40  C   UNL A   1      39.129  29.129  27.932  1.00  0.00     0.029 A 
ATOM     41  N   UNL A   1      40.384  28.964  29.767  1.00  0.00    -0.354 N 
ATOM     42  C   UNL A   1      39.472  31.236  33.307  1.00  0.00     0.074 A 
ATOM     43  C   UNL A   1      38.416  32.192  33.060  1.00  0.00     0.031 C 
ATOM     44  C   UNL A   1      40.104  28.243  27.671  1.00  0.00     0.029 A 
ATOM     45  C   UNL A   1      40.951  28.111  28.851  1.00  0.00     0.049 A 
ATOM     46  H   UNL A   1      40.723  29.070  30.686  1.00  0.00     0.167 HD
ATOM     47  C   UNL A   1      40.069  31.056  34.509  1.00  0.00     0.037 A 
ATOM     48  C   UNL A   1      42.022  27.302  28.953  1.00  0.00     0.037 A 
ATOM     49  C   UNL A   1      41.132  30.117  34.759  1.00  0.00     0.049 A 
ATOM     50  C   UNL A   1      42.722  27.176  30.279  1.00  0.00     0.074 A 
ATOM     51  C   UNL A   1      41.798  29.861  35.944  1.00  0.00     0.029 A 
ATOM     52  N   UNL A   1      41.692  29.288  33.798  1.00  0.00    -0.354 N 
ATOM     53  N   UNL A   1      42.461  27.778  31.413  1.00  0.00    -0.248 NA
ATOM     54  C   UNL A   1      43.839  26.223  30.349  1.00  0.00     0.031 C 
ATOM     55  C   UNL A   1      42.794  28.910  35.691  1.00  0.00     0.029 A 
ATOM     56  C   UNL A   1      42.710  28.533  34.360  1.00  0.00     0.049 A 
ATOM     57  H   UNL A   1      41.408  29.240  32.857  1.00  0.00     0.167 HD
ATOM     58  C   UNL A   1      43.354  27.253  32.339  1.00  0.00     0.074 A 
ATOM     59  C   UNL A   1      44.151  26.269  31.636  1.00  0.00     0.031 C 
ATOM     60  C   UNL A   1      43.498  27.556  33.653  1.00  0.00     0.037 A 
BRANCH  47  61
ATOM     61  C   UNL A   1      39.576  31.892  35.655  1.00  0.00     0.064 A 
ATOM     62  C   UNL A   1      40.127  33.153  35.929  1.00  0.00     0.173 A 
ATOM     63  C   UNL A   1      38.521  31.447  36.466  1.00  0.00     0.173 A 
ATOM     64  F   UNL A   1      41.147  33.619  35.193  1.00  0.00    -0.203 F 
ATOM     65  C   UNL A   1      39.658  33.926  36.988  1.00  0.00     0.198 A 
ATOM     66  C   UNL A   1      38.035  32.235  37.505  1.00  0.00     0.198 A 
ATOM     67  F   UNL A   1      37.957  30.251  36.245  1.00  0.00    -0.203 F 
ATOM     68  F   UNL A   1      40.232  35.107  37.260  1.00  0.00    -0.200 F 
ATOM     69  C   UNL A   1      38.607  33.471  37.770  1.00  0.00     0.200 A 
ATOM     70  F   UNL A   1      37.012  31.799  38.254  1.00  0.00    -0.200 F 
ATOM     71  F   UNL A   1      38.152  34.218  38.784  1.00  0.00    -0.200 F 
ENDBRANCH  47  61
BRANCH  48  72
ATOM     72  C   UNL A   1      42.483  26.525  27.773  1.00  0.00     0.064 A 
ATOM     73  C   UNL A   1      41.988  25.241  27.505  1.00  0.00     0.173 A 
ATOM     74  C   UNL A   1      43.458  27.041  26.906  1.00  0.00     0.173 A 
ATOM     75  F   UNL A   1      41.069  24.695  28.316  1.00  0.00    -0.203 F 
ATOM     76  C   UNL A   1      42.474  24.490  26.437  1.00  0.00     0.198 A 
ATOM     77  C   UNL A   1      43.923  26.301  25.821  1.00  0.00     0.198 A 
ATOM     78  F   UNL A   1      43.961  28.266  27.117  1.00  0.00    -0.203 F 
ATOM     79  F   UNL A   1      42.027  23.243  26.241  1.00  0.00    -0.200 F 
ATOM     80  C   UNL A   1      43.440  25.021  25.595  1.00  0.00     0.200 A 
ATOM     81  F   UNL A   1      44.849  26.821  25.004  1.00  0.00    -0.200 F 
ATOM     82  F   UNL A   1      43.912  24.295  24.573  1.00  0.00    -0.200 F 
ENDBRANCH  48  72
BRANCH  60  83
ATOM     83  C   UNL A   1      44.538  26.793  34.422  1.00  0.00     0.064 A 
ATOM     84  C   UNL A   1      44.229  25.604  35.100  1.00  0.00     0.173 A 
ATOM     85  C   UNL A   1      45.864  27.248  34.470  1.00  0.00     0.173 A 
ATOM     86  F   UNL A   1      42.973  25.132  35.098  1.00  0.00    -0.203 F 
ATOM     87  C   UNL A   1      45.199  24.922  35.830  1.00  0.00     0.198 A 
ATOM     88  C   UNL A   1      46.840  26.545  35.170  1.00  0.00     0.198 A 
ATOM     89  F   UNL A   1      46.217  28.375  33.831  1.00  0.00    -0.203 F 
ATOM     90  F   UNL A   1      44.865  23.823  36.522  1.00  0.00    -0.200 F 
ATOM     91  C   UNL A   1      46.505  25.389  35.860  1.00  0.00     0.200 A 
ATOM     92  F   UNL A   1      48.105  26.990  35.185  1.00  0.00    -0.200 F 
ATOM     93  F   UNL A   1      47.437  24.732  36.562  1.00  0.00    -0.200 F 
ENDBRANCH  60  83
ENDBRANCH  34  35
ENDBRANCH  27  29
ENDBRANCH  26  27
ENDBRANCH  25  26
ENDBRANCH  24  25
ENDBRANCH  23  24
ENDBRANCH   1  23
TORSDOF 18
ENDMDL
