MODEL 1
REMARK VINA RESULT:     -13.1      0.000      0.000
REMARK SMILES Cc1cc(F)cc(N[C@H](C(=O)OCCOCCOC(=O)c2ccc(-c3c4nc(c(-c5c(F)c(F)c(F)c(F)c5F)c5ccc([nH]5)c(-c5c(F)c(F)c(F)c(F)c5F)c5nc(c(-c6c(F)c(F)c(F)c(F)c6F)c6ccc3[nH]6)C=C5)C=C4)cc2)c2cc(C)cc(C)c2)c1
REMARK SMILES IDX 15 1 14 2 13 3 12 4 10 5 11 6 9 7 8 8 7 10 1 11 2 12 3 13
REMARK SMILES IDX 92 14 4 15 5 16 6 17 84 18 85 19 91 20 86 21 89 22 87 23
REMARK SMILES IDX 88 24 90 25 16 26 17 27 18 28 19 29 20 30 21 31 22 32 83 33
REMARK SMILES IDX 23 34 82 35 24 36 25 37 26 38 76 39 27 40 81 41 75 42 77 43
REMARK SMILES IDX 28 44 80 45 74 46 73 47 29 49 61 50 41 51 60 52 42 53 45 54
REMARK SMILES IDX 59 55 78 56 43 57 44 58 58 60 79 61 46 62 30 63 31 64 39 65
REMARK SMILES IDX 32 66 33 67 37 68 40 69 34 70 35 71 38 72 36 73 62 74 63 75
REMARK SMILES IDX 71 76 64 77 65 78 69 79 72 80 66 81 67 82 70 83 68 84 47 85
REMARK SMILES IDX 48 86 56 87 49 88 50 89 54 90 57 91 51 92 52 93 55 94 53 95
REMARK H PARENT 8 9 77 48 45 59
REMARK Flexibility Score: inf
ROOT
ATOM      1  O   UNL A   1      39.042  21.646  26.349  1.00  0.00    -0.374 OA
ENDROOT
BRANCH   1   2
ATOM      2  C   UNL A   1      38.138  21.766  25.261  1.00  0.00     0.202 C 
BRANCH   2   3
ATOM      3  C   UNL A   1      36.962  20.786  25.093  1.00  0.00     0.261 C 
BRANCH   3   4
ATOM      4  O   UNL A   1      35.709  21.374  24.726  1.00  0.00    -0.461 OA
BRANCH   4   5
ATOM      5  C   UNL A   1      34.813  21.406  25.758  1.00  0.00     0.333 C 
ATOM      6  O   UNL A   1      35.148  21.656  26.913  1.00  0.00    -0.249 OA
BRANCH   5   7
ATOM      7  C   UNL A   1      33.350  21.242  25.284  1.00  0.00     0.221 C 
BRANCH   7   8
ATOM      8  N   UNL A   1      32.735  19.938  25.634  1.00  0.00    -0.369 N 
ATOM      9  H   UNL A   1      32.076  19.969  26.364  1.00  0.00     0.161 HD
BRANCH   8  10
ATOM     10  C   UNL A   1      32.950  18.686  25.091  1.00  0.00     0.038 A 
ATOM     11  C   UNL A   1      32.326  15.022  26.079  1.00  0.00     0.044 C 
ATOM     12  C   UNL A   1      32.790  16.233  25.329  1.00  0.00    -0.046 A 
ATOM     13  C   UNL A   1      33.492  16.063  24.136  1.00  0.00     0.042 A 
ATOM     14  C   UNL A   1      32.555  17.540  25.808  1.00  0.00     0.029 A 
ATOM     15  C   UNL A   1      33.867  17.178  23.414  1.00  0.00     0.125 A 
ATOM     16  F   UNL A   1      34.524  17.029  22.256  1.00  0.00    -0.207 F 
ATOM     17  C   UNL A   1      33.563  18.459  23.862  1.00  0.00     0.065 A 
ENDBRANCH   8  10
ENDBRANCH   7   8
BRANCH   7  18
ATOM     18  C   UNL A   1      32.463  22.439  25.637  1.00  0.00    -0.014 A 
ATOM     19  C   UNL A   1      31.315  22.265  26.426  1.00  0.00     0.010 A 
ATOM     20  C   UNL A   1      32.761  23.743  25.215  1.00  0.00     0.010 A 
ATOM     21  C   UNL A   1      30.411  23.289  26.687  1.00  0.00    -0.051 A 
ATOM     22  C   UNL A   1      31.921  24.818  25.564  1.00  0.00    -0.051 A 
ATOM     23  C   UNL A   1      29.106  22.937  27.331  1.00  0.00     0.044 C 
ATOM     24  C   UNL A   1      30.723  24.571  26.254  1.00  0.00     0.006 A 
ATOM     25  C   UNL A   1      32.266  26.230  25.197  1.00  0.00     0.044 C 
ENDBRANCH   7  18
ENDBRANCH   5   7
ENDBRANCH   4   5
ENDBRANCH   3   4
ENDBRANCH   2   3
ENDBRANCH   1   2
BRANCH   1  26
ATOM     26  C   UNL A   1      40.399  21.248  26.176  1.00  0.00     0.202 C 
BRANCH  26  27
ATOM     27  C   UNL A   1      41.540  22.168  26.602  1.00  0.00     0.261 C 
BRANCH  27  28
ATOM     28  O   UNL A   1      41.174  22.944  27.743  1.00  0.00    -0.460 OA
BRANCH  28  29
ATOM     29  C   UNL A   1      41.443  24.253  27.583  1.00  0.00     0.338 C 
ATOM     30  O   UNL A   1      42.521  24.816  27.686  1.00  0.00    -0.246 OA
BRANCH  29  31
ATOM     31  C   UNL A   1      40.215  24.990  27.232  1.00  0.00     0.060 A 
ATOM     32  C   UNL A   1      40.475  26.063  26.358  1.00  0.00     0.016 A 
ATOM     33  C   UNL A   1      39.395  25.128  28.348  1.00  0.00     0.016 A 
ATOM     34  C   UNL A   1      40.329  27.342  26.848  1.00  0.00     0.010 A 
ATOM     35  C   UNL A   1      39.261  26.400  28.843  1.00  0.00     0.010 A 
ATOM     36  C   UNL A   1      39.850  27.469  28.145  1.00  0.00    -0.014 A 
BRANCH  36  37
ATOM     37  C   UNL A   1      40.078  28.659  28.932  1.00  0.00     0.031 A 
ATOM     38  C   UNL A   1      39.025  29.673  28.996  1.00  0.00     0.074 A 
ATOM     39  C   UNL A   1      41.211  28.726  29.660  1.00  0.00     0.049 A 
ATOM     40  N   UNL A   1      39.201  30.888  29.378  1.00  0.00    -0.248 NA
ATOM     41  C   UNL A   1      37.671  29.389  28.540  1.00  0.00     0.031 C 
ATOM     42  C   UNL A   1      41.479  29.579  30.810  1.00  0.00     0.029 A 
ATOM     43  N   UNL A   1      42.440  28.114  29.377  1.00  0.00    -0.354 N 
ATOM     44  C   UNL A   1      37.955  31.460  29.495  1.00  0.00     0.074 A 
ATOM     45  C   UNL A   1      37.050  30.522  28.872  1.00  0.00     0.031 C 
ATOM     46  C   UNL A   1      42.805  29.615  31.026  1.00  0.00     0.029 A 
ATOM     47  C   UNL A   1      43.441  28.956  29.895  1.00  0.00     0.049 A 
ATOM     48  H   UNL A   1      42.576  27.260  28.905  1.00  0.00     0.167 HD
ATOM     49  C   UNL A   1      37.821  32.583  30.255  1.00  0.00     0.037 A 
ATOM     50  C   UNL A   1      44.331  29.577  29.064  1.00  0.00     0.037 A 
ATOM     51  C   UNL A   1      39.127  33.043  30.726  1.00  0.00     0.049 A 
ATOM     52  C   UNL A   1      44.248  31.084  29.123  1.00  0.00     0.074 A 
ATOM     53  C   UNL A   1      39.821  32.791  31.899  1.00  0.00     0.029 A 
ATOM     54  N   UNL A   1      40.053  33.554  29.820  1.00  0.00    -0.354 N 
ATOM     55  N   UNL A   1      43.166  31.746  29.431  1.00  0.00    -0.248 NA
ATOM     56  C   UNL A   1      45.377  31.957  28.812  1.00  0.00     0.031 C 
ATOM     57  C   UNL A   1      41.186  33.092  31.674  1.00  0.00     0.029 A 
ATOM     58  C   UNL A   1      41.319  33.553  30.375  1.00  0.00     0.049 A 
ATOM     59  H   UNL A   1      39.837  33.871  28.913  1.00  0.00     0.167 HD
ATOM     60  C   UNL A   1      43.428  33.088  29.367  1.00  0.00     0.074 A 
ATOM     61  C   UNL A   1      44.826  33.170  28.982  1.00  0.00     0.031 C 
ATOM     62  C   UNL A   1      42.476  34.029  29.635  1.00  0.00     0.037 A 
BRANCH  49  63
ATOM     63  C   UNL A   1      36.503  33.010  30.865  1.00  0.00     0.064 A 
ATOM     64  C   UNL A   1      35.626  33.857  30.153  1.00  0.00     0.173 A 
ATOM     65  C   UNL A   1      36.087  32.702  32.173  1.00  0.00     0.173 A 
ATOM     66  F   UNL A   1      35.820  34.138  28.859  1.00  0.00    -0.203 F 
ATOM     67  C   UNL A   1      34.511  34.455  30.747  1.00  0.00     0.198 A 
ATOM     68  C   UNL A   1      35.005  33.344  32.788  1.00  0.00     0.198 A 
ATOM     69  F   UNL A   1      36.674  31.730  32.880  1.00  0.00    -0.203 F 
ATOM     70  F   UNL A   1      33.727  35.264  30.022  1.00  0.00    -0.200 F 
ATOM     71  C   UNL A   1      34.227  34.233  32.078  1.00  0.00     0.200 A 
ATOM     72  F   UNL A   1      34.727  33.092  34.075  1.00  0.00    -0.200 F 
ATOM     73  F   UNL A   1      33.190  34.847  32.664  1.00  0.00    -0.200 F 
ENDBRANCH  49  63
BRANCH  50  74
ATOM     74  C   UNL A   1      44.615  28.823  27.814  1.00  0.00     0.064 A 
ATOM     75  C   UNL A   1      45.584  27.804  27.831  1.00  0.00     0.173 A 
ATOM     76  C   UNL A   1      43.729  28.857  26.729  1.00  0.00     0.173 A 
ATOM     77  F   UNL A   1      46.463  27.733  28.844  1.00  0.00    -0.203 F 
ATOM     78  C   UNL A   1      45.609  26.810  26.853  1.00  0.00     0.198 A 
ATOM     79  C   UNL A   1      43.750  27.856  25.757  1.00  0.00     0.198 A 
ATOM     80  F   UNL A   1      42.784  29.804  26.651  1.00  0.00    -0.203 F 
ATOM     81  F   UNL A   1      46.509  25.819  26.927  1.00  0.00    -0.200 F 
ATOM     82  C   UNL A   1      44.672  26.821  25.833  1.00  0.00     0.200 A 
ATOM     83  F   UNL A   1      42.835  27.859  24.777  1.00  0.00    -0.200 F 
ATOM     84  F   UNL A   1      44.637  25.827  24.932  1.00  0.00    -0.200 F 
ENDBRANCH  50  74
BRANCH  62  85
ATOM     85  C   UNL A   1      42.609  35.501  29.343  1.00  0.00     0.064 A 
ATOM     86  C   UNL A   1      43.432  36.366  30.083  1.00  0.00     0.173 A 
ATOM     87  C   UNL A   1      42.003  36.065  28.196  1.00  0.00     0.173 A 
ATOM     88  F   UNL A   1      44.165  35.919  31.112  1.00  0.00    -0.203 F 
ATOM     89  C   UNL A   1      43.568  37.716  29.754  1.00  0.00     0.198 A 
ATOM     90  C   UNL A   1      42.189  37.398  27.836  1.00  0.00     0.198 A 
ATOM     91  F   UNL A   1      41.234  35.332  27.377  1.00  0.00    -0.203 F 
ATOM     92  F   UNL A   1      44.322  38.512  30.524  1.00  0.00    -0.200 F 
ATOM     93  C   UNL A   1      42.953  38.229  28.628  1.00  0.00     0.200 A 
ATOM     94  F   UNL A   1      41.635  37.866  26.710  1.00  0.00    -0.200 F 
ATOM     95  F   UNL A   1      43.117  39.516  28.294  1.00  0.00    -0.200 F 
ENDBRANCH  62  85
ENDBRANCH  36  37
ENDBRANCH  29  31
ENDBRANCH  28  29
ENDBRANCH  27  28
ENDBRANCH  26  27
ENDBRANCH   1  26
TORSDOF 17
ENDMDL
MODEL 2
REMARK VINA RESULT:     -12.9      4.637     10.677
REMARK SMILES Cc1cc(F)cc(N[C@H](C(=O)OCCOCCOC(=O)c2ccc(-c3c4nc(c(-c5c(F)c(F)c(F)c(F)c5F)c5ccc([nH]5)c(-c5c(F)c(F)c(F)c(F)c5F)c5nc(c(-c6c(F)c(F)c(F)c(F)c6F)c6ccc3[nH]6)C=C5)C=C4)cc2)c2cc(C)cc(C)c2)c1
REMARK SMILES IDX 15 1 14 2 13 3 12 4 10 5 11 6 9 7 8 8 7 10 1 11 2 12 3 13
REMARK SMILES IDX 92 14 4 15 5 16 6 17 84 18 85 19 91 20 86 21 89 22 87 23
REMARK SMILES IDX 88 24 90 25 16 26 17 27 18 28 19 29 20 30 21 31 22 32 83 33
REMARK SMILES IDX 23 34 82 35 24 36 25 37 26 38 76 39 27 40 81 41 75 42 77 43
REMARK SMILES IDX 28 44 80 45 74 46 73 47 29 49 61 50 41 51 60 52 42 53 45 54
REMARK SMILES IDX 59 55 78 56 43 57 44 58 58 60 79 61 46 62 30 63 31 64 39 65
REMARK SMILES IDX 32 66 33 67 37 68 40 69 34 70 35 71 38 72 36 73 62 74 63 75
REMARK SMILES IDX 71 76 64 77 65 78 69 79 72 80 66 81 67 82 70 83 68 84 47 85
REMARK SMILES IDX 48 86 56 87 49 88 50 89 54 90 57 91 51 92 52 93 55 94 53 95
REMARK H PARENT 8 9 77 48 45 59
REMARK Flexibility Score: inf
ROOT
ATOM      1  O   UNL A   1      33.787  31.619  27.259  1.00  0.00    -0.374 OA
ENDROOT
BRANCH   1   2
ATOM      2  C   UNL A   1      32.698  30.709  27.220  1.00  0.00     0.202 C 
BRANCH   2   3
ATOM      3  C   UNL A   1      32.326  29.969  25.922  1.00  0.00     0.261 C 
BRANCH   3   4
ATOM      4  O   UNL A   1      33.411  29.339  25.232  1.00  0.00    -0.461 OA
BRANCH   4   5
ATOM      5  C   UNL A   1      33.068  28.907  23.982  1.00  0.00     0.333 C 
ATOM      6  O   UNL A   1      33.668  29.267  22.973  1.00  0.00    -0.249 OA
BRANCH   5   7
ATOM      7  C   UNL A   1      31.962  27.825  24.007  1.00  0.00     0.221 C 
BRANCH   7   8
ATOM      8  N   UNL A   1      30.927  27.984  22.956  1.00  0.00    -0.369 N 
ATOM      9  H   UNL A   1      31.110  27.511  22.113  1.00  0.00     0.161 HD
BRANCH   8  10
ATOM     10  C   UNL A   1      29.743  28.697  22.983  1.00  0.00     0.038 A 
ATOM     11  C   UNL A   1      28.646  32.378  22.787  1.00  0.00     0.044 C 
ATOM     12  C   UNL A   1      28.605  30.888  22.945  1.00  0.00    -0.046 A 
ATOM     13  C   UNL A   1      27.381  30.266  23.188  1.00  0.00     0.042 A 
ATOM     14  C   UNL A   1      29.775  30.101  22.877  1.00  0.00     0.029 A 
ATOM     15  C   UNL A   1      27.334  28.889  23.274  1.00  0.00     0.125 A 
ATOM     16  F   UNL A   1      26.161  28.277  23.487  1.00  0.00    -0.207 F 
ATOM     17  C   UNL A   1      28.485  28.121  23.131  1.00  0.00     0.065 A 
ENDBRANCH   8  10
ENDBRANCH   7   8
BRANCH   7  18
ATOM     18  C   UNL A   1      32.514  26.400  24.096  1.00  0.00    -0.014 A 
ATOM     19  C   UNL A   1      31.816  25.329  23.515  1.00  0.00     0.010 A 
ATOM     20  C   UNL A   1      33.728  26.105  24.733  1.00  0.00     0.010 A 
ATOM     21  C   UNL A   1      32.206  24.002  23.658  1.00  0.00    -0.051 A 
ATOM     22  C   UNL A   1      34.203  24.780  24.791  1.00  0.00    -0.051 A 
ATOM     23  C   UNL A   1      31.262  22.931  23.205  1.00  0.00     0.044 C 
ATOM     24  C   UNL A   1      33.409  23.732  24.298  1.00  0.00     0.006 A 
ATOM     25  C   UNL A   1      35.539  24.454  25.391  1.00  0.00     0.044 C 
ENDBRANCH   7  18
ENDBRANCH   5   7
ENDBRANCH   4   5
ENDBRANCH   3   4
ENDBRANCH   2   3
ENDBRANCH   1   2
BRANCH   1  26
ATOM     26  C   UNL A   1      33.830  32.723  28.157  1.00  0.00     0.202 C 
BRANCH  26  27
ATOM     27  C   UNL A   1      35.155  33.183  28.761  1.00  0.00     0.261 C 
BRANCH  27  28
ATOM     28  O   UNL A   1      35.662  32.217  29.681  1.00  0.00    -0.460 OA
BRANCH  28  29
ATOM     29  C   UNL A   1      36.846  31.710  29.295  1.00  0.00     0.338 C 
ATOM     30  O   UNL A   1      37.942  32.246  29.336  1.00  0.00    -0.246 OA
BRANCH  29  31
ATOM     31  C   UNL A   1      36.676  30.334  28.792  1.00  0.00     0.060 A 
ATOM     32  C   UNL A   1      36.698  29.385  29.832  1.00  0.00     0.016 A 
ATOM     33  C   UNL A   1      37.393  30.156  27.612  1.00  0.00     0.016 A 
ATOM     34  C   UNL A   1      37.780  28.534  29.903  1.00  0.00     0.010 A 
ATOM     35  C   UNL A   1      38.476  29.318  27.687  1.00  0.00     0.010 A 
ATOM     36  C   UNL A   1      38.720  28.625  28.886  1.00  0.00    -0.014 A 
BRANCH  36  37
ATOM     37  C   UNL A   1      40.078  28.160  29.056  1.00  0.00     0.031 A 
ATOM     38  C   UNL A   1      40.423  26.813  28.601  1.00  0.00     0.074 A 
ATOM     39  C   UNL A   1      40.989  29.036  29.528  1.00  0.00     0.049 A 
ATOM     40  N   UNL A   1      41.471  26.164  28.965  1.00  0.00    -0.248 NA
ATOM     41  C   UNL A   1      39.531  26.054  27.735  1.00  0.00     0.031 C 
ATOM     42  C   UNL A   1      42.439  28.962  29.404  1.00  0.00     0.029 A 
ATOM     43  N   UNL A   1      40.759  30.123  30.382  1.00  0.00    -0.354 N 
ATOM     44  C   UNL A   1      41.546  25.039  28.176  1.00  0.00     0.074 A 
ATOM     45  C   UNL A   1      40.271  24.969  27.499  1.00  0.00     0.031 C 
ATOM     46  C   UNL A   1      42.995  29.804  30.292  1.00  0.00     0.029 A 
ATOM     47  C   UNL A   1      41.925  30.286  31.153  1.00  0.00     0.049 A 
ATOM     48  H   UNL A   1      39.940  30.666  30.433  1.00  0.00     0.167 HD
ATOM     49  C   UNL A   1      42.743  24.397  28.065  1.00  0.00     0.037 A 
ATOM     50  C   UNL A   1      41.901  30.090  32.506  1.00  0.00     0.037 A 
ATOM     51  C   UNL A   1      43.735  25.005  28.952  1.00  0.00     0.049 A 
ATOM     52  C   UNL A   1      42.800  28.965  32.961  1.00  0.00     0.074 A 
ATOM     53  C   UNL A   1      44.678  25.997  28.732  1.00  0.00     0.029 A 
ATOM     54  N   UNL A   1      43.599  24.886  30.332  1.00  0.00    -0.354 N 
ATOM     55  N   UNL A   1      43.119  27.938  32.221  1.00  0.00    -0.248 NA
ATOM     56  C   UNL A   1      43.387  28.905  34.297  1.00  0.00     0.031 C 
ATOM     57  C   UNL A   1      45.062  26.523  29.989  1.00  0.00     0.029 A 
ATOM     58  C   UNL A   1      44.376  25.833  30.974  1.00  0.00     0.049 A 
ATOM     59  H   UNL A   1      43.031  24.223  30.787  1.00  0.00     0.167 HD
ATOM     60  C   UNL A   1      43.925  27.099  32.942  1.00  0.00     0.074 A 
ATOM     61  C   UNL A   1      44.070  27.750  34.232  1.00  0.00     0.031 C 
ATOM     62  C   UNL A   1      44.412  25.934  32.424  1.00  0.00     0.037 A 
BRANCH  49  63
ATOM     63  C   UNL A   1      43.089  23.501  26.896  1.00  0.00     0.064 A 
ATOM     64  C   UNL A   1      42.747  22.131  26.918  1.00  0.00     0.173 A 
ATOM     65  C   UNL A   1      43.835  23.899  25.772  1.00  0.00     0.173 A 
ATOM     66  F   UNL A   1      41.934  21.627  27.856  1.00  0.00    -0.203 F 
ATOM     67  C   UNL A   1      43.231  21.219  25.977  1.00  0.00     0.198 A 
ATOM     68  C   UNL A   1      44.369  22.980  24.861  1.00  0.00     0.198 A 
ATOM     69  F   UNL A   1      44.024  25.192  25.484  1.00  0.00    -0.203 F 
ATOM     70  F   UNL A   1      42.883  19.928  26.063  1.00  0.00    -0.200 F 
ATOM     71  C   UNL A   1      44.079  21.638  24.973  1.00  0.00     0.200 A 
ATOM     72  F   UNL A   1      45.168  23.411  23.874  1.00  0.00    -0.200 F 
ATOM     73  F   UNL A   1      44.587  20.756  24.101  1.00  0.00    -0.200 F 
ENDBRANCH  49  63
BRANCH  50  74
ATOM     74  C   UNL A   1      40.587  30.390  33.134  1.00  0.00     0.064 A 
ATOM     75  C   UNL A   1      40.252  31.724  33.425  1.00  0.00     0.173 A 
ATOM     76  C   UNL A   1      39.549  29.448  33.132  1.00  0.00     0.173 A 
ATOM     77  F   UNL A   1      41.211  32.664  33.449  1.00  0.00    -0.203 F 
ATOM     78  C   UNL A   1      38.927  32.116  33.617  1.00  0.00     0.198 A 
ATOM     79  C   UNL A   1      38.224  29.843  33.316  1.00  0.00     0.198 A 
ATOM     80  F   UNL A   1      39.802  28.159  32.865  1.00  0.00    -0.203 F 
ATOM     81  F   UNL A   1      38.634  33.405  33.837  1.00  0.00    -0.200 F 
ATOM     82  C   UNL A   1      37.911  31.178  33.532  1.00  0.00     0.200 A 
ATOM     83  F   UNL A   1      37.239  28.938  33.220  1.00  0.00    -0.200 F 
ATOM     84  F   UNL A   1      36.628  31.556  33.637  1.00  0.00    -0.200 F 
ENDBRANCH  50  74
BRANCH  62  85
ATOM     85  C   UNL A   1      45.083  24.847  33.221  1.00  0.00     0.064 A 
ATOM     86  C   UNL A   1      44.485  23.605  33.496  1.00  0.00     0.173 A 
ATOM     87  C   UNL A   1      46.434  24.976  33.621  1.00  0.00     0.173 A 
ATOM     88  F   UNL A   1      43.256  23.311  33.049  1.00  0.00    -0.203 F 
ATOM     89  C   UNL A   1      45.155  22.602  34.197  1.00  0.00     0.198 A 
ATOM     90  C   UNL A   1      47.119  23.951  34.269  1.00  0.00     0.198 A 
ATOM     91  F   UNL A   1      47.134  26.093  33.373  1.00  0.00    -0.203 F 
ATOM     92  F   UNL A   1      44.522  21.456  34.482  1.00  0.00    -0.200 F 
ATOM     93  C   UNL A   1      46.473  22.772  34.577  1.00  0.00     0.200 A 
ATOM     94  F   UNL A   1      48.414  24.108  34.577  1.00  0.00    -0.200 F 
ATOM     95  F   UNL A   1      47.126  21.792  35.217  1.00  0.00    -0.200 F 
ENDBRANCH  62  85
ENDBRANCH  36  37
ENDBRANCH  29  31
ENDBRANCH  28  29
ENDBRANCH  27  28
ENDBRANCH  26  27
ENDBRANCH   1  26
TORSDOF 17
ENDMDL
MODEL 3
REMARK VINA RESULT:     -12.6      1.676      3.523
REMARK SMILES Cc1cc(F)cc(N[C@H](C(=O)OCCOCCOC(=O)c2ccc(-c3c4nc(c(-c5c(F)c(F)c(F)c(F)c5F)c5ccc([nH]5)c(-c5c(F)c(F)c(F)c(F)c5F)c5nc(c(-c6c(F)c(F)c(F)c(F)c6F)c6ccc3[nH]6)C=C5)C=C4)cc2)c2cc(C)cc(C)c2)c1
REMARK SMILES IDX 15 1 14 2 13 3 12 4 10 5 11 6 9 7 8 8 7 10 1 11 2 12 3 13
REMARK SMILES IDX 92 14 4 15 5 16 6 17 84 18 85 19 91 20 86 21 89 22 87 23
REMARK SMILES IDX 88 24 90 25 16 26 17 27 18 28 19 29 20 30 21 31 22 32 83 33
REMARK SMILES IDX 23 34 82 35 24 36 25 37 26 38 76 39 27 40 81 41 75 42 77 43
REMARK SMILES IDX 28 44 80 45 74 46 73 47 29 49 61 50 41 51 60 52 42 53 45 54
REMARK SMILES IDX 59 55 78 56 43 57 44 58 58 60 79 61 46 62 30 63 31 64 39 65
REMARK SMILES IDX 32 66 33 67 37 68 40 69 34 70 35 71 38 72 36 73 62 74 63 75
REMARK SMILES IDX 71 76 64 77 65 78 69 79 72 80 66 81 67 82 70 83 68 84 47 85
REMARK SMILES IDX 48 86 56 87 49 88 50 89 54 90 57 91 51 92 52 93 55 94 53 95
REMARK H PARENT 8 9 77 48 45 59
REMARK Flexibility Score: inf
ROOT
ATOM      1  O   UNL A   1      39.230  21.334  26.558  1.00  0.00    -0.374 OA
ENDROOT
BRANCH   1   2
ATOM      2  C   UNL A   1      38.318  21.781  25.567  1.00  0.00     0.202 C 
BRANCH   2   3
ATOM      3  C   UNL A   1      36.799  21.605  25.747  1.00  0.00     0.261 C 
BRANCH   3   4
ATOM      4  O   UNL A   1      36.074  22.784  26.115  1.00  0.00    -0.461 OA
BRANCH   4   5
ATOM      5  C   UNL A   1      34.845  22.510  26.644  1.00  0.00     0.333 C 
ATOM      6  O   UNL A   1      34.696  22.132  27.804  1.00  0.00    -0.249 OA
BRANCH   5   7
ATOM      7  C   UNL A   1      33.687  22.867  25.683  1.00  0.00     0.221 C 
BRANCH   7   8
ATOM      8  N   UNL A   1      33.948  24.049  24.824  1.00  0.00    -0.369 N 
ATOM      9  H   UNL A   1      34.501  23.874  24.029  1.00  0.00     0.161 HD
BRANCH   8  10
ATOM     10  C   UNL A   1      33.533  25.359  24.973  1.00  0.00     0.038 A 
ATOM     11  C   UNL A   1      33.902  28.683  23.075  1.00  0.00     0.044 C 
ATOM     12  C   UNL A   1      33.546  27.679  24.129  1.00  0.00    -0.046 A 
ATOM     13  C   UNL A   1      32.866  28.106  25.270  1.00  0.00     0.042 A 
ATOM     14  C   UNL A   1      33.899  26.318  24.009  1.00  0.00     0.029 A 
ATOM     15  C   UNL A   1      32.485  27.173  26.212  1.00  0.00     0.125 A 
ATOM     16  F   UNL A   1      31.813  27.567  27.303  1.00  0.00    -0.207 F 
ATOM     17  C   UNL A   1      32.775  25.823  26.044  1.00  0.00     0.065 A 
ENDBRANCH   8  10
ENDBRANCH   7   8
BRANCH   7  18
ATOM     18  C   UNL A   1      33.156  21.662  24.902  1.00  0.00    -0.014 A 
ATOM     19  C   UNL A   1      33.021  20.413  25.528  1.00  0.00     0.010 A 
ATOM     20  C   UNL A   1      32.770  21.752  23.557  1.00  0.00     0.010 A 
ATOM     21  C   UNL A   1      32.653  19.259  24.847  1.00  0.00    -0.051 A 
ATOM     22  C   UNL A   1      32.284  20.620  22.875  1.00  0.00    -0.051 A 
ATOM     23  C   UNL A   1      32.774  17.945  25.557  1.00  0.00     0.044 C 
ATOM     24  C   UNL A   1      32.280  19.369  23.514  1.00  0.00     0.006 A 
ATOM     25  C   UNL A   1      31.785  20.712  21.463  1.00  0.00     0.044 C 
ENDBRANCH   7  18
ENDBRANCH   5   7
ENDBRANCH   4   5
ENDBRANCH   3   4
ENDBRANCH   2   3
ENDBRANCH   1   2
BRANCH   1  26
ATOM     26  C   UNL A   1      40.596  21.053  26.270  1.00  0.00     0.202 C 
BRANCH  26  27
ATOM     27  C   UNL A   1      41.711  21.905  26.874  1.00  0.00     0.261 C 
BRANCH  27  28
ATOM     28  O   UNL A   1      41.192  22.810  27.848  1.00  0.00    -0.460 OA
BRANCH  28  29
ATOM     29  C   UNL A   1      41.488  24.092  27.568  1.00  0.00     0.338 C 
ATOM     30  O   UNL A   1      42.586  24.627  27.569  1.00  0.00    -0.246 OA
BRANCH  29  31
ATOM     31  C   UNL A   1      40.264  24.838  27.220  1.00  0.00     0.060 A 
ATOM     32  C   UNL A   1      40.527  25.904  26.339  1.00  0.00     0.016 A 
ATOM     33  C   UNL A   1      39.453  24.988  28.341  1.00  0.00     0.016 A 
ATOM     34  C   UNL A   1      40.395  27.187  26.823  1.00  0.00     0.010 A 
ATOM     35  C   UNL A   1      39.331  26.265  28.829  1.00  0.00     0.010 A 
ATOM     36  C   UNL A   1      39.925  27.324  28.122  1.00  0.00    -0.014 A 
BRANCH  36  37
ATOM     37  C   UNL A   1      40.168  28.517  28.901  1.00  0.00     0.031 A 
ATOM     38  C   UNL A   1      39.123  29.539  28.968  1.00  0.00     0.074 A 
ATOM     39  C   UNL A   1      41.307  28.579  29.620  1.00  0.00     0.049 A 
ATOM     40  N   UNL A   1      39.310  30.754  29.341  1.00  0.00    -0.248 NA
ATOM     41  C   UNL A   1      37.763  29.262  28.523  1.00  0.00     0.031 C 
ATOM     42  C   UNL A   1      41.590  29.437  30.764  1.00  0.00     0.029 A 
ATOM     43  N   UNL A   1      42.529  27.957  29.330  1.00  0.00    -0.354 N 
ATOM     44  C   UNL A   1      38.069  31.336  29.465  1.00  0.00     0.074 A 
ATOM     45  C   UNL A   1      37.153  30.402  28.854  1.00  0.00     0.031 C 
ATOM     46  C   UNL A   1      42.918  29.464  30.969  1.00  0.00     0.029 A 
ATOM     47  C   UNL A   1      43.541  28.794  29.836  1.00  0.00     0.049 A 
ATOM     48  H   UNL A   1      42.655  27.100  28.862  1.00  0.00     0.167 HD
ATOM     49  C   UNL A   1      37.949  32.464  30.220  1.00  0.00     0.037 A 
ATOM     50  C   UNL A   1      44.428  29.405  28.996  1.00  0.00     0.037 A 
ATOM     51  C   UNL A   1      39.263  32.917  30.679  1.00  0.00     0.049 A 
ATOM     52  C   UNL A   1      44.357  30.913  29.047  1.00  0.00     0.074 A 
ATOM     53  C   UNL A   1      39.964  32.666  31.848  1.00  0.00     0.029 A 
ATOM     54  N   UNL A   1      40.185  33.417  29.763  1.00  0.00    -0.354 N 
ATOM     55  N   UNL A   1      43.282  31.584  29.360  1.00  0.00    -0.248 NA
ATOM     56  C   UNL A   1      45.490  31.776  28.723  1.00  0.00     0.031 C 
ATOM     57  C   UNL A   1      41.329  32.956  31.610  1.00  0.00     0.029 A 
ATOM     58  C   UNL A   1      41.455  33.409  30.309  1.00  0.00     0.049 A 
ATOM     59  H   UNL A   1      39.964  33.730  28.857  1.00  0.00     0.167 HD
ATOM     60  C   UNL A   1      43.553  32.924  29.287  1.00  0.00     0.074 A 
ATOM     61  C   UNL A   1      44.949  32.994  28.891  1.00  0.00     0.031 C 
ATOM     62  C   UNL A   1      42.610  33.873  29.558  1.00  0.00     0.037 A 
BRANCH  49  63
ATOM     63  C   UNL A   1      36.639  32.904  30.838  1.00  0.00     0.064 A 
ATOM     64  C   UNL A   1      35.744  33.720  30.113  1.00  0.00     0.173 A 
ATOM     65  C   UNL A   1      36.248  32.639  32.163  1.00  0.00     0.173 A 
ATOM     66  F   UNL A   1      35.914  33.956  28.806  1.00  0.00    -0.203 F 
ATOM     67  C   UNL A   1      34.636  34.331  30.705  1.00  0.00     0.198 A 
ATOM     68  C   UNL A   1      35.173  33.295  32.774  1.00  0.00     0.198 A 
ATOM     69  F   UNL A   1      36.855  31.696  32.893  1.00  0.00    -0.203 F 
ATOM     70  F   UNL A   1      33.833  35.109  29.966  1.00  0.00    -0.200 F 
ATOM     71  C   UNL A   1      34.376  34.154  32.047  1.00  0.00     0.200 A 
ATOM     72  F   UNL A   1      34.919  33.087  34.074  1.00  0.00    -0.200 F 
ATOM     73  F   UNL A   1      33.345  34.781  32.629  1.00  0.00    -0.200 F 
ENDBRANCH  49  63
BRANCH  50  74
ATOM     74  C   UNL A   1      44.697  28.642  27.748  1.00  0.00     0.064 A 
ATOM     75  C   UNL A   1      45.633  27.593  27.771  1.00  0.00     0.173 A 
ATOM     76  C   UNL A   1      43.820  28.703  26.656  1.00  0.00     0.173 A 
ATOM     77  F   UNL A   1      46.502  27.495  28.790  1.00  0.00    -0.203 F 
ATOM     78  C   UNL A   1      45.634  26.599  26.793  1.00  0.00     0.198 A 
ATOM     79  C   UNL A   1      43.817  27.703  25.684  1.00  0.00     0.198 A 
ATOM     80  F   UNL A   1      42.906  29.680  26.572  1.00  0.00    -0.203 F 
ATOM     81  F   UNL A   1      46.502  25.580  26.873  1.00  0.00    -0.200 F 
ATOM     82  C   UNL A   1      44.705  26.640  25.766  1.00  0.00     0.200 A 
ATOM     83  F   UNL A   1      42.909  27.734  24.697  1.00  0.00    -0.200 F 
ATOM     84  F   UNL A   1      44.645  25.647  24.865  1.00  0.00    -0.200 F 
ENDBRANCH  50  74
BRANCH  62  85
ATOM     85  C   UNL A   1      42.751  35.342  29.257  1.00  0.00     0.064 A 
ATOM     86  C   UNL A   1      43.309  36.266  30.155  1.00  0.00     0.173 A 
ATOM     87  C   UNL A   1      42.448  35.846  27.970  1.00  0.00     0.173 A 
ATOM     88  F   UNL A   1      43.763  35.883  31.357  1.00  0.00    -0.203 F 
ATOM     89  C   UNL A   1      43.469  37.613  29.825  1.00  0.00     0.198 A 
ATOM     90  C   UNL A   1      42.664  37.178  27.624  1.00  0.00     0.198 A 
ATOM     91  F   UNL A   1      41.956  35.055  27.005  1.00  0.00    -0.203 F 
ATOM     92  F   UNL A   1      43.957  38.466  30.736  1.00  0.00    -0.200 F 
ATOM     93  C   UNL A   1      43.154  38.067  28.558  1.00  0.00     0.200 A 
ATOM     94  F   UNL A   1      42.409  37.590  26.374  1.00  0.00    -0.200 F 
ATOM     95  F   UNL A   1      43.344  39.352  28.231  1.00  0.00    -0.200 F 
ENDBRANCH  62  85
ENDBRANCH  36  37
ENDBRANCH  29  31
ENDBRANCH  28  29
ENDBRANCH  27  28
ENDBRANCH  26  27
ENDBRANCH   1  26
TORSDOF 17
ENDMDL
