MODEL 1
REMARK VINA RESULT:     -11.8      0.000      0.000
REMARK SMILES CS(=O)(=O)c1cc(F)ccc1N1CCC[C@@H](C(=O)OCCOCCOC(=O)c2ccc(-c3c4nc(c(-c5c(F)c(F)c(F)c(F)c5F)c5ccc([nH]5)c(-c5c(F)c(F)c(F)c(F)c5F)c5nc(c(-c6c(F)c(F)c(F)c(F)c6F)c6ccc3[nH]6)C=C5)C=C4)cc2)C1
REMARK SMILES IDX 22 1 21 2 20 3 19 4 17 5 18 6 16 7 12 8 13 9 91 10 14 11
REMARK SMILES IDX 15 12 11 13 5 14 6 15 7 16 10 17 8 18 9 19 2 20 1 21 3 22
REMARK SMILES IDX 4 23 23 24 24 25 25 26 26 27 27 28 28 29 29 30 90 31 30 32
REMARK SMILES IDX 89 33 31 34 32 35 33 36 83 37 34 38 88 39 82 40 84 41 35 42
REMARK SMILES IDX 87 43 81 44 80 45 36 47 68 48 48 49 67 50 49 51 52 52 66 53
REMARK SMILES IDX 85 54 50 55 51 56 65 58 86 59 53 60 37 61 38 62 46 63 39 64
REMARK SMILES IDX 40 65 44 66 47 67 41 68 42 69 45 70 43 71 69 72 70 73 78 74
REMARK SMILES IDX 71 75 72 76 76 77 79 78 73 79 74 80 77 81 75 82 54 83 55 84
REMARK SMILES IDX 63 85 56 86 57 87 61 88 64 89 58 90 59 91 62 92 60 93
REMARK H PARENT 84 46 52 57
REMARK Flexibility Score: inf
ROOT
ATOM      1  O   UNL A   1      32.238  29.222  23.893  1.00  0.00    -0.374 OA
ENDROOT
BRANCH   1   2
ATOM      2  C   UNL A   1      33.512  28.704  23.508  1.00  0.00     0.202 C 
BRANCH   2   3
ATOM      3  C   UNL A   1      33.615  28.134  22.091  1.00  0.00     0.261 C 
BRANCH   3   4
ATOM      4  O   UNL A   1      33.646  26.697  22.110  1.00  0.00    -0.463 OA
BRANCH   4   5
ATOM      5  C   UNL A   1      32.427  26.092  22.056  1.00  0.00     0.310 C 
ATOM      6  O   UNL A   1      31.546  26.350  21.247  1.00  0.00    -0.252 OA
BRANCH   5   7
ATOM      7  C   UNL A   1      32.320  25.009  23.104  1.00  0.00     0.118 C 
ATOM      8  N   UNL A   1      33.822  23.722  24.556  1.00  0.00    -0.370 N 
ATOM      9  C   UNL A   1      33.284  24.300  25.788  1.00  0.00     0.116 C 
ATOM     10  C   UNL A   1      33.750  24.561  23.363  1.00  0.00     0.131 C 
ATOM     11  C   UNL A   1      31.809  24.623  25.567  1.00  0.00     0.022 C 
ATOM     12  C   UNL A   1      31.618  25.541  24.362  1.00  0.00     0.019 C 
BRANCH   8  13
ATOM     13  C   UNL A   1      34.652  22.617  24.613  1.00  0.00     0.056 A 
ATOM     14  C   UNL A   1      34.253  21.260  24.596  1.00  0.00     0.093 A 
ATOM     15  C   UNL A   1      35.192  20.238  24.809  1.00  0.00     0.061 A 
ATOM     16  C   UNL A   1      36.530  20.552  25.001  1.00  0.00     0.124 A 
ATOM     17  C   UNL A   1      36.031  22.880  24.784  1.00  0.00     0.030 A 
ATOM     18  F   UNL A   1      37.412  19.567  25.210  1.00  0.00    -0.207 F 
ATOM     19  C   UNL A   1      36.964  21.864  24.975  1.00  0.00     0.041 A 
BRANCH  14  20
ATOM     20  S   UNL A   1      32.574  20.781  24.212  1.00  0.00     0.177 S 
ATOM     21  C   UNL A   1      32.531  19.028  24.013  1.00  0.00     0.164 C 
ATOM     22  O   UNL A   1      32.247  21.326  22.907  1.00  0.00    -0.224 OA
ATOM     23  O   UNL A   1      31.772  21.080  25.384  1.00  0.00    -0.224 OA
ENDBRANCH  14  20
ENDBRANCH   8  13
ENDBRANCH   5   7
ENDBRANCH   4   5
ENDBRANCH   3   4
ENDBRANCH   2   3
ENDBRANCH   1   2
BRANCH   1  24
ATOM     24  C   UNL A   1      31.921  29.195  25.285  1.00  0.00     0.202 C 
BRANCH  24  25
ATOM     25  C   UNL A   1      31.812  30.554  25.979  1.00  0.00     0.261 C 
BRANCH  25  26
ATOM     26  O   UNL A   1      32.514  30.552  27.234  1.00  0.00    -0.460 OA
BRANCH  26  27
ATOM     27  C   UNL A   1      33.286  31.640  27.442  1.00  0.00     0.338 C 
ATOM     28  O   UNL A   1      32.929  32.810  27.475  1.00  0.00    -0.246 OA
BRANCH  27  29
ATOM     29  C   UNL A   1      34.652  31.228  27.811  1.00  0.00     0.060 A 
ATOM     30  C   UNL A   1      34.866  29.862  28.040  1.00  0.00     0.016 A 
ATOM     31  C   UNL A   1      35.682  32.153  28.001  1.00  0.00     0.016 A 
ATOM     32  C   UNL A   1      36.091  29.422  28.528  1.00  0.00     0.010 A 
ATOM     33  C   UNL A   1      36.911  31.709  28.502  1.00  0.00     0.010 A 
ATOM     34  C   UNL A   1      37.103  30.349  28.808  1.00  0.00    -0.014 A 
BRANCH  34  35
ATOM     35  C   UNL A   1      38.288  29.911  29.581  1.00  0.00     0.031 A 
ATOM     36  C   UNL A   1      38.480  30.443  30.973  1.00  0.00     0.074 A 
ATOM     37  C   UNL A   1      39.146  29.010  29.072  1.00  0.00     0.049 A 
ATOM     38  N   UNL A   1      39.447  30.214  31.824  1.00  0.00    -0.248 NA
ATOM     39  C   UNL A   1      37.440  31.356  31.478  1.00  0.00     0.031 C 
ATOM     40  C   UNL A   1      39.029  28.387  27.755  1.00  0.00     0.029 A 
ATOM     41  N   UNL A   1      40.284  28.462  29.607  1.00  0.00    -0.354 N 
ATOM     42  C   UNL A   1      39.133  30.950  32.958  1.00  0.00     0.074 A 
ATOM     43  C   UNL A   1      37.903  31.658  32.682  1.00  0.00     0.031 C 
ATOM     44  C   UNL A   1      40.063  27.546  27.581  1.00  0.00     0.029 A 
ATOM     45  C   UNL A   1      40.926  27.595  28.759  1.00  0.00     0.049 A 
ATOM     46  H   UNL A   1      40.610  28.673  30.512  1.00  0.00     0.167 HD
ATOM     47  C   UNL A   1      39.809  31.017  34.129  1.00  0.00     0.037 A 
ATOM     48  C   UNL A   1      42.088  26.931  28.914  1.00  0.00     0.037 A 
ATOM     49  C   UNL A   1      41.026  30.303  34.403  1.00  0.00     0.049 A 
ATOM     50  C   UNL A   1      42.856  27.077  30.202  1.00  0.00     0.074 A 
ATOM     51  C   UNL A   1      41.779  30.300  35.562  1.00  0.00     0.029 A 
ATOM     52  N   UNL A   1      41.667  29.464  33.504  1.00  0.00    -0.354 N 
ATOM     53  N   UNL A   1      42.551  27.772  31.271  1.00  0.00    -0.248 NA
ATOM     54  C   UNL A   1      44.129  26.347  30.306  1.00  0.00     0.031 C 
ATOM     55  C   UNL A   1      42.901  29.495  35.351  1.00  0.00     0.029 A 
ATOM     56  C   UNL A   1      42.820  28.956  34.076  1.00  0.00     0.049 A 
ATOM     57  H   UNL A   1      41.350  29.261  32.594  1.00  0.00     0.167 HD
ATOM     58  C   UNL A   1      43.577  27.548  32.179  1.00  0.00     0.074 A 
ATOM     59  C   UNL A   1      44.510  26.642  31.542  1.00  0.00     0.031 C 
ATOM     60  C   UNL A   1      43.732  28.048  33.430  1.00  0.00     0.037 A 
BRANCH  47  61
ATOM     61  C   UNL A   1      39.257  31.900  35.208  1.00  0.00     0.064 A 
ATOM     62  C   UNL A   1      39.574  33.266  35.236  1.00  0.00     0.173 A 
ATOM     63  C   UNL A   1      38.487  31.380  36.257  1.00  0.00     0.173 A 
ATOM     64  F   UNL A   1      40.311  33.810  34.256  1.00  0.00    -0.203 F 
ATOM     65  C   UNL A   1      39.155  34.075  36.288  1.00  0.00     0.198 A 
ATOM     66  C   UNL A   1      38.050  32.198  37.296  1.00  0.00     0.198 A 
ATOM     67  F   UNL A   1      38.147  30.083  36.267  1.00  0.00    -0.203 F 
ATOM     68  F   UNL A   1      39.499  35.371  36.314  1.00  0.00    -0.200 F 
ATOM     69  C   UNL A   1      38.395  33.542  37.317  1.00  0.00     0.200 A 
ATOM     70  F   UNL A   1      37.297  31.686  38.279  1.00  0.00    -0.200 F 
ATOM     71  F   UNL A   1      37.992  34.322  38.329  1.00  0.00    -0.200 F 
ENDBRANCH  47  61
BRANCH  48  72
ATOM     72  C   UNL A   1      42.598  26.073  27.813  1.00  0.00     0.064 A 
ATOM     73  C   UNL A   1      42.203  24.732  27.698  1.00  0.00     0.173 A 
ATOM     74  C   UNL A   1      43.495  26.573  26.861  1.00  0.00     0.173 A 
ATOM     75  F   UNL A   1      41.343  24.206  28.582  1.00  0.00    -0.203 F 
ATOM     76  C   UNL A   1      42.702  23.919  26.683  1.00  0.00     0.198 A 
ATOM     77  C   UNL A   1      43.974  25.766  25.830  1.00  0.00     0.198 A 
ATOM     78  F   UNL A   1      43.882  27.856  26.914  1.00  0.00    -0.203 F 
ATOM     79  F   UNL A   1      42.331  22.632  26.613  1.00  0.00    -0.200 F 
ATOM     80  C   UNL A   1      43.583  24.437  25.747  1.00  0.00     0.200 A 
ATOM     81  F   UNL A   1      44.805  26.278  24.911  1.00  0.00    -0.200 F 
ATOM     82  F   UNL A   1      44.052  23.659  24.762  1.00  0.00    -0.200 F 
ENDBRANCH  48  72
BRANCH  60  83
ATOM     83  C   UNL A   1      44.939  27.619  34.211  1.00  0.00     0.064 A 
ATOM     84  C   UNL A   1      44.875  26.500  35.057  1.00  0.00     0.173 A 
ATOM     85  C   UNL A   1      46.124  28.366  34.195  1.00  0.00     0.173 A 
ATOM     86  F   UNL A   1      43.759  25.759  35.115  1.00  0.00    -0.203 F 
ATOM     87  C   UNL A   1      45.950  26.158  35.872  1.00  0.00     0.198 A 
ATOM     88  C   UNL A   1      47.207  28.005  34.993  1.00  0.00     0.198 A 
ATOM     89  F   UNL A   1      46.237  29.437  33.396  1.00  0.00    -0.203 F 
ATOM     90  F   UNL A   1      45.853  25.109  36.700  1.00  0.00    -0.200 F 
ATOM     91  C   UNL A   1      47.114  26.908  35.837  1.00  0.00     0.200 A 
ATOM     92  F   UNL A   1      48.341  28.718  34.943  1.00  0.00    -0.200 F 
ATOM     93  F   UNL A   1      48.151  26.574  36.620  1.00  0.00    -0.200 F 
ENDBRANCH  60  83
ENDBRANCH  34  35
ENDBRANCH  27  29
ENDBRANCH  26  27
ENDBRANCH  25  26
ENDBRANCH  24  25
ENDBRANCH   1  24
TORSDOF 16
ENDMDL
MODEL 2
REMARK VINA RESULT:     -11.8      0.354      7.237
REMARK SMILES CS(=O)(=O)c1cc(F)ccc1N1CCC[C@@H](C(=O)OCCOCCOC(=O)c2ccc(-c3c4nc(c(-c5c(F)c(F)c(F)c(F)c5F)c5ccc([nH]5)c(-c5c(F)c(F)c(F)c(F)c5F)c5nc(c(-c6c(F)c(F)c(F)c(F)c6F)c6ccc3[nH]6)C=C5)C=C4)cc2)C1
REMARK SMILES IDX 22 1 21 2 20 3 19 4 17 5 18 6 16 7 12 8 13 9 91 10 14 11
REMARK SMILES IDX 15 12 11 13 5 14 6 15 7 16 10 17 8 18 9 19 2 20 1 21 3 22
REMARK SMILES IDX 4 23 23 24 24 25 25 26 26 27 27 28 28 29 29 30 90 31 30 32
REMARK SMILES IDX 89 33 31 34 32 35 33 36 83 37 34 38 88 39 82 40 84 41 35 42
REMARK SMILES IDX 87 43 81 44 80 45 36 47 68 48 48 49 67 50 49 51 52 52 66 53
REMARK SMILES IDX 85 54 50 55 51 56 65 58 86 59 53 60 37 61 38 62 46 63 39 64
REMARK SMILES IDX 40 65 44 66 47 67 41 68 42 69 45 70 43 71 69 72 70 73 78 74
REMARK SMILES IDX 71 75 72 76 76 77 79 78 73 79 74 80 77 81 75 82 54 83 55 84
REMARK SMILES IDX 63 85 56 86 57 87 61 88 64 89 58 90 59 91 62 92 60 93
REMARK H PARENT 84 46 52 57
REMARK Flexibility Score: inf
ROOT
ATOM      1  O   UNL A   1      32.117  29.006  23.664  1.00  0.00    -0.374 OA
ENDROOT
BRANCH   1   2
ATOM      2  C   UNL A   1      33.338  28.298  23.445  1.00  0.00     0.202 C 
BRANCH   2   3
ATOM      3  C   UNL A   1      33.649  27.906  21.998  1.00  0.00     0.261 C 
BRANCH   3   4
ATOM      4  O   UNL A   1      33.608  26.480  21.826  1.00  0.00    -0.463 OA
BRANCH   4   5
ATOM      5  C   UNL A   1      32.362  25.950  21.680  1.00  0.00     0.310 C 
ATOM      6  O   UNL A   1      31.518  26.340  20.885  1.00  0.00    -0.252 OA
BRANCH   5   7
ATOM      7  C   UNL A   1      32.173  24.768  22.602  1.00  0.00     0.118 C 
ATOM      8  N   UNL A   1      33.488  23.507  24.245  1.00  0.00    -0.370 N 
ATOM      9  C   UNL A   1      32.645  23.910  25.372  1.00  0.00     0.116 C 
ATOM     10  C   UNL A   1      33.562  24.443  23.127  1.00  0.00     0.131 C 
ATOM     11  C   UNL A   1      31.219  24.102  24.865  1.00  0.00     0.022 C 
ATOM     12  C   UNL A   1      31.171  25.106  23.716  1.00  0.00     0.019 C 
BRANCH   8  13
ATOM     13  C   UNL A   1      34.413  22.490  24.398  1.00  0.00     0.056 A 
ATOM     14  C   UNL A   1      34.138  21.105  24.479  1.00  0.00     0.093 A 
ATOM     15  C   UNL A   1      35.161  20.192  24.783  1.00  0.00     0.061 A 
ATOM     16  C   UNL A   1      36.461  20.641  24.972  1.00  0.00     0.124 A 
ATOM     17  C   UNL A   1      35.758  22.891  24.570  1.00  0.00     0.030 A 
ATOM     18  F   UNL A   1      37.423  19.760  25.269  1.00  0.00    -0.207 F 
ATOM     19  C   UNL A   1      36.775  21.981  24.853  1.00  0.00     0.041 A 
BRANCH  14  20
ATOM     20  S   UNL A   1      32.519  20.447  24.107  1.00  0.00     0.177 S 
ATOM     21  C   UNL A   1      32.678  18.711  23.827  1.00  0.00     0.164 C 
ATOM     22  O   UNL A   1      32.096  21.006  22.836  1.00  0.00    -0.224 OA
ATOM     23  O   UNL A   1      31.717  20.595  25.308  1.00  0.00    -0.224 OA
ENDBRANCH  14  20
ENDBRANCH   8  13
ENDBRANCH   5   7
ENDBRANCH   4   5
ENDBRANCH   3   4
ENDBRANCH   2   3
ENDBRANCH   1   2
BRANCH   1  24
ATOM     24  C   UNL A   1      31.619  29.041  25.001  1.00  0.00     0.202 C 
BRANCH  24  25
ATOM     25  C   UNL A   1      31.730  30.382  25.728  1.00  0.00     0.261 C 
BRANCH  25  26
ATOM     26  O   UNL A   1      32.575  30.274  26.887  1.00  0.00    -0.460 OA
BRANCH  26  27
ATOM     27  C   UNL A   1      33.229  31.412  27.208  1.00  0.00     0.338 C 
ATOM     28  O   UNL A   1      32.773  32.546  27.248  1.00  0.00    -0.246 OA
BRANCH  27  29
ATOM     29  C   UNL A   1      34.585  31.096  27.691  1.00  0.00     0.060 A 
ATOM     30  C   UNL A   1      34.870  29.750  27.957  1.00  0.00     0.016 A 
ATOM     31  C   UNL A   1      35.532  32.090  27.951  1.00  0.00     0.016 A 
ATOM     32  C   UNL A   1      36.078  29.398  28.549  1.00  0.00     0.010 A 
ATOM     33  C   UNL A   1      36.743  31.735  28.556  1.00  0.00     0.010 A 
ATOM     34  C   UNL A   1      36.999  30.394  28.896  1.00  0.00    -0.014 A 
BRANCH  34  35
ATOM     35  C   UNL A   1      38.143  30.043  29.768  1.00  0.00     0.031 A 
ATOM     36  C   UNL A   1      39.188  29.099  29.244  1.00  0.00     0.074 A 
ATOM     37  C   UNL A   1      38.279  30.602  30.983  1.00  0.00     0.049 A 
ATOM     38  N   UNL A   1      40.262  28.638  29.833  1.00  0.00    -0.248 NA
ATOM     39  C   UNL A   1      39.001  28.608  27.867  1.00  0.00     0.031 C 
ATOM     40  C   UNL A   1      37.357  31.570  31.572  1.00  0.00     0.029 A 
ATOM     41  N   UNL A   1      39.250  30.435  31.938  1.00  0.00    -0.354 N 
ATOM     42  C   UNL A   1      40.874  27.808  28.904  1.00  0.00     0.074 A 
ATOM     43  C   UNL A   1      40.042  27.801  27.722  1.00  0.00     0.031 C 
ATOM     44  C   UNL A   1      37.802  31.906  32.794  1.00  0.00     0.029 A 
ATOM     45  C   UNL A   1      39.023  31.155  33.083  1.00  0.00     0.049 A 
ATOM     46  H   UNL A   1      40.034  29.852  31.813  1.00  0.00     0.167 HD
ATOM     47  C   UNL A   1      42.035  27.123  29.026  1.00  0.00     0.037 A 
ATOM     48  C   UNL A   1      39.715  31.188  34.240  1.00  0.00     0.037 A 
ATOM     49  C   UNL A   1      42.865  27.141  30.200  1.00  0.00     0.049 A 
ATOM     50  C   UNL A   1      40.967  30.362  34.374  1.00  0.00     0.074 A 
ATOM     51  C   UNL A   1      44.064  26.486  30.415  1.00  0.00     0.029 A 
ATOM     52  N   UNL A   1      42.581  27.852  31.356  1.00  0.00    -0.354 N 
ATOM     53  N   UNL A   1      41.541  29.582  33.490  1.00  0.00    -0.248 NA
ATOM     54  C   UNL A   1      41.668  30.420  35.665  1.00  0.00     0.031 C 
ATOM     55  C   UNL A   1      44.484  26.765  31.719  1.00  0.00     0.029 A 
ATOM     56  C   UNL A   1      43.571  27.633  32.297  1.00  0.00     0.049 A 
ATOM     57  H   UNL A   1      41.792  28.426  31.488  1.00  0.00     0.167 HD
ATOM     58  C   UNL A   1      42.677  29.076  34.107  1.00  0.00     0.074 A 
ATOM     59  C   UNL A   1      42.721  29.645  35.438  1.00  0.00     0.031 C 
ATOM     60  C   UNL A   1      43.602  28.216  33.614  1.00  0.00     0.037 A 
BRANCH  47  61
ATOM     61  C   UNL A   1      42.480  26.284  27.866  1.00  0.00     0.064 A 
ATOM     62  C   UNL A   1      43.353  26.812  26.904  1.00  0.00     0.173 A 
ATOM     63  C   UNL A   1      41.978  24.991  27.662  1.00  0.00     0.173 A 
ATOM     64  F   UNL A   1      43.858  28.046  27.054  1.00  0.00    -0.203 F 
ATOM     65  C   UNL A   1      43.692  26.082  25.768  1.00  0.00     0.198 A 
ATOM     66  C   UNL A   1      42.338  24.255  26.536  1.00  0.00     0.198 A 
ATOM     67  F   UNL A   1      41.151  24.438  28.561  1.00  0.00    -0.203 F 
ATOM     68  F   UNL A   1      44.501  26.620  24.844  1.00  0.00    -0.200 F 
ATOM     69  C   UNL A   1      43.185  24.805  25.585  1.00  0.00     0.200 A 
ATOM     70  F   UNL A   1      41.864  23.013  26.370  1.00  0.00    -0.200 F 
ATOM     71  F   UNL A   1      43.512  24.103  24.491  1.00  0.00    -0.200 F 
ENDBRANCH  47  61
BRANCH  48  72
ATOM     72  C   UNL A   1      39.229  32.030  35.363  1.00  0.00     0.064 A 
ATOM     73  C   UNL A   1      38.452  31.482  36.396  1.00  0.00     0.173 A 
ATOM     74  C   UNL A   1      39.521  33.398  35.423  1.00  0.00     0.173 A 
ATOM     75  F   UNL A   1      38.148  30.176  36.387  1.00  0.00    -0.203 F 
ATOM     76  C   UNL A   1      37.972  32.276  37.435  1.00  0.00     0.198 A 
ATOM     77  C   UNL A   1      39.061  34.186  36.477  1.00  0.00     0.198 A 
ATOM     78  F   UNL A   1      40.280  33.963  34.473  1.00  0.00    -0.203 F 
ATOM     79  F   UNL A   1      37.208  31.733  38.393  1.00  0.00    -0.200 F 
ATOM     80  C   UNL A   1      38.280  33.626  37.478  1.00  0.00     0.200 A 
ATOM     81  F   UNL A   1      39.384  35.487  36.529  1.00  0.00    -0.200 F 
ATOM     82  F   UNL A   1      37.831  34.387  38.484  1.00  0.00    -0.200 F 
ENDBRANCH  48  72
BRANCH  60  83
ATOM     83  C   UNL A   1      44.756  27.846  34.499  1.00  0.00     0.064 A 
ATOM     84  C   UNL A   1      45.949  28.586  34.455  1.00  0.00     0.173 A 
ATOM     85  C   UNL A   1      44.716  26.708  35.316  1.00  0.00     0.173 A 
ATOM     86  F   UNL A   1      46.040  29.677  33.681  1.00  0.00    -0.203 F 
ATOM     87  C   UNL A   1      47.064  28.187  35.186  1.00  0.00     0.198 A 
ATOM     88  C   UNL A   1      45.825  26.327  36.065  1.00  0.00     0.198 A 
ATOM     89  F   UNL A   1      43.595  25.975  35.397  1.00  0.00    -0.203 F 
ATOM     90  F   UNL A   1      48.204  28.886  35.100  1.00  0.00    -0.200 F 
ATOM     91  C   UNL A   1      47.001  27.061  35.991  1.00  0.00     0.200 A 
ATOM     92  F   UNL A   1      45.757  25.251  36.860  1.00  0.00    -0.200 F 
ATOM     93  F   UNL A   1      48.075  26.681  36.698  1.00  0.00    -0.200 F 
ENDBRANCH  60  83
ENDBRANCH  34  35
ENDBRANCH  27  29
ENDBRANCH  26  27
ENDBRANCH  25  26
ENDBRANCH  24  25
ENDBRANCH   1  24
TORSDOF 16
ENDMDL
MODEL 3
REMARK VINA RESULT:     -11.7      0.351      7.238
REMARK SMILES CS(=O)(=O)c1cc(F)ccc1N1CCC[C@@H](C(=O)OCCOCCOC(=O)c2ccc(-c3c4nc(c(-c5c(F)c(F)c(F)c(F)c5F)c5ccc([nH]5)c(-c5c(F)c(F)c(F)c(F)c5F)c5nc(c(-c6c(F)c(F)c(F)c(F)c6F)c6ccc3[nH]6)C=C5)C=C4)cc2)C1
REMARK SMILES IDX 22 1 21 2 20 3 19 4 17 5 18 6 16 7 12 8 13 9 91 10 14 11
REMARK SMILES IDX 15 12 11 13 5 14 6 15 7 16 10 17 8 18 9 19 2 20 1 21 3 22
REMARK SMILES IDX 4 23 23 24 24 25 25 26 26 27 27 28 28 29 29 30 90 31 30 32
REMARK SMILES IDX 89 33 31 34 32 35 33 36 83 37 34 38 88 39 82 40 84 41 35 42
REMARK SMILES IDX 87 43 81 44 80 45 36 47 68 48 48 49 67 50 49 51 52 52 66 53
REMARK SMILES IDX 85 54 50 55 51 56 65 58 86 59 53 60 37 61 38 62 46 63 39 64
REMARK SMILES IDX 40 65 44 66 47 67 41 68 42 69 45 70 43 71 69 72 70 73 78 74
REMARK SMILES IDX 71 75 72 76 76 77 79 78 73 79 74 80 77 81 75 82 54 83 55 84
REMARK SMILES IDX 63 85 56 86 57 87 61 88 64 89 58 90 59 91 62 92 60 93
REMARK H PARENT 84 46 52 57
REMARK Flexibility Score: inf
ROOT
ATOM      1  O   UNL A   1      33.025  28.485  24.836  1.00  0.00    -0.374 OA
ENDROOT
BRANCH   1   2
ATOM      2  C   UNL A   1      33.943  28.449  23.742  1.00  0.00     0.202 C 
BRANCH   2   3
ATOM      3  C   UNL A   1      33.374  28.009  22.390  1.00  0.00     0.261 C 
BRANCH   3   4
ATOM      4  O   UNL A   1      33.431  26.581  22.242  1.00  0.00    -0.463 OA
BRANCH   4   5
ATOM      5  C   UNL A   1      32.234  25.975  22.007  1.00  0.00     0.310 C 
ATOM      6  O   UNL A   1      31.402  26.349  21.191  1.00  0.00    -0.252 OA
BRANCH   5   7
ATOM      7  C   UNL A   1      32.085  24.736  22.858  1.00  0.00     0.118 C 
ATOM      8  N   UNL A   1      33.441  23.431  24.432  1.00  0.00    -0.370 N 
ATOM      9  C   UNL A   1      32.581  23.736  25.576  1.00  0.00     0.116 C 
ATOM     10  C   UNL A   1      33.484  24.433  23.371  1.00  0.00     0.131 C 
ATOM     11  C   UNL A   1      31.150  23.904  25.073  1.00  0.00     0.022 C 
ATOM     12  C   UNL A   1      31.068  24.971  23.984  1.00  0.00     0.019 C 
BRANCH   8  13
ATOM     13  C   UNL A   1      34.404  22.442  24.532  1.00  0.00     0.056 A 
ATOM     14  C   UNL A   1      34.179  21.046  24.551  1.00  0.00     0.093 A 
ATOM     15  C   UNL A   1      35.237  20.157  24.805  1.00  0.00     0.061 A 
ATOM     16  C   UNL A   1      36.521  20.644  25.003  1.00  0.00     0.124 A 
ATOM     17  C   UNL A   1      35.735  22.883  24.711  1.00  0.00     0.030 A 
ATOM     18  F   UNL A   1      37.518  19.785  25.252  1.00  0.00    -0.207 F 
ATOM     19  C   UNL A   1      36.786  21.999  24.943  1.00  0.00     0.041 A 
BRANCH  14  20
ATOM     20  S   UNL A   1      32.581  20.347  24.162  1.00  0.00     0.177 S 
ATOM     21  C   UNL A   1      32.795  18.627  23.826  1.00  0.00     0.164 C 
ATOM     22  O   UNL A   1      32.136  20.932  22.911  1.00  0.00    -0.224 OA
ATOM     23  O   UNL A   1      31.778  20.431  25.369  1.00  0.00    -0.224 OA
ENDBRANCH  14  20
ENDBRANCH   8  13
ENDBRANCH   5   7
ENDBRANCH   4   5
ENDBRANCH   3   4
ENDBRANCH   2   3
ENDBRANCH   1   2
BRANCH   1  24
ATOM     24  C   UNL A   1      31.872  29.312  24.687  1.00  0.00     0.202 C 
BRANCH  24  25
ATOM     25  C   UNL A   1      31.675  30.394  25.751  1.00  0.00     0.261 C 
BRANCH  25  26
ATOM     26  O   UNL A   1      32.606  30.229  26.835  1.00  0.00    -0.460 OA
BRANCH  26  27
ATOM     27  C   UNL A   1      33.242  31.363  27.201  1.00  0.00     0.338 C 
ATOM     28  O   UNL A   1      32.766  32.487  27.289  1.00  0.00    -0.246 OA
BRANCH  27  29
ATOM     29  C   UNL A   1      34.604  31.051  27.667  1.00  0.00     0.060 A 
ATOM     30  C   UNL A   1      34.918  29.699  27.861  1.00  0.00     0.016 A 
ATOM     31  C   UNL A   1      35.531  32.050  27.979  1.00  0.00     0.016 A 
ATOM     32  C   UNL A   1      36.134  29.342  28.433  1.00  0.00     0.010 A 
ATOM     33  C   UNL A   1      36.749  31.689  28.564  1.00  0.00     0.010 A 
ATOM     34  C   UNL A   1      37.034  30.337  28.833  1.00  0.00    -0.014 A 
BRANCH  34  35
ATOM     35  C   UNL A   1      38.187  29.965  29.685  1.00  0.00     0.031 A 
ATOM     36  C   UNL A   1      39.212  29.013  29.137  1.00  0.00     0.074 A 
ATOM     37  C   UNL A   1      38.347  30.511  30.903  1.00  0.00     0.049 A 
ATOM     38  N   UNL A   1      40.288  28.534  29.707  1.00  0.00    -0.248 NA
ATOM     39  C   UNL A   1      38.999  28.536  27.760  1.00  0.00     0.031 C 
ATOM     40  C   UNL A   1      37.444  31.485  31.513  1.00  0.00     0.029 A 
ATOM     41  N   UNL A   1      39.329  30.324  31.842  1.00  0.00    -0.354 N 
ATOM     42  C   UNL A   1      40.878  27.706  28.762  1.00  0.00     0.074 A 
ATOM     43  C   UNL A   1      40.028  27.719  27.592  1.00  0.00     0.031 C 
ATOM     44  C   UNL A   1      37.912  31.805  32.732  1.00  0.00     0.029 A 
ATOM     45  C   UNL A   1      39.127  31.037  32.997  1.00  0.00     0.049 A 
ATOM     46  H   UNL A   1      40.103  29.733  31.701  1.00  0.00     0.167 HD
ATOM     47  C   UNL A   1      42.031  27.005  28.861  1.00  0.00     0.037 A 
ATOM     48  C   UNL A   1      39.835  31.051  34.143  1.00  0.00     0.037 A 
ATOM     49  C   UNL A   1      42.878  27.003  30.023  1.00  0.00     0.049 A 
ATOM     50  C   UNL A   1      41.080  30.209  34.252  1.00  0.00     0.074 A 
ATOM     51  C   UNL A   1      44.072  26.332  30.215  1.00  0.00     0.029 A 
ATOM     52  N   UNL A   1      42.619  27.707  31.189  1.00  0.00    -0.354 N 
ATOM     53  N   UNL A   1      41.631  29.430  33.354  1.00  0.00    -0.248 NA
ATOM     54  C   UNL A   1      41.800  30.247  35.534  1.00  0.00     0.031 C 
ATOM     55  C   UNL A   1      44.514  26.594  31.515  1.00  0.00     0.029 A 
ATOM     56  C   UNL A   1      43.621  27.468  32.114  1.00  0.00     0.049 A 
ATOM     57  H   UNL A   1      41.839  28.289  31.337  1.00  0.00     0.167 HD
ATOM     58  C   UNL A   1      42.770  28.905  33.949  1.00  0.00     0.074 A 
ATOM     59  C   UNL A   1      42.840  29.461  35.284  1.00  0.00     0.031 C 
ATOM     60  C   UNL A   1      43.677  28.038  33.435  1.00  0.00     0.037 A 
BRANCH  47  61
ATOM     61  C   UNL A   1      42.450  26.171  27.688  1.00  0.00     0.064 A 
ATOM     62  C   UNL A   1      41.956  24.867  27.534  1.00  0.00     0.173 A 
ATOM     63  C   UNL A   1      43.401  26.629  26.766  1.00  0.00     0.173 A 
ATOM     64  F   UNL A   1      41.046  24.382  28.393  1.00  0.00    -0.203 F 
ATOM     65  C   UNL A   1      42.415  24.045  26.509  1.00  0.00     0.198 A 
ATOM     66  C   UNL A   1      43.840  25.812  25.728  1.00  0.00     0.198 A 
ATOM     67  F   UNL A   1      43.891  27.873  26.864  1.00  0.00    -0.203 F 
ATOM     68  F   UNL A   1      41.956  22.790  26.401  1.00  0.00    -0.200 F 
ATOM     69  C   UNL A   1      43.357  24.517  25.607  1.00  0.00     0.200 A 
ATOM     70  F   UNL A   1      44.734  26.276  24.844  1.00  0.00    -0.200 F 
ATOM     71  F   UNL A   1      43.798  23.725  24.620  1.00  0.00    -0.200 F 
ENDBRANCH  47  61
BRANCH  48  72
ATOM     72  C   UNL A   1      39.376  31.889  35.281  1.00  0.00     0.064 A 
ATOM     73  C   UNL A   1      38.541  31.360  36.278  1.00  0.00     0.173 A 
ATOM     74  C   UNL A   1      39.753  33.233  35.390  1.00  0.00     0.173 A 
ATOM     75  F   UNL A   1      38.155  30.078  36.221  1.00  0.00    -0.203 F 
ATOM     76  C   UNL A   1      38.086  32.152  37.330  1.00  0.00     0.198 A 
ATOM     77  C   UNL A   1      39.317  34.017  36.457  1.00  0.00     0.198 A 
ATOM     78  F   UNL A   1      40.569  33.776  34.476  1.00  0.00    -0.203 F 
ATOM     79  F   UNL A   1      37.266  31.631  38.253  1.00  0.00    -0.200 F 
ATOM     80  C   UNL A   1      38.478  33.479  37.422  1.00  0.00     0.200 A 
ATOM     81  F   UNL A   1      39.720  35.292  36.557  1.00  0.00    -0.200 F 
ATOM     82  F   UNL A   1      38.053  34.236  38.441  1.00  0.00    -0.200 F 
ENDBRANCH  48  72
BRANCH  60  83
ATOM     83  C   UNL A   1      44.839  27.647  34.300  1.00  0.00     0.064 A 
ATOM     84  C   UNL A   1      44.742  26.542  35.161  1.00  0.00     0.173 A 
ATOM     85  C   UNL A   1      46.009  28.417  34.346  1.00  0.00     0.173 A 
ATOM     86  F   UNL A   1      43.639  25.780  35.162  1.00  0.00    -0.203 F 
ATOM     87  C   UNL A   1      45.769  26.236  36.050  1.00  0.00     0.198 A 
ATOM     88  C   UNL A   1      47.044  28.092  35.218  1.00  0.00     0.198 A 
ATOM     89  F   UNL A   1      46.152  29.476  33.535  1.00  0.00    -0.203 F 
ATOM     90  F   UNL A   1      45.639  25.200  36.889  1.00  0.00    -0.200 F 
ATOM     91  C   UNL A   1      46.919  27.009  36.075  1.00  0.00     0.200 A 
ATOM     92  F   UNL A   1      48.165  28.827  35.228  1.00  0.00    -0.200 F 
ATOM     93  F   UNL A   1      47.909  26.710  36.929  1.00  0.00    -0.200 F 
ENDBRANCH  60  83
ENDBRANCH  34  35
ENDBRANCH  27  29
ENDBRANCH  26  27
ENDBRANCH  25  26
ENDBRANCH  24  25
ENDBRANCH   1  24
TORSDOF 16
ENDMDL
