MODEL 1
REMARK VINA RESULT:     -12.3      0.000      0.000
REMARK SMILES O=C(OCCOCCOC(=O)[C@@H]1CN(C(=O)CCC(F)(F)F)C[C@H]1c1ccc2c(c1)OCO2)c1ccc(-c2c3nc(c(-c4c(F)c(F)c(F)c(F)c4F)c4ccc([nH]4)c(-c4c(F)c(F)c(F)c(F)c4F)c4nc(c(-c5c(F)c(F)c(F)c(F)c5F)c5ccc2[nH]5)C=C4)C=C3)cc1
REMARK SMILES IDX 7 1 6 2 5 3 4 4 3 5 2 6 1 7 34 8 35 9 96 10 36 11 95 12
REMARK SMILES IDX 37 13 38 14 39 15 89 16 40 17 94 18 88 19 90 20 41 21 93 22
REMARK SMILES IDX 87 23 86 24 42 26 74 27 54 28 73 29 55 30 58 31 72 32 91 33
REMARK SMILES IDX 56 34 57 35 71 37 92 38 59 39 43 40 44 41 52 42 45 43 46 44
REMARK SMILES IDX 50 45 53 46 47 47 48 48 51 49 49 50 75 51 76 52 84 53 77 54
REMARK SMILES IDX 78 55 82 56 85 57 79 58 80 59 83 60 81 61 60 62 61 63 69 64
REMARK SMILES IDX 62 65 63 66 67 67 70 68 64 69 65 70 68 71 66 72 8 73 9 74
REMARK SMILES IDX 10 75 11 76 12 77 13 78 24 79 14 80 23 81 25 82 26 83 30 84
REMARK SMILES IDX 27 85 29 86 28 87 31 88 33 89 32 90 15 91 16 92 17 93 18 94
REMARK SMILES IDX 19 95 20 96 21 97 22 98
REMARK H PARENT 90 25 58 36
REMARK Flexibility Score: inf
ROOT
ATOM      1  C   UNL A   1      37.371  21.838  25.789  1.00  0.00     0.202 C 
ENDROOT
BRANCH   1   2
ATOM      2  O   UNL A   1      37.534  20.893  24.740  1.00  0.00    -0.374 OA
BRANCH   2   3
ATOM      3  C   UNL A   1      38.297  19.734  25.066  1.00  0.00     0.202 C 
BRANCH   3   4
ATOM      4  C   UNL A   1      39.618  20.083  25.754  1.00  0.00     0.261 C 
BRANCH   4   5
ATOM      5  O   UNL A   1      40.535  18.979  25.741  1.00  0.00    -0.460 OA
BRANCH   5   6
ATOM      6  C   UNL A   1      41.855  19.145  26.029  1.00  0.00     0.338 C 
ATOM      7  O   UNL A   1      42.672  18.277  25.774  1.00  0.00    -0.246 OA
BRANCH   6   8
ATOM      8  C   UNL A   1      42.321  20.517  26.392  1.00  0.00     0.060 A 
ATOM      9  C   UNL A   1      42.438  21.000  27.700  1.00  0.00     0.016 A 
ATOM     10  C   UNL A   1      42.721  21.338  25.330  1.00  0.00     0.016 A 
ATOM     11  C   UNL A   1      42.882  22.283  27.953  1.00  0.00     0.010 A 
ATOM     12  C   UNL A   1      43.196  22.626  25.576  1.00  0.00     0.010 A 
ATOM     13  C   UNL A   1      43.258  23.099  26.892  1.00  0.00    -0.014 A 
BRANCH  13  14
ATOM     14  C   UNL A   1      43.582  24.494  27.208  1.00  0.00     0.031 A 
ATOM     15  C   UNL A   1      44.941  24.993  26.842  1.00  0.00     0.074 A 
ATOM     16  C   UNL A   1      42.608  25.306  27.651  1.00  0.00     0.049 A 
ATOM     17  N   UNL A   1      45.478  26.162  27.051  1.00  0.00    -0.248 NA
ATOM     18  C   UNL A   1      45.812  24.045  26.126  1.00  0.00     0.031 C 
ATOM     19  C   UNL A   1      41.216  24.907  27.872  1.00  0.00     0.029 A 
ATOM     20  N   UNL A   1      42.626  26.639  27.949  1.00  0.00    -0.354 N 
ATOM     21  C   UNL A   1      46.765  26.074  26.541  1.00  0.00     0.074 A 
ATOM     22  C   UNL A   1      46.925  24.747  25.992  1.00  0.00     0.031 C 
ATOM     23  C   UNL A   1      40.504  25.984  28.235  1.00  0.00     0.029 A 
ATOM     24  C   UNL A   1      41.405  27.124  28.349  1.00  0.00     0.049 A 
ATOM     25  H   UNL A   1      43.434  27.197  27.883  1.00  0.00     0.167 HD
ATOM     26  C   UNL A   1      47.727  27.024  26.560  1.00  0.00     0.037 A 
ATOM     27  C   UNL A   1      41.081  28.351  28.792  1.00  0.00     0.037 A 
ATOM     28  C   UNL A   1      47.511  28.335  27.111  1.00  0.00     0.049 A 
ATOM     29  C   UNL A   1      42.187  29.369  28.872  1.00  0.00     0.074 A 
ATOM     30  C   UNL A   1      48.407  29.372  27.275  1.00  0.00     0.029 A 
ATOM     31  N   UNL A   1      46.281  28.783  27.586  1.00  0.00    -0.354 N 
ATOM     32  N   UNL A   1      43.440  29.260  28.494  1.00  0.00    -0.248 NA
ATOM     33  C   UNL A   1      41.847  30.668  29.460  1.00  0.00     0.031 C 
ATOM     34  C   UNL A   1      47.729  30.433  27.886  1.00  0.00     0.029 A 
ATOM     35  C   UNL A   1      46.397  30.079  28.055  1.00  0.00     0.049 A 
ATOM     36  H   UNL A   1      45.451  28.254  27.591  1.00  0.00     0.167 HD
ATOM     37  C   UNL A   1      44.036  30.478  28.777  1.00  0.00     0.074 A 
ATOM     38  C   UNL A   1      42.997  31.318  29.346  1.00  0.00     0.031 C 
ATOM     39  C   UNL A   1      45.321  30.873  28.595  1.00  0.00     0.037 A 
BRANCH  26  40
ATOM     40  C   UNL A   1      49.087  26.622  26.076  1.00  0.00     0.064 A 
ATOM     41  C   UNL A   1      50.037  26.021  26.917  1.00  0.00     0.173 A 
ATOM     42  C   UNL A   1      49.474  26.918  24.760  1.00  0.00     0.173 A 
ATOM     43  F   UNL A   1      49.731  25.748  28.194  1.00  0.00    -0.203 F 
ATOM     44  C   UNL A   1      51.333  25.770  26.469  1.00  0.00     0.198 A 
ATOM     45  C   UNL A   1      50.761  26.641  24.308  1.00  0.00     0.198 A 
ATOM     46  F   UNL A   1      48.610  27.503  23.918  1.00  0.00    -0.203 F 
ATOM     47  F   UNL A   1      52.245  25.265  27.311  1.00  0.00    -0.200 F 
ATOM     48  C   UNL A   1      51.693  26.079  25.166  1.00  0.00     0.200 A 
ATOM     49  F   UNL A   1      51.107  26.940  23.048  1.00  0.00    -0.200 F 
ATOM     50  F   UNL A   1      52.945  25.855  24.744  1.00  0.00    -0.200 F 
ENDBRANCH  26  40
BRANCH  27  51
ATOM     51  C   UNL A   1      39.691  28.658  29.221  1.00  0.00     0.064 A 
ATOM     52  C   UNL A   1      39.265  28.413  30.534  1.00  0.00     0.173 A 
ATOM     53  C   UNL A   1      38.756  29.209  28.330  1.00  0.00     0.173 A 
ATOM     54  F   UNL A   1      40.110  27.870  31.422  1.00  0.00    -0.203 F 
ATOM     55  C   UNL A   1      37.958  28.695  30.933  1.00  0.00     0.198 A 
ATOM     56  C   UNL A   1      37.460  29.519  28.738  1.00  0.00     0.198 A 
ATOM     57  F   UNL A   1      39.106  29.463  27.060  1.00  0.00    -0.203 F 
ATOM     58  F   UNL A   1      37.567  28.411  32.183  1.00  0.00    -0.200 F 
ATOM     59  C   UNL A   1      37.060  29.254  30.037  1.00  0.00     0.200 A 
ATOM     60  F   UNL A   1      36.602  30.074  27.872  1.00  0.00    -0.200 F 
ATOM     61  F   UNL A   1      35.807  29.530  30.424  1.00  0.00    -0.200 F 
ENDBRANCH  27  51
BRANCH  39  62
ATOM     62  C   UNL A   1      45.643  32.287  28.965  1.00  0.00     0.064 A 
ATOM     63  C   UNL A   1      45.489  33.340  28.053  1.00  0.00     0.173 A 
ATOM     64  C   UNL A   1      46.072  32.591  30.265  1.00  0.00     0.173 A 
ATOM     65  F   UNL A   1      45.095  33.092  26.794  1.00  0.00    -0.203 F 
ATOM     66  C   UNL A   1      45.779  34.649  28.424  1.00  0.00     0.198 A 
ATOM     67  C   UNL A   1      46.332  33.904  30.641  1.00  0.00     0.198 A 
ATOM     68  F   UNL A   1      46.228  31.614  31.172  1.00  0.00    -0.203 F 
ATOM     69  F   UNL A   1      45.672  35.637  27.525  1.00  0.00    -0.200 F 
ATOM     70  C   UNL A   1      46.193  34.930  29.718  1.00  0.00     0.200 A 
ATOM     71  F   UNL A   1      46.719  34.176  31.894  1.00  0.00    -0.200 F 
ATOM     72  F   UNL A   1      46.465  36.192  30.075  1.00  0.00    -0.200 F 
ENDBRANCH  39  62
ENDBRANCH  13  14
ENDBRANCH   6   8
ENDBRANCH   5   6
ENDBRANCH   4   5
ENDBRANCH   3   4
ENDBRANCH   2   3
ENDBRANCH   1   2
BRANCH   1  73
ATOM     73  C   UNL A   1      37.376  23.272  25.278  1.00  0.00     0.261 C 
BRANCH  73  74
ATOM     74  O   UNL A   1      36.039  23.693  24.956  1.00  0.00    -0.463 OA
BRANCH  74  75
ATOM     75  C   UNL A   1      35.483  23.211  23.812  1.00  0.00     0.311 C 
ATOM     76  O   UNL A   1      36.059  23.112  22.736  1.00  0.00    -0.252 OA
BRANCH  75  77
ATOM     77  C   UNL A   1      34.042  22.788  24.026  1.00  0.00     0.128 C 
ATOM     78  C   UNL A   1      34.040  21.320  24.430  1.00  0.00     0.135 C 
ATOM     79  C   UNL A   1      33.135  22.886  22.775  1.00  0.00     0.055 C 
ATOM     80  N   UNL A   1      32.942  20.695  23.737  1.00  0.00    -0.341 N 
ATOM     81  C   UNL A   1      32.239  21.636  22.892  1.00  0.00     0.128 C 
BRANCH  79  82
ATOM     82  C   UNL A   1      32.378  24.209  22.609  1.00  0.00    -0.038 A 
ATOM     83  C   UNL A   1      32.768  25.157  21.626  1.00  0.00     0.008 A 
ATOM     84  C   UNL A   1      31.241  24.508  23.387  1.00  0.00     0.054 A 
ATOM     85  C   UNL A   1      32.082  26.368  21.446  1.00  0.00     0.051 A 
ATOM     86  C   UNL A   1      30.604  25.724  23.214  1.00  0.00     0.166 A 
ATOM     87  C   UNL A   1      31.013  26.629  22.270  1.00  0.00     0.165 A 
ATOM     88  O   UNL A   1      29.539  26.172  23.932  1.00  0.00    -0.454 OA
ATOM     89  O   UNL A   1      30.255  27.758  22.267  1.00  0.00    -0.454 OA
ATOM     90  C   UNL A   1      29.391  27.503  23.394  1.00  0.00     0.468 C 
ENDBRANCH  79  82
BRANCH  80  91
ATOM     91  C   UNL A   1      32.578  19.371  23.800  1.00  0.00     0.222 C 
ATOM     92  O   UNL A   1      32.034  18.794  22.859  1.00  0.00    -0.275 OA
BRANCH  91  93
ATOM     93  C   UNL A   1      32.863  18.623  25.091  1.00  0.00     0.109 C 
BRANCH  93  94
ATOM     94  C   UNL A   1      33.062  17.126  24.884  1.00  0.00     0.125 C 
BRANCH  94  95
ATOM     95  C   UNL A   1      34.421  16.763  24.329  1.00  0.00     0.389 C 
ATOM     96  F   UNL A   1      34.952  15.713  24.998  1.00  0.00    -0.171 F 
ATOM     97  F   UNL A   1      34.324  16.400  23.032  1.00  0.00    -0.171 F 
ATOM     98  F   UNL A   1      35.293  17.786  24.403  1.00  0.00    -0.171 F 
ENDBRANCH  94  95
ENDBRANCH  93  94
ENDBRANCH  91  93
ENDBRANCH  80  91
ENDBRANCH  75  77
ENDBRANCH  74  75
ENDBRANCH  73  74
ENDBRANCH   1  73
TORSDOF 19
ENDMDL
MODEL 2
REMARK VINA RESULT:     -12.2      2.750      4.650
REMARK SMILES O=C(OCCOCCOC(=O)[C@@H]1CN(C(=O)CCC(F)(F)F)C[C@H]1c1ccc2c(c1)OCO2)c1ccc(-c2c3nc(c(-c4c(F)c(F)c(F)c(F)c4F)c4ccc([nH]4)c(-c4c(F)c(F)c(F)c(F)c4F)c4nc(c(-c5c(F)c(F)c(F)c(F)c5F)c5ccc2[nH]5)C=C4)C=C3)cc1
REMARK SMILES IDX 7 1 6 2 5 3 4 4 3 5 2 6 1 7 34 8 35 9 96 10 36 11 95 12
REMARK SMILES IDX 37 13 38 14 39 15 89 16 40 17 94 18 88 19 90 20 41 21 93 22
REMARK SMILES IDX 87 23 86 24 42 26 74 27 54 28 73 29 55 30 58 31 72 32 91 33
REMARK SMILES IDX 56 34 57 35 71 37 92 38 59 39 43 40 44 41 52 42 45 43 46 44
REMARK SMILES IDX 50 45 53 46 47 47 48 48 51 49 49 50 75 51 76 52 84 53 77 54
REMARK SMILES IDX 78 55 82 56 85 57 79 58 80 59 83 60 81 61 60 62 61 63 69 64
REMARK SMILES IDX 62 65 63 66 67 67 70 68 64 69 65 70 68 71 66 72 8 73 9 74
REMARK SMILES IDX 10 75 11 76 12 77 13 78 24 79 14 80 23 81 25 82 26 83 30 84
REMARK SMILES IDX 27 85 29 86 28 87 31 88 33 89 32 90 15 91 16 92 17 93 18 94
REMARK SMILES IDX 19 95 20 96 21 97 22 98
REMARK H PARENT 90 25 58 36
REMARK Flexibility Score: inf
ROOT
ATOM      1  C   UNL A   1      36.931  22.184  25.674  1.00  0.00     0.202 C 
ENDROOT
BRANCH   1   2
ATOM      2  O   UNL A   1      37.883  21.496  24.873  1.00  0.00    -0.374 OA
BRANCH   2   3
ATOM      3  C   UNL A   1      37.894  20.077  25.011  1.00  0.00     0.202 C 
BRANCH   3   4
ATOM      4  C   UNL A   1      39.273  19.542  25.401  1.00  0.00     0.261 C 
BRANCH   4   5
ATOM      5  O   UNL A   1      39.653  19.954  26.722  1.00  0.00    -0.460 OA
BRANCH   5   6
ATOM      6  C   UNL A   1      40.937  20.288  27.024  1.00  0.00     0.338 C 
ATOM      7  O   UNL A   1      41.847  19.489  26.885  1.00  0.00    -0.246 OA
BRANCH   6   8
ATOM      8  C   UNL A   1      41.246  21.732  27.248  1.00  0.00     0.060 A 
ATOM      9  C   UNL A   1      40.745  22.784  26.474  1.00  0.00     0.016 A 
ATOM     10  C   UNL A   1      42.048  22.030  28.358  1.00  0.00     0.016 A 
ATOM     11  C   UNL A   1      41.075  24.096  26.750  1.00  0.00     0.010 A 
ATOM     12  C   UNL A   1      42.365  23.354  28.662  1.00  0.00     0.010 A 
ATOM     13  C   UNL A   1      41.888  24.383  27.841  1.00  0.00    -0.014 A 
BRANCH  13  14
ATOM     14  C   UNL A   1      42.322  25.775  28.000  1.00  0.00     0.031 A 
ATOM     15  C   UNL A   1      43.575  26.197  27.306  1.00  0.00     0.074 A 
ATOM     16  C   UNL A   1      41.505  26.648  28.612  1.00  0.00     0.049 A 
ATOM     17  N   UNL A   1      44.184  27.349  27.324  1.00  0.00    -0.248 NA
ATOM     18  C   UNL A   1      44.225  25.181  26.460  1.00  0.00     0.031 C 
ATOM     19  C   UNL A   1      40.189  26.321  29.168  1.00  0.00     0.029 A 
ATOM     20  N   UNL A   1      41.635  27.990  28.827  1.00  0.00    -0.354 N 
ATOM     21  C   UNL A   1      45.314  27.182  26.536  1.00  0.00     0.074 A 
ATOM     22  C   UNL A   1      45.299  25.827  26.037  1.00  0.00     0.031 C 
ATOM     23  C   UNL A   1      39.617  27.444  29.628  1.00  0.00     0.029 A 
ATOM     24  C   UNL A   1      40.557  28.546  29.471  1.00  0.00     0.049 A 
ATOM     25  H   UNL A   1      42.423  28.509  28.548  1.00  0.00     0.167 HD
ATOM     26  C   UNL A   1      46.285  28.089  26.284  1.00  0.00     0.037 A 
ATOM     27  C   UNL A   1      40.385  29.805  29.911  1.00  0.00     0.037 A 
ATOM     28  C   UNL A   1      46.245  29.431  26.800  1.00  0.00     0.049 A 
ATOM     29  C   UNL A   1      41.512  30.775  29.681  1.00  0.00     0.074 A 
ATOM     30  C   UNL A   1      47.189  30.433  26.698  1.00  0.00     0.029 A 
ATOM     31  N   UNL A   1      45.175  29.953  27.521  1.00  0.00    -0.354 N 
ATOM     32  N   UNL A   1      42.639  30.594  29.031  1.00  0.00    -0.248 NA
ATOM     33  C   UNL A   1      41.361  32.112  30.263  1.00  0.00     0.031 C 
ATOM     34  C   UNL A   1      46.707  31.549  27.393  1.00  0.00     0.029 A 
ATOM     35  C   UNL A   1      45.439  31.262  27.881  1.00  0.00     0.049 A 
ATOM     36  H   UNL A   1      44.352  29.462  27.744  1.00  0.00     0.167 HD
ATOM     37  C   UNL A   1      43.324  31.796  29.105  1.00  0.00     0.074 A 
ATOM     38  C   UNL A   1      42.473  32.706  29.852  1.00  0.00     0.031 C 
ATOM     39  C   UNL A   1      44.544  32.126  28.612  1.00  0.00     0.037 A 
BRANCH  26  40
ATOM     40  C   UNL A   1      47.482  27.606  25.522  1.00  0.00     0.064 A 
ATOM     41  C   UNL A   1      48.642  27.141  26.161  1.00  0.00     0.173 A 
ATOM     42  C   UNL A   1      47.494  27.686  24.122  1.00  0.00     0.173 A 
ATOM     43  F   UNL A   1      48.696  27.077  27.499  1.00  0.00    -0.203 F 
ATOM     44  C   UNL A   1      49.782  26.814  25.427  1.00  0.00     0.198 A 
ATOM     45  C   UNL A   1      48.625  27.332  23.389  1.00  0.00     0.198 A 
ATOM     46  F   UNL A   1      46.417  28.135  23.461  1.00  0.00    -0.203 F 
ATOM     47  F   UNL A   1      50.902  26.444  26.061  1.00  0.00    -0.200 F 
ATOM     48  C   UNL A   1      49.771  26.909  24.043  1.00  0.00     0.200 A 
ATOM     49  F   UNL A   1      48.612  27.425  22.053  1.00  0.00    -0.200 F 
ATOM     50  F   UNL A   1      50.874  26.612  23.341  1.00  0.00    -0.200 F 
ENDBRANCH  26  40
BRANCH  27  51
ATOM     51  C   UNL A   1      39.144  30.191  30.632  1.00  0.00     0.064 A 
ATOM     52  C   UNL A   1      38.037  30.714  29.947  1.00  0.00     0.173 A 
ATOM     53  C   UNL A   1      39.030  30.041  32.024  1.00  0.00     0.173 A 
ATOM     54  F   UNL A   1      38.097  30.895  28.620  1.00  0.00    -0.203 F 
ATOM     55  C   UNL A   1      36.876  31.082  30.626  1.00  0.00     0.198 A 
ATOM     56  C   UNL A   1      37.859  30.380  32.697  1.00  0.00     0.198 A 
ATOM     57  F   UNL A   1      40.057  29.549  32.733  1.00  0.00    -0.203 F 
ATOM     58  F   UNL A   1      35.850  31.618  29.951  1.00  0.00    -0.200 F 
ATOM     59  C   UNL A   1      36.785  30.908  31.999  1.00  0.00     0.200 A 
ATOM     60  F   UNL A   1      37.771  30.195  34.021  1.00  0.00    -0.200 F 
ATOM     61  F   UNL A   1      35.666  31.257  32.649  1.00  0.00    -0.200 F 
ENDBRANCH  27  51
BRANCH  39  62
ATOM     62  C   UNL A   1      44.990  33.539  28.823  1.00  0.00     0.064 A 
ATOM     63  C   UNL A   1      45.764  33.910  29.931  1.00  0.00     0.173 A 
ATOM     64  C   UNL A   1      44.669  34.523  27.877  1.00  0.00     0.173 A 
ATOM     65  F   UNL A   1      46.080  33.003  30.868  1.00  0.00    -0.203 F 
ATOM     66  C   UNL A   1      46.179  35.227  30.098  1.00  0.00     0.198 A 
ATOM     67  C   UNL A   1      45.112  35.832  28.031  1.00  0.00     0.198 A 
ATOM     68  F   UNL A   1      43.935  34.211  26.798  1.00  0.00    -0.203 F 
ATOM     69  F   UNL A   1      46.877  35.573  31.188  1.00  0.00    -0.200 F 
ATOM     70  C   UNL A   1      45.860  36.183  29.145  1.00  0.00     0.200 A 
ATOM     71  F   UNL A   1      44.814  36.752  27.105  1.00  0.00    -0.200 F 
ATOM     72  F   UNL A   1      46.267  37.449  29.305  1.00  0.00    -0.200 F 
ENDBRANCH  39  62
ENDBRANCH  13  14
ENDBRANCH   6   8
ENDBRANCH   5   6
ENDBRANCH   4   5
ENDBRANCH   3   4
ENDBRANCH   2   3
ENDBRANCH   1   2
BRANCH   1  73
ATOM     73  C   UNL A   1      36.903  23.678  25.379  1.00  0.00     0.261 C 
BRANCH  73  74
ATOM     74  O   UNL A   1      35.590  24.079  24.953  1.00  0.00    -0.463 OA
BRANCH  74  75
ATOM     75  C   UNL A   1      35.114  23.551  23.792  1.00  0.00     0.311 C 
ATOM     76  O   UNL A   1      35.779  23.351  22.784  1.00  0.00    -0.252 OA
BRANCH  75  77
ATOM     77  C   UNL A   1      33.637  23.220  23.893  1.00  0.00     0.128 C 
ATOM     78  C   UNL A   1      32.904  24.478  24.338  1.00  0.00     0.135 C 
ATOM     79  C   UNL A   1      33.277  22.129  24.931  1.00  0.00     0.055 C 
ATOM     80  N   UNL A   1      31.913  24.069  25.300  1.00  0.00    -0.341 N 
ATOM     81  C   UNL A   1      31.955  22.642  25.537  1.00  0.00     0.128 C 
BRANCH  79  82
ATOM     82  C   UNL A   1      33.227  20.694  24.392  1.00  0.00    -0.038 A 
ATOM     83  C   UNL A   1      32.284  20.318  23.398  1.00  0.00     0.008 A 
ATOM     84  C   UNL A   1      34.144  19.714  24.824  1.00  0.00     0.054 A 
ATOM     85  C   UNL A   1      32.229  19.015  22.880  1.00  0.00     0.051 A 
ATOM     86  C   UNL A   1      34.045  18.428  24.323  1.00  0.00     0.166 A 
ATOM     87  C   UNL A   1      33.114  18.088  23.378  1.00  0.00     0.165 A 
ATOM     88  O   UNL A   1      34.818  17.371  24.692  1.00  0.00    -0.454 OA
ATOM     89  O   UNL A   1      33.185  16.777  23.025  1.00  0.00    -0.454 OA
ATOM     90  C   UNL A   1      34.197  16.307  23.940  1.00  0.00     0.468 C 
ENDBRANCH  79  82
BRANCH  80  91
ATOM     91  C   UNL A   1      31.033  24.885  25.970  1.00  0.00     0.222 C 
ATOM     92  O   UNL A   1      30.209  24.444  26.771  1.00  0.00    -0.275 OA
BRANCH  91  93
ATOM     93  C   UNL A   1      31.097  26.375  25.685  1.00  0.00     0.109 C 
BRANCH  93  94
ATOM     94  C   UNL A   1      31.363  27.212  26.932  1.00  0.00     0.125 C 
BRANCH  94  95
ATOM     95  C   UNL A   1      32.381  28.310  26.724  1.00  0.00     0.389 C 
ATOM     96  F   UNL A   1      33.563  27.988  27.298  1.00  0.00    -0.171 F 
ATOM     97  F   UNL A   1      32.616  28.498  25.407  1.00  0.00    -0.171 F 
ATOM     98  F   UNL A   1      31.976  29.487  27.238  1.00  0.00    -0.171 F 
ENDBRANCH  94  95
ENDBRANCH  93  94
ENDBRANCH  91  93
ENDBRANCH  80  91
ENDBRANCH  75  77
ENDBRANCH  74  75
ENDBRANCH  73  74
ENDBRANCH   1  73
TORSDOF 19
ENDMDL
MODEL 3
REMARK VINA RESULT:     -12.1      4.886     10.025
REMARK SMILES O=C(OCCOCCOC(=O)[C@@H]1CN(C(=O)CCC(F)(F)F)C[C@H]1c1ccc2c(c1)OCO2)c1ccc(-c2c3nc(c(-c4c(F)c(F)c(F)c(F)c4F)c4ccc([nH]4)c(-c4c(F)c(F)c(F)c(F)c4F)c4nc(c(-c5c(F)c(F)c(F)c(F)c5F)c5ccc2[nH]5)C=C4)C=C3)cc1
REMARK SMILES IDX 7 1 6 2 5 3 4 4 3 5 2 6 1 7 34 8 35 9 96 10 36 11 95 12
REMARK SMILES IDX 37 13 38 14 39 15 89 16 40 17 94 18 88 19 90 20 41 21 93 22
REMARK SMILES IDX 87 23 86 24 42 26 74 27 54 28 73 29 55 30 58 31 72 32 91 33
REMARK SMILES IDX 56 34 57 35 71 37 92 38 59 39 43 40 44 41 52 42 45 43 46 44
REMARK SMILES IDX 50 45 53 46 47 47 48 48 51 49 49 50 75 51 76 52 84 53 77 54
REMARK SMILES IDX 78 55 82 56 85 57 79 58 80 59 83 60 81 61 60 62 61 63 69 64
REMARK SMILES IDX 62 65 63 66 67 67 70 68 64 69 65 70 68 71 66 72 8 73 9 74
REMARK SMILES IDX 10 75 11 76 12 77 13 78 24 79 14 80 23 81 25 82 26 83 30 84
REMARK SMILES IDX 27 85 29 86 28 87 31 88 33 89 32 90 15 91 16 92 17 93 18 94
REMARK SMILES IDX 19 95 20 96 21 97 22 98
REMARK H PARENT 90 25 58 36
REMARK Flexibility Score: inf
ROOT
ATOM      1  C   UNL A   1      32.799  28.159  27.156  1.00  0.00     0.202 C 
ENDROOT
BRANCH   1   2
ATOM      2  O   UNL A   1      31.843  29.186  26.930  1.00  0.00    -0.374 OA
BRANCH   2   3
ATOM      3  C   UNL A   1      32.226  30.188  25.990  1.00  0.00     0.202 C 
BRANCH   3   4
ATOM      4  C   UNL A   1      31.797  31.590  26.428  1.00  0.00     0.261 C 
BRANCH   4   5
ATOM      5  O   UNL A   1      32.487  32.013  27.613  1.00  0.00    -0.460 OA
BRANCH   5   6
ATOM      6  C   UNL A   1      33.656  32.709  27.548  1.00  0.00     0.338 C 
ATOM      7  O   UNL A   1      33.674  33.885  27.229  1.00  0.00    -0.246 OA
BRANCH   6   8
ATOM      8  C   UNL A   1      34.871  32.086  28.153  1.00  0.00     0.060 A 
ATOM      9  C   UNL A   1      34.971  30.745  28.541  1.00  0.00     0.016 A 
ATOM     10  C   UNL A   1      35.998  32.910  28.272  1.00  0.00     0.016 A 
ATOM     11  C   UNL A   1      36.134  30.244  29.091  1.00  0.00     0.010 A 
ATOM     12  C   UNL A   1      37.186  32.406  28.800  1.00  0.00     0.010 A 
ATOM     13  C   UNL A   1      37.242  31.074  29.224  1.00  0.00    -0.014 A 
BRANCH  13  14
ATOM     14  C   UNL A   1      38.398  30.530  29.943  1.00  0.00     0.031 A 
ATOM     15  C   UNL A   1      38.548  30.880  31.387  1.00  0.00     0.074 A 
ATOM     16  C   UNL A   1      39.174  29.617  29.336  1.00  0.00     0.049 A 
ATOM     17  N   UNL A   1      39.497  30.562  32.223  1.00  0.00    -0.248 NA
ATOM     18  C   UNL A   1      37.468  31.690  31.976  1.00  0.00     0.031 C 
ATOM     19  C   UNL A   1      38.974  29.115  27.974  1.00  0.00     0.029 A 
ATOM     20  N   UNL A   1      40.252  28.915  29.797  1.00  0.00    -0.354 N 
ATOM     21  C   UNL A   1      39.155  31.175  33.420  1.00  0.00     0.074 A 
ATOM     22  C   UNL A   1      37.904  31.866  33.212  1.00  0.00     0.031 C 
ATOM     23  C   UNL A   1      39.879  28.156  27.723  1.00  0.00     0.029 A 
ATOM     24  C   UNL A   1      40.766  28.038  28.873  1.00  0.00     0.049 A 
ATOM     25  H   UNL A   1      40.623  29.026  30.702  1.00  0.00     0.167 HD
ATOM     26  C   UNL A   1      39.855  31.170  34.577  1.00  0.00     0.037 A 
ATOM     27  C   UNL A   1      41.860  27.260  28.956  1.00  0.00     0.037 A 
ATOM     28  C   UNL A   1      41.092  30.456  34.732  1.00  0.00     0.049 A 
ATOM     29  C   UNL A   1      42.660  27.329  30.229  1.00  0.00     0.074 A 
ATOM     30  C   UNL A   1      41.952  30.423  35.812  1.00  0.00     0.029 A 
ATOM     31  N   UNL A   1      41.640  29.632  33.753  1.00  0.00    -0.354 N 
ATOM     32  N   UNL A   1      42.404  27.996  31.331  1.00  0.00    -0.248 NA
ATOM     33  C   UNL A   1      43.909  26.563  30.265  1.00  0.00     0.031 C 
ATOM     34  C   UNL A   1      43.040  29.611  35.470  1.00  0.00     0.029 A 
ATOM     35  C   UNL A   1      42.833  29.094  34.198  1.00  0.00     0.049 A 
ATOM     36  H   UNL A   1      41.239  29.460  32.871  1.00  0.00     0.167 HD
ATOM     37  C   UNL A   1      43.446  27.718  32.201  1.00  0.00     0.074 A 
ATOM     38  C   UNL A   1      44.330  26.804  31.500  1.00  0.00     0.031 C 
ATOM     39  C   UNL A   1      43.664  28.173  33.460  1.00  0.00     0.037 A 
BRANCH  26  40
ATOM     40  C   UNL A   1      39.339  32.042  35.683  1.00  0.00     0.064 A 
ATOM     41  C   UNL A   1      39.796  33.355  35.880  1.00  0.00     0.173 A 
ATOM     42  C   UNL A   1      38.427  31.521  36.613  1.00  0.00     0.173 A 
ATOM     43  F   UNL A   1      40.694  33.890  35.040  1.00  0.00    -0.203 F 
ATOM     44  C   UNL A   1      39.388  34.096  36.988  1.00  0.00     0.198 A 
ATOM     45  C   UNL A   1      38.001  32.274  37.704  1.00  0.00     0.198 A 
ATOM     46  F   UNL A   1      37.968  30.268  36.480  1.00  0.00    -0.203 F 
ATOM     47  F   UNL A   1      39.894  35.319  37.197  1.00  0.00    -0.200 F 
ATOM     48  C   UNL A   1      38.491  33.556  37.897  1.00  0.00     0.200 A 
ATOM     49  F   UNL A   1      37.134  31.749  38.581  1.00  0.00    -0.200 F 
ATOM     50  F   UNL A   1      38.116  34.263  38.972  1.00  0.00    -0.200 F 
ENDBRANCH  26  40
BRANCH  27  51
ATOM     51  C   UNL A   1      42.269  26.406  27.810  1.00  0.00     0.064 A 
ATOM     52  C   UNL A   1      41.729  25.125  27.627  1.00  0.00     0.173 A 
ATOM     53  C   UNL A   1      43.207  26.853  26.865  1.00  0.00     0.173 A 
ATOM     54  F   UNL A   1      40.843  24.641  28.510  1.00  0.00    -0.203 F 
ATOM     55  C   UNL A   1      42.119  24.323  26.555  1.00  0.00     0.198 A 
ATOM     56  C   UNL A   1      43.573  26.064  25.777  1.00  0.00     0.198 A 
ATOM     57  F   UNL A   1      43.760  28.069  26.989  1.00  0.00    -0.203 F 
ATOM     58  F   UNL A   1      41.618  23.087  26.429  1.00  0.00    -0.200 F 
ATOM     59  C   UNL A   1      43.035  24.796  25.627  1.00  0.00     0.200 A 
ATOM     60  F   UNL A   1      44.446  26.532  24.875  1.00  0.00    -0.200 F 
ATOM     61  F   UNL A   1      43.404  24.026  24.595  1.00  0.00    -0.200 F 
ENDBRANCH  27  51
BRANCH  39  62
ATOM     62  C   UNL A   1      44.873  27.641  34.162  1.00  0.00     0.064 A 
ATOM     63  C   UNL A   1      44.830  26.454  34.908  1.00  0.00     0.173 A 
ATOM     64  C   UNL A   1      46.100  28.310  34.049  1.00  0.00     0.173 A 
ATOM     65  F   UNL A   1      43.673  25.791  35.055  1.00  0.00    -0.203 F 
ATOM     66  C   UNL A   1      45.971  25.971  35.539  1.00  0.00     0.198 A 
ATOM     67  C   UNL A   1      47.245  27.806  34.656  1.00  0.00     0.198 A 
ATOM     68  F   UNL A   1      46.189  29.446  33.341  1.00  0.00    -0.203 F 
ATOM     69  F   UNL A   1      45.899  24.861  36.287  1.00  0.00    -0.200 F 
ATOM     70  C   UNL A   1      47.177  26.642  35.407  1.00  0.00     0.200 A 
ATOM     71  F   UNL A   1      48.413  28.448  34.517  1.00  0.00    -0.200 F 
ATOM     72  F   UNL A   1      48.276  26.169  36.010  1.00  0.00    -0.200 F 
ENDBRANCH  39  62
ENDBRANCH  13  14
ENDBRANCH   6   8
ENDBRANCH   5   6
ENDBRANCH   4   5
ENDBRANCH   3   4
ENDBRANCH   2   3
ENDBRANCH   1   2
BRANCH   1  73
ATOM     73  C   UNL A   1      32.359  26.824  26.570  1.00  0.00     0.261 C 
BRANCH  73  74
ATOM     74  O   UNL A   1      30.924  26.755  26.503  1.00  0.00    -0.463 OA
BRANCH  74  75
ATOM     75  C   UNL A   1      30.368  25.619  26.000  1.00  0.00     0.311 C 
ATOM     76  O   UNL A   1      29.914  24.702  26.671  1.00  0.00    -0.252 OA
BRANCH  75  77
ATOM     77  C   UNL A   1      30.364  25.622  24.484  1.00  0.00     0.128 C 
ATOM     78  C   UNL A   1      31.292  24.512  24.010  1.00  0.00     0.135 C 
ATOM     79  C   UNL A   1      30.888  26.923  23.827  1.00  0.00     0.055 C 
ATOM     80  N   UNL A   1      32.034  25.034  22.890  1.00  0.00    -0.341 N 
ATOM     81  C   UNL A   1      31.680  26.408  22.609  1.00  0.00     0.128 C 
BRANCH  79  82
ATOM     82  C   UNL A   1      29.822  27.978  23.507  1.00  0.00    -0.038 A 
ATOM     83  C   UNL A   1      28.453  27.622  23.386  1.00  0.00     0.008 A 
ATOM     84  C   UNL A   1      30.154  29.342  23.372  1.00  0.00     0.054 A 
ATOM     85  C   UNL A   1      27.458  28.573  23.106  1.00  0.00     0.051 A 
ATOM     86  C   UNL A   1      29.160  30.253  23.062  1.00  0.00     0.166 A 
ATOM     87  C   UNL A   1      27.848  29.879  22.933  1.00  0.00     0.165 A 
ATOM     88  O   UNL A   1      29.343  31.583  22.844  1.00  0.00    -0.454 OA
ATOM     89  O   UNL A   1      27.036  30.925  22.624  1.00  0.00    -0.454 OA
ATOM     90  C   UNL A   1      28.008  31.980  22.466  1.00  0.00     0.468 C 
ENDBRANCH  79  82
BRANCH  80  91
ATOM     91  C   UNL A   1      32.995  24.373  22.162  1.00  0.00     0.222 C 
ATOM     92  O   UNL A   1      33.217  24.634  20.980  1.00  0.00    -0.275 OA
BRANCH  91  93
ATOM     93  C   UNL A   1      33.786  23.284  22.865  1.00  0.00     0.109 C 
BRANCH  93  94
ATOM     94  C   UNL A   1      34.978  23.822  23.649  1.00  0.00     0.125 C 
BRANCH  94  95
ATOM     95  C   UNL A   1      36.167  22.889  23.667  1.00  0.00     0.389 C 
ATOM     96  F   UNL A   1      35.821  21.672  24.146  1.00  0.00    -0.171 F 
ATOM     97  F   UNL A   1      36.645  22.703  22.417  1.00  0.00    -0.171 F 
ATOM     98  F   UNL A   1      37.176  23.361  24.423  1.00  0.00    -0.171 F 
ENDBRANCH  94  95
ENDBRANCH  93  94
ENDBRANCH  91  93
ENDBRANCH  80  91
ENDBRANCH  75  77
ENDBRANCH  74  75
ENDBRANCH  73  74
ENDBRANCH   1  73
TORSDOF 19
ENDMDL
