MODEL 1
REMARK VINA RESULT:     -11.8      0.000      0.000
REMARK SMILES CC(C)c1ccc(C(=O)N2CCC[C@@H](C(=O)OCCOCCOC(=O)c3ccc(-c4c5nc(c(-c6c(F)c(F)c(F)c(F)c6F)c6ccc([nH]6)c(-c6c(F)c(F)c(F)c(F)c6F)c6nc(c(-c7c(F)c(F)c(F)c(F)c7F)c7ccc4[nH]7)C=C6)C=C5)cc3)C2)cc1
REMARK SMILES IDX 19 1 18 2 17 3 15 4 16 5 14 6 10 7 11 8 89 9 12 10 13 11
REMARK SMILES IDX 8 12 9 13 7 14 4 15 5 16 91 17 6 18 90 19 2 20 1 21 3 22
REMARK SMILES IDX 20 23 21 24 22 25 23 26 24 27 25 28 26 29 27 30 88 31 28 32
REMARK SMILES IDX 87 33 29 34 30 35 31 36 81 37 32 38 86 39 80 40 82 41 33 42
REMARK SMILES IDX 85 43 79 44 78 45 34 47 66 48 46 49 65 50 47 51 50 52 64 53
REMARK SMILES IDX 83 54 48 55 49 56 63 58 84 59 51 60 35 61 36 62 44 63 37 64
REMARK SMILES IDX 38 65 42 66 45 67 39 68 40 69 43 70 41 71 67 72 68 73 76 74
REMARK SMILES IDX 69 75 70 76 74 77 77 78 71 79 72 80 75 81 73 82 52 83 53 84
REMARK SMILES IDX 61 85 54 86 55 87 59 88 62 89 56 90 57 91 60 92 58 93
REMARK H PARENT 82 46 50 57
REMARK Flexibility Score: inf
ROOT
ATOM      1  C   UNL A   1      36.126  21.863  24.628  1.00  0.00     0.202 C 
ENDROOT
BRANCH   1   2
ATOM      2  C   UNL A   1      34.910  21.080  25.136  1.00  0.00     0.261 C 
BRANCH   2   3
ATOM      3  O   UNL A   1      33.858  21.059  24.146  1.00  0.00    -0.463 OA
BRANCH   3   4
ATOM      4  C   UNL A   1      32.629  21.480  24.548  1.00  0.00     0.310 C 
ATOM      5  O   UNL A   1      31.897  20.861  25.310  1.00  0.00    -0.252 OA
BRANCH   4   6
ATOM      6  C   UNL A   1      32.285  22.869  24.040  1.00  0.00     0.119 C 
ATOM      7  N   UNL A   1      32.254  25.249  24.739  1.00  0.00    -0.338 N 
ATOM      8  C   UNL A   1      32.788  25.707  23.466  1.00  0.00     0.120 C 
ATOM      9  C   UNL A   1      32.529  23.884  25.161  1.00  0.00     0.135 C 
ATOM     10  C   UNL A   1      32.564  24.695  22.347  1.00  0.00     0.022 C 
ATOM     11  C   UNL A   1      33.026  23.298  22.767  1.00  0.00     0.019 C 
BRANCH   7  12
ATOM     12  C   UNL A   1      31.318  26.025  25.399  1.00  0.00     0.253 C 
ATOM     13  O   UNL A   1      30.898  25.725  26.512  1.00  0.00    -0.269 OA
BRANCH  12  14
ATOM     14  C   UNL A   1      30.730  27.168  24.629  1.00  0.00     0.040 A 
ATOM     15  C   UNL A   1      29.548  29.444  23.391  1.00  0.00    -0.045 A 
ATOM     16  C   UNL A   1      30.659  29.569  24.241  1.00  0.00     0.005 A 
ATOM     17  C   UNL A   1      29.078  28.144  23.137  1.00  0.00     0.005 A 
ATOM     18  C   UNL A   1      31.242  28.449  24.850  1.00  0.00     0.014 A 
ATOM     19  C   UNL A   1      29.647  27.023  23.758  1.00  0.00     0.014 A 
BRANCH  15  20
ATOM     20  C   UNL A   1      28.891  30.650  22.716  1.00  0.00     0.013 C 
ATOM     21  C   UNL A   1      28.363  30.326  21.307  1.00  0.00     0.012 C 
ATOM     22  C   UNL A   1      27.739  31.286  23.511  1.00  0.00     0.012 C 
ENDBRANCH  15  20
ENDBRANCH  12  14
ENDBRANCH   7  12
ENDBRANCH   4   6
ENDBRANCH   3   4
ENDBRANCH   2   3
ENDBRANCH   1   2
BRANCH   1  23
ATOM     23  O   UNL A   1      37.392  21.408  25.115  1.00  0.00    -0.374 OA
BRANCH  23  24
ATOM     24  C   UNL A   1      37.682  20.030  24.907  1.00  0.00     0.202 C 
BRANCH  24  25
ATOM     25  C   UNL A   1      39.063  19.567  25.377  1.00  0.00     0.261 C 
BRANCH  25  26
ATOM     26  O   UNL A   1      39.427  20.197  26.617  1.00  0.00    -0.460 OA
BRANCH  26  27
ATOM     27  C   UNL A   1      40.748  20.452  26.745  1.00  0.00     0.338 C 
ATOM     28  O   UNL A   1      41.678  19.725  26.418  1.00  0.00    -0.246 OA
BRANCH  27  29
ATOM     29  C   UNL A   1      40.960  21.831  27.217  1.00  0.00     0.060 A 
ATOM     30  C   UNL A   1      40.297  22.854  26.527  1.00  0.00     0.016 A 
ATOM     31  C   UNL A   1      41.837  22.133  28.262  1.00  0.00     0.016 A 
ATOM     32  C   UNL A   1      40.558  24.187  26.834  1.00  0.00     0.010 A 
ATOM     33  C   UNL A   1      42.101  23.472  28.567  1.00  0.00     0.010 A 
ATOM     34  C   UNL A   1      41.495  24.503  27.827  1.00  0.00    -0.014 A 
BRANCH  34  35
ATOM     35  C   UNL A   1      41.955  25.903  27.975  1.00  0.00     0.031 A 
ATOM     36  C   UNL A   1      43.292  26.290  27.405  1.00  0.00     0.074 A 
ATOM     37  C   UNL A   1      41.186  26.822  28.581  1.00  0.00     0.049 A 
ATOM     38  N   UNL A   1      43.917  27.439  27.454  1.00  0.00    -0.248 NA
ATOM     39  C   UNL A   1      44.023  25.237  26.681  1.00  0.00     0.031 C 
ATOM     40  C   UNL A   1      39.855  26.577  29.132  1.00  0.00     0.029 A 
ATOM     41  N   UNL A   1      41.420  28.149  28.839  1.00  0.00    -0.354 N 
ATOM     42  C   UNL A   1      45.115  27.244  26.778  1.00  0.00     0.074 A 
ATOM     43  C   UNL A   1      45.143  25.863  26.350  1.00  0.00     0.031 C 
ATOM     44  C   UNL A   1      39.393  27.716  29.677  1.00  0.00     0.029 A 
ATOM     45  C   UNL A   1      40.409  28.758  29.540  1.00  0.00     0.049 A 
ATOM     46  H   UNL A   1      42.235  28.620  28.549  1.00  0.00     0.167 HD
ATOM     47  C   UNL A   1      46.098  28.142  26.530  1.00  0.00     0.037 A 
ATOM     48  C   UNL A   1      40.327  30.009  30.034  1.00  0.00     0.037 A 
ATOM     49  C   UNL A   1      46.064  29.517  26.951  1.00  0.00     0.049 A 
ATOM     50  C   UNL A   1      41.464  30.971  29.800  1.00  0.00     0.074 A 
ATOM     51  C   UNL A   1      47.003  30.509  26.737  1.00  0.00     0.029 A 
ATOM     52  N   UNL A   1      45.032  30.092  27.680  1.00  0.00    -0.354 N 
ATOM     53  N   UNL A   1      42.584  30.786  29.146  1.00  0.00    -0.248 NA
ATOM     54  C   UNL A   1      41.322  32.317  30.373  1.00  0.00     0.031 C 
ATOM     55  C   UNL A   1      46.563  31.673  27.376  1.00  0.00     0.029 A 
ATOM     56  C   UNL A   1      45.324  31.420  27.943  1.00  0.00     0.049 A 
ATOM     57  H   UNL A   1      44.215  29.624  27.968  1.00  0.00     0.167 HD
ATOM     58  C   UNL A   1      43.264  31.996  29.199  1.00  0.00     0.074 A 
ATOM     59  C   UNL A   1      42.426  32.912  29.946  1.00  0.00     0.031 C 
ATOM     60  C   UNL A   1      44.471  32.321  28.675  1.00  0.00     0.037 A 
BRANCH  47  61
ATOM     61  C   UNL A   1      47.308  27.657  25.787  1.00  0.00     0.064 A 
ATOM     62  C   UNL A   1      47.397  27.736  24.389  1.00  0.00     0.173 A 
ATOM     63  C   UNL A   1      48.407  27.135  26.486  1.00  0.00     0.173 A 
ATOM     64  F   UNL A   1      46.368  28.213  23.674  1.00  0.00    -0.203 F 
ATOM     65  C   UNL A   1      48.533  27.291  23.717  1.00  0.00     0.198 A 
ATOM     66  C   UNL A   1      49.551  26.715  25.813  1.00  0.00     0.198 A 
ATOM     67  F   UNL A   1      48.373  27.039  27.824  1.00  0.00    -0.203 F 
ATOM     68  F   UNL A   1      48.579  27.336  22.379  1.00  0.00    -0.200 F 
ATOM     69  C   UNL A   1      49.611  26.787  24.431  1.00  0.00     0.200 A 
ATOM     70  F   UNL A   1      50.596  26.239  26.505  1.00  0.00    -0.200 F 
ATOM     71  F   UNL A   1      50.706  26.365  23.783  1.00  0.00    -0.200 F 
ENDBRANCH  47  61
BRANCH  48  72
ATOM     72  C   UNL A   1      39.129  30.423  30.809  1.00  0.00     0.064 A 
ATOM     73  C   UNL A   1      39.057  30.222  32.194  1.00  0.00     0.173 A 
ATOM     74  C   UNL A   1      38.026  31.015  30.176  1.00  0.00     0.173 A 
ATOM     75  F   UNL A   1      40.076  29.636  32.839  1.00  0.00    -0.203 F 
ATOM     76  C   UNL A   1      37.921  30.583  32.915  1.00  0.00     0.198 A 
ATOM     77  C   UNL A   1      36.901  31.401  30.903  1.00  0.00     0.198 A 
ATOM     78  F   UNL A   1      38.044  31.228  28.852  1.00  0.00    -0.203 F 
ATOM     79  F   UNL A   1      37.859  30.339  34.231  1.00  0.00    -0.200 F 
ATOM     80  C   UNL A   1      36.847  31.178  32.270  1.00  0.00     0.200 A 
ATOM     81  F   UNL A   1      35.871  31.986  30.277  1.00  0.00    -0.200 F 
ATOM     82  F   UNL A   1      35.755  31.528  32.965  1.00  0.00    -0.200 F 
ENDBRANCH  48  72
BRANCH  60  83
ATOM     83  C   UNL A   1      44.942  33.736  28.846  1.00  0.00     0.064 A 
ATOM     84  C   UNL A   1      44.594  34.745  27.937  1.00  0.00     0.173 A 
ATOM     85  C   UNL A   1      45.708  34.095  29.965  1.00  0.00     0.173 A 
ATOM     86  F   UNL A   1      43.875  34.448  26.843  1.00  0.00    -0.203 F 
ATOM     87  C   UNL A   1      45.013  36.058  28.131  1.00  0.00     0.198 A 
ATOM     88  C   UNL A   1      46.101  35.414  30.172  1.00  0.00     0.198 A 
ATOM     89  F   UNL A   1      46.060  33.168  30.869  1.00  0.00    -0.203 F 
ATOM     90  F   UNL A   1      44.703  36.999  27.229  1.00  0.00    -0.200 F 
ATOM     91  C   UNL A   1      45.758  36.393  29.252  1.00  0.00     0.200 A 
ATOM     92  F   UNL A   1      46.810  35.738  31.263  1.00  0.00    -0.200 F 
ATOM     93  F   UNL A   1      46.151  37.660  29.443  1.00  0.00    -0.200 F 
ENDBRANCH  60  83
ENDBRANCH  34  35
ENDBRANCH  27  29
ENDBRANCH  26  27
ENDBRANCH  25  26
ENDBRANCH  24  25
ENDBRANCH  23  24
ENDBRANCH   1  23
TORSDOF 17
ENDMDL
MODEL 2
REMARK VINA RESULT:     -11.7      4.310      8.027
REMARK SMILES CC(C)c1ccc(C(=O)N2CCC[C@@H](C(=O)OCCOCCOC(=O)c3ccc(-c4c5nc(c(-c6c(F)c(F)c(F)c(F)c6F)c6ccc([nH]6)c(-c6c(F)c(F)c(F)c(F)c6F)c6nc(c(-c7c(F)c(F)c(F)c(F)c7F)c7ccc4[nH]7)C=C6)C=C5)cc3)C2)cc1
REMARK SMILES IDX 19 1 18 2 17 3 15 4 16 5 14 6 10 7 11 8 89 9 12 10 13 11
REMARK SMILES IDX 8 12 9 13 7 14 4 15 5 16 91 17 6 18 90 19 2 20 1 21 3 22
REMARK SMILES IDX 20 23 21 24 22 25 23 26 24 27 25 28 26 29 27 30 88 31 28 32
REMARK SMILES IDX 87 33 29 34 30 35 31 36 81 37 32 38 86 39 80 40 82 41 33 42
REMARK SMILES IDX 85 43 79 44 78 45 34 47 66 48 46 49 65 50 47 51 50 52 64 53
REMARK SMILES IDX 83 54 48 55 49 56 63 58 84 59 51 60 35 61 36 62 44 63 37 64
REMARK SMILES IDX 38 65 42 66 45 67 39 68 40 69 43 70 41 71 67 72 68 73 76 74
REMARK SMILES IDX 69 75 70 76 74 77 77 78 71 79 72 80 75 81 73 82 52 83 53 84
REMARK SMILES IDX 61 85 54 86 55 87 59 88 62 89 56 90 57 91 60 92 58 93
REMARK H PARENT 82 46 50 57
REMARK Flexibility Score: inf
ROOT
ATOM      1  C   UNL A   1      30.647  29.199  23.822  1.00  0.00     0.202 C 
ENDROOT
BRANCH   1   2
ATOM      2  C   UNL A   1      30.784  28.702  22.378  1.00  0.00     0.261 C 
BRANCH   2   3
ATOM      3  O   UNL A   1      30.616  27.269  22.307  1.00  0.00    -0.463 OA
BRANCH   3   4
ATOM      4  C   UNL A   1      31.734  26.511  22.465  1.00  0.00     0.310 C 
ATOM      5  O   UNL A   1      32.784  26.686  21.859  1.00  0.00    -0.252 OA
BRANCH   4   6
ATOM      6  C   UNL A   1      31.594  25.474  23.564  1.00  0.00     0.119 C 
ATOM      7  N   UNL A   1      32.805  24.514  25.506  1.00  0.00    -0.338 N 
ATOM      8  C   UNL A   1      31.610  24.496  26.336  1.00  0.00     0.120 C 
ATOM      9  C   UNL A   1      32.875  25.463  24.405  1.00  0.00     0.135 C 
ATOM     10  C   UNL A   1      30.330  24.523  25.507  1.00  0.00     0.022 C 
ATOM     11  C   UNL A   1      30.368  25.647  24.470  1.00  0.00     0.019 C 
BRANCH   7  12
ATOM     12  C   UNL A   1      33.730  23.494  25.629  1.00  0.00     0.253 C 
ATOM     13  O   UNL A   1      34.866  23.696  26.044  1.00  0.00    -0.269 OA
BRANCH  12  14
ATOM     14  C   UNL A   1      33.328  22.154  25.088  1.00  0.00     0.040 A 
ATOM     15  C   UNL A   1      32.810  19.542  24.081  1.00  0.00    -0.045 A 
ATOM     16  C   UNL A   1      33.305  19.739  25.380  1.00  0.00     0.005 A 
ATOM     17  C   UNL A   1      32.533  20.690  23.319  1.00  0.00     0.005 A 
ATOM     18  C   UNL A   1      33.559  21.025  25.878  1.00  0.00     0.014 A 
ATOM     19  C   UNL A   1      32.802  21.977  23.806  1.00  0.00     0.014 A 
BRANCH  15  20
ATOM     20  C   UNL A   1      32.527  18.150  23.513  1.00  0.00     0.013 C 
ATOM     21  C   UNL A   1      32.154  18.183  22.020  1.00  0.00     0.012 C 
ATOM     22  C   UNL A   1      33.671  17.137  23.686  1.00  0.00     0.012 C 
ENDBRANCH  15  20
ENDBRANCH  12  14
ENDBRANCH   7  12
ENDBRANCH   4   6
ENDBRANCH   3   4
ENDBRANCH   2   3
ENDBRANCH   1   2
BRANCH   1  23
ATOM     23  O   UNL A   1      31.805  29.018  24.644  1.00  0.00    -0.374 OA
BRANCH  23  24
ATOM     24  C   UNL A   1      31.569  28.938  26.046  1.00  0.00     0.202 C 
BRANCH  24  25
ATOM     25  C   UNL A   1      31.831  30.224  26.833  1.00  0.00     0.261 C 
BRANCH  25  26
ATOM     26  O   UNL A   1      33.046  30.858  26.401  1.00  0.00    -0.460 OA
BRANCH  26  27
ATOM     27  C   UNL A   1      33.515  31.799  27.251  1.00  0.00     0.338 C 
ATOM     28  O   UNL A   1      32.922  32.788  27.663  1.00  0.00    -0.246 OA
BRANCH  27  29
ATOM     29  C   UNL A   1      34.840  31.410  27.766  1.00  0.00     0.060 A 
ATOM     30  C   UNL A   1      35.036  30.057  28.072  1.00  0.00     0.016 A 
ATOM     31  C   UNL A   1      35.847  32.346  28.012  1.00  0.00     0.016 A 
ATOM     32  C   UNL A   1      36.215  29.644  28.687  1.00  0.00     0.010 A 
ATOM     33  C   UNL A   1      37.029  31.932  28.633  1.00  0.00     0.010 A 
ATOM     34  C   UNL A   1      37.200  30.587  29.010  1.00  0.00    -0.014 A 
BRANCH  34  35
ATOM     35  C   UNL A   1      38.329  30.192  29.884  1.00  0.00     0.031 A 
ATOM     36  C   UNL A   1      39.353  29.227  29.353  1.00  0.00     0.074 A 
ATOM     37  C   UNL A   1      38.457  30.704  31.120  1.00  0.00     0.049 A 
ATOM     38  N   UNL A   1      40.395  28.706  29.950  1.00  0.00    -0.248 NA
ATOM     39  C   UNL A   1      39.177  28.790  27.959  1.00  0.00     0.031 C 
ATOM     40  C   UNL A   1      37.554  31.680  31.726  1.00  0.00     0.029 A 
ATOM     41  N   UNL A   1      39.399  30.466  32.089  1.00  0.00    -0.354 N 
ATOM     42  C   UNL A   1      40.991  27.876  29.010  1.00  0.00     0.074 A 
ATOM     43  C   UNL A   1      40.184  27.941  27.812  1.00  0.00     0.031 C 
ATOM     44  C   UNL A   1      37.979  31.948  32.973  1.00  0.00     0.029 A 
ATOM     45  C   UNL A   1      39.163  31.141  33.260  1.00  0.00     0.049 A 
ATOM     46  H   UNL A   1      40.171  29.869  31.956  1.00  0.00     0.167 HD
ATOM     47  C   UNL A   1      42.118  27.135  29.134  1.00  0.00     0.037 A 
ATOM     48  C   UNL A   1      39.817  31.091  34.437  1.00  0.00     0.037 A 
ATOM     49  C   UNL A   1      42.922  27.078  30.325  1.00  0.00     0.049 A 
ATOM     50  C   UNL A   1      41.031  30.207  34.570  1.00  0.00     0.074 A 
ATOM     51  C   UNL A   1      44.089  26.368  30.546  1.00  0.00     0.029 A 
ATOM     52  N   UNL A   1      42.638  27.759  31.500  1.00  0.00    -0.354 N 
ATOM     53  N   UNL A   1      41.599  29.439  33.673  1.00  0.00    -0.248 NA
ATOM     54  C   UNL A   1      41.695  30.186  35.882  1.00  0.00     0.031 C 
ATOM     55  C   UNL A   1      44.486  26.582  31.871  1.00  0.00     0.029 A 
ATOM     56  C   UNL A   1      43.595  27.467  32.458  1.00  0.00     0.049 A 
ATOM     57  H   UNL A   1      41.869  28.359  31.634  1.00  0.00     0.167 HD
ATOM     58  C   UNL A   1      42.702  28.871  34.297  1.00  0.00     0.074 A 
ATOM     59  C   UNL A   1      42.727  29.388  35.650  1.00  0.00     0.031 C 
ATOM     60  C   UNL A   1      43.613  28.002  33.795  1.00  0.00     0.037 A 
BRANCH  47  61
ATOM     61  C   UNL A   1      42.533  26.303  27.956  1.00  0.00     0.064 A 
ATOM     62  C   UNL A   1      42.010  25.019  27.739  1.00  0.00     0.173 A 
ATOM     63  C   UNL A   1      43.440  26.811  27.014  1.00  0.00     0.173 A 
ATOM     64  F   UNL A   1      41.151  24.483  28.618  1.00  0.00    -0.203 F 
ATOM     65  C   UNL A   1      42.399  24.266  26.634  1.00  0.00     0.198 A 
ATOM     66  C   UNL A   1      43.805  26.065  25.896  1.00  0.00     0.198 A 
ATOM     67  F   UNL A   1      43.967  28.034  27.174  1.00  0.00    -0.203 F 
ATOM     68  F   UNL A   1      41.920  23.024  26.470  1.00  0.00    -0.200 F 
ATOM     69  C   UNL A   1      43.290  24.792  25.710  1.00  0.00     0.200 A 
ATOM     70  F   UNL A   1      44.658  26.580  25.000  1.00  0.00    -0.200 F 
ATOM     71  F   UNL A   1      43.658  24.068  24.644  1.00  0.00    -0.200 F 
ENDBRANCH  47  61
BRANCH  48  72
ATOM     72  C   UNL A   1      39.332  31.894  35.589  1.00  0.00     0.064 A 
ATOM     73  C   UNL A   1      39.743  33.222  35.770  1.00  0.00     0.173 A 
ATOM     74  C   UNL A   1      38.458  31.346  36.539  1.00  0.00     0.173 A 
ATOM     75  F   UNL A   1      40.599  33.782  34.902  1.00  0.00    -0.203 F 
ATOM     76  C   UNL A   1      39.312  33.965  36.866  1.00  0.00     0.198 A 
ATOM     77  C   UNL A   1      38.005  32.099  37.620  1.00  0.00     0.198 A 
ATOM     78  F   UNL A   1      38.036  30.079  36.413  1.00  0.00    -0.203 F 
ATOM     79  F   UNL A   1      39.754  35.218  37.040  1.00  0.00    -0.200 F 
ATOM     80  C   UNL A   1      38.438  33.405  37.787  1.00  0.00     0.200 A 
ATOM     81  F   UNL A   1      37.152  31.558  38.500  1.00  0.00    -0.200 F 
ATOM     82  F   UNL A   1      38.020  34.123  38.839  1.00  0.00    -0.200 F 
ENDBRANCH  48  72
BRANCH  60  83
ATOM     83  C   UNL A   1      44.744  27.589  34.692  1.00  0.00     0.064 A 
ATOM     84  C   UNL A   1      45.915  28.351  34.802  1.00  0.00     0.173 A 
ATOM     85  C   UNL A   1      44.628  26.442  35.492  1.00  0.00     0.173 A 
ATOM     86  F   UNL A   1      46.079  29.449  34.047  1.00  0.00    -0.203 F 
ATOM     87  C   UNL A   1      46.938  27.969  35.666  1.00  0.00     0.198 A 
ATOM     88  C   UNL A   1      45.640  26.078  36.375  1.00  0.00     0.198 A 
ATOM     89  F   UNL A   1      43.523  25.683  35.429  1.00  0.00    -0.203 F 
ATOM     90  F   UNL A   1      48.065  28.690  35.726  1.00  0.00    -0.200 F 
ATOM     91  C   UNL A   1      46.796  26.839  36.457  1.00  0.00     0.200 A 
ATOM     92  F   UNL A   1      45.495  24.993  37.148  1.00  0.00    -0.200 F 
ATOM     93  F   UNL A   1      47.778  26.478  37.295  1.00  0.00    -0.200 F 
ENDBRANCH  60  83
ENDBRANCH  34  35
ENDBRANCH  27  29
ENDBRANCH  26  27
ENDBRANCH  25  26
ENDBRANCH  24  25
ENDBRANCH  23  24
ENDBRANCH   1  23
TORSDOF 17
ENDMDL
MODEL 3
REMARK VINA RESULT:     -11.7      1.463      2.648
REMARK SMILES CC(C)c1ccc(C(=O)N2CCC[C@@H](C(=O)OCCOCCOC(=O)c3ccc(-c4c5nc(c(-c6c(F)c(F)c(F)c(F)c6F)c6ccc([nH]6)c(-c6c(F)c(F)c(F)c(F)c6F)c6nc(c(-c7c(F)c(F)c(F)c(F)c7F)c7ccc4[nH]7)C=C6)C=C5)cc3)C2)cc1
REMARK SMILES IDX 19 1 18 2 17 3 15 4 16 5 14 6 10 7 11 8 89 9 12 10 13 11
REMARK SMILES IDX 8 12 9 13 7 14 4 15 5 16 91 17 6 18 90 19 2 20 1 21 3 22
REMARK SMILES IDX 20 23 21 24 22 25 23 26 24 27 25 28 26 29 27 30 88 31 28 32
REMARK SMILES IDX 87 33 29 34 30 35 31 36 81 37 32 38 86 39 80 40 82 41 33 42
REMARK SMILES IDX 85 43 79 44 78 45 34 47 66 48 46 49 65 50 47 51 50 52 64 53
REMARK SMILES IDX 83 54 48 55 49 56 63 58 84 59 51 60 35 61 36 62 44 63 37 64
REMARK SMILES IDX 38 65 42 66 45 67 39 68 40 69 43 70 41 71 67 72 68 73 76 74
REMARK SMILES IDX 69 75 70 76 74 77 77 78 71 79 72 80 75 81 73 82 52 83 53 84
REMARK SMILES IDX 61 85 54 86 55 87 59 88 62 89 56 90 57 91 60 92 58 93
REMARK H PARENT 82 46 50 57
REMARK Flexibility Score: inf
ROOT
ATOM      1  C   UNL A   1      37.005  22.078  24.139  1.00  0.00     0.202 C 
ENDROOT
BRANCH   1   2
ATOM      2  C   UNL A   1      35.874  23.057  24.476  1.00  0.00     0.261 C 
BRANCH   2   3
ATOM      3  O   UNL A   1      34.928  23.148  23.387  1.00  0.00    -0.463 OA
BRANCH   3   4
ATOM      4  C   UNL A   1      33.681  22.657  23.616  1.00  0.00     0.310 C 
ATOM      5  O   UNL A   1      33.192  21.699  23.032  1.00  0.00    -0.252 OA
BRANCH   4   6
ATOM      6  C   UNL A   1      32.974  23.354  24.766  1.00  0.00     0.119 C 
ATOM      7  N   UNL A   1      31.013  24.789  25.267  1.00  0.00    -0.338 N 
ATOM      8  C   UNL A   1      30.683  24.044  26.472  1.00  0.00     0.120 C 
ATOM      9  C   UNL A   1      31.766  24.119  24.217  1.00  0.00     0.135 C 
ATOM     10  C   UNL A   1      31.877  23.266  27.016  1.00  0.00     0.022 C 
ATOM     11  C   UNL A   1      32.542  22.436  25.917  1.00  0.00     0.019 C 
BRANCH   7  12
ATOM     12  C   UNL A   1      30.816  26.158  25.241  1.00  0.00     0.253 C 
ATOM     13  O   UNL A   1      29.923  26.671  24.575  1.00  0.00    -0.269 OA
BRANCH  12  14
ATOM     14  C   UNL A   1      31.840  26.996  25.946  1.00  0.00     0.040 A 
ATOM     15  C   UNL A   1      33.646  28.795  27.215  1.00  0.00    -0.045 A 
ATOM     16  C   UNL A   1      32.307  28.692  27.627  1.00  0.00     0.005 A 
ATOM     17  C   UNL A   1      34.068  27.936  26.186  1.00  0.00     0.005 A 
ATOM     18  C   UNL A   1      31.418  27.806  27.004  1.00  0.00     0.014 A 
ATOM     19  C   UNL A   1      33.177  27.062  25.547  1.00  0.00     0.014 A 
BRANCH  15  20
ATOM     20  C   UNL A   1      34.637  29.755  27.876  1.00  0.00     0.013 C 
ATOM     21  C   UNL A   1      36.101  29.419  27.543  1.00  0.00     0.012 C 
ATOM     22  C   UNL A   1      34.413  31.240  27.549  1.00  0.00     0.012 C 
ENDBRANCH  15  20
ENDBRANCH  12  14
ENDBRANCH   7  12
ENDBRANCH   4   6
ENDBRANCH   3   4
ENDBRANCH   2   3
ENDBRANCH   1   2
BRANCH   1  23
ATOM     23  O   UNL A   1      37.475  21.288  25.236  1.00  0.00    -0.374 OA
BRANCH  23  24
ATOM     24  C   UNL A   1      37.875  19.958  24.919  1.00  0.00     0.202 C 
BRANCH  24  25
ATOM     25  C   UNL A   1      39.227  19.522  25.490  1.00  0.00     0.261 C 
BRANCH  25  26
ATOM     26  O   UNL A   1      39.539  20.244  26.693  1.00  0.00    -0.460 OA
BRANCH  26  27
ATOM     27  C   UNL A   1      40.854  20.506  26.860  1.00  0.00     0.338 C 
ATOM     28  O   UNL A   1      41.797  19.777  26.578  1.00  0.00    -0.246 OA
BRANCH  27  29
ATOM     29  C   UNL A   1      41.047  21.895  27.312  1.00  0.00     0.060 A 
ATOM     30  C   UNL A   1      40.400  22.901  26.584  1.00  0.00     0.016 A 
ATOM     31  C   UNL A   1      41.892  22.221  28.376  1.00  0.00     0.016 A 
ATOM     32  C   UNL A   1      40.646  24.241  26.874  1.00  0.00     0.010 A 
ATOM     33  C   UNL A   1      42.142  23.566  28.663  1.00  0.00     0.010 A 
ATOM     34  C   UNL A   1      41.552  24.580  27.887  1.00  0.00    -0.014 A 
BRANCH  34  35
ATOM     35  C   UNL A   1      42.002  25.985  28.022  1.00  0.00     0.031 A 
ATOM     36  C   UNL A   1      43.335  26.377  27.446  1.00  0.00     0.074 A 
ATOM     37  C   UNL A   1      41.227  26.904  28.622  1.00  0.00     0.049 A 
ATOM     38  N   UNL A   1      43.951  27.531  27.484  1.00  0.00    -0.248 NA
ATOM     39  C   UNL A   1      44.073  25.324  26.730  1.00  0.00     0.031 C 
ATOM     40  C   UNL A   1      39.899  26.653  29.177  1.00  0.00     0.029 A 
ATOM     41  N   UNL A   1      41.451  28.235  28.867  1.00  0.00    -0.354 N 
ATOM     42  C   UNL A   1      45.149  27.340  26.808  1.00  0.00     0.074 A 
ATOM     43  C   UNL A   1      45.187  25.956  26.391  1.00  0.00     0.031 C 
ATOM     44  C   UNL A   1      39.430  27.793  29.713  1.00  0.00     0.029 A 
ATOM     45  C   UNL A   1      40.437  28.842  29.565  1.00  0.00     0.049 A 
ATOM     46  H   UNL A   1      42.262  28.709  28.572  1.00  0.00     0.167 HD
ATOM     47  C   UNL A   1      46.125  28.243  26.549  1.00  0.00     0.037 A 
ATOM     48  C   UNL A   1      40.346  30.097  30.049  1.00  0.00     0.037 A 
ATOM     49  C   UNL A   1      46.081  29.621  26.959  1.00  0.00     0.049 A 
ATOM     50  C   UNL A   1      41.475  31.065  29.804  1.00  0.00     0.074 A 
ATOM     51  C   UNL A   1      47.012  30.619  26.734  1.00  0.00     0.029 A 
ATOM     52  N   UNL A   1      45.046  30.195  27.685  1.00  0.00    -0.354 N 
ATOM     53  N   UNL A   1      42.596  30.883  29.149  1.00  0.00    -0.248 NA
ATOM     54  C   UNL A   1      41.324  32.415  30.366  1.00  0.00     0.031 C 
ATOM     55  C   UNL A   1      46.564  31.785  27.364  1.00  0.00     0.029 A 
ATOM     56  C   UNL A   1      45.328  31.528  27.936  1.00  0.00     0.049 A 
ATOM     57  H   UNL A   1      44.233  29.723  27.978  1.00  0.00     0.167 HD
ATOM     58  C   UNL A   1      43.266  32.099  29.191  1.00  0.00     0.074 A 
ATOM     59  C   UNL A   1      42.423  33.015  29.931  1.00  0.00     0.031 C 
ATOM     60  C   UNL A   1      44.470  32.428  28.661  1.00  0.00     0.037 A 
BRANCH  47  61
ATOM     61  C   UNL A   1      47.337  27.761  25.808  1.00  0.00     0.064 A 
ATOM     62  C   UNL A   1      48.470  27.280  26.482  1.00  0.00     0.173 A 
ATOM     63  C   UNL A   1      47.352  27.748  24.405  1.00  0.00     0.173 A 
ATOM     64  F   UNL A   1      48.511  27.285  27.822  1.00  0.00    -0.203 F 
ATOM     65  C   UNL A   1      49.582  26.825  25.777  1.00  0.00     0.198 A 
ATOM     66  C   UNL A   1      48.455  27.268  23.705  1.00  0.00     0.198 A 
ATOM     67  F   UNL A   1      46.293  28.195  23.714  1.00  0.00    -0.203 F 
ATOM     68  F   UNL A   1      50.671  26.411  26.441  1.00  0.00    -0.200 F 
ATOM     69  C   UNL A   1      49.571  26.813  24.390  1.00  0.00     0.200 A 
ATOM     70  F   UNL A   1      48.438  27.248  22.365  1.00  0.00    -0.200 F 
ATOM     71  F   UNL A   1      50.639  26.370  23.713  1.00  0.00    -0.200 F 
ENDBRANCH  47  61
BRANCH  48  72
ATOM     72  C   UNL A   1      39.147  30.508  30.822  1.00  0.00     0.064 A 
ATOM     73  C   UNL A   1      39.048  30.251  32.196  1.00  0.00     0.173 A 
ATOM     74  C   UNL A   1      38.068  31.154  30.198  1.00  0.00     0.173 A 
ATOM     75  F   UNL A   1      40.042  29.613  32.831  1.00  0.00    -0.203 F 
ATOM     76  C   UNL A   1      37.909  30.611  32.914  1.00  0.00     0.198 A 
ATOM     77  C   UNL A   1      36.942  31.537  30.924  1.00  0.00     0.198 A 
ATOM     78  F   UNL A   1      38.112  31.420  28.885  1.00  0.00    -0.203 F 
ATOM     79  F   UNL A   1      37.821  30.314  34.219  1.00  0.00    -0.200 F 
ATOM     80  C   UNL A   1      36.860  31.258  32.279  1.00  0.00     0.200 A 
ATOM     81  F   UNL A   1      35.936  32.173  30.308  1.00  0.00    -0.200 F 
ATOM     82  F   UNL A   1      35.767  31.607  32.972  1.00  0.00    -0.200 F 
ENDBRANCH  48  72
BRANCH  60  83
ATOM     83  C   UNL A   1      44.930  33.848  28.819  1.00  0.00     0.064 A 
ATOM     84  C   UNL A   1      45.678  34.263  29.929  1.00  0.00     0.173 A 
ATOM     85  C   UNL A   1      44.663  34.793  27.815  1.00  0.00     0.173 A 
ATOM     86  F   UNL A   1      45.946  33.401  30.922  1.00  0.00    -0.203 F 
ATOM     87  C   UNL A   1      46.124  35.577  30.040  1.00  0.00     0.198 A 
ATOM     88  C   UNL A   1      45.134  36.099  27.916  1.00  0.00     0.198 A 
ATOM     89  F   UNL A   1      43.958  34.444  26.728  1.00  0.00    -0.203 F 
ATOM     90  F   UNL A   1      46.803  35.962  31.129  1.00  0.00    -0.200 F 
ATOM     91  C   UNL A   1      45.859  36.491  29.030  1.00  0.00     0.200 A 
ATOM     92  F   UNL A   1      44.889  36.976  26.933  1.00  0.00    -0.200 F 
ATOM     93  F   UNL A   1      46.299  37.752  29.135  1.00  0.00    -0.200 F 
ENDBRANCH  60  83
ENDBRANCH  34  35
ENDBRANCH  27  29
ENDBRANCH  26  27
ENDBRANCH  25  26
ENDBRANCH  24  25
ENDBRANCH  23  24
ENDBRANCH   1  23
TORSDOF 17
ENDMDL
