MODEL 1
REMARK VINA RESULT:     -11.8      0.000      0.000
REMARK SMILES Cc1nc(Oc2ccc(F)cc2)c(C(=O)OCCOCCOC(=O)c2ccc(-c3c4nc(c(-c5c(F)c(F)c(F)c(F)c5F)c5ccc([nH]5)c(-c5c(F)c(F)c(F)c(F)c5F)c5nc(c(-c6c(F)c(F)c(F)c(F)c6F)c6ccc3[nH]6)C=C5)C=C4)cc2)c(C)c1Cl
REMARK SMILES IDX 19 1 18 2 17 3 16 4 14 5 15 6 13 7 1 8 2 9 3 10 90 11 4 12
REMARK SMILES IDX 88 13 91 14 89 15 5 16 6 17 7 18 12 19 8 20 11 21 9 22 10 23
REMARK SMILES IDX 20 24 21 25 22 26 23 27 24 28 25 29 26 30 87 31 27 32 86 33
REMARK SMILES IDX 28 34 29 35 30 36 80 37 31 38 85 39 79 40 81 41 32 42 84 43
REMARK SMILES IDX 78 44 77 45 33 47 65 48 45 49 64 50 46 51 49 52 63 53 82 54
REMARK SMILES IDX 47 55 48 56 62 58 83 59 50 60 34 61 35 62 43 63 36 64 37 65
REMARK SMILES IDX 41 66 44 67 38 68 39 69 42 70 40 71 66 72 67 73 75 74 68 75
REMARK SMILES IDX 69 76 73 77 76 78 70 79 71 80 74 81 72 82 51 83 52 84 60 85
REMARK SMILES IDX 53 86 54 87 58 88 61 89 55 90 56 91 59 92 57 93
REMARK H PARENT 81 46 49 57
REMARK Flexibility Score: inf
ROOT
ATOM      1  O   UNL A   1      31.980  29.190  23.754  1.00  0.00    -0.374 OA
ENDROOT
BRANCH   1   2
ATOM      2  C   UNL A   1      31.751  28.008  22.978  1.00  0.00     0.202 C 
BRANCH   2   3
ATOM      3  C   UNL A   1      32.979  27.339  22.369  1.00  0.00     0.261 C 
BRANCH   3   4
ATOM      4  O   UNL A   1      33.551  26.507  23.380  1.00  0.00    -0.459 OA
BRANCH   4   5
ATOM      5  C   UNL A   1      33.522  25.183  23.159  1.00  0.00     0.344 C 
ATOM      6  O   UNL A   1      33.574  24.598  22.096  1.00  0.00    -0.246 OA
BRANCH   5   7
ATOM      7  C   UNL A   1      33.395  24.557  24.479  1.00  0.00     0.127 A 
ATOM      8  C   UNL A   1      33.228  22.164  27.968  1.00  0.00     0.068 C 
ATOM      9  C   UNL A   1      33.190  23.084  26.779  1.00  0.00     0.060 A 
ATOM     10  N   UNL A   1      34.411  23.538  26.386  1.00  0.00    -0.216 NA
ATOM     11  C   UNL A   1      32.009  23.431  26.114  1.00  0.00     0.066 A 
ATOM     12  C   UNL A   1      34.520  24.278  25.255  1.00  0.00     0.234 A 
ATOM     13  C   UNL A   1      32.102  24.173  24.927  1.00  0.00    -0.011 A 
ATOM     14  Cl  UNL A   1      30.470  22.933  26.734  1.00  0.00    -0.082 Cl
ATOM     15  C   UNL A   1      30.873  24.595  24.152  1.00  0.00     0.047 C 
BRANCH  12  16
ATOM     16  O   UNL A   1      35.838  24.565  24.975  1.00  0.00    -0.438 OA
BRANCH  16  17
ATOM     17  C   UNL A   1      36.834  23.672  25.271  1.00  0.00     0.129 A 
ATOM     18  C   UNL A   1      36.736  22.393  24.717  1.00  0.00     0.050 A 
ATOM     19  C   UNL A   1      37.845  23.954  26.191  1.00  0.00     0.050 A 
ATOM     20  C   UNL A   1      37.719  21.436  24.972  1.00  0.00     0.043 A 
ATOM     21  C   UNL A   1      38.823  22.984  26.460  1.00  0.00     0.043 A 
ATOM     22  C   UNL A   1      38.767  21.747  25.827  1.00  0.00     0.123 A 
ATOM     23  F   UNL A   1      39.742  20.852  26.027  1.00  0.00    -0.207 F 
ENDBRANCH  16  17
ENDBRANCH  12  16
ENDBRANCH   5   7
ENDBRANCH   4   5
ENDBRANCH   3   4
ENDBRANCH   2   3
ENDBRANCH   1   2
BRANCH   1  24
ATOM     24  C   UNL A   1      31.493  29.218  25.096  1.00  0.00     0.202 C 
BRANCH  24  25
ATOM     25  C   UNL A   1      31.867  30.415  25.969  1.00  0.00     0.261 C 
BRANCH  25  26
ATOM     26  O   UNL A   1      33.252  30.447  26.303  1.00  0.00    -0.460 OA
BRANCH  26  27
ATOM     27  C   UNL A   1      33.587  31.441  27.157  1.00  0.00     0.338 C 
ATOM     28  O   UNL A   1      32.929  32.408  27.499  1.00  0.00    -0.246 OA
BRANCH  27  29
ATOM     29  C   UNL A   1      34.865  31.060  27.762  1.00  0.00     0.060 A 
ATOM     30  C   UNL A   1      35.072  29.713  28.088  1.00  0.00     0.016 A 
ATOM     31  C   UNL A   1      35.852  32.025  27.969  1.00  0.00     0.016 A 
ATOM     32  C   UNL A   1      36.283  29.326  28.639  1.00  0.00     0.010 A 
ATOM     33  C   UNL A   1      37.053  31.642  28.549  1.00  0.00     0.010 A 
ATOM     34  C   UNL A   1      37.253  30.299  28.909  1.00  0.00    -0.014 A 
BRANCH  34  35
ATOM     35  C   UNL A   1      38.383  29.960  29.788  1.00  0.00     0.031 A 
ATOM     36  C   UNL A   1      39.392  28.986  29.263  1.00  0.00     0.074 A 
ATOM     37  C   UNL A   1      38.488  30.513  31.006  1.00  0.00     0.049 A 
ATOM     38  N   UNL A   1      40.459  28.507  29.842  1.00  0.00    -0.248 NA
ATOM     39  C   UNL A   1      39.165  28.478  27.898  1.00  0.00     0.031 C 
ATOM     40  C   UNL A   1      37.562  31.492  31.571  1.00  0.00     0.029 A 
ATOM     41  N   UNL A   1      39.423  30.321  31.987  1.00  0.00    -0.354 N 
ATOM     42  C   UNL A   1      41.036  27.660  28.908  1.00  0.00     0.074 A 
ATOM     43  C   UNL A   1      40.183  27.647  27.743  1.00  0.00     0.031 C 
ATOM     44  C   UNL A   1      37.975  31.813  32.808  1.00  0.00     0.029 A 
ATOM     45  C   UNL A   1      39.177  31.044  33.125  1.00  0.00     0.049 A 
ATOM     46  H   UNL A   1      40.196  29.721  31.885  1.00  0.00     0.167 HD
ATOM     47  C   UNL A   1      42.193  26.969  29.014  1.00  0.00     0.037 A 
ATOM     48  C   UNL A   1      39.854  31.064  34.289  1.00  0.00     0.037 A 
ATOM     49  C   UNL A   1      43.011  26.979  30.194  1.00  0.00     0.049 A 
ATOM     50  C   UNL A   1      41.088  30.209  34.417  1.00  0.00     0.074 A 
ATOM     51  C   UNL A   1      44.198  26.314  30.425  1.00  0.00     0.029 A 
ATOM     52  N   UNL A   1      42.710  27.689  31.349  1.00  0.00    -0.354 N 
ATOM     53  N   UNL A   1      41.652  29.433  33.522  1.00  0.00    -0.248 NA
ATOM     54  C   UNL A   1      41.781  30.231  35.713  1.00  0.00     0.031 C 
ATOM     55  C   UNL A   1      44.593  26.582  31.739  1.00  0.00     0.029 A 
ATOM     56  C   UNL A   1      43.679  27.458  32.308  1.00  0.00     0.049 A 
ATOM     57  H   UNL A   1      41.924  28.271  31.468  1.00  0.00     0.167 HD
ATOM     58  C   UNL A   1      42.777  28.896  34.132  1.00  0.00     0.074 A 
ATOM     59  C   UNL A   1      42.820  29.442  35.474  1.00  0.00     0.031 C 
ATOM     60  C   UNL A   1      43.693  28.031  33.631  1.00  0.00     0.037 A 
BRANCH  47  61
ATOM     61  C   UNL A   1      42.624  26.149  27.837  1.00  0.00     0.064 A 
ATOM     62  C   UNL A   1      42.155  24.841  27.647  1.00  0.00     0.173 A 
ATOM     63  C   UNL A   1      43.489  26.684  26.872  1.00  0.00     0.173 A 
ATOM     64  F   UNL A   1      41.345  24.274  28.554  1.00  0.00    -0.203 F 
ATOM     65  C   UNL A   1      42.546  24.094  26.539  1.00  0.00     0.198 A 
ATOM     66  C   UNL A   1      43.855  25.946  25.751  1.00  0.00     0.198 A 
ATOM     67  F   UNL A   1      43.972  27.928  27.011  1.00  0.00    -0.203 F 
ATOM     68  F   UNL A   1      42.116  22.832  26.396  1.00  0.00    -0.200 F 
ATOM     69  C   UNL A   1      43.387  24.651  25.587  1.00  0.00     0.200 A 
ATOM     70  F   UNL A   1      44.663  26.487  24.828  1.00  0.00    -0.200 F 
ATOM     71  F   UNL A   1      43.752  23.935  24.513  1.00  0.00    -0.200 F 
ENDBRANCH  47  61
BRANCH  48  72
ATOM     72  C   UNL A   1      39.391  31.936  35.398  1.00  0.00     0.064 A 
ATOM     73  C   UNL A   1      39.774  33.283  35.459  1.00  0.00     0.173 A 
ATOM     74  C   UNL A   1      38.533  31.457  36.400  1.00  0.00     0.173 A 
ATOM     75  F   UNL A   1      40.606  33.784  34.534  1.00  0.00    -0.203 F 
ATOM     76  C   UNL A   1      39.323  34.114  36.482  1.00  0.00     0.198 A 
ATOM     77  C   UNL A   1      38.064  32.295  37.409  1.00  0.00     0.198 A 
ATOM     78  F   UNL A   1      38.134  30.176  36.386  1.00  0.00    -0.203 F 
ATOM     79  F   UNL A   1      39.726  35.391  36.532  1.00  0.00    -0.200 F 
ATOM     80  C   UNL A   1      38.461  33.623  37.451  1.00  0.00     0.200 A 
ATOM     81  F   UNL A   1      37.220  31.820  38.335  1.00  0.00    -0.200 F 
ATOM     82  F   UNL A   1      38.017  34.427  38.427  1.00  0.00    -0.200 F 
ENDBRANCH  48  72
BRANCH  60  83
ATOM     83  C   UNL A   1      44.831  27.630  34.521  1.00  0.00     0.064 A 
ATOM     84  C   UNL A   1      44.743  26.509  35.357  1.00  0.00     0.173 A 
ATOM     85  C   UNL A   1      46.060  28.304  34.443  1.00  0.00     0.173 A 
ATOM     86  F   UNL A   1      43.586  25.839  35.468  1.00  0.00    -0.203 F 
ATOM     87  C   UNL A   1      45.846  26.079  36.089  1.00  0.00     0.198 A 
ATOM     88  C   UNL A   1      47.167  27.853  35.153  1.00  0.00     0.198 A 
ATOM     89  F   UNL A   1      46.195  29.375  33.647  1.00  0.00    -0.203 F 
ATOM     90  F   UNL A   1      45.735  25.017  36.899  1.00  0.00    -0.200 F 
ATOM     91  C   UNL A   1      47.059  26.742  35.976  1.00  0.00     0.200 A 
ATOM     92  F   UNL A   1      48.344  28.482  35.026  1.00  0.00    -0.200 F 
ATOM     93  F   UNL A   1      48.127  26.307  36.658  1.00  0.00    -0.200 F 
ENDBRANCH  60  83
ENDBRANCH  34  35
ENDBRANCH  27  29
ENDBRANCH  26  27
ENDBRANCH  25  26
ENDBRANCH  24  25
ENDBRANCH   1  24
TORSDOF 16
ENDMDL
MODEL 2
REMARK VINA RESULT:     -11.6      0.432      2.033
REMARK SMILES Cc1nc(Oc2ccc(F)cc2)c(C(=O)OCCOCCOC(=O)c2ccc(-c3c4nc(c(-c5c(F)c(F)c(F)c(F)c5F)c5ccc([nH]5)c(-c5c(F)c(F)c(F)c(F)c5F)c5nc(c(-c6c(F)c(F)c(F)c(F)c6F)c6ccc3[nH]6)C=C5)C=C4)cc2)c(C)c1Cl
REMARK SMILES IDX 19 1 18 2 17 3 16 4 14 5 15 6 13 7 1 8 2 9 3 10 90 11 4 12
REMARK SMILES IDX 88 13 91 14 89 15 5 16 6 17 7 18 12 19 8 20 11 21 9 22 10 23
REMARK SMILES IDX 20 24 21 25 22 26 23 27 24 28 25 29 26 30 87 31 27 32 86 33
REMARK SMILES IDX 28 34 29 35 30 36 80 37 31 38 85 39 79 40 81 41 32 42 84 43
REMARK SMILES IDX 78 44 77 45 33 47 65 48 45 49 64 50 46 51 49 52 63 53 82 54
REMARK SMILES IDX 47 55 48 56 62 58 83 59 50 60 34 61 35 62 43 63 36 64 37 65
REMARK SMILES IDX 41 66 44 67 38 68 39 69 42 70 40 71 66 72 67 73 75 74 68 75
REMARK SMILES IDX 69 76 73 77 76 78 70 79 71 80 74 81 72 82 51 83 52 84 60 85
REMARK SMILES IDX 53 86 54 87 58 88 61 89 55 90 56 91 59 92 57 93
REMARK H PARENT 81 46 49 57
REMARK Flexibility Score: inf
ROOT
ATOM      1  O   UNL A   1      31.323  27.951  24.863  1.00  0.00    -0.374 OA
ENDROOT
BRANCH   1   2
ATOM      2  C   UNL A   1      32.170  27.955  23.708  1.00  0.00     0.202 C 
BRANCH   2   3
ATOM      3  C   UNL A   1      33.254  26.884  23.649  1.00  0.00     0.261 C 
BRANCH   3   4
ATOM      4  O   UNL A   1      32.750  25.818  22.843  1.00  0.00    -0.459 OA
BRANCH   4   5
ATOM      5  C   UNL A   1      33.388  24.639  22.934  1.00  0.00     0.344 C 
ATOM      6  O   UNL A   1      33.989  24.042  22.063  1.00  0.00    -0.246 OA
BRANCH   5   7
ATOM      7  C   UNL A   1      33.203  24.187  24.316  1.00  0.00     0.127 A 
ATOM      8  C   UNL A   1      32.928  22.273  28.083  1.00  0.00     0.068 C 
ATOM      9  C   UNL A   1      32.921  23.021  26.779  1.00  0.00     0.060 A 
ATOM     10  N   UNL A   1      34.137  23.507  26.407  1.00  0.00    -0.216 NA
ATOM     11  C   UNL A   1      31.773  23.189  25.997  1.00  0.00     0.066 A 
ATOM     12  C   UNL A   1      34.283  24.096  25.195  1.00  0.00     0.234 A 
ATOM     13  C   UNL A   1      31.907  23.772  24.728  1.00  0.00    -0.011 A 
ATOM     14  Cl  UNL A   1      30.227  22.668  26.577  1.00  0.00    -0.082 Cl
ATOM     15  C   UNL A   1      30.715  23.996  23.823  1.00  0.00     0.047 C 
BRANCH  12  16
ATOM     16  O   UNL A   1      35.597  24.439  24.965  1.00  0.00    -0.438 OA
BRANCH  16  17
ATOM     17  C   UNL A   1      36.615  23.567  25.249  1.00  0.00     0.129 A 
ATOM     18  C   UNL A   1      37.649  24.031  26.066  1.00  0.00     0.050 A 
ATOM     19  C   UNL A   1      36.712  22.308  24.655  1.00  0.00     0.050 A 
ATOM     20  C   UNL A   1      38.713  23.194  26.402  1.00  0.00     0.043 A 
ATOM     21  C   UNL A   1      37.793  21.474  24.979  1.00  0.00     0.043 A 
ATOM     22  C   UNL A   1      38.766  21.914  25.871  1.00  0.00     0.123 A 
ATOM     23  F   UNL A   1      39.755  21.088  26.237  1.00  0.00    -0.207 F 
ENDBRANCH  16  17
ENDBRANCH  12  16
ENDBRANCH   5   7
ENDBRANCH   4   5
ENDBRANCH   3   4
ENDBRANCH   2   3
ENDBRANCH   1   2
BRANCH   1  24
ATOM     24  C   UNL A   1      31.831  28.518  26.071  1.00  0.00     0.202 C 
BRANCH  24  25
ATOM     25  C   UNL A   1      31.874  30.042  26.184  1.00  0.00     0.261 C 
BRANCH  25  26
ATOM     26  O   UNL A   1      33.198  30.565  26.143  1.00  0.00    -0.460 OA
BRANCH  26  27
ATOM     27  C   UNL A   1      33.454  31.486  27.100  1.00  0.00     0.338 C 
ATOM     28  O   UNL A   1      32.734  32.378  27.514  1.00  0.00    -0.246 OA
BRANCH  27  29
ATOM     29  C   UNL A   1      34.734  31.114  27.707  1.00  0.00     0.060 A 
ATOM     30  C   UNL A   1      34.962  29.765  28.006  1.00  0.00     0.016 A 
ATOM     31  C   UNL A   1      35.703  32.091  27.941  1.00  0.00     0.016 A 
ATOM     32  C   UNL A   1      36.176  29.386  28.559  1.00  0.00     0.010 A 
ATOM     33  C   UNL A   1      36.906  31.717  28.521  1.00  0.00     0.010 A 
ATOM     34  C   UNL A   1      37.127  30.370  28.855  1.00  0.00    -0.014 A 
BRANCH  34  35
ATOM     35  C   UNL A   1      38.256  30.032  29.736  1.00  0.00     0.031 A 
ATOM     36  C   UNL A   1      39.277  29.074  29.204  1.00  0.00     0.074 A 
ATOM     37  C   UNL A   1      38.351  30.572  30.960  1.00  0.00     0.049 A 
ATOM     38  N   UNL A   1      40.346  28.599  29.783  1.00  0.00    -0.248 NA
ATOM     39  C   UNL A   1      39.060  28.579  27.833  1.00  0.00     0.031 C 
ATOM     40  C   UNL A   1      37.413  31.537  31.532  1.00  0.00     0.029 A 
ATOM     41  N   UNL A   1      39.283  30.378  31.943  1.00  0.00    -0.354 N 
ATOM     42  C   UNL A   1      40.935  27.767  28.841  1.00  0.00     0.074 A 
ATOM     43  C   UNL A   1      40.087  27.760  27.672  1.00  0.00     0.031 C 
ATOM     44  C   UNL A   1      37.818  31.848  32.774  1.00  0.00     0.029 A 
ATOM     45  C   UNL A   1      39.025  31.086  33.088  1.00  0.00     0.049 A 
ATOM     46  H   UNL A   1      40.063  29.787  31.837  1.00  0.00     0.167 HD
ATOM     47  C   UNL A   1      42.098  27.086  28.945  1.00  0.00     0.037 A 
ATOM     48  C   UNL A   1      39.697  31.100  34.255  1.00  0.00     0.037 A 
ATOM     49  C   UNL A   1      42.911  27.092  30.128  1.00  0.00     0.049 A 
ATOM     50  C   UNL A   1      40.939  30.256  34.379  1.00  0.00     0.074 A 
ATOM     51  C   UNL A   1      44.104  26.435  30.357  1.00  0.00     0.029 A 
ATOM     52  N   UNL A   1      42.598  27.786  31.290  1.00  0.00    -0.354 N 
ATOM     53  N   UNL A   1      41.514  29.495  33.478  1.00  0.00    -0.248 NA
ATOM     54  C   UNL A   1      41.626  30.269  35.677  1.00  0.00     0.031 C 
ATOM     55  C   UNL A   1      44.490  26.692  31.675  1.00  0.00     0.029 A 
ATOM     56  C   UNL A   1      43.565  27.553  32.250  1.00  0.00     0.049 A 
ATOM     57  H   UNL A   1      41.807  28.358  31.411  1.00  0.00     0.167 HD
ATOM     58  C   UNL A   1      42.642  28.962  34.087  1.00  0.00     0.074 A 
ATOM     59  C   UNL A   1      42.674  29.493  35.435  1.00  0.00     0.031 C 
ATOM     60  C   UNL A   1      43.569  28.111  33.580  1.00  0.00     0.037 A 
BRANCH  47  61
ATOM     61  C   UNL A   1      42.542  26.284  27.760  1.00  0.00     0.064 A 
ATOM     62  C   UNL A   1      43.468  26.795  26.839  1.00  0.00     0.173 A 
ATOM     63  C   UNL A   1      42.064  24.982  27.559  1.00  0.00     0.173 A 
ATOM     64  F   UNL A   1      43.938  28.045  26.974  1.00  0.00    -0.203 F 
ATOM     65  C   UNL A   1      43.891  26.034  25.752  1.00  0.00     0.198 A 
ATOM     66  C   UNL A   1      42.509  24.213  26.488  1.00  0.00     0.198 A 
ATOM     67  F   UNL A   1      41.171  24.450  28.407  1.00  0.00    -0.203 F 
ATOM     68  F   UNL A   1      44.747  26.555  24.862  1.00  0.00    -0.200 F 
ATOM     69  C   UNL A   1      43.419  24.741  25.583  1.00  0.00     0.200 A 
ATOM     70  F   UNL A   1      42.058  22.961  26.329  1.00  0.00    -0.200 F 
ATOM     71  F   UNL A   1      43.836  24.005  24.544  1.00  0.00    -0.200 F 
ENDBRANCH  47  61
BRANCH  48  72
ATOM     72  C   UNL A   1      39.221  31.955  35.372  1.00  0.00     0.064 A 
ATOM     73  C   UNL A   1      38.414  31.426  36.387  1.00  0.00     0.173 A 
ATOM     74  C   UNL A   1      39.585  33.307  35.467  1.00  0.00     0.173 A 
ATOM     75  F   UNL A   1      38.024  30.143  36.332  1.00  0.00    -0.203 F 
ATOM     76  C   UNL A   1      37.984  32.216  37.452  1.00  0.00     0.198 A 
ATOM     77  C   UNL A   1      39.175  34.090  36.545  1.00  0.00     0.198 A 
ATOM     78  F   UNL A   1      40.360  33.862  34.523  1.00  0.00    -0.203 F 
ATOM     79  F   UNL A   1      37.191  31.690  38.395  1.00  0.00    -0.200 F 
ATOM     80  C   UNL A   1      38.372  33.544  37.535  1.00  0.00     0.200 A 
ATOM     81  F   UNL A   1      39.564  35.369  36.628  1.00  0.00    -0.200 F 
ATOM     82  F   UNL A   1      37.970  34.299  38.566  1.00  0.00    -0.200 F 
ENDBRANCH  48  72
BRANCH  60  83
ATOM     83  C   UNL A   1      44.707  27.712  34.470  1.00  0.00     0.064 A 
ATOM     84  C   UNL A   1      45.796  28.566  34.690  1.00  0.00     0.173 A 
ATOM     85  C   UNL A   1      44.645  26.515  35.201  1.00  0.00     0.173 A 
ATOM     86  F   UNL A   1      45.900  29.716  34.007  1.00  0.00    -0.203 F 
ATOM     87  C   UNL A   1      46.786  28.234  35.609  1.00  0.00     0.198 A 
ATOM     88  C   UNL A   1      45.621  26.201  36.140  1.00  0.00     0.198 A 
ATOM     89  F   UNL A   1      43.615  25.672  35.033  1.00  0.00    -0.203 F 
ATOM     90  F   UNL A   1      47.830  29.054  35.789  1.00  0.00    -0.200 F 
ATOM     91  C   UNL A   1      46.691  27.060  36.342  1.00  0.00     0.200 A 
ATOM     92  F   UNL A   1      45.517  25.078  36.863  1.00  0.00    -0.200 F 
ATOM     93  F   UNL A   1      47.631  26.757  37.248  1.00  0.00    -0.200 F 
ENDBRANCH  60  83
ENDBRANCH  34  35
ENDBRANCH  27  29
ENDBRANCH  26  27
ENDBRANCH  25  26
ENDBRANCH  24  25
ENDBRANCH   1  24
TORSDOF 16
ENDMDL
MODEL 3
REMARK VINA RESULT:     -11.5      4.599      7.781
REMARK SMILES Cc1nc(Oc2ccc(F)cc2)c(C(=O)OCCOCCOC(=O)c2ccc(-c3c4nc(c(-c5c(F)c(F)c(F)c(F)c5F)c5ccc([nH]5)c(-c5c(F)c(F)c(F)c(F)c5F)c5nc(c(-c6c(F)c(F)c(F)c(F)c6F)c6ccc3[nH]6)C=C5)C=C4)cc2)c(C)c1Cl
REMARK SMILES IDX 19 1 18 2 17 3 16 4 14 5 15 6 13 7 1 8 2 9 3 10 90 11 4 12
REMARK SMILES IDX 88 13 91 14 89 15 5 16 6 17 7 18 12 19 8 20 11 21 9 22 10 23
REMARK SMILES IDX 20 24 21 25 22 26 23 27 24 28 25 29 26 30 87 31 27 32 86 33
REMARK SMILES IDX 28 34 29 35 30 36 80 37 31 38 85 39 79 40 81 41 32 42 84 43
REMARK SMILES IDX 78 44 77 45 33 47 65 48 45 49 64 50 46 51 49 52 63 53 82 54
REMARK SMILES IDX 47 55 48 56 62 58 83 59 50 60 34 61 35 62 43 63 36 64 37 65
REMARK SMILES IDX 41 66 44 67 38 68 39 69 42 70 40 71 66 72 67 73 75 74 68 75
REMARK SMILES IDX 69 76 73 77 76 78 70 79 71 80 74 81 72 82 51 83 52 84 60 85
REMARK SMILES IDX 53 86 54 87 58 88 61 89 55 90 56 91 59 92 57 93
REMARK H PARENT 81 46 49 57
REMARK Flexibility Score: inf
ROOT
ATOM      1  O   UNL A   1      38.474  21.860  25.538  1.00  0.00    -0.374 OA
ENDROOT
BRANCH   1   2
ATOM      2  C   UNL A   1      37.447  22.855  25.468  1.00  0.00     0.202 C 
BRANCH   2   3
ATOM      3  C   UNL A   1      36.794  23.072  24.106  1.00  0.00     0.261 C 
BRANCH   3   4
ATOM      4  O   UNL A   1      35.628  23.868  24.319  1.00  0.00    -0.459 OA
BRANCH   4   5
ATOM      5  C   UNL A   1      34.529  23.528  23.626  1.00  0.00     0.344 C 
ATOM      6  O   UNL A   1      34.433  23.300  22.436  1.00  0.00    -0.246 OA
BRANCH   5   7
ATOM      7  C   UNL A   1      33.432  23.497  24.599  1.00  0.00     0.127 A 
ATOM      8  C   UNL A   1      29.958  22.969  26.959  1.00  0.00     0.068 C 
ATOM      9  C   UNL A   1      31.199  23.278  26.169  1.00  0.00     0.060 A 
ATOM     10  N   UNL A   1      32.154  22.310  26.231  1.00  0.00    -0.216 NA
ATOM     11  C   UNL A   1      31.358  24.444  25.414  1.00  0.00     0.066 A 
ATOM     12  C   UNL A   1      33.269  22.417  25.465  1.00  0.00     0.234 A 
ATOM     13  C   UNL A   1      32.491  24.563  24.594  1.00  0.00    -0.011 A 
ATOM     14  Cl  UNL A   1      30.170  25.702  25.474  1.00  0.00    -0.082 Cl
ATOM     15  C   UNL A   1      32.741  25.794  23.752  1.00  0.00     0.047 C 
BRANCH  12  16
ATOM     16  O   UNL A   1      34.069  21.303  25.597  1.00  0.00    -0.438 OA
BRANCH  16  17
ATOM     17  C   UNL A   1      33.786  20.145  24.922  1.00  0.00     0.129 A 
ATOM     18  C   UNL A   1      34.771  19.154  24.905  1.00  0.00     0.050 A 
ATOM     19  C   UNL A   1      32.627  19.985  24.161  1.00  0.00     0.050 A 
ATOM     20  C   UNL A   1      34.546  17.947  24.243  1.00  0.00     0.043 A 
ATOM     21  C   UNL A   1      32.411  18.777  23.480  1.00  0.00     0.043 A 
ATOM     22  C   UNL A   1      33.358  17.761  23.551  1.00  0.00     0.123 A 
ATOM     23  F   UNL A   1      33.114  16.582  22.964  1.00  0.00    -0.207 F 
ENDBRANCH  16  17
ENDBRANCH  12  16
ENDBRANCH   5   7
ENDBRANCH   4   5
ENDBRANCH   3   4
ENDBRANCH   2   3
ENDBRANCH   1   2
BRANCH   1  24
ATOM     24  C   UNL A   1      38.156  20.535  25.111  1.00  0.00     0.202 C 
BRANCH  24  25
ATOM     25  C   UNL A   1      39.177  19.430  25.385  1.00  0.00     0.261 C 
BRANCH  25  26
ATOM     26  O   UNL A   1      40.022  19.718  26.496  1.00  0.00    -0.460 OA
BRANCH  26  27
ATOM     27  C   UNL A   1      41.342  19.599  26.225  1.00  0.00     0.338 C 
ATOM     28  O   UNL A   1      41.938  18.662  25.724  1.00  0.00    -0.246 OA
BRANCH  27  29
ATOM     29  C   UNL A   1      41.941  20.910  26.489  1.00  0.00     0.060 A 
ATOM     30  C   UNL A   1      42.261  21.241  27.812  1.00  0.00     0.016 A 
ATOM     31  C   UNL A   1      42.211  21.778  25.430  1.00  0.00     0.016 A 
ATOM     32  C   UNL A   1      42.851  22.466  28.083  1.00  0.00     0.010 A 
ATOM     33  C   UNL A   1      42.774  23.015  25.704  1.00  0.00     0.010 A 
ATOM     34  C   UNL A   1      43.065  23.367  27.033  1.00  0.00    -0.014 A 
BRANCH  34  35
ATOM     35  C   UNL A   1      43.369  24.772  27.346  1.00  0.00     0.031 A 
ATOM     36  C   UNL A   1      44.770  25.241  27.104  1.00  0.00     0.074 A 
ATOM     37  C   UNL A   1      42.416  25.584  27.825  1.00  0.00     0.049 A 
ATOM     38  N   UNL A   1      45.298  26.415  27.316  1.00  0.00    -0.248 NA
ATOM     39  C   UNL A   1      45.707  24.248  26.548  1.00  0.00     0.031 C 
ATOM     40  C   UNL A   1      41.022  25.207  28.057  1.00  0.00     0.029 A 
ATOM     41  N   UNL A   1      42.482  26.896  28.209  1.00  0.00    -0.354 N 
ATOM     42  C   UNL A   1      46.619  26.305  26.905  1.00  0.00     0.074 A 
ATOM     43  C   UNL A   1      46.831  24.943  26.475  1.00  0.00     0.031 C 
ATOM     44  C   UNL A   1      40.363  26.269  28.550  1.00  0.00     0.029 A 
ATOM     45  C   UNL A   1      41.295  27.386  28.689  1.00  0.00     0.049 A 
ATOM     46  H   UNL A   1      43.303  27.436  28.147  1.00  0.00     0.167 HD
ATOM     47  C   UNL A   1      47.563  27.271  26.873  1.00  0.00     0.037 A 
ATOM     48  C   UNL A   1      41.012  28.604  29.189  1.00  0.00     0.037 A 
ATOM     49  C   UNL A   1      47.333  28.613  27.328  1.00  0.00     0.049 A 
ATOM     50  C   UNL A   1      42.108  29.636  29.233  1.00  0.00     0.074 A 
ATOM     51  C   UNL A   1      48.212  29.678  27.354  1.00  0.00     0.029 A 
ATOM     52  N   UNL A   1      46.128  29.067  27.851  1.00  0.00    -0.354 N 
ATOM     53  N   UNL A   1      43.348  29.542  28.814  1.00  0.00    -0.248 NA
ATOM     54  C   UNL A   1      41.771  30.941  29.816  1.00  0.00     0.031 C 
ATOM     55  C   UNL A   1      47.556  30.763  27.938  1.00  0.00     0.029 A 
ATOM     56  C   UNL A   1      46.249  30.392  28.226  1.00  0.00     0.049 A 
ATOM     57  H   UNL A   1      45.311  28.526  27.940  1.00  0.00     0.167 HD
ATOM     58  C   UNL A   1      43.932  30.778  29.056  1.00  0.00     0.074 A 
ATOM     59  C   UNL A   1      42.905  31.609  29.653  1.00  0.00     0.031 C 
ATOM     60  C   UNL A   1      45.199  31.191  28.807  1.00  0.00     0.037 A 
BRANCH  47  61
ATOM     61  C   UNL A   1      48.915  26.905  26.341  1.00  0.00     0.064 A 
ATOM     62  C   UNL A   1      49.898  26.345  27.169  1.00  0.00     0.173 A 
ATOM     63  C   UNL A   1      49.222  27.086  24.985  1.00  0.00     0.173 A 
ATOM     64  F   UNL A   1      49.662  26.174  28.479  1.00  0.00    -0.203 F 
ATOM     65  C   UNL A   1      51.145  25.989  26.661  1.00  0.00     0.198 A 
ATOM     66  C   UNL A   1      50.459  26.703  24.474  1.00  0.00     0.198 A 
ATOM     67  F   UNL A   1      48.319  27.625  24.152  1.00  0.00    -0.203 F 
ATOM     68  F   UNL A   1      52.083  25.491  27.478  1.00  0.00    -0.200 F 
ATOM     69  C   UNL A   1      51.420  26.159  25.312  1.00  0.00     0.200 A 
ATOM     70  F   UNL A   1      50.722  26.861  23.169  1.00  0.00    -0.200 F 
ATOM     71  F   UNL A   1      52.616  25.804  24.822  1.00  0.00    -0.200 F 
ENDBRANCH  47  61
BRANCH  48  72
ATOM     72  C   UNL A   1      39.635  28.909  29.657  1.00  0.00     0.064 A 
ATOM     73  C   UNL A   1      38.682  29.446  28.782  1.00  0.00     0.173 A 
ATOM     74  C   UNL A   1      39.232  28.641  30.974  1.00  0.00     0.173 A 
ATOM     75  F   UNL A   1      39.024  29.735  27.517  1.00  0.00    -0.203 F 
ATOM     76  C   UNL A   1      37.382  29.711  29.207  1.00  0.00     0.198 A 
ATOM     77  C   UNL A   1      37.925  28.883  31.391  1.00  0.00     0.198 A 
ATOM     78  F   UNL A   1      40.104  28.123  31.852  1.00  0.00    -0.203 F 
ATOM     79  F   UNL A   1      36.498  30.250  28.356  1.00  0.00    -0.200 F 
ATOM     80  C   UNL A   1      37.001  29.421  30.508  1.00  0.00     0.200 A 
ATOM     81  F   UNL A   1      37.558  28.588  32.646  1.00  0.00    -0.200 F 
ATOM     82  F   UNL A   1      35.746  29.663  30.911  1.00  0.00    -0.200 F 
ENDBRANCH  48  72
BRANCH  60  83
ATOM     83  C   UNL A   1      45.552  32.605  29.159  1.00  0.00     0.064 A 
ATOM     84  C   UNL A   1      46.170  32.921  30.377  1.00  0.00     0.173 A 
ATOM     85  C   UNL A   1      45.378  33.631  28.218  1.00  0.00     0.173 A 
ATOM     86  F   UNL A   1      46.348  31.973  31.309  1.00  0.00    -0.203 F 
ATOM     87  C   UNL A   1      46.598  34.218  30.642  1.00  0.00     0.198 A 
ATOM     88  C   UNL A   1      45.835  34.919  28.474  1.00  0.00     0.198 A 
ATOM     89  F   UNL A   1      44.803  33.373  27.034  1.00  0.00    -0.203 F 
ATOM     90  F   UNL A   1      47.168  34.504  31.820  1.00  0.00    -0.200 F 
ATOM     91  C   UNL A   1      46.443  35.212  29.686  1.00  0.00     0.200 A 
ATOM     92  F   UNL A   1      45.705  35.873  27.542  1.00  0.00    -0.200 F 
ATOM     93  F   UNL A   1      46.884  36.453  29.931  1.00  0.00    -0.200 F 
ENDBRANCH  60  83
ENDBRANCH  34  35
ENDBRANCH  27  29
ENDBRANCH  26  27
ENDBRANCH  25  26
ENDBRANCH  24  25
ENDBRANCH   1  24
TORSDOF 16
ENDMDL
