MODEL 1
REMARK VINA RESULT:     -10.4      0.000      0.000
REMARK SMILES CCC[NH2+]CC1CC[NH+](CC(C)(C)C(=O)OCCOCCOC(=O)c2ccc(-c3c4nc(c(-c5c(F)c(F)c(F)c(F)c5F)c5ccc([nH]5)c(-c5c(F)c(F)c(F)c(F)c5F)c5nc(c(-c6c(F)c(F)c(F)c(F)c6F)c6ccc3[nH]6)C=C5)C=C4)cc2)CC1
REMARK SMILES IDX 17 1 16 2 14 3 15 4 11 5 12 6 13 7 10 8 9 9 6 10 7 11 89 12
REMARK SMILES IDX 8 13 88 14 5 16 4 17 3 20 2 21 1 22 18 23 19 24 20 25 21 26
REMARK SMILES IDX 22 27 23 28 24 29 25 30 26 31 87 32 27 33 86 34 28 35 29 36
REMARK SMILES IDX 30 37 80 38 31 39 85 40 79 41 81 42 32 43 84 44 78 45 77 46
REMARK SMILES IDX 33 48 65 49 45 50 64 51 46 52 49 53 63 54 82 55 47 56 48 57
REMARK SMILES IDX 62 59 83 60 50 61 34 62 35 63 43 64 36 65 37 66 41 67 44 68
REMARK SMILES IDX 38 69 39 70 42 71 40 72 66 73 67 74 75 75 68 76 69 77 73 78
REMARK SMILES IDX 76 79 70 80 71 81 74 82 72 83 51 84 52 85 60 86 53 87 54 88
REMARK SMILES IDX 58 89 61 90 55 91 56 92 59 93 57 94
REMARK H PARENT 9 15 4 18 4 19 81 47 49 58
REMARK Flexibility Score: inf
ROOT
ATOM      1  C   UNL A   1      36.913  23.704  25.211  1.00  0.00     0.261 C 
ENDROOT
BRANCH   1   2
ATOM      2  O   UNL A   1      35.552  24.019  24.884  1.00  0.00    -0.463 OA
BRANCH   2   3
ATOM      3  C   UNL A   1      35.111  23.538  23.691  1.00  0.00     0.317 C 
ATOM      4  O   UNL A   1      35.853  23.316  22.742  1.00  0.00    -0.251 OA
BRANCH   3   5
ATOM      5  C   UNL A   1      33.594  23.342  23.619  1.00  0.00     0.111 C 
ATOM      6  C   UNL A   1      33.257  22.313  24.721  1.00  0.00     0.029 C 
ATOM      7  C   UNL A   1      33.147  22.688  22.286  1.00  0.00     0.029 C 
BRANCH   5   8
ATOM      8  C   UNL A   1      32.800  24.698  23.751  1.00  0.00     0.280 C 
BRANCH   8   9
ATOM      9  N   UNL A   1      33.396  26.048  23.697  1.00  0.00    -0.334 N 
ATOM     10  C   UNL A   1      33.108  28.981  23.481  1.00  0.00     0.055 C 
ATOM     11  C   UNL A   1      33.767  28.157  22.371  1.00  0.00     0.071 C 
ATOM     12  C   UNL A   1      33.526  28.332  24.806  1.00  0.00     0.071 C 
ATOM     13  C   UNL A   1      33.296  26.703  22.400  1.00  0.00     0.262 C 
ATOM     14  C   UNL A   1      33.127  26.853  24.891  1.00  0.00     0.262 C 
ATOM     15  H   UNL A   1      34.406  25.916  23.756  1.00  0.00     0.348 HD
BRANCH  10  16
ATOM     16  C   UNL A   1      31.568  29.056  23.326  1.00  0.00     0.264 C 
BRANCH  16  17
ATOM     17  N   UNL A   1      31.109  29.634  22.065  1.00  0.00    -0.346 N 
ATOM     18  H   UNL A   1      31.527  30.559  21.960  1.00  0.00     0.346 HD
ATOM     19  H   UNL A   1      31.394  29.002  21.316  1.00  0.00     0.346 HD
BRANCH  17  20
ATOM     20  C   UNL A   1      29.659  29.768  21.994  1.00  0.00     0.260 C 
BRANCH  20  21
ATOM     21  C   UNL A   1      29.158  30.812  22.995  1.00  0.00     0.058 C 
ATOM     22  C   UNL A   1      27.671  30.697  23.301  1.00  0.00     0.010 C 
ENDBRANCH  20  21
ENDBRANCH  17  20
ENDBRANCH  16  17
ENDBRANCH  10  16
ENDBRANCH   8   9
ENDBRANCH   5   8
ENDBRANCH   3   5
ENDBRANCH   2   3
ENDBRANCH   1   2
BRANCH   1  23
ATOM     23  C   UNL A   1      37.118  22.241  25.636  1.00  0.00     0.202 C 
BRANCH  23  24
ATOM     24  O   UNL A   1      37.774  21.353  24.741  1.00  0.00    -0.374 OA
BRANCH  24  25
ATOM     25  C   UNL A   1      37.716  19.952  25.003  1.00  0.00     0.202 C 
BRANCH  25  26
ATOM     26  C   UNL A   1      39.003  19.202  25.377  1.00  0.00     0.261 C 
BRANCH  26  27
ATOM     27  O   UNL A   1      39.878  19.963  26.231  1.00  0.00    -0.460 OA
BRANCH  27  28
ATOM     28  C   UNL A   1      41.187  19.612  26.157  1.00  0.00     0.338 C 
ATOM     29  O   UNL A   1      41.652  18.566  25.748  1.00  0.00    -0.246 OA
BRANCH  28  30
ATOM     30  C   UNL A   1      42.035  20.777  26.463  1.00  0.00     0.060 A 
ATOM     31  C   UNL A   1      42.007  21.272  27.773  1.00  0.00     0.016 A 
ATOM     32  C   UNL A   1      42.751  21.439  25.464  1.00  0.00     0.016 A 
ATOM     33  C   UNL A   1      42.669  22.457  28.083  1.00  0.00     0.010 A 
ATOM     34  C   UNL A   1      43.399  22.638  25.774  1.00  0.00     0.010 A 
ATOM     35  C   UNL A   1      43.329  23.169  27.076  1.00  0.00    -0.014 A 
BRANCH  35  36
ATOM     36  C   UNL A   1      43.782  24.553  27.350  1.00  0.00     0.031 A 
ATOM     37  C   UNL A   1      42.762  25.575  27.771  1.00  0.00     0.074 A 
ATOM     38  C   UNL A   1      45.082  24.881  27.271  1.00  0.00     0.049 A 
ATOM     39  N   UNL A   1      42.917  26.847  28.034  1.00  0.00    -0.248 NA
ATOM     40  C   UNL A   1      41.379  25.093  27.918  1.00  0.00     0.031 C 
ATOM     41  C   UNL A   1      46.165  23.962  26.926  1.00  0.00     0.029 A 
ATOM     42  N   UNL A   1      45.712  26.083  27.473  1.00  0.00    -0.354 N 
ATOM     43  C   UNL A   1      41.654  27.317  28.369  1.00  0.00     0.074 A 
ATOM     44  C   UNL A   1      40.738  26.205  28.250  1.00  0.00     0.031 C 
ATOM     45  C   UNL A   1      47.327  24.637  26.928  1.00  0.00     0.029 A 
ATOM     46  C   UNL A   1      47.064  26.041  27.241  1.00  0.00     0.049 A 
ATOM     47  H   UNL A   1      45.239  26.898  27.758  1.00  0.00     0.167 HD
ATOM     48  C   UNL A   1      41.294  28.567  28.749  1.00  0.00     0.037 A 
ATOM     49  C   UNL A   1      47.977  27.032  27.256  1.00  0.00     0.037 A 
ATOM     50  C   UNL A   1      42.211  29.669  28.866  1.00  0.00     0.049 A 
ATOM     51  C   UNL A   1      47.536  28.430  27.607  1.00  0.00     0.074 A 
ATOM     52  C   UNL A   1      41.951  30.971  29.255  1.00  0.00     0.029 A 
ATOM     53  N   UNL A   1      43.568  29.597  28.586  1.00  0.00    -0.354 N 
ATOM     54  N   UNL A   1      46.344  28.866  27.939  1.00  0.00    -0.248 NA
ATOM     55  C   UNL A   1      48.569  29.475  27.587  1.00  0.00     0.031 C 
ATOM     56  C   UNL A   1      43.141  31.700  29.158  1.00  0.00     0.029 A 
ATOM     57  C   UNL A   1      44.154  30.840  28.767  1.00  0.00     0.049 A 
ATOM     58  H   UNL A   1      44.044  28.784  28.302  1.00  0.00     0.167 HD
ATOM     59  C   UNL A   1      46.489  30.223  28.198  1.00  0.00     0.074 A 
ATOM     60  C   UNL A   1      47.889  30.536  27.996  1.00  0.00     0.031 C 
ATOM     61  C   UNL A   1      45.551  31.129  28.570  1.00  0.00     0.037 A 
BRANCH  48  62
ATOM     62  C   UNL A   1      39.842  28.813  29.036  1.00  0.00     0.064 A 
ATOM     63  C   UNL A   1      39.312  28.696  30.329  1.00  0.00     0.173 A 
ATOM     64  C   UNL A   1      38.973  29.206  28.006  1.00  0.00     0.173 A 
ATOM     65  F   UNL A   1      40.095  28.309  31.347  1.00  0.00    -0.203 F 
ATOM     66  C   UNL A   1      37.962  28.940  30.576  1.00  0.00     0.198 A 
ATOM     67  C   UNL A   1      37.632  29.477  28.261  1.00  0.00     0.198 A 
ATOM     68  F   UNL A   1      39.429  29.335  26.750  1.00  0.00    -0.203 F 
ATOM     69  F   UNL A   1      37.469  28.777  31.811  1.00  0.00    -0.200 F 
ATOM     70  C   UNL A   1      37.127  29.337  29.543  1.00  0.00     0.200 A 
ATOM     71  F   UNL A   1      36.829  29.872  27.263  1.00  0.00    -0.200 F 
ATOM     72  F   UNL A   1      35.830  29.579  29.784  1.00  0.00    -0.200 F 
ENDBRANCH  48  62
BRANCH  49  73
ATOM     73  C   UNL A   1      49.393  26.744  26.911  1.00  0.00     0.064 A 
ATOM     74  C   UNL A   1      49.823  26.706  25.577  1.00  0.00     0.173 A 
ATOM     75  C   UNL A   1      50.343  26.476  27.908  1.00  0.00     0.173 A 
ATOM     76  F   UNL A   1      48.948  26.928  24.585  1.00  0.00    -0.203 F 
ATOM     77  C   UNL A   1      51.141  26.389  25.253  1.00  0.00     0.198 A 
ATOM     78  C   UNL A   1      51.668  26.190  27.586  1.00  0.00     0.198 A 
ATOM     79  F   UNL A   1      49.983  26.497  29.200  1.00  0.00    -0.203 F 
ATOM     80  F   UNL A   1      51.513  26.307  23.969  1.00  0.00    -0.200 F 
ATOM     81  C   UNL A   1      52.064  26.137  26.259  1.00  0.00     0.200 A 
ATOM     82  F   UNL A   1      52.557  25.957  28.561  1.00  0.00    -0.200 F 
ATOM     83  F   UNL A   1      53.331  25.833  25.947  1.00  0.00    -0.200 F 
ENDBRANCH  49  73
BRANCH  61  84
ATOM     84  C   UNL A   1      46.012  32.536  28.824  1.00  0.00     0.064 A 
ATOM     85  C   UNL A   1      46.480  32.944  30.082  1.00  0.00     0.173 A 
ATOM     86  C   UNL A   1      46.026  33.475  27.782  1.00  0.00     0.173 A 
ATOM     87  F   UNL A   1      46.475  32.087  31.115  1.00  0.00    -0.203 F 
ATOM     88  C   UNL A   1      46.920  34.248  30.292  1.00  0.00     0.198 A 
ATOM     89  C   UNL A   1      46.497  34.768  27.987  1.00  0.00     0.198 A 
ATOM     90  F   UNL A   1      45.598  33.133  26.557  1.00  0.00    -0.203 F 
ATOM     91  F   UNL A   1      47.317  34.631  31.514  1.00  0.00    -0.200 F 
ATOM     92  C   UNL A   1      46.936  35.157  29.244  1.00  0.00     0.200 A 
ATOM     93  F   UNL A   1      46.527  35.640  26.969  1.00  0.00    -0.200 F 
ATOM     94  F   UNL A   1      47.368  36.409  29.447  1.00  0.00    -0.200 F 
ENDBRANCH  61  84
ENDBRANCH  35  36
ENDBRANCH  28  30
ENDBRANCH  27  28
ENDBRANCH  26  27
ENDBRANCH  25  26
ENDBRANCH  24  25
ENDBRANCH  23  24
ENDBRANCH   1  23
TORSDOF 20
ENDMDL
MODEL 2
REMARK VINA RESULT:     -10.3      1.709      7.545
REMARK SMILES CCC[NH2+]CC1CC[NH+](CC(C)(C)C(=O)OCCOCCOC(=O)c2ccc(-c3c4nc(c(-c5c(F)c(F)c(F)c(F)c5F)c5ccc([nH]5)c(-c5c(F)c(F)c(F)c(F)c5F)c5nc(c(-c6c(F)c(F)c(F)c(F)c6F)c6ccc3[nH]6)C=C5)C=C4)cc2)CC1
REMARK SMILES IDX 17 1 16 2 14 3 15 4 11 5 12 6 13 7 10 8 9 9 6 10 7 11 89 12
REMARK SMILES IDX 8 13 88 14 5 16 4 17 3 20 2 21 1 22 18 23 19 24 20 25 21 26
REMARK SMILES IDX 22 27 23 28 24 29 25 30 26 31 87 32 27 33 86 34 28 35 29 36
REMARK SMILES IDX 30 37 80 38 31 39 85 40 79 41 81 42 32 43 84 44 78 45 77 46
REMARK SMILES IDX 33 48 65 49 45 50 64 51 46 52 49 53 63 54 82 55 47 56 48 57
REMARK SMILES IDX 62 59 83 60 50 61 34 62 35 63 43 64 36 65 37 66 41 67 44 68
REMARK SMILES IDX 38 69 39 70 42 71 40 72 66 73 67 74 75 75 68 76 69 77 73 78
REMARK SMILES IDX 76 79 70 80 71 81 74 82 72 83 51 84 52 85 60 86 53 87 54 88
REMARK SMILES IDX 58 89 61 90 55 91 56 92 59 93 57 94
REMARK H PARENT 9 15 4 18 4 19 81 47 49 58
REMARK Flexibility Score: inf
ROOT
ATOM      1  C   UNL A   1      36.696  23.351  25.203  1.00  0.00     0.261 C 
ENDROOT
BRANCH   1   2
ATOM      2  O   UNL A   1      35.457  24.001  24.887  1.00  0.00    -0.463 OA
BRANCH   2   3
ATOM      3  C   UNL A   1      34.880  23.621  23.716  1.00  0.00     0.317 C 
ATOM      4  O   UNL A   1      35.517  23.420  22.689  1.00  0.00    -0.251 OA
BRANCH   3   5
ATOM      5  C   UNL A   1      33.354  23.513  23.778  1.00  0.00     0.111 C 
ATOM      6  C   UNL A   1      33.017  23.250  25.262  1.00  0.00     0.029 C 
ATOM      7  C   UNL A   1      32.819  22.281  23.004  1.00  0.00     0.029 C 
BRANCH   5   8
ATOM      8  C   UNL A   1      32.630  24.779  23.177  1.00  0.00     0.280 C 
BRANCH   8   9
ATOM      9  N   UNL A   1      32.530  26.099  23.832  1.00  0.00    -0.334 N 
ATOM     10  C   UNL A   1      31.695  28.934  23.794  1.00  0.00     0.055 C 
ATOM     11  C   UNL A   1      33.174  28.534  23.819  1.00  0.00     0.071 C 
ATOM     12  C   UNL A   1      30.958  27.914  24.670  1.00  0.00     0.071 C 
ATOM     13  C   UNL A   1      33.382  27.129  23.254  1.00  0.00     0.262 C 
ATOM     14  C   UNL A   1      31.159  26.470  24.192  1.00  0.00     0.262 C 
ATOM     15  H   UNL A   1      32.966  25.997  24.749  1.00  0.00     0.348 HD
BRANCH  10  16
ATOM     16  C   UNL A   1      31.123  28.991  22.355  1.00  0.00     0.264 C 
BRANCH  16  17
ATOM     17  N   UNL A   1      30.300  30.166  22.072  1.00  0.00    -0.346 N 
ATOM     18  H   UNL A   1      30.419  30.837  22.831  1.00  0.00     0.346 HD
ATOM     19  H   UNL A   1      30.609  30.548  21.177  1.00  0.00     0.346 HD
BRANCH  17  20
ATOM     20  C   UNL A   1      28.883  29.851  21.946  1.00  0.00     0.260 C 
BRANCH  20  21
ATOM     21  C   UNL A   1      28.061  30.610  22.990  1.00  0.00     0.058 C 
ATOM     22  C   UNL A   1      28.892  31.552  23.851  1.00  0.00     0.010 C 
ENDBRANCH  20  21
ENDBRANCH  17  20
ENDBRANCH  16  17
ENDBRANCH  10  16
ENDBRANCH   8   9
ENDBRANCH   5   8
ENDBRANCH   3   5
ENDBRANCH   2   3
ENDBRANCH   1   2
BRANCH   1  23
ATOM     23  C   UNL A   1      36.556  21.837  25.424  1.00  0.00     0.202 C 
BRANCH  23  24
ATOM     24  O   UNL A   1      37.157  20.950  24.490  1.00  0.00    -0.374 OA
BRANCH  24  25
ATOM     25  C   UNL A   1      37.552  19.654  24.936  1.00  0.00     0.202 C 
BRANCH  25  26
ATOM     26  C   UNL A   1      38.928  19.469  25.593  1.00  0.00     0.261 C 
BRANCH  26  27
ATOM     27  O   UNL A   1      39.596  20.715  25.874  1.00  0.00    -0.460 OA
BRANCH  27  28
ATOM     28  C   UNL A   1      40.477  20.664  26.905  1.00  0.00     0.338 C 
ATOM     29  O   UNL A   1      41.118  19.704  27.287  1.00  0.00    -0.246 OA
BRANCH  28  30
ATOM     30  C   UNL A   1      40.728  22.024  27.416  1.00  0.00     0.060 A 
ATOM     31  C   UNL A   1      39.983  23.072  26.859  1.00  0.00     0.016 A 
ATOM     32  C   UNL A   1      41.747  22.281  28.333  1.00  0.00     0.016 A 
ATOM     33  C   UNL A   1      40.280  24.390  27.192  1.00  0.00     0.010 A 
ATOM     34  C   UNL A   1      42.056  23.606  28.652  1.00  0.00     0.010 A 
ATOM     35  C   UNL A   1      41.347  24.665  28.054  1.00  0.00    -0.014 A 
BRANCH  35  36
ATOM     36  C   UNL A   1      41.832  26.060  28.178  1.00  0.00     0.031 A 
ATOM     37  C   UNL A   1      43.167  26.414  27.585  1.00  0.00     0.074 A 
ATOM     38  C   UNL A   1      41.075  27.003  28.765  1.00  0.00     0.049 A 
ATOM     39  N   UNL A   1      43.807  27.555  27.596  1.00  0.00    -0.248 NA
ATOM     40  C   UNL A   1      43.876  25.332  26.882  1.00  0.00     0.031 C 
ATOM     41  C   UNL A   1      39.744  26.787  29.326  1.00  0.00     0.029 A 
ATOM     42  N   UNL A   1      41.326  28.333  28.990  1.00  0.00    -0.354 N 
ATOM     43  C   UNL A   1      44.993  27.326  26.909  1.00  0.00     0.074 A 
ATOM     44  C   UNL A   1      45.000  25.934  26.520  1.00  0.00     0.031 C 
ATOM     45  C   UNL A   1      39.297  27.945  29.844  1.00  0.00     0.029 A 
ATOM     46  C   UNL A   1      40.325  28.971  29.680  1.00  0.00     0.049 A 
ATOM     47  H   UNL A   1      42.145  28.787  28.686  1.00  0.00     0.167 HD
ATOM     48  C   UNL A   1      45.984  28.205  26.625  1.00  0.00     0.037 A 
ATOM     49  C   UNL A   1      40.263  30.234  30.146  1.00  0.00     0.037 A 
ATOM     50  C   UNL A   1      45.970  29.590  27.015  1.00  0.00     0.049 A 
ATOM     51  C   UNL A   1      41.414  31.170  29.882  1.00  0.00     0.074 A 
ATOM     52  C   UNL A   1      46.918  30.566  26.766  1.00  0.00     0.029 A 
ATOM     53  N   UNL A   1      44.956  30.192  27.746  1.00  0.00    -0.354 N 
ATOM     54  N   UNL A   1      42.525  30.954  29.218  1.00  0.00    -0.248 NA
ATOM     55  C   UNL A   1      41.302  32.529  30.431  1.00  0.00     0.031 C 
ATOM     56  C   UNL A   1      46.503  31.746  27.393  1.00  0.00     0.029 A 
ATOM     57  C   UNL A   1      45.268  31.521  27.981  1.00  0.00     0.049 A 
ATOM     58  H   UNL A   1      44.136  29.741  28.052  1.00  0.00     0.167 HD
ATOM     59  C   UNL A   1      43.227  32.153  29.243  1.00  0.00     0.074 A 
ATOM     60  C   UNL A   1      42.410  33.097  29.976  1.00  0.00     0.031 C 
ATOM     61  C   UNL A   1      44.437  32.447  28.705  1.00  0.00     0.037 A 
BRANCH  48  62
ATOM     62  C   UNL A   1      47.180  27.685  25.881  1.00  0.00     0.064 A 
ATOM     63  C   UNL A   1      47.276  27.768  24.484  1.00  0.00     0.173 A 
ATOM     64  C   UNL A   1      48.261  27.126  26.580  1.00  0.00     0.173 A 
ATOM     65  F   UNL A   1      46.265  28.279  23.767  1.00  0.00    -0.203 F 
ATOM     66  C   UNL A   1      48.400  27.289  23.814  1.00  0.00     0.198 A 
ATOM     67  C   UNL A   1      49.394  26.676  25.910  1.00  0.00     0.198 A 
ATOM     68  F   UNL A   1      48.221  27.025  27.918  1.00  0.00    -0.203 F 
ATOM     69  F   UNL A   1      48.450  27.336  22.476  1.00  0.00    -0.200 F 
ATOM     70  C   UNL A   1      49.460  26.751  24.527  1.00  0.00     0.200 A 
ATOM     71  F   UNL A   1      50.422  26.167  26.603  1.00  0.00    -0.200 F 
ATOM     72  F   UNL A   1      50.543  26.297  23.881  1.00  0.00    -0.200 F 
ENDBRANCH  48  62
BRANCH  49  73
ATOM     73  C   UNL A   1      39.079  30.683  30.924  1.00  0.00     0.064 A 
ATOM     74  C   UNL A   1      39.019  30.516  32.315  1.00  0.00     0.173 A 
ATOM     75  C   UNL A   1      37.971  31.265  30.289  1.00  0.00     0.173 A 
ATOM     76  F   UNL A   1      40.040  29.941  32.965  1.00  0.00    -0.203 F 
ATOM     77  C   UNL A   1      37.888  30.895  33.037  1.00  0.00     0.198 A 
ATOM     78  C   UNL A   1      36.854  31.671  31.015  1.00  0.00     0.198 A 
ATOM     79  F   UNL A   1      37.977  31.443  28.959  1.00  0.00    -0.203 F 
ATOM     80  F   UNL A   1      37.834  30.677  34.357  1.00  0.00    -0.200 F 
ATOM     81  C   UNL A   1      36.809  31.477  32.387  1.00  0.00     0.200 A 
ATOM     82  F   UNL A   1      35.819  32.242  30.384  1.00  0.00    -0.200 F 
ATOM     83  F   UNL A   1      35.722  31.841  33.082  1.00  0.00    -0.200 F 
ENDBRANCH  49  73
BRANCH  61  84
ATOM     84  C   UNL A   1      44.933  33.857  28.854  1.00  0.00     0.064 A 
ATOM     85  C   UNL A   1      45.754  34.242  29.925  1.00  0.00     0.173 A 
ATOM     86  C   UNL A   1      44.619  34.824  27.888  1.00  0.00     0.173 A 
ATOM     87  F   UNL A   1      46.072  33.358  30.883  1.00  0.00    -0.203 F 
ATOM     88  C   UNL A   1      46.219  35.549  30.035  1.00  0.00     0.198 A 
ATOM     89  C   UNL A   1      45.112  36.122  27.983  1.00  0.00     0.198 A 
ATOM     90  F   UNL A   1      43.845  34.506  26.838  1.00  0.00    -0.203 F 
ATOM     91  F   UNL A   1      46.961  35.908  31.093  1.00  0.00    -0.200 F 
ATOM     92  C   UNL A   1      45.905  36.486  29.061  1.00  0.00     0.200 A 
ATOM     93  F   UNL A   1      44.821  37.021  27.033  1.00  0.00    -0.200 F 
ATOM     94  F   UNL A   1      46.360  37.742  29.165  1.00  0.00    -0.200 F 
ENDBRANCH  61  84
ENDBRANCH  35  36
ENDBRANCH  28  30
ENDBRANCH  27  28
ENDBRANCH  26  27
ENDBRANCH  25  26
ENDBRANCH  24  25
ENDBRANCH  23  24
ENDBRANCH   1  23
TORSDOF 20
ENDMDL
MODEL 3
REMARK VINA RESULT:     -10.2      5.129      9.210
REMARK SMILES CCC[NH2+]CC1CC[NH+](CC(C)(C)C(=O)OCCOCCOC(=O)c2ccc(-c3c4nc(c(-c5c(F)c(F)c(F)c(F)c5F)c5ccc([nH]5)c(-c5c(F)c(F)c(F)c(F)c5F)c5nc(c(-c6c(F)c(F)c(F)c(F)c6F)c6ccc3[nH]6)C=C5)C=C4)cc2)CC1
REMARK SMILES IDX 17 1 16 2 14 3 15 4 11 5 12 6 13 7 10 8 9 9 6 10 7 11 89 12
REMARK SMILES IDX 8 13 88 14 5 16 4 17 3 20 2 21 1 22 18 23 19 24 20 25 21 26
REMARK SMILES IDX 22 27 23 28 24 29 25 30 26 31 87 32 27 33 86 34 28 35 29 36
REMARK SMILES IDX 30 37 80 38 31 39 85 40 79 41 81 42 32 43 84 44 78 45 77 46
REMARK SMILES IDX 33 48 65 49 45 50 64 51 46 52 49 53 63 54 82 55 47 56 48 57
REMARK SMILES IDX 62 59 83 60 50 61 34 62 35 63 43 64 36 65 37 66 41 67 44 68
REMARK SMILES IDX 38 69 39 70 42 71 40 72 66 73 67 74 75 75 68 76 69 77 73 78
REMARK SMILES IDX 76 79 70 80 71 81 74 82 72 83 51 84 52 85 60 86 53 87 54 88
REMARK SMILES IDX 58 89 61 90 55 91 56 92 59 93 57 94
REMARK H PARENT 9 15 4 18 4 19 81 47 49 58
REMARK Flexibility Score: inf
ROOT
ATOM      1  C   UNL A   1      32.729  29.049  24.747  1.00  0.00     0.261 C 
ENDROOT
BRANCH   1   2
ATOM      2  O   UNL A   1      32.894  27.626  24.830  1.00  0.00    -0.463 OA
BRANCH   2   3
ATOM      3  C   UNL A   1      32.102  26.896  23.999  1.00  0.00     0.317 C 
ATOM      4  O   UNL A   1      32.164  26.969  22.778  1.00  0.00    -0.251 OA
BRANCH   3   5
ATOM      5  C   UNL A   1      31.090  26.006  24.725  1.00  0.00     0.111 C 
ATOM      6  C   UNL A   1      29.722  26.327  24.085  1.00  0.00     0.029 C 
ATOM      7  C   UNL A   1      30.948  26.376  26.224  1.00  0.00     0.029 C 
BRANCH   5   8
ATOM      8  C   UNL A   1      31.475  24.477  24.668  1.00  0.00     0.280 C 
BRANCH   8   9
ATOM      9  N   UNL A   1      32.813  23.920  24.950  1.00  0.00    -0.334 N 
ATOM     10  C   UNL A   1      34.558  21.635  25.633  1.00  0.00     0.055 C 
ATOM     11  C   UNL A   1      34.344  22.798  26.606  1.00  0.00     0.071 C 
ATOM     12  C   UNL A   1      34.587  22.247  24.228  1.00  0.00     0.071 C 
ATOM     13  C   UNL A   1      33.023  23.519  26.334  1.00  0.00     0.262 C 
ATOM     14  C   UNL A   1      33.309  23.030  23.897  1.00  0.00     0.262 C 
ATOM     15  H   UNL A   1      33.466  24.702  24.887  1.00  0.00     0.348 HD
BRANCH  10  16
ATOM     16  C   UNL A   1      33.469  20.541  25.772  1.00  0.00     0.264 C 
BRANCH  16  17
ATOM     17  N   UNL A   1      33.833  19.242  25.209  1.00  0.00    -0.346 N 
ATOM     18  H   UNL A   1      34.520  19.389  24.468  1.00  0.00     0.346 HD
ATOM     19  H   UNL A   1      34.211  18.674  25.968  1.00  0.00     0.346 HD
BRANCH  17  20
ATOM     20  C   UNL A   1      32.694  18.523  24.652  1.00  0.00     0.260 C 
BRANCH  20  21
ATOM     21  C   UNL A   1      33.071  17.077  24.320  1.00  0.00     0.058 C 
ATOM     22  C   UNL A   1      34.067  16.956  23.174  1.00  0.00     0.010 C 
ENDBRANCH  20  21
ENDBRANCH  17  20
ENDBRANCH  16  17
ENDBRANCH  10  16
ENDBRANCH   8   9
ENDBRANCH   5   8
ENDBRANCH   3   5
ENDBRANCH   2   3
ENDBRANCH   1   2
BRANCH   1  23
ATOM     23  C   UNL A   1      33.147  29.790  26.027  1.00  0.00     0.202 C 
BRANCH  23  24
ATOM     24  O   UNL A   1      32.136  30.356  26.851  1.00  0.00    -0.374 OA
BRANCH  24  25
ATOM     25  C   UNL A   1      31.475  31.539  26.405  1.00  0.00     0.202 C 
BRANCH  25  26
ATOM     26  C   UNL A   1      32.009  32.911  26.841  1.00  0.00     0.261 C 
BRANCH  26  27
ATOM     27  O   UNL A   1      32.843  32.851  28.015  1.00  0.00    -0.460 OA
BRANCH  27  28
ATOM     28  C   UNL A   1      33.927  33.666  27.980  1.00  0.00     0.338 C 
ATOM     29  O   UNL A   1      33.942  34.878  27.884  1.00  0.00    -0.246 OA
BRANCH  28  30
ATOM     30  C   UNL A   1      35.144  32.892  28.285  1.00  0.00     0.060 A 
ATOM     31  C   UNL A   1      34.980  31.558  28.679  1.00  0.00     0.016 A 
ATOM     32  C   UNL A   1      36.404  33.490  28.295  1.00  0.00     0.016 A 
ATOM     33  C   UNL A   1      36.076  30.823  29.123  1.00  0.00     0.010 A 
ATOM     34  C   UNL A   1      37.501  32.757  28.758  1.00  0.00     0.010 A 
ATOM     35  C   UNL A   1      37.333  31.434  29.207  1.00  0.00    -0.014 A 
BRANCH  35  36
ATOM     36  C   UNL A   1      38.421  30.743  29.938  1.00  0.00     0.031 A 
ATOM     37  C   UNL A   1      38.644  31.080  31.386  1.00  0.00     0.074 A 
ATOM     38  C   UNL A   1      39.165  29.800  29.336  1.00  0.00     0.049 A 
ATOM     39  N   UNL A   1      39.548  30.630  32.217  1.00  0.00    -0.248 NA
ATOM     40  C   UNL A   1      37.716  32.058  31.978  1.00  0.00     0.031 C 
ATOM     41  C   UNL A   1      39.004  29.353  27.955  1.00  0.00     0.029 A 
ATOM     42  N   UNL A   1      40.211  29.051  29.814  1.00  0.00    -0.354 N 
ATOM     43  C   UNL A   1      39.303  31.273  33.424  1.00  0.00     0.074 A 
ATOM     44  C   UNL A   1      38.185  32.165  33.213  1.00  0.00     0.031 C 
ATOM     45  C   UNL A   1      39.928  28.413  27.690  1.00  0.00     0.029 A 
ATOM     46  C   UNL A   1      40.766  28.219  28.874  1.00  0.00     0.049 A 
ATOM     47  H   UNL A   1      40.532  29.104  30.743  1.00  0.00     0.167 HD
ATOM     48  C   UNL A   1      39.952  31.125  34.604  1.00  0.00     0.037 A 
ATOM     49  C   UNL A   1      41.843  27.414  28.956  1.00  0.00     0.037 A 
ATOM     50  C   UNL A   1      41.063  30.234  34.807  1.00  0.00     0.049 A 
ATOM     51  C   UNL A   1      42.594  27.326  30.260  1.00  0.00     0.074 A 
ATOM     52  C   UNL A   1      41.782  30.001  35.966  1.00  0.00     0.029 A 
ATOM     53  N   UNL A   1      41.621  29.434  33.820  1.00  0.00    -0.354 N 
ATOM     54  N   UNL A   1      42.348  27.923  31.402  1.00  0.00    -0.248 NA
ATOM     55  C   UNL A   1      43.773  26.449  30.287  1.00  0.00     0.031 C 
ATOM     56  C   UNL A   1      42.809  29.100  35.666  1.00  0.00     0.029 A 
ATOM     57  C   UNL A   1      42.695  28.726  34.337  1.00  0.00     0.049 A 
ATOM     58  H   UNL A   1      41.303  29.379  32.891  1.00  0.00     0.167 HD
ATOM     59  C   UNL A   1      43.318  27.472  32.288  1.00  0.00     0.074 A 
ATOM     60  C   UNL A   1      44.149  26.540  31.555  1.00  0.00     0.031 C 
ATOM     61  C   UNL A   1      43.504  27.796  33.592  1.00  0.00     0.037 A 
BRANCH  48  62
ATOM     62  C   UNL A   1      39.493  31.968  35.758  1.00  0.00     0.064 A 
ATOM     63  C   UNL A   1      40.023  33.244  35.999  1.00  0.00     0.173 A 
ATOM     64  C   UNL A   1      38.484  31.504  36.616  1.00  0.00     0.173 A 
ATOM     65  F   UNL A   1      41.000  33.728  35.219  1.00  0.00    -0.203 F 
ATOM     66  C   UNL A   1      39.575  34.015  37.071  1.00  0.00     0.198 A 
ATOM     67  C   UNL A   1      38.018  32.289  37.668  1.00  0.00     0.198 A 
ATOM     68  F   UNL A   1      37.942  30.291  36.430  1.00  0.00    -0.203 F 
ATOM     69  F   UNL A   1      40.128  35.211  37.309  1.00  0.00    -0.200 F 
ATOM     70  C   UNL A   1      38.569  33.540  37.898  1.00  0.00     0.200 A 
ATOM     71  F   UNL A   1      37.038  31.832  38.459  1.00  0.00    -0.200 F 
ATOM     72  F   UNL A   1      38.135  34.286  38.923  1.00  0.00    -0.200 F 
ENDBRANCH  48  62
BRANCH  49  73
ATOM     73  C   UNL A   1      42.288  26.641  27.767  1.00  0.00     0.064 A 
ATOM     74  C   UNL A   1      41.761  25.372  27.488  1.00  0.00     0.173 A 
ATOM     75  C   UNL A   1      43.268  27.145  26.899  1.00  0.00     0.173 A 
ATOM     76  F   UNL A   1      40.842  24.834  28.303  1.00  0.00    -0.203 F 
ATOM     77  C   UNL A   1      42.214  24.628  26.400  1.00  0.00     0.198 A 
ATOM     78  C   UNL A   1      43.698  26.415  25.793  1.00  0.00     0.198 A 
ATOM     79  F   UNL A   1      43.806  28.353  27.123  1.00  0.00    -0.203 F 
ATOM     80  F   UNL A   1      41.733  23.396  26.186  1.00  0.00    -0.200 F 
ATOM     81  C   UNL A   1      43.178  25.153  25.550  1.00  0.00     0.200 A 
ATOM     82  F   UNL A   1      44.621  26.930  24.971  1.00  0.00    -0.200 F 
ATOM     83  F   UNL A   1      43.612  24.437  24.503  1.00  0.00    -0.200 F 
ENDBRANCH  49  73
BRANCH  61  84
ATOM     84  C   UNL A   1      44.623  27.110  34.322  1.00  0.00     0.064 A 
ATOM     85  C   UNL A   1      44.472  25.826  34.866  1.00  0.00     0.173 A 
ATOM     86  C   UNL A   1      45.876  27.730  34.438  1.00  0.00     0.173 A 
ATOM     87  F   UNL A   1      43.290  25.196  34.792  1.00  0.00    -0.203 F 
ATOM     88  C   UNL A   1      45.528  25.200  35.523  1.00  0.00     0.198 A 
ATOM     89  C   UNL A   1      46.939  27.088  35.067  1.00  0.00     0.198 A 
ATOM     90  F   UNL A   1      46.076  28.954  33.927  1.00  0.00    -0.203 F 
ATOM     91  F   UNL A   1      45.348  23.993  36.078  1.00  0.00    -0.200 F 
ATOM     92  C   UNL A   1      46.762  25.827  35.616  1.00  0.00     0.200 A 
ATOM     93  F   UNL A   1      48.135  27.689  35.142  1.00  0.00    -0.200 F 
ATOM     94  F   UNL A   1      47.779  25.219  36.242  1.00  0.00    -0.200 F 
ENDBRANCH  61  84
ENDBRANCH  35  36
ENDBRANCH  28  30
ENDBRANCH  27  28
ENDBRANCH  26  27
ENDBRANCH  25  26
ENDBRANCH  24  25
ENDBRANCH  23  24
ENDBRANCH   1  23
TORSDOF 20
ENDMDL
