MODEL 1
REMARK VINA RESULT:     -12.4      0.000      0.000
REMARK SMILES O=C(OCCOCCOC(=O)[C@@H]1C=C[C@H](NC(=O)[C@@H]2Cc3ccccc3O2)C1)c1ccc(-c2c3nc(c(-c4c(F)c(F)c(F)c(F)c4F)c4ccc([nH]4)c(-c4c(F)c(F)c(F)c(F)c4F)c4nc(c(-c5c(F)c(F)c(F)c(F)c5F)c5ccc2[nH]5)C=C4)C=C3)cc1
REMARK SMILES IDX 6 1 5 2 4 3 3 4 2 5 1 6 29 7 30 8 91 9 31 10 90 11 32 12
REMARK SMILES IDX 33 13 34 14 84 15 35 16 89 17 83 18 85 19 36 20 88 21 82 22
REMARK SMILES IDX 81 23 37 25 69 26 49 27 68 28 50 29 53 30 67 31 86 32 51 33
REMARK SMILES IDX 52 34 66 36 87 37 54 38 38 39 39 40 47 41 40 42 41 43 45 44
REMARK SMILES IDX 48 45 42 46 43 47 46 48 44 49 70 50 71 51 79 52 72 53 73 54
REMARK SMILES IDX 77 55 80 56 74 57 75 58 78 59 76 60 55 61 56 62 64 63 57 64
REMARK SMILES IDX 58 65 62 66 65 67 59 68 60 69 63 70 61 71 7 72 8 73 9 74
REMARK SMILES IDX 10 75 11 76 12 77 13 78 28 79 14 80 15 81 16 82 17 83 18 85
REMARK SMILES IDX 19 86 20 87 27 88 21 89 26 90 22 91 25 92 23 93 24 94
REMARK H PARENT 85 24 53 35 16 84
REMARK Flexibility Score: inf
ROOT
ATOM      1  O   UNL A   1      30.458  30.082  24.394  1.00  0.00    -0.374 OA
ENDROOT
BRANCH   1   2
ATOM      2  C   UNL A   1      31.410  29.377  25.189  1.00  0.00     0.202 C 
BRANCH   2   3
ATOM      3  C   UNL A   1      31.797  30.053  26.504  1.00  0.00     0.261 C 
BRANCH   3   4
ATOM      4  O   UNL A   1      33.065  30.722  26.383  1.00  0.00    -0.460 OA
BRANCH   4   5
ATOM      5  C   UNL A   1      33.702  31.488  27.295  1.00  0.00     0.338 C 
ATOM      6  O   UNL A   1      33.224  32.572  27.622  1.00  0.00    -0.246 OA
BRANCH   5   7
ATOM      7  C   UNL A   1      34.959  31.053  27.959  1.00  0.00     0.060 A 
ATOM      8  C   UNL A   1      35.200  29.756  28.407  1.00  0.00     0.016 A 
ATOM      9  C   UNL A   1      35.984  32.002  28.096  1.00  0.00     0.016 A 
ATOM     10  C   UNL A   1      36.367  29.406  29.037  1.00  0.00     0.010 A 
ATOM     11  C   UNL A   1      37.193  31.655  28.697  1.00  0.00     0.010 A 
ATOM     12  C   UNL A   1      37.365  30.354  29.178  1.00  0.00    -0.014 A 
BRANCH  12  13
ATOM     13  C   UNL A   1      38.512  29.941  29.979  1.00  0.00     0.031 A 
ATOM     14  C   UNL A   1      39.533  29.083  29.321  1.00  0.00     0.074 A 
ATOM     15  C   UNL A   1      38.698  30.515  31.177  1.00  0.00     0.049 A 
ATOM     16  N   UNL A   1      40.584  28.511  29.832  1.00  0.00    -0.248 NA
ATOM     17  C   UNL A   1      39.356  28.851  27.875  1.00  0.00     0.031 C 
ATOM     18  C   UNL A   1      37.825  31.538  31.764  1.00  0.00     0.029 A 
ATOM     19  N   UNL A   1      39.692  30.352  32.095  1.00  0.00    -0.354 N 
ATOM     20  C   UNL A   1      41.160  27.804  28.788  1.00  0.00     0.074 A 
ATOM     21  C   UNL A   1      40.367  28.043  27.606  1.00  0.00     0.031 C 
ATOM     22  C   UNL A   1      38.327  31.908  32.952  1.00  0.00     0.029 A 
ATOM     23  C   UNL A   1      39.489  31.080  33.240  1.00  0.00     0.049 A 
ATOM     24  H   UNL A   1      40.475  29.773  31.951  1.00  0.00     0.167 HD
ATOM     25  C   UNL A   1      42.242  26.998  28.853  1.00  0.00     0.037 A 
ATOM     26  C   UNL A   1      40.140  31.008  34.413  1.00  0.00     0.037 A 
ATOM     27  C   UNL A   1      42.977  26.805  30.073  1.00  0.00     0.049 A 
ATOM     28  C   UNL A   1      41.274  30.025  34.502  1.00  0.00     0.074 A 
ATOM     29  C   UNL A   1      44.031  25.956  30.332  1.00  0.00     0.029 A 
ATOM     30  N   UNL A   1      42.711  27.495  31.254  1.00  0.00    -0.354 N 
ATOM     31  N   UNL A   1      41.756  29.242  33.563  1.00  0.00    -0.248 NA
ATOM     32  C   UNL A   1      41.938  29.891  35.799  1.00  0.00     0.031 C 
ATOM     33  C   UNL A   1      44.370  26.096  31.684  1.00  0.00     0.029 A 
ATOM     34  C   UNL A   1      43.569  27.078  32.253  1.00  0.00     0.049 A 
ATOM     35  H   UNL A   1      42.012  28.181  31.361  1.00  0.00     0.167 HD
ATOM     36  C   UNL A   1      42.790  28.530  34.146  1.00  0.00     0.074 A 
ATOM     37  C   UNL A   1      42.867  28.984  35.525  1.00  0.00     0.031 C 
ATOM     38  C   UNL A   1      43.602  27.588  33.604  1.00  0.00     0.037 A 
BRANCH  25  39
ATOM     39  C   UNL A   1      42.564  26.201  27.626  1.00  0.00     0.064 A 
ATOM     40  C   UNL A   1      41.977  24.954  27.361  1.00  0.00     0.173 A 
ATOM     41  C   UNL A   1      43.560  26.652  26.746  1.00  0.00     0.173 A 
ATOM     42  F   UNL A   1      41.048  24.454  28.190  1.00  0.00    -0.203 F 
ATOM     43  C   UNL A   1      42.407  24.172  26.289  1.00  0.00     0.198 A 
ATOM     44  C   UNL A   1      43.966  25.883  25.659  1.00  0.00     0.198 A 
ATOM     45  F   UNL A   1      44.166  27.830  26.960  1.00  0.00    -0.203 F 
ATOM     46  F   UNL A   1      41.890  22.949  26.104  1.00  0.00    -0.200 F 
ATOM     47  C   UNL A   1      43.399  24.638  25.440  1.00  0.00     0.200 A 
ATOM     48  F   UNL A   1      44.926  26.335  24.841  1.00  0.00    -0.200 F 
ATOM     49  F   UNL A   1      43.827  23.876  24.424  1.00  0.00    -0.200 F 
ENDBRANCH  25  39
BRANCH  26  50
ATOM     50  C   UNL A   1      39.666  31.813  35.567  1.00  0.00     0.064 A 
ATOM     51  C   UNL A   1      40.142  33.108  35.801  1.00  0.00     0.173 A 
ATOM     52  C   UNL A   1      38.670  31.322  36.428  1.00  0.00     0.173 A 
ATOM     53  F   UNL A   1      41.102  33.621  35.017  1.00  0.00    -0.203 F 
ATOM     54  C   UNL A   1      39.639  33.881  36.848  1.00  0.00     0.198 A 
ATOM     55  C   UNL A   1      38.148  32.105  37.455  1.00  0.00     0.198 A 
ATOM     56  F   UNL A   1      38.174  30.088  36.248  1.00  0.00    -0.203 F 
ATOM     57  F   UNL A   1      40.126  35.111  37.064  1.00  0.00    -0.200 F 
ATOM     58  C   UNL A   1      38.636  33.383  37.667  1.00  0.00     0.200 A 
ATOM     59  F   UNL A   1      37.163  31.625  38.228  1.00  0.00    -0.200 F 
ATOM     60  F   UNL A   1      38.140  34.136  38.659  1.00  0.00    -0.200 F 
ENDBRANCH  26  50
BRANCH  38  61
ATOM     61  C   UNL A   1      44.672  27.034  34.489  1.00  0.00     0.064 A 
ATOM     62  C   UNL A   1      44.482  25.855  35.219  1.00  0.00     0.173 A 
ATOM     63  C   UNL A   1      45.932  27.648  34.524  1.00  0.00     0.173 A 
ATOM     64  F   UNL A   1      43.286  25.246  35.222  1.00  0.00    -0.203 F 
ATOM     65  C   UNL A   1      45.523  25.307  35.960  1.00  0.00     0.198 A 
ATOM     66  C   UNL A   1      46.978  27.082  35.244  1.00  0.00     0.198 A 
ATOM     67  F   UNL A   1      46.155  28.776  33.833  1.00  0.00    -0.203 F 
ATOM     68  F   UNL A   1      45.320  24.190  36.673  1.00  0.00    -0.200 F 
ATOM     69  C   UNL A   1      46.771  25.913  35.962  1.00  0.00     0.200 A 
ATOM     70  F   UNL A   1      48.187  27.659  35.231  1.00  0.00    -0.200 F 
ATOM     71  F   UNL A   1      47.779  25.370  36.657  1.00  0.00    -0.200 F 
ENDBRANCH  38  61
ENDBRANCH  12  13
ENDBRANCH   5   7
ENDBRANCH   4   5
ENDBRANCH   3   4
ENDBRANCH   2   3
ENDBRANCH   1   2
BRANCH   1  72
ATOM     72  C   UNL A   1      29.931  29.345  23.290  1.00  0.00     0.202 C 
BRANCH  72  73
ATOM     73  C   UNL A   1      31.056  28.709  22.480  1.00  0.00     0.261 C 
BRANCH  73  74
ATOM     74  O   UNL A   1      30.654  27.413  22.001  1.00  0.00    -0.463 OA
BRANCH  74  75
ATOM     75  C   UNL A   1      31.586  26.417  22.053  1.00  0.00     0.312 C 
ATOM     76  O   UNL A   1      32.032  25.820  21.089  1.00  0.00    -0.252 OA
BRANCH  75  77
ATOM     77  C   UNL A   1      32.076  26.167  23.481  1.00  0.00     0.124 C 
ATOM     78  C   UNL A   1      33.487  25.674  23.552  1.00  0.00    -0.014 C 
ATOM     79  C   UNL A   1      31.298  25.067  24.223  1.00  0.00     0.048 C 
ATOM     80  C   UNL A   1      33.555  24.407  23.976  1.00  0.00    -0.006 C 
ATOM     81  C   UNL A   1      32.211  23.827  24.287  1.00  0.00     0.106 C 
BRANCH  81  82
ATOM     82  N   UNL A   1      31.931  22.813  23.293  1.00  0.00    -0.347 N 
ATOM     83  C   UNL A   1      32.221  21.476  23.310  1.00  0.00     0.261 C 
ATOM     84  H   UNL A   1      31.464  23.132  22.487  1.00  0.00     0.164 HD
ATOM     85  O   UNL A   1      32.076  20.858  22.252  1.00  0.00    -0.271 OA
BRANCH  83  86
ATOM     86  C   UNL A   1      32.789  20.780  24.565  1.00  0.00     0.266 C 
ATOM     87  C   UNL A   1      34.263  20.359  24.349  1.00  0.00     0.095 C 
ATOM     88  O   UNL A   1      32.025  19.645  25.017  1.00  0.00    -0.480 OA
ATOM     89  C   UNL A   1      34.173  18.906  24.627  1.00  0.00    -0.002 A 
ATOM     90  C   UNL A   1      32.882  18.584  24.995  1.00  0.00     0.123 A 
ATOM     91  C   UNL A   1      35.143  17.922  24.524  1.00  0.00     0.008 A 
ATOM     92  C   UNL A   1      32.501  17.290  25.283  1.00  0.00     0.047 A 
ATOM     93  C   UNL A   1      34.778  16.600  24.805  1.00  0.00     0.001 A 
ATOM     94  C   UNL A   1      33.464  16.286  25.184  1.00  0.00     0.004 A 
ENDBRANCH  83  86
ENDBRANCH  81  82
ENDBRANCH  75  77
ENDBRANCH  74  75
ENDBRANCH  73  74
ENDBRANCH  72  73
ENDBRANCH   1  72
TORSDOF 16
ENDMDL
MODEL 2
REMARK VINA RESULT:     -12.4      0.585      2.018
REMARK SMILES O=C(OCCOCCOC(=O)[C@@H]1C=C[C@H](NC(=O)[C@@H]2Cc3ccccc3O2)C1)c1ccc(-c2c3nc(c(-c4c(F)c(F)c(F)c(F)c4F)c4ccc([nH]4)c(-c4c(F)c(F)c(F)c(F)c4F)c4nc(c(-c5c(F)c(F)c(F)c(F)c5F)c5ccc2[nH]5)C=C4)C=C3)cc1
REMARK SMILES IDX 6 1 5 2 4 3 3 4 2 5 1 6 29 7 30 8 91 9 31 10 90 11 32 12
REMARK SMILES IDX 33 13 34 14 84 15 35 16 89 17 83 18 85 19 36 20 88 21 82 22
REMARK SMILES IDX 81 23 37 25 69 26 49 27 68 28 50 29 53 30 67 31 86 32 51 33
REMARK SMILES IDX 52 34 66 36 87 37 54 38 38 39 39 40 47 41 40 42 41 43 45 44
REMARK SMILES IDX 48 45 42 46 43 47 46 48 44 49 70 50 71 51 79 52 72 53 73 54
REMARK SMILES IDX 77 55 80 56 74 57 75 58 78 59 76 60 55 61 56 62 64 63 57 64
REMARK SMILES IDX 58 65 62 66 65 67 59 68 60 69 63 70 61 71 7 72 8 73 9 74
REMARK SMILES IDX 10 75 11 76 12 77 13 78 28 79 14 80 15 81 16 82 17 83 18 85
REMARK SMILES IDX 19 86 20 87 27 88 21 89 26 90 22 91 25 92 23 93 24 94
REMARK H PARENT 85 24 53 35 16 84
REMARK Flexibility Score: inf
ROOT
ATOM      1  O   UNL A   1      30.698  29.720  24.515  1.00  0.00    -0.374 OA
ENDROOT
BRANCH   1   2
ATOM      2  C   UNL A   1      31.639  29.117  25.400  1.00  0.00     0.202 C 
BRANCH   2   3
ATOM      3  C   UNL A   1      31.970  29.924  26.656  1.00  0.00     0.261 C 
BRANCH   3   4
ATOM      4  O   UNL A   1      33.145  30.729  26.454  1.00  0.00    -0.460 OA
BRANCH   4   5
ATOM      5  C   UNL A   1      33.768  31.544  27.333  1.00  0.00     0.338 C 
ATOM      6  O   UNL A   1      33.285  32.643  27.595  1.00  0.00    -0.246 OA
BRANCH   5   7
ATOM      7  C   UNL A   1      35.015  31.146  28.038  1.00  0.00     0.060 A 
ATOM      8  C   UNL A   1      35.250  29.876  28.558  1.00  0.00     0.016 A 
ATOM      9  C   UNL A   1      36.037  32.103  28.140  1.00  0.00     0.016 A 
ATOM     10  C   UNL A   1      36.407  29.561  29.223  1.00  0.00     0.010 A 
ATOM     11  C   UNL A   1      37.237  31.789  28.776  1.00  0.00     0.010 A 
ATOM     12  C   UNL A   1      37.402  30.516  29.329  1.00  0.00    -0.014 A 
BRANCH  12  13
ATOM     13  C   UNL A   1      38.537  30.148  30.168  1.00  0.00     0.031 A 
ATOM     14  C   UNL A   1      39.603  29.314  29.550  1.00  0.00     0.074 A 
ATOM     15  C   UNL A   1      38.670  30.742  31.364  1.00  0.00     0.049 A 
ATOM     16  N   UNL A   1      40.655  28.781  30.099  1.00  0.00    -0.248 NA
ATOM     17  C   UNL A   1      39.475  29.060  28.103  1.00  0.00     0.031 C 
ATOM     18  C   UNL A   1      37.750  31.744  31.913  1.00  0.00     0.029 A 
ATOM     19  N   UNL A   1      39.642  30.620  32.312  1.00  0.00    -0.354 N 
ATOM     20  C   UNL A   1      41.282  28.080  29.081  1.00  0.00     0.074 A 
ATOM     21  C   UNL A   1      40.518  28.280  27.874  1.00  0.00     0.031 C 
ATOM     22  C   UNL A   1      38.205  32.143  33.110  1.00  0.00     0.029 A 
ATOM     23  C   UNL A   1      39.383  31.354  33.441  1.00  0.00     0.049 A 
ATOM     24  H   UNL A   1      40.445  30.064  32.198  1.00  0.00     0.167 HD
ATOM     25  C   UNL A   1      42.387  27.308  29.188  1.00  0.00     0.037 A 
ATOM     26  C   UNL A   1      40.001  31.316  34.634  1.00  0.00     0.037 A 
ATOM     27  C   UNL A   1      43.090  27.152  30.431  1.00  0.00     0.049 A 
ATOM     28  C   UNL A   1      41.161  30.370  34.768  1.00  0.00     0.074 A 
ATOM     29  C   UNL A   1      44.162  26.339  30.731  1.00  0.00     0.029 A 
ATOM     30  N   UNL A   1      42.769  27.848  31.595  1.00  0.00    -0.354 N 
ATOM     31  N   UNL A   1      41.694  29.591  33.853  1.00  0.00    -0.248 NA
ATOM     32  C   UNL A   1      41.790  30.271  36.086  1.00  0.00     0.031 C 
ATOM     33  C   UNL A   1      44.457  26.505  32.091  1.00  0.00     0.029 A 
ATOM     34  C   UNL A   1      43.610  27.469  32.623  1.00  0.00     0.049 A 
ATOM     35  H   UNL A   1      42.047  28.513  31.673  1.00  0.00     0.167 HD
ATOM     36  C   UNL A   1      42.732  28.918  34.475  1.00  0.00     0.074 A 
ATOM     37  C   UNL A   1      42.755  29.391  35.850  1.00  0.00     0.031 C 
ATOM     38  C   UNL A   1      43.588  27.996  33.968  1.00  0.00     0.037 A 
BRANCH  25  39
ATOM     39  C   UNL A   1      42.769  26.507  27.981  1.00  0.00     0.064 A 
ATOM     40  C   UNL A   1      43.693  26.970  27.031  1.00  0.00     0.173 A 
ATOM     41  C   UNL A   1      42.116  25.293  27.718  1.00  0.00     0.173 A 
ATOM     42  F   UNL A   1      44.317  28.144  27.211  1.00  0.00    -0.203 F 
ATOM     43  C   UNL A   1      43.914  26.268  25.846  1.00  0.00     0.198 A 
ATOM     44  C   UNL A   1      42.362  24.579  26.548  1.00  0.00     0.198 A 
ATOM     45  F   UNL A   1      41.211  24.811  28.584  1.00  0.00    -0.203 F 
ATOM     46  F   UNL A   1      44.740  26.771  24.916  1.00  0.00    -0.200 F 
ATOM     47  C   UNL A   1      43.250  25.075  25.607  1.00  0.00     0.200 A 
ATOM     48  F   UNL A   1      41.717  23.428  26.319  1.00  0.00    -0.200 F 
ATOM     49  F   UNL A   1      43.446  24.415  24.457  1.00  0.00    -0.200 F 
ENDBRANCH  25  39
BRANCH  26  50
ATOM     50  C   UNL A   1      39.469  32.120  35.763  1.00  0.00     0.064 A 
ATOM     51  C   UNL A   1      38.488  31.615  36.623  1.00  0.00     0.173 A 
ATOM     52  C   UNL A   1      39.984  33.397  36.045  1.00  0.00     0.173 A 
ATOM     53  F   UNL A   1      37.952  30.407  36.392  1.00  0.00    -0.203 F 
ATOM     54  C   UNL A   1      38.044  32.353  37.721  1.00  0.00     0.198 A 
ATOM     55  C   UNL A   1      39.562  34.120  37.158  1.00  0.00     0.198 A 
ATOM     56  F   UNL A   1      40.930  33.930  35.256  1.00  0.00    -0.203 F 
ATOM     57  F   UNL A   1      37.089  31.855  38.518  1.00  0.00    -0.200 F 
ATOM     58  C   UNL A   1      38.590  33.599  37.994  1.00  0.00     0.200 A 
ATOM     59  F   UNL A   1      40.110  35.314  37.427  1.00  0.00    -0.200 F 
ATOM     60  F   UNL A   1      38.177  34.296  39.062  1.00  0.00    -0.200 F 
ENDBRANCH  26  50
BRANCH  38  61
ATOM     61  C   UNL A   1      44.647  27.485  34.892  1.00  0.00     0.064 A 
ATOM     62  C   UNL A   1      45.864  28.157  35.055  1.00  0.00     0.173 A 
ATOM     63  C   UNL A   1      44.390  26.361  35.690  1.00  0.00     0.173 A 
ATOM     64  F   UNL A   1      46.152  29.228  34.300  1.00  0.00    -0.203 F 
ATOM     65  C   UNL A   1      46.795  27.716  35.990  1.00  0.00     0.198 A 
ATOM     66  C   UNL A   1      45.311  25.941  36.642  1.00  0.00     0.198 A 
ATOM     67  F   UNL A   1      43.232  25.693  35.566  1.00  0.00    -0.203 F 
ATOM     68  F   UNL A   1      47.966  28.356  36.119  1.00  0.00    -0.200 F 
ATOM     69  C   UNL A   1      46.512  26.618  36.789  1.00  0.00     0.200 A 
ATOM     70  F   UNL A   1      45.030  24.890  37.424  1.00  0.00    -0.200 F 
ATOM     71  F   UNL A   1      47.400  26.210  37.706  1.00  0.00    -0.200 F 
ENDBRANCH  38  61
ENDBRANCH  12  13
ENDBRANCH   5   7
ENDBRANCH   4   5
ENDBRANCH   3   4
ENDBRANCH   2   3
ENDBRANCH   1   2
BRANCH   1  72
ATOM     72  C   UNL A   1      30.362  28.937  23.368  1.00  0.00     0.202 C 
BRANCH  72  73
ATOM     73  C   UNL A   1      31.621  28.525  22.610  1.00  0.00     0.261 C 
BRANCH  73  74
ATOM     74  O   UNL A   1      31.633  27.101  22.403  1.00  0.00    -0.463 OA
BRANCH  74  75
ATOM     75  C   UNL A   1      32.841  26.473  22.490  1.00  0.00     0.312 C 
ATOM     76  O   UNL A   1      33.605  26.286  21.559  1.00  0.00    -0.252 OA
BRANCH  75  77
ATOM     77  C   UNL A   1      33.176  26.075  23.929  1.00  0.00     0.124 C 
ATOM     78  C   UNL A   1      34.413  25.241  24.046  1.00  0.00    -0.014 C 
ATOM     79  C   UNL A   1      32.109  25.192  24.596  1.00  0.00     0.048 C 
ATOM     80  C   UNL A   1      34.138  23.989  24.429  1.00  0.00    -0.006 C 
ATOM     81  C   UNL A   1      32.677  23.761  24.659  1.00  0.00     0.106 C 
BRANCH  81  82
ATOM     82  N   UNL A   1      32.203  22.872  23.619  1.00  0.00    -0.347 N 
ATOM     83  C   UNL A   1      32.272  21.508  23.542  1.00  0.00     0.261 C 
ATOM     84  H   UNL A   1      31.768  23.314  22.854  1.00  0.00     0.164 HD
ATOM     85  O   UNL A   1      31.994  20.992  22.457  1.00  0.00    -0.271 OA
BRANCH  83  86
ATOM     86  C   UNL A   1      32.761  20.648  24.728  1.00  0.00     0.266 C 
ATOM     87  C   UNL A   1      34.226  20.192  24.518  1.00  0.00     0.095 C 
ATOM     88  O   UNL A   1      31.936  19.504  25.017  1.00  0.00    -0.480 OA
ATOM     89  C   UNL A   1      34.068  18.721  24.622  1.00  0.00    -0.002 A 
ATOM     90  C   UNL A   1      32.751  18.416  24.903  1.00  0.00     0.123 A 
ATOM     91  C   UNL A   1      35.002  17.714  24.441  1.00  0.00     0.008 A 
ATOM     92  C   UNL A   1      32.308  17.115  25.024  1.00  0.00     0.047 A 
ATOM     93  C   UNL A   1      34.574  16.386  24.553  1.00  0.00     0.001 A 
ATOM     94  C   UNL A   1      33.234  16.088  24.845  1.00  0.00     0.004 A 
ENDBRANCH  83  86
ENDBRANCH  81  82
ENDBRANCH  75  77
ENDBRANCH  74  75
ENDBRANCH  73  74
ENDBRANCH  72  73
ENDBRANCH   1  72
TORSDOF 16
ENDMDL
MODEL 3
REMARK VINA RESULT:     -12.1      4.676     10.472
REMARK SMILES O=C(OCCOCCOC(=O)[C@@H]1C=C[C@H](NC(=O)[C@@H]2Cc3ccccc3O2)C1)c1ccc(-c2c3nc(c(-c4c(F)c(F)c(F)c(F)c4F)c4ccc([nH]4)c(-c4c(F)c(F)c(F)c(F)c4F)c4nc(c(-c5c(F)c(F)c(F)c(F)c5F)c5ccc2[nH]5)C=C4)C=C3)cc1
REMARK SMILES IDX 6 1 5 2 4 3 3 4 2 5 1 6 29 7 30 8 91 9 31 10 90 11 32 12
REMARK SMILES IDX 33 13 34 14 84 15 35 16 89 17 83 18 85 19 36 20 88 21 82 22
REMARK SMILES IDX 81 23 37 25 69 26 49 27 68 28 50 29 53 30 67 31 86 32 51 33
REMARK SMILES IDX 52 34 66 36 87 37 54 38 38 39 39 40 47 41 40 42 41 43 45 44
REMARK SMILES IDX 48 45 42 46 43 47 46 48 44 49 70 50 71 51 79 52 72 53 73 54
REMARK SMILES IDX 77 55 80 56 74 57 75 58 78 59 76 60 55 61 56 62 64 63 57 64
REMARK SMILES IDX 58 65 62 66 65 67 59 68 60 69 63 70 61 71 7 72 8 73 9 74
REMARK SMILES IDX 10 75 11 76 12 77 13 78 28 79 14 80 15 81 16 82 17 83 18 85
REMARK SMILES IDX 19 86 20 87 27 88 21 89 26 90 22 91 25 92 23 93 24 94
REMARK H PARENT 85 24 53 35 16 84
REMARK Flexibility Score: inf
ROOT
ATOM      1  O   UNL A   1      37.069  21.093  24.654  1.00  0.00    -0.374 OA
ENDROOT
BRANCH   1   2
ATOM      2  C   UNL A   1      37.983  20.047  24.978  1.00  0.00     0.202 C 
BRANCH   2   3
ATOM      3  C   UNL A   1      39.189  20.465  25.820  1.00  0.00     0.261 C 
BRANCH   3   4
ATOM      4  O   UNL A   1      40.206  19.450  25.800  1.00  0.00    -0.460 OA
BRANCH   4   5
ATOM      5  C   UNL A   1      41.535  19.585  26.003  1.00  0.00     0.338 C 
ATOM      6  O   UNL A   1      42.279  18.622  25.835  1.00  0.00    -0.246 OA
BRANCH   5   7
ATOM      7  C   UNL A   1      42.151  20.882  26.392  1.00  0.00     0.060 A 
ATOM      8  C   UNL A   1      42.367  21.283  27.708  1.00  0.00     0.016 A 
ATOM      9  C   UNL A   1      42.583  21.730  25.360  1.00  0.00     0.016 A 
ATOM     10  C   UNL A   1      42.917  22.500  28.019  1.00  0.00     0.010 A 
ATOM     11  C   UNL A   1      43.182  22.953  25.657  1.00  0.00     0.010 A 
ATOM     12  C   UNL A   1      43.327  23.334  26.994  1.00  0.00    -0.014 A 
BRANCH  12  13
ATOM     13  C   UNL A   1      43.770  24.662  27.405  1.00  0.00     0.031 A 
ATOM     14  C   UNL A   1      42.735  25.602  27.911  1.00  0.00     0.074 A 
ATOM     15  C   UNL A   1      45.087  24.895  27.507  1.00  0.00     0.049 A 
ATOM     16  N   UNL A   1      42.852  26.854  28.247  1.00  0.00    -0.248 NA
ATOM     17  C   UNL A   1      41.379  25.049  28.083  1.00  0.00     0.031 C 
ATOM     18  C   UNL A   1      46.140  23.912  27.229  1.00  0.00     0.029 A 
ATOM     19  N   UNL A   1      45.764  26.010  27.905  1.00  0.00    -0.354 N 
ATOM     20  C   UNL A   1      41.576  27.255  28.611  1.00  0.00     0.074 A 
ATOM     21  C   UNL A   1      40.705  26.110  28.492  1.00  0.00     0.031 C 
ATOM     22  C   UNL A   1      47.335  24.476  27.463  1.00  0.00     0.029 A 
ATOM     23  C   UNL A   1      47.125  25.874  27.809  1.00  0.00     0.049 A 
ATOM     24  H   UNL A   1      45.320  26.827  28.228  1.00  0.00     0.167 HD
ATOM     25  C   UNL A   1      41.188  28.497  28.975  1.00  0.00     0.037 A 
ATOM     26  C   UNL A   1      48.077  26.815  27.916  1.00  0.00     0.037 A 
ATOM     27  C   UNL A   1      42.117  29.590  29.065  1.00  0.00     0.049 A 
ATOM     28  C   UNL A   1      47.619  28.216  28.213  1.00  0.00     0.074 A 
ATOM     29  C   UNL A   1      41.875  30.922  29.324  1.00  0.00     0.029 A 
ATOM     30  N   UNL A   1      43.492  29.454  28.889  1.00  0.00    -0.354 N 
ATOM     31  N   UNL A   1      46.397  28.650  28.430  1.00  0.00    -0.248 NA
ATOM     32  C   UNL A   1      48.646  29.257  28.257  1.00  0.00     0.031 C 
ATOM     33  C   UNL A   1      43.099  31.600  29.255  1.00  0.00     0.029 A 
ATOM     34  C   UNL A   1      44.112  30.681  29.014  1.00  0.00     0.049 A 
ATOM     35  H   UNL A   1      43.955  28.604  28.701  1.00  0.00     0.167 HD
ATOM     36  C   UNL A   1      46.505  30.012  28.653  1.00  0.00     0.074 A 
ATOM     37  C   UNL A   1      47.920  30.329  28.549  1.00  0.00     0.031 C 
ATOM     38  C   UNL A   1      45.533  30.922  28.917  1.00  0.00     0.037 A 
BRANCH  25  39
ATOM     39  C   UNL A   1      39.716  28.720  29.149  1.00  0.00     0.064 A 
ATOM     40  C   UNL A   1      38.894  29.173  28.105  1.00  0.00     0.173 A 
ATOM     41  C   UNL A   1      39.137  28.573  30.419  1.00  0.00     0.173 A 
ATOM     42  F   UNL A   1      39.403  29.369  26.880  1.00  0.00    -0.203 F 
ATOM     43  C   UNL A   1      37.561  29.511  28.339  1.00  0.00     0.198 A 
ATOM     44  C   UNL A   1      37.798  28.883  30.642  1.00  0.00     0.198 A 
ATOM     45  F   UNL A   1      39.881  28.159  31.456  1.00  0.00    -0.203 F 
ATOM     46  F   UNL A   1      36.817  30.020  27.346  1.00  0.00    -0.200 F 
ATOM     47  C   UNL A   1      37.015  29.365  29.605  1.00  0.00     0.200 A 
ATOM     48  F   UNL A   1      37.274  28.742  31.867  1.00  0.00    -0.200 F 
ATOM     49  F   UNL A   1      35.741  29.712  29.832  1.00  0.00    -0.200 F 
ENDBRANCH  25  39
BRANCH  26  50
ATOM     50  C   UNL A   1      49.494  26.460  27.651  1.00  0.00     0.064 A 
ATOM     51  C   UNL A   1      49.982  26.314  26.348  1.00  0.00     0.173 A 
ATOM     52  C   UNL A   1      50.412  26.322  28.708  1.00  0.00     0.173 A 
ATOM     53  F   UNL A   1      49.147  26.422  25.304  1.00  0.00    -0.203 F 
ATOM     54  C   UNL A   1      51.331  26.047  26.110  1.00  0.00     0.198 A 
ATOM     55  C   UNL A   1      51.764  26.085  28.467  1.00  0.00     0.198 A 
ATOM     56  F   UNL A   1      50.001  26.456  29.977  1.00  0.00    -0.203 F 
ATOM     57  F   UNL A   1      51.768  25.891  24.853  1.00  0.00    -0.200 F 
ATOM     58  C   UNL A   1      52.221  25.944  27.169  1.00  0.00     0.200 A 
ATOM     59  F   UNL A   1      52.621  26.009  29.495  1.00  0.00    -0.200 F 
ATOM     60  F   UNL A   1      53.520  25.708  26.936  1.00  0.00    -0.200 F 
ENDBRANCH  26  50
BRANCH  38  61
ATOM     61  C   UNL A   1      45.980  32.328  29.163  1.00  0.00     0.064 A 
ATOM     62  C   UNL A   1      46.371  32.760  30.436  1.00  0.00     0.173 A 
ATOM     63  C   UNL A   1      46.106  33.215  28.085  1.00  0.00     0.173 A 
ATOM     64  F   UNL A   1      46.253  31.945  31.494  1.00  0.00    -0.203 F 
ATOM     65  C   UNL A   1      46.874  34.043  30.622  1.00  0.00     0.198 A 
ATOM     66  C   UNL A   1      46.635  34.487  28.271  1.00  0.00     0.198 A 
ATOM     67  F   UNL A   1      45.747  32.835  26.849  1.00  0.00    -0.203 F 
ATOM     68  F   UNL A   1      47.223  34.452  31.850  1.00  0.00    -0.200 F 
ATOM     69  C   UNL A   1      47.016  34.900  29.539  1.00  0.00     0.200 A 
ATOM     70  F   UNL A   1      46.787  35.307  27.222  1.00  0.00    -0.200 F 
ATOM     71  F   UNL A   1      47.523  36.126  29.717  1.00  0.00    -0.200 F 
ENDBRANCH  38  61
ENDBRANCH  12  13
ENDBRANCH   5   7
ENDBRANCH   4   5
ENDBRANCH   3   4
ENDBRANCH   2   3
ENDBRANCH   1   2
BRANCH   1  72
ATOM     72  C   UNL A   1      35.941  21.198  25.524  1.00  0.00     0.202 C 
BRANCH  72  73
ATOM     73  C   UNL A   1      34.647  20.921  24.764  1.00  0.00     0.261 C 
BRANCH  73  74
ATOM     74  O   UNL A   1      33.800  22.085  24.784  1.00  0.00    -0.463 OA
BRANCH  74  75
ATOM     75  C   UNL A   1      33.737  22.824  23.638  1.00  0.00     0.312 C 
ATOM     76  O   UNL A   1      33.148  22.498  22.622  1.00  0.00    -0.252 OA
BRANCH  75  77
ATOM     77  C   UNL A   1      34.449  24.171  23.786  1.00  0.00     0.124 C 
ATOM     78  C   UNL A   1      34.411  24.718  25.178  1.00  0.00    -0.014 C 
ATOM     79  C   UNL A   1      33.816  25.304  22.961  1.00  0.00     0.048 C 
ATOM     80  C   UNL A   1      33.655  25.818  25.264  1.00  0.00    -0.006 C 
ATOM     81  C   UNL A   1      33.068  26.221  23.947  1.00  0.00     0.106 C 
BRANCH  81  82
ATOM     82  N   UNL A   1      31.639  26.002  24.019  1.00  0.00    -0.347 N 
ATOM     83  C   UNL A   1      30.612  26.859  23.733  1.00  0.00     0.261 C 
ATOM     84  H   UNL A   1      31.366  25.104  24.318  1.00  0.00     0.164 HD
ATOM     85  O   UNL A   1      29.479  26.513  24.079  1.00  0.00    -0.271 OA
BRANCH  83  86
ATOM     86  C   UNL A   1      30.858  28.240  23.086  1.00  0.00     0.266 C 
ATOM     87  C   UNL A   1      30.716  29.376  24.129  1.00  0.00     0.095 C 
ATOM     88  O   UNL A   1      30.024  28.524  21.947  1.00  0.00    -0.480 OA
ATOM     89  C   UNL A   1      29.673  30.208  23.482  1.00  0.00    -0.002 A 
ATOM     90  C   UNL A   1      29.337  29.660  22.260  1.00  0.00     0.123 A 
ATOM     91  C   UNL A   1      29.028  31.343  23.947  1.00  0.00     0.008 A 
ATOM     92  C   UNL A   1      28.366  30.212  21.449  1.00  0.00     0.047 A 
ATOM     93  C   UNL A   1      28.035  31.916  23.146  1.00  0.00     0.001 A 
ATOM     94  C   UNL A   1      27.706  31.354  21.902  1.00  0.00     0.004 A 
ENDBRANCH  83  86
ENDBRANCH  81  82
ENDBRANCH  75  77
ENDBRANCH  74  75
ENDBRANCH  73  74
ENDBRANCH  72  73
ENDBRANCH   1  72
TORSDOF 16
ENDMDL
