MODEL 1
REMARK VINA RESULT:     -11.0      0.000      0.000
REMARK SMILES O=C(OCCOCCOC(=O)c1cccc(S(=O)(=O)NC[C@@H]2CCOC2)c1)c1ccc(-c2c3nc(c(-c4c(F)c(F)c(F)c(F)c4F)c4ccc([nH]4)c(-c4c(F)c(F)c(F)c(F)c4F)c4nc(c(-c5c(F)c(F)c(F)c(F)c5F)c5ccc2[nH]5)C=C4)C=C3)cc1
REMARK SMILES IDX 7 1 6 2 5 3 4 4 3 5 2 6 1 7 28 8 29 9 90 10 30 11 89 12
REMARK SMILES IDX 31 13 32 14 33 15 83 16 34 17 88 18 82 19 84 20 35 21 87 22
REMARK SMILES IDX 81 23 80 24 36 26 68 27 48 28 67 29 49 30 52 31 66 32 85 33
REMARK SMILES IDX 50 34 51 35 65 37 86 38 53 39 37 40 38 41 46 42 39 43 40 44
REMARK SMILES IDX 44 45 47 46 41 47 42 48 45 49 43 50 69 51 70 52 78 53 71 54
REMARK SMILES IDX 72 55 76 56 79 57 73 58 74 59 77 60 75 61 54 62 55 63 63 64
REMARK SMILES IDX 56 65 57 66 61 67 64 68 58 69 59 70 62 71 60 72 8 73 9 74
REMARK SMILES IDX 10 75 11 76 12 77 13 78 27 79 14 80 16 81 15 82 17 83 18 84
REMARK SMILES IDX 19 85 20 86 21 88 22 89 23 90 26 91 24 92 25 93
REMARK H PARENT 84 25 52 36 20 87
REMARK Flexibility Score: inf
ROOT
ATOM      1  C   UNL A   1      41.462  21.147  26.126  1.00  0.00     0.202 C 
ENDROOT
BRANCH   1   2
ATOM      2  O   UNL A   1      41.616  19.761  25.799  1.00  0.00    -0.374 OA
BRANCH   2   3
ATOM      3  C   UNL A   1      42.368  18.976  26.724  1.00  0.00     0.202 C 
BRANCH   3   4
ATOM      4  C   UNL A   1      43.511  18.221  26.050  1.00  0.00     0.261 C 
BRANCH   4   5
ATOM      5  O   UNL A   1      43.798  18.805  24.769  1.00  0.00    -0.460 OA
BRANCH   5   6
ATOM      6  C   UNL A   1      44.838  19.595  24.418  1.00  0.00     0.338 C 
ATOM      7  O   UNL A   1      45.732  19.107  23.727  1.00  0.00    -0.246 OA
BRANCH   6   8
ATOM      8  C   UNL A   1      44.947  21.049  24.756  1.00  0.00     0.060 A 
ATOM      9  C   UNL A   1      44.694  22.116  23.891  1.00  0.00     0.016 A 
ATOM     10  C   UNL A   1      45.258  21.353  26.095  1.00  0.00     0.016 A 
ATOM     11  C   UNL A   1      44.805  23.436  24.313  1.00  0.00     0.010 A 
ATOM     12  C   UNL A   1      45.350  22.676  26.536  1.00  0.00     0.010 A 
ATOM     13  C   UNL A   1      45.150  23.722  25.632  1.00  0.00    -0.014 A 
BRANCH  13  14
ATOM     14  C   UNL A   1      45.427  25.125  25.987  1.00  0.00     0.031 A 
ATOM     15  C   UNL A   1      44.333  25.924  26.626  1.00  0.00     0.074 A 
ATOM     16  C   UNL A   1      46.673  25.613  25.866  1.00  0.00     0.049 A 
ATOM     17  N   UNL A   1      44.357  27.148  27.079  1.00  0.00    -0.248 NA
ATOM     18  C   UNL A   1      43.040  25.241  26.795  1.00  0.00     0.031 C 
ATOM     19  C   UNL A   1      47.821  24.870  25.345  1.00  0.00     0.029 A 
ATOM     20  N   UNL A   1      47.191  26.833  26.211  1.00  0.00    -0.354 N 
ATOM     21  C   UNL A   1      43.083  27.386  27.574  1.00  0.00     0.074 A 
ATOM     22  C   UNL A   1      42.307  26.185  27.362  1.00  0.00     0.031 C 
ATOM     23  C   UNL A   1      48.918  25.640  25.438  1.00  0.00     0.029 A 
ATOM     24  C   UNL A   1      48.541  26.939  25.987  1.00  0.00     0.049 A 
ATOM     25  H   UNL A   1      46.647  27.564  26.585  1.00  0.00     0.167 HD
ATOM     26  C   UNL A   1      42.606  28.514  28.150  1.00  0.00     0.037 A 
ATOM     27  C   UNL A   1      49.370  27.977  26.206  1.00  0.00     0.037 A 
ATOM     28  C   UNL A   1      43.388  29.702  28.343  1.00  0.00     0.049 A 
ATOM     29  C   UNL A   1      48.799  29.239  26.795  1.00  0.00     0.074 A 
ATOM     30  C   UNL A   1      42.994  30.931  28.836  1.00  0.00     0.029 A 
ATOM     31  N   UNL A   1      44.742  29.798  28.050  1.00  0.00    -0.354 N 
ATOM     32  N   UNL A   1      47.577  29.480  27.207  1.00  0.00    -0.248 NA
ATOM     33  C   UNL A   1      49.717  30.376  26.940  1.00  0.00     0.031 C 
ATOM     34  C   UNL A   1      44.106  31.781  28.817  1.00  0.00     0.029 A 
ATOM     35  C   UNL A   1      45.199  31.070  28.345  1.00  0.00     0.049 A 
ATOM     36  H   UNL A   1      45.295  29.069  27.687  1.00  0.00     0.167 HD
ATOM     37  C   UNL A   1      47.580  30.786  27.673  1.00  0.00     0.074 A 
ATOM     38  C   UNL A   1      48.934  31.281  27.509  1.00  0.00     0.031 C 
ATOM     39  C   UNL A   1      46.558  31.518  28.180  1.00  0.00     0.037 A 
BRANCH  26  40
ATOM     40  C   UNL A   1      41.161  28.511  28.539  1.00  0.00     0.064 A 
ATOM     41  C   UNL A   1      40.163  28.980  27.674  1.00  0.00     0.173 A 
ATOM     42  C   UNL A   1      40.776  28.078  29.817  1.00  0.00     0.173 A 
ATOM     43  F   UNL A   1      40.487  29.436  26.454  1.00  0.00    -0.203 F 
ATOM     44  C   UNL A   1      38.833  29.040  28.083  1.00  0.00     0.198 A 
ATOM     45  C   UNL A   1      39.443  28.123  30.216  1.00  0.00     0.198 A 
ATOM     46  F   UNL A   1      41.697  27.634  30.684  1.00  0.00    -0.203 F 
ATOM     47  F   UNL A   1      37.902  29.545  27.261  1.00  0.00    -0.200 F 
ATOM     48  C   UNL A   1      38.475  28.611  29.353  1.00  0.00     0.200 A 
ATOM     49  F   UNL A   1      39.100  27.710  31.444  1.00  0.00    -0.200 F 
ATOM     50  F   UNL A   1      37.196  28.684  29.751  1.00  0.00    -0.200 F 
ENDBRANCH  26  40
BRANCH  27  51
ATOM     51  C   UNL A   1      50.812  27.866  25.867  1.00  0.00     0.064 A 
ATOM     52  C   UNL A   1      51.762  27.548  26.847  1.00  0.00     0.173 A 
ATOM     53  C   UNL A   1      51.271  28.073  24.557  1.00  0.00     0.173 A 
ATOM     54  F   UNL A   1      51.378  27.365  28.118  1.00  0.00    -0.203 F 
ATOM     55  C   UNL A   1      53.117  27.454  26.532  1.00  0.00     0.198 A 
ATOM     56  C   UNL A   1      52.622  27.953  24.239  1.00  0.00     0.198 A 
ATOM     57  F   UNL A   1      50.404  28.382  23.583  1.00  0.00    -0.203 F 
ATOM     58  F   UNL A   1      54.009  27.187  27.495  1.00  0.00    -0.200 F 
ATOM     59  C   UNL A   1      53.545  27.649  25.228  1.00  0.00     0.200 A 
ATOM     60  F   UNL A   1      53.029  28.133  22.975  1.00  0.00    -0.200 F 
ATOM     61  F   UNL A   1      54.847  27.554  24.925  1.00  0.00    -0.200 F 
ENDBRANCH  27  51
BRANCH  39  62
ATOM     62  C   UNL A   1      46.876  32.916  28.611  1.00  0.00     0.064 A 
ATOM     63  C   UNL A   1      46.750  33.996  27.728  1.00  0.00     0.173 A 
ATOM     64  C   UNL A   1      47.266  33.179  29.932  1.00  0.00     0.173 A 
ATOM     65  F   UNL A   1      46.394  33.787  26.451  1.00  0.00    -0.203 F 
ATOM     66  C   UNL A   1      47.022  35.293  28.147  1.00  0.00     0.198 A 
ATOM     67  C   UNL A   1      47.517  34.480  30.354  1.00  0.00     0.198 A 
ATOM     68  F   UNL A   1      47.394  32.175  30.812  1.00  0.00    -0.203 F 
ATOM     69  F   UNL A   1      46.929  36.311  27.279  1.00  0.00    -0.200 F 
ATOM     70  C   UNL A   1      47.399  35.535  29.461  1.00  0.00     0.200 A 
ATOM     71  F   UNL A   1      47.874  34.713  31.624  1.00  0.00    -0.200 F 
ATOM     72  F   UNL A   1      47.657  36.786  29.865  1.00  0.00    -0.200 F 
ENDBRANCH  39  62
ENDBRANCH  13  14
ENDBRANCH   6   8
ENDBRANCH   5   6
ENDBRANCH   4   5
ENDBRANCH   3   4
ENDBRANCH   2   3
ENDBRANCH   1   2
BRANCH   1  73
ATOM     73  C   UNL A   1      40.099  21.358  26.787  1.00  0.00     0.261 C 
BRANCH  73  74
ATOM     74  O   UNL A   1      39.138  21.585  25.748  1.00  0.00    -0.460 OA
BRANCH  74  75
ATOM     75  C   UNL A   1      38.349  22.671  25.949  1.00  0.00     0.338 C 
ATOM     76  O   UNL A   1      38.650  23.704  26.520  1.00  0.00    -0.246 OA
BRANCH  75  77
ATOM     77  C   UNL A   1      37.063  22.460  25.243  1.00  0.00     0.061 A 
ATOM     78  C   UNL A   1      36.818  23.176  24.064  1.00  0.00     0.016 A 
ATOM     79  C   UNL A   1      36.078  21.625  25.774  1.00  0.00     0.037 A 
ATOM     80  C   UNL A   1      35.575  23.093  23.440  1.00  0.00     0.002 A 
ATOM     81  C   UNL A   1      34.791  21.699  25.250  1.00  0.00     0.083 A 
ATOM     82  C   UNL A   1      34.544  22.384  24.054  1.00  0.00     0.022 A 
BRANCH  81  83
ATOM     83  S   UNL A   1      33.418  21.202  26.264  1.00  0.00     0.240 S 
ATOM     84  O   UNL A   1      33.790  21.457  27.643  1.00  0.00    -0.207 OA
ATOM     85  O   UNL A   1      32.231  21.776  25.685  1.00  0.00    -0.207 OA
BRANCH  83  86
ATOM     86  N   UNL A   1      33.256  19.522  26.093  1.00  0.00    -0.211 NA
ATOM     87  H   UNL A   1      32.292  19.312  26.353  1.00  0.00     0.141 HD
BRANCH  86  88
ATOM     88  C   UNL A   1      33.498  18.787  24.840  1.00  0.00     0.105 C 
BRANCH  88  89
ATOM     89  C   UNL A   1      32.665  17.528  24.626  1.00  0.00     0.032 C 
ATOM     90  C   UNL A   1      32.835  16.468  25.695  1.00  0.00     0.036 C 
ATOM     91  C   UNL A   1      33.264  16.777  23.434  1.00  0.00     0.165 C 
ATOM     92  C   UNL A   1      34.187  15.865  25.370  1.00  0.00     0.160 C 
ATOM     93  O   UNL A   1      34.376  16.028  23.956  1.00  0.00    -0.381 OA
ENDBRANCH  88  89
ENDBRANCH  86  88
ENDBRANCH  83  86
ENDBRANCH  81  83
ENDBRANCH  75  77
ENDBRANCH  74  75
ENDBRANCH  73  74
ENDBRANCH   1  73
TORSDOF 18
ENDMDL
MODEL 2
REMARK VINA RESULT:     -10.9      3.494      9.046
REMARK SMILES O=C(OCCOCCOC(=O)c1cccc(S(=O)(=O)NC[C@@H]2CCOC2)c1)c1ccc(-c2c3nc(c(-c4c(F)c(F)c(F)c(F)c4F)c4ccc([nH]4)c(-c4c(F)c(F)c(F)c(F)c4F)c4nc(c(-c5c(F)c(F)c(F)c(F)c5F)c5ccc2[nH]5)C=C4)C=C3)cc1
REMARK SMILES IDX 7 1 6 2 5 3 4 4 3 5 2 6 1 7 28 8 29 9 90 10 30 11 89 12
REMARK SMILES IDX 31 13 32 14 33 15 83 16 34 17 88 18 82 19 84 20 35 21 87 22
REMARK SMILES IDX 81 23 80 24 36 26 68 27 48 28 67 29 49 30 52 31 66 32 85 33
REMARK SMILES IDX 50 34 51 35 65 37 86 38 53 39 37 40 38 41 46 42 39 43 40 44
REMARK SMILES IDX 44 45 47 46 41 47 42 48 45 49 43 50 69 51 70 52 78 53 71 54
REMARK SMILES IDX 72 55 76 56 79 57 73 58 74 59 77 60 75 61 54 62 55 63 63 64
REMARK SMILES IDX 56 65 57 66 61 67 64 68 58 69 59 70 62 71 60 72 8 73 9 74
REMARK SMILES IDX 10 75 11 76 12 77 13 78 27 79 14 80 16 81 15 82 17 83 18 84
REMARK SMILES IDX 19 85 20 86 21 88 22 89 23 90 26 91 24 92 25 93
REMARK H PARENT 84 25 52 36 20 87
REMARK Flexibility Score: inf
ROOT
ATOM      1  C   UNL A   1      35.198  20.655  25.305  1.00  0.00     0.202 C 
ENDROOT
BRANCH   1   2
ATOM      2  O   UNL A   1      35.847  21.645  24.498  1.00  0.00    -0.374 OA
BRANCH   2   3
ATOM      3  C   UNL A   1      37.273  21.665  24.554  1.00  0.00     0.202 C 
BRANCH   3   4
ATOM      4  C   UNL A   1      37.844  20.443  25.270  1.00  0.00     0.261 C 
BRANCH   4   5
ATOM      5  O   UNL A   1      39.264  20.589  25.435  1.00  0.00    -0.460 OA
BRANCH   5   6
ATOM      6  C   UNL A   1      39.952  20.906  26.555  1.00  0.00     0.338 C 
ATOM      7  O   UNL A   1      40.325  19.991  27.289  1.00  0.00    -0.246 OA
BRANCH   6   8
ATOM      8  C   UNL A   1      40.355  22.297  26.934  1.00  0.00     0.060 A 
ATOM      9  C   UNL A   1      39.808  23.479  26.427  1.00  0.00     0.016 A 
ATOM     10  C   UNL A   1      41.320  22.408  27.952  1.00  0.00     0.016 A 
ATOM     11  C   UNL A   1      40.242  24.726  26.864  1.00  0.00     0.010 A 
ATOM     12  C   UNL A   1      41.747  23.656  28.414  1.00  0.00     0.010 A 
ATOM     13  C   UNL A   1      41.226  24.820  27.846  1.00  0.00    -0.014 A 
BRANCH  13  14
ATOM     14  C   UNL A   1      41.777  26.153  28.148  1.00  0.00     0.031 A 
ATOM     15  C   UNL A   1      43.128  26.501  27.604  1.00  0.00     0.074 A 
ATOM     16  C   UNL A   1      41.014  27.067  28.770  1.00  0.00     0.049 A 
ATOM     17  N   UNL A   1      43.790  27.624  27.684  1.00  0.00    -0.248 NA
ATOM     18  C   UNL A   1      43.821  25.442  26.852  1.00  0.00     0.031 C 
ATOM     19  C   UNL A   1      39.649  26.842  29.244  1.00  0.00     0.029 A 
ATOM     20  N   UNL A   1      41.263  28.380  29.073  1.00  0.00    -0.354 N 
ATOM     21  C   UNL A   1      44.979  27.404  27.005  1.00  0.00     0.074 A 
ATOM     22  C   UNL A   1      44.955  26.040  26.523  1.00  0.00     0.031 C 
ATOM     23  C   UNL A   1      39.166  27.990  29.748  1.00  0.00     0.029 A 
ATOM     24  C   UNL A   1      40.202  29.016  29.665  1.00  0.00     0.049 A 
ATOM     25  H   UNL A   1      42.121  28.824  28.883  1.00  0.00     0.167 HD
ATOM     26  C   UNL A   1      46.002  28.267  26.806  1.00  0.00     0.037 A 
ATOM     27  C   UNL A   1      40.091  30.289  30.092  1.00  0.00     0.037 A 
ATOM     28  C   UNL A   1      46.014  29.615  27.300  1.00  0.00     0.049 A 
ATOM     29  C   UNL A   1      41.267  31.211  29.910  1.00  0.00     0.074 A 
ATOM     30  C   UNL A   1      47.025  30.554  27.237  1.00  0.00     0.029 A 
ATOM     31  N   UNL A   1      44.945  30.214  27.952  1.00  0.00    -0.354 N 
ATOM     32  N   UNL A   1      42.415  30.980  29.318  1.00  0.00    -0.248 NA
ATOM     33  C   UNL A   1      41.138  32.565  30.462  1.00  0.00     0.031 C 
ATOM     34  C   UNL A   1      46.575  31.717  27.874  1.00  0.00     0.029 A 
ATOM     35  C   UNL A   1      45.273  31.511  28.303  1.00  0.00     0.049 A 
ATOM     36  H   UNL A   1      44.080  29.780  28.136  1.00  0.00     0.167 HD
ATOM     37  C   UNL A   1      43.139  32.159  29.412  1.00  0.00     0.074 A 
ATOM     38  C   UNL A   1      42.291  33.111  30.104  1.00  0.00     0.031 C 
ATOM     39  C   UNL A   1      44.394  32.431  28.979  1.00  0.00     0.037 A 
BRANCH  26  40
ATOM     40  C   UNL A   1      47.199  27.736  26.081  1.00  0.00     0.064 A 
ATOM     41  C   UNL A   1      48.331  27.274  26.768  1.00  0.00     0.173 A 
ATOM     42  C   UNL A   1      47.233  27.739  24.679  1.00  0.00     0.173 A 
ATOM     43  F   UNL A   1      48.358  27.284  28.109  1.00  0.00    -0.203 F 
ATOM     44  C   UNL A   1      49.464  26.855  26.075  1.00  0.00     0.198 A 
ATOM     45  C   UNL A   1      48.361  27.303  23.991  1.00  0.00     0.198 A 
ATOM     46  F   UNL A   1      46.180  28.185  23.980  1.00  0.00    -0.203 F 
ATOM     47  F   UNL A   1      50.557  26.469  26.750  1.00  0.00    -0.200 F 
ATOM     48  C   UNL A   1      49.478  26.869  24.687  1.00  0.00     0.200 A 
ATOM     49  F   UNL A   1      48.373  27.321  22.650  1.00  0.00    -0.200 F 
ATOM     50  F   UNL A   1      50.575  26.481  24.022  1.00  0.00    -0.200 F 
ENDBRANCH  26  40
BRANCH  27  51
ATOM     51  C   UNL A   1      38.833  30.757  30.726  1.00  0.00     0.064 A 
ATOM     52  C   UNL A   1      37.770  31.243  29.953  1.00  0.00     0.173 A 
ATOM     53  C   UNL A   1      38.665  30.729  32.119  1.00  0.00     0.173 A 
ATOM     54  F   UNL A   1      37.890  31.314  28.619  1.00  0.00    -0.203 F 
ATOM     55  C   UNL A   1      36.592  31.694  30.548  1.00  0.00     0.198 A 
ATOM     56  C   UNL A   1      37.477  31.155  32.711  1.00  0.00     0.198 A 
ATOM     57  F   UNL A   1      39.651  30.276  32.906  1.00  0.00    -0.203 F 
ATOM     58  F   UNL A   1      35.607  32.189  29.787  1.00  0.00    -0.200 F 
ATOM     59  C   UNL A   1      36.444  31.642  31.925  1.00  0.00     0.200 A 
ATOM     60  F   UNL A   1      37.336  31.094  34.043  1.00  0.00    -0.200 F 
ATOM     61  F   UNL A   1      35.310  32.070  32.497  1.00  0.00    -0.200 F 
ENDBRANCH  27  51
BRANCH  39  62
ATOM     62  C   UNL A   1      44.908  33.816  29.222  1.00  0.00     0.064 A 
ATOM     63  C   UNL A   1      45.627  34.132  30.382  1.00  0.00     0.173 A 
ATOM     64  C   UNL A   1      44.716  34.821  28.263  1.00  0.00     0.173 A 
ATOM     65  F   UNL A   1      45.820  33.204  31.331  1.00  0.00    -0.203 F 
ATOM     66  C   UNL A   1      46.122  35.415  30.584  1.00  0.00     0.198 A 
ATOM     67  C   UNL A   1      45.232  36.099  28.459  1.00  0.00     0.198 A 
ATOM     68  F   UNL A   1      44.039  34.561  27.136  1.00  0.00    -0.203 F 
ATOM     69  F   UNL A   1      46.779  35.709  31.716  1.00  0.00    -0.200 F 
ATOM     70  C   UNL A   1      45.930  36.396  29.620  1.00  0.00     0.200 A 
ATOM     71  F   UNL A   1      45.051  37.042  27.525  1.00  0.00    -0.200 F 
ATOM     72  F   UNL A   1      46.412  37.630  29.815  1.00  0.00    -0.200 F 
ENDBRANCH  39  62
ENDBRANCH  13  14
ENDBRANCH   6   8
ENDBRANCH   5   6
ENDBRANCH   4   5
ENDBRANCH   3   4
ENDBRANCH   2   3
ENDBRANCH   1   2
BRANCH   1  73
ATOM     73  C   UNL A   1      33.706  20.980  25.396  1.00  0.00     0.261 C 
BRANCH  73  74
ATOM     74  O   UNL A   1      33.436  22.055  24.486  1.00  0.00    -0.460 OA
BRANCH  74  75
ATOM     75  C   UNL A   1      32.469  22.909  24.910  1.00  0.00     0.338 C 
ATOM     76  O   UNL A   1      31.384  22.619  25.379  1.00  0.00    -0.246 OA
BRANCH  75  77
ATOM     77  C   UNL A   1      32.993  24.294  24.830  1.00  0.00     0.061 A 
ATOM     78  C   UNL A   1      33.025  25.069  25.997  1.00  0.00     0.016 A 
ATOM     79  C   UNL A   1      33.377  24.850  23.607  1.00  0.00     0.037 A 
ATOM     80  C   UNL A   1      33.398  26.411  25.936  1.00  0.00     0.002 A 
ATOM     81  C   UNL A   1      33.563  26.226  23.533  1.00  0.00     0.083 A 
ATOM     82  C   UNL A   1      33.630  27.004  24.696  1.00  0.00     0.022 A 
BRANCH  81  83
ATOM     83  S   UNL A   1      33.390  27.036  21.959  1.00  0.00     0.240 S 
ATOM     84  O   UNL A   1      34.358  28.115  21.925  1.00  0.00    -0.207 OA
ATOM     85  O   UNL A   1      33.371  26.008  20.951  1.00  0.00    -0.207 OA
BRANCH  83  86
ATOM     86  N   UNL A   1      31.850  27.746  21.932  1.00  0.00    -0.211 NA
ATOM     87  H   UNL A   1      31.672  27.978  20.955  1.00  0.00     0.141 HD
BRANCH  86  88
ATOM     88  C   UNL A   1      30.623  27.089  22.413  1.00  0.00     0.105 C 
BRANCH  88  89
ATOM     89  C   UNL A   1      29.945  27.729  23.620  1.00  0.00     0.032 C 
ATOM     90  C   UNL A   1      28.456  27.958  23.460  1.00  0.00     0.036 C 
ATOM     91  C   UNL A   1      30.413  29.184  23.694  1.00  0.00     0.165 C 
ATOM     92  C   UNL A   1      28.389  29.160  22.539  1.00  0.00     0.160 C 
ATOM     93  O   UNL A   1      29.591  29.913  22.766  1.00  0.00    -0.381 OA
ENDBRANCH  88  89
ENDBRANCH  86  88
ENDBRANCH  83  86
ENDBRANCH  81  83
ENDBRANCH  75  77
ENDBRANCH  74  75
ENDBRANCH  73  74
ENDBRANCH   1  73
TORSDOF 18
ENDMDL
MODEL 3
REMARK VINA RESULT:     -10.8      5.257      9.734
REMARK SMILES O=C(OCCOCCOC(=O)c1cccc(S(=O)(=O)NC[C@@H]2CCOC2)c1)c1ccc(-c2c3nc(c(-c4c(F)c(F)c(F)c(F)c4F)c4ccc([nH]4)c(-c4c(F)c(F)c(F)c(F)c4F)c4nc(c(-c5c(F)c(F)c(F)c(F)c5F)c5ccc2[nH]5)C=C4)C=C3)cc1
REMARK SMILES IDX 7 1 6 2 5 3 4 4 3 5 2 6 1 7 28 8 29 9 90 10 30 11 89 12
REMARK SMILES IDX 31 13 32 14 33 15 83 16 34 17 88 18 82 19 84 20 35 21 87 22
REMARK SMILES IDX 81 23 80 24 36 26 68 27 48 28 67 29 49 30 52 31 66 32 85 33
REMARK SMILES IDX 50 34 51 35 65 37 86 38 53 39 37 40 38 41 46 42 39 43 40 44
REMARK SMILES IDX 44 45 47 46 41 47 42 48 45 49 43 50 69 51 70 52 78 53 71 54
REMARK SMILES IDX 72 55 76 56 79 57 73 58 74 59 77 60 75 61 54 62 55 63 63 64
REMARK SMILES IDX 56 65 57 66 61 67 64 68 58 69 59 70 62 71 60 72 8 73 9 74
REMARK SMILES IDX 10 75 11 76 12 77 13 78 27 79 14 80 16 81 15 82 17 83 18 84
REMARK SMILES IDX 19 85 20 86 21 88 22 89 23 90 26 91 24 92 25 93
REMARK H PARENT 84 25 52 36 20 87
REMARK Flexibility Score: inf
ROOT
ATOM      1  C   UNL A   1      40.740  21.820  26.486  1.00  0.00     0.202 C 
ENDROOT
BRANCH   1   2
ATOM      2  O   UNL A   1      41.692  21.806  25.417  1.00  0.00    -0.374 OA
BRANCH   2   3
ATOM      3  C   UNL A   1      43.023  21.428  25.765  1.00  0.00     0.202 C 
BRANCH   3   4
ATOM      4  C   UNL A   1      44.073  22.192  24.960  1.00  0.00     0.261 C 
BRANCH   4   5
ATOM      5  O   UNL A   1      43.617  23.530  24.703  1.00  0.00    -0.460 OA
BRANCH   5   6
ATOM      6  C   UNL A   1      44.128  24.696  25.158  1.00  0.00     0.338 C 
ATOM      7  O   UNL A   1      45.147  25.133  24.624  1.00  0.00    -0.246 OA
BRANCH   6   8
ATOM      8  C   UNL A   1      43.500  25.533  26.229  1.00  0.00     0.060 A 
ATOM      9  C   UNL A   1      43.752  26.886  26.468  1.00  0.00     0.016 A 
ATOM     10  C   UNL A   1      42.509  24.904  27.006  1.00  0.00     0.016 A 
ATOM     11  C   UNL A   1      43.096  27.579  27.481  1.00  0.00     0.010 A 
ATOM     12  C   UNL A   1      41.828  25.598  28.011  1.00  0.00     0.010 A 
ATOM     13  C   UNL A   1      42.145  26.933  28.267  1.00  0.00    -0.014 A 
BRANCH  13  14
ATOM     14  C   UNL A   1      41.608  27.654  29.435  1.00  0.00     0.031 A 
ATOM     15  C   UNL A   1      42.398  27.631  30.707  1.00  0.00     0.074 A 
ATOM     16  C   UNL A   1      40.515  28.424  29.302  1.00  0.00     0.049 A 
ATOM     17  N   UNL A   1      42.163  28.236  31.840  1.00  0.00    -0.248 NA
ATOM     18  C   UNL A   1      43.633  26.829  30.694  1.00  0.00     0.031 C 
ATOM     19  C   UNL A   1      39.742  28.582  28.070  1.00  0.00     0.029 A 
ATOM     20  N   UNL A   1      39.891  29.249  30.199  1.00  0.00    -0.354 N 
ATOM     21  C   UNL A   1      43.211  27.879  32.677  1.00  0.00     0.074 A 
ATOM     22  C   UNL A   1      44.081  27.001  31.927  1.00  0.00     0.031 C 
ATOM     23  C   UNL A   1      38.765  29.480  28.279  1.00  0.00     0.029 A 
ATOM     24  C   UNL A   1      38.823  29.928  29.668  1.00  0.00     0.049 A 
ATOM     25  H   UNL A   1      40.181  29.347  31.135  1.00  0.00     0.167 HD
ATOM     26  C   UNL A   1      43.421  28.251  33.960  1.00  0.00     0.037 A 
ATOM     27  C   UNL A   1      37.989  30.811  30.250  1.00  0.00     0.037 A 
ATOM     28  C   UNL A   1      42.541  29.116  34.693  1.00  0.00     0.049 A 
ATOM     29  C   UNL A   1      38.214  31.162  31.697  1.00  0.00     0.074 A 
ATOM     30  C   UNL A   1      42.602  29.496  36.020  1.00  0.00     0.029 A 
ATOM     31  N   UNL A   1      41.430  29.743  34.144  1.00  0.00    -0.354 N 
ATOM     32  N   UNL A   1      39.174  30.775  32.502  1.00  0.00    -0.248 NA
ATOM     33  C   UNL A   1      37.235  32.064  32.318  1.00  0.00     0.031 C 
ATOM     34  C   UNL A   1      41.511  30.335  36.281  1.00  0.00     0.029 A 
ATOM     35  C   UNL A   1      40.792  30.502  35.107  1.00  0.00     0.049 A 
ATOM     36  H   UNL A   1      41.140  29.659  33.206  1.00  0.00     0.167 HD
ATOM     37  C   UNL A   1      38.926  31.394  33.718  1.00  0.00     0.074 A 
ATOM     38  C   UNL A   1      37.733  32.198  33.539  1.00  0.00     0.031 C 
ATOM     39  C   UNL A   1      39.613  31.300  34.883  1.00  0.00     0.037 A 
BRANCH  26  40
ATOM     40  C   UNL A   1      44.614  27.661  34.645  1.00  0.00     0.064 A 
ATOM     41  C   UNL A   1      44.558  26.411  35.276  1.00  0.00     0.173 A 
ATOM     42  C   UNL A   1      45.816  28.382  34.713  1.00  0.00     0.173 A 
ATOM     43  F   UNL A   1      43.420  25.700  35.267  1.00  0.00    -0.203 F 
ATOM     44  C   UNL A   1      45.656  25.913  35.974  1.00  0.00     0.198 A 
ATOM     45  C   UNL A   1      46.916  27.872  35.395  1.00  0.00     0.198 A 
ATOM     46  F   UNL A   1      45.912  29.588  34.137  1.00  0.00    -0.203 F 
ATOM     47  F   UNL A   1      45.564  24.741  36.618  1.00  0.00    -0.200 F 
ATOM     48  C   UNL A   1      46.834  26.644  36.031  1.00  0.00     0.200 A 
ATOM     49  F   UNL A   1      48.053  28.582  35.453  1.00  0.00    -0.200 F 
ATOM     50  F   UNL A   1      47.885  26.171  36.717  1.00  0.00    -0.200 F 
ENDBRANCH  26  40
BRANCH  27  51
ATOM     51  C   UNL A   1      36.878  31.415  29.471  1.00  0.00     0.064 A 
ATOM     52  C   UNL A   1      35.763  30.655  29.095  1.00  0.00     0.173 A 
ATOM     53  C   UNL A   1      36.907  32.764  29.087  1.00  0.00     0.173 A 
ATOM     54  F   UNL A   1      35.698  29.355  29.416  1.00  0.00    -0.203 F 
ATOM     55  C   UNL A   1      34.724  31.218  28.354  1.00  0.00     0.198 A 
ATOM     56  C   UNL A   1      35.857  33.332  28.369  1.00  0.00     0.198 A 
ATOM     57  F   UNL A   1      37.952  33.535  29.419  1.00  0.00    -0.203 F 
ATOM     58  F   UNL A   1      33.687  30.460  27.974  1.00  0.00    -0.200 F 
ATOM     59  C   UNL A   1      34.768  32.558  27.998  1.00  0.00     0.200 A 
ATOM     60  F   UNL A   1      35.900  34.630  28.037  1.00  0.00    -0.200 F 
ATOM     61  F   UNL A   1      33.768  33.100  27.291  1.00  0.00    -0.200 F 
ENDBRANCH  27  51
BRANCH  39  62
ATOM     62  C   UNL A   1      39.100  32.104  36.037  1.00  0.00     0.064 A 
ATOM     63  C   UNL A   1      38.206  31.555  36.966  1.00  0.00     0.173 A 
ATOM     64  C   UNL A   1      39.543  33.419  36.238  1.00  0.00     0.173 A 
ATOM     65  F   UNL A   1      37.746  30.305  36.804  1.00  0.00    -0.203 F 
ATOM     66  C   UNL A   1      37.758  32.302  38.049  1.00  0.00     0.198 A 
ATOM     67  C   UNL A   1      39.109  34.157  37.334  1.00  0.00     0.198 A 
ATOM     68  F   UNL A   1      40.403  33.982  35.376  1.00  0.00    -0.203 F 
ATOM     69  F   UNL A   1      36.877  31.772  38.909  1.00  0.00    -0.200 F 
ATOM     70  C   UNL A   1      38.214  33.600  38.236  1.00  0.00     0.200 A 
ATOM     71  F   UNL A   1      39.555  35.407  37.517  1.00  0.00    -0.200 F 
ATOM     72  F   UNL A   1      37.784  34.317  39.283  1.00  0.00    -0.200 F 
ENDBRANCH  39  62
ENDBRANCH  13  14
ENDBRANCH   6   8
ENDBRANCH   5   6
ENDBRANCH   4   5
ENDBRANCH   3   4
ENDBRANCH   2   3
ENDBRANCH   1   2
BRANCH   1  73
ATOM     73  C   UNL A   1      39.543  20.947  26.105  1.00  0.00     0.261 C 
BRANCH  73  74
ATOM     74  O   UNL A   1      38.473  21.817  25.712  1.00  0.00    -0.460 OA
BRANCH  74  75
ATOM     75  C   UNL A   1      37.449  21.188  25.080  1.00  0.00     0.338 C 
ATOM     76  O   UNL A   1      37.401  20.020  24.739  1.00  0.00    -0.246 OA
BRANCH  75  77
ATOM     77  C   UNL A   1      36.309  22.130  24.971  1.00  0.00     0.061 A 
ATOM     78  C   UNL A   1      36.371  23.344  25.667  1.00  0.00     0.016 A 
ATOM     79  C   UNL A   1      35.161  21.790  24.252  1.00  0.00     0.037 A 
ATOM     80  C   UNL A   1      35.270  24.198  25.683  1.00  0.00     0.002 A 
ATOM     81  C   UNL A   1      34.014  22.557  24.432  1.00  0.00     0.083 A 
ATOM     82  C   UNL A   1      34.073  23.788  25.097  1.00  0.00     0.022 A 
BRANCH  81  83
ATOM     83  S   UNL A   1      32.428  21.826  24.104  1.00  0.00     0.240 S 
ATOM     84  O   UNL A   1      31.820  21.530  25.388  1.00  0.00    -0.207 OA
ATOM     85  O   UNL A   1      31.768  22.656  23.130  1.00  0.00    -0.207 OA
BRANCH  83  86
ATOM     86  N   UNL A   1      32.714  20.341  23.334  1.00  0.00    -0.211 NA
ATOM     87  H   UNL A   1      33.719  20.309  23.164  1.00  0.00     0.141 HD
BRANCH  86  88
ATOM     88  C   UNL A   1      32.366  19.029  23.905  1.00  0.00     0.105 C 
BRANCH  88  89
ATOM     89  C   UNL A   1      33.370  18.435  24.888  1.00  0.00     0.032 C 
ATOM     90  C   UNL A   1      34.628  17.883  24.251  1.00  0.00     0.036 C 
ATOM     91  C   UNL A   1      32.772  17.133  25.426  1.00  0.00     0.165 C 
ATOM     92  C   UNL A   1      34.160  16.578  23.638  1.00  0.00     0.160 C 
ATOM     93  O   UNL A   1      33.053  16.129  24.436  1.00  0.00    -0.381 OA
ENDBRANCH  88  89
ENDBRANCH  86  88
ENDBRANCH  83  86
ENDBRANCH  81  83
ENDBRANCH  75  77
ENDBRANCH  74  75
ENDBRANCH  73  74
ENDBRANCH   1  73
TORSDOF 18
ENDMDL
