MODEL 1
REMARK VINA RESULT:     -12.1      0.000      0.000
REMARK SMILES O=C(OCCOCCOC(=O)c1nccnc1C(=O)Nc1n[nH]c2ncccc12)c1ccc(-c2c3nc(c(-c4c(F)c(F)c(F)c(F)c4F)c4ccc([nH]4)c(-c4c(F)c(F)c(F)c(F)c4F)c4nc(c(-c5c(F)c(F)c(F)c(F)c5F)c5ccc2[nH]5)C=C4)C=C3)cc1
REMARK SMILES IDX 6 1 5 2 4 3 3 4 2 5 1 6 30 7 31 8 92 9 32 10 91 11 33 12
REMARK SMILES IDX 34 13 35 14 85 15 36 16 90 17 84 18 86 19 37 20 89 21 83 22
REMARK SMILES IDX 82 23 38 25 70 26 50 27 69 28 51 29 54 30 68 31 87 32 52 33
REMARK SMILES IDX 53 34 67 36 88 37 55 38 39 39 40 40 48 41 41 42 42 43 46 44
REMARK SMILES IDX 49 45 43 46 44 47 47 48 45 49 71 50 72 51 80 52 73 53 74 54
REMARK SMILES IDX 78 55 81 56 75 57 76 58 79 59 77 60 56 61 57 62 65 63 58 64
REMARK SMILES IDX 59 65 63 66 66 67 60 68 61 69 64 70 62 71 7 72 8 73 9 74
REMARK SMILES IDX 10 75 11 76 12 77 13 78 17 79 14 80 16 81 15 82 18 83 19 84
REMARK SMILES IDX 20 85 21 87 22 88 29 89 23 90 24 91 28 92 25 94 27 95 26 96
REMARK H PARENT 86 24 54 35 20 86 23 93
REMARK Flexibility Score: inf
ROOT
ATOM      1  O   UNL A   1      30.166  29.211  23.735  1.00  0.00    -0.374 OA
ENDROOT
BRANCH   1   2
ATOM      2  C   UNL A   1      30.926  30.059  24.634  1.00  0.00     0.202 C 
BRANCH   2   3
ATOM      3  C   UNL A   1      31.801  29.464  25.749  1.00  0.00     0.261 C 
BRANCH   3   4
ATOM      4  O   UNL A   1      33.080  30.078  25.892  1.00  0.00    -0.460 OA
BRANCH   4   5
ATOM      5  C   UNL A   1      33.388  30.982  26.843  1.00  0.00     0.338 C 
ATOM      6  O   UNL A   1      32.610  31.877  27.160  1.00  0.00    -0.246 OA
BRANCH   5   7
ATOM      7  C   UNL A   1      34.639  30.807  27.600  1.00  0.00     0.060 A 
ATOM      8  C   UNL A   1      35.055  29.541  27.981  1.00  0.00     0.016 A 
ATOM      9  C   UNL A   1      35.468  31.891  27.856  1.00  0.00     0.016 A 
ATOM     10  C   UNL A   1      36.152  29.340  28.787  1.00  0.00     0.010 A 
ATOM     11  C   UNL A   1      36.685  31.675  28.509  1.00  0.00     0.010 A 
ATOM     12  C   UNL A   1      37.020  30.399  29.003  1.00  0.00    -0.014 A 
BRANCH  12  13
ATOM     13  C   UNL A   1      38.245  30.163  29.795  1.00  0.00     0.031 A 
ATOM     14  C   UNL A   1      39.341  29.371  29.164  1.00  0.00     0.074 A 
ATOM     15  C   UNL A   1      38.391  30.708  31.020  1.00  0.00     0.049 A 
ATOM     16  N   UNL A   1      40.357  28.775  29.717  1.00  0.00    -0.248 NA
ATOM     17  C   UNL A   1      39.264  29.211  27.701  1.00  0.00     0.031 C 
ATOM     18  C   UNL A   1      37.450  31.630  31.666  1.00  0.00     0.029 A 
ATOM     19  N   UNL A   1      39.403  30.590  31.934  1.00  0.00    -0.354 N 
ATOM     20  C   UNL A   1      40.981  28.081  28.690  1.00  0.00     0.074 A 
ATOM     21  C   UNL A   1      40.251  28.358  27.473  1.00  0.00     0.031 C 
ATOM     22  C   UNL A   1      37.958  32.039  32.836  1.00  0.00     0.029 A 
ATOM     23  C   UNL A   1      39.180  31.294  33.094  1.00  0.00     0.049 A 
ATOM     24  H   UNL A   1      40.213  30.052  31.777  1.00  0.00     0.167 HD
ATOM     25  C   UNL A   1      42.051  27.261  28.787  1.00  0.00     0.037 A 
ATOM     26  C   UNL A   1      39.851  31.272  34.259  1.00  0.00     0.037 A 
ATOM     27  C   UNL A   1      42.768  27.070  30.020  1.00  0.00     0.049 A 
ATOM     28  C   UNL A   1      41.005  30.313  34.364  1.00  0.00     0.074 A 
ATOM     29  C   UNL A   1      43.834  26.234  30.289  1.00  0.00     0.029 A 
ATOM     30  N   UNL A   1      42.487  27.760  31.196  1.00  0.00    -0.354 N 
ATOM     31  N   UNL A   1      41.514  29.528  33.441  1.00  0.00    -0.248 NA
ATOM     32  C   UNL A   1      41.650  30.198  35.675  1.00  0.00     0.031 C 
ATOM     33  C   UNL A   1      44.171  26.392  31.640  1.00  0.00     0.029 A 
ATOM     34  C   UNL A   1      43.353  27.365  32.197  1.00  0.00     0.049 A 
ATOM     35  H   UNL A   1      41.774  28.430  31.299  1.00  0.00     0.167 HD
ATOM     36  C   UNL A   1      42.549  28.838  34.052  1.00  0.00     0.074 A 
ATOM     37  C   UNL A   1      42.605  29.316  35.422  1.00  0.00     0.031 C 
ATOM     38  C   UNL A   1      43.374  27.891  33.540  1.00  0.00     0.037 A 
BRANCH  25  39
ATOM     39  C   UNL A   1      42.410  26.457  27.572  1.00  0.00     0.064 A 
ATOM     40  C   UNL A   1      41.815  25.221  27.278  1.00  0.00     0.173 A 
ATOM     41  C   UNL A   1      43.431  26.908  26.719  1.00  0.00     0.173 A 
ATOM     42  F   UNL A   1      40.862  24.724  28.079  1.00  0.00    -0.203 F 
ATOM     43  C   UNL A   1      42.256  24.451  26.203  1.00  0.00     0.198 A 
ATOM     44  C   UNL A   1      43.845  26.151  25.627  1.00  0.00     0.198 A 
ATOM     45  F   UNL A   1      44.045  28.077  26.959  1.00  0.00    -0.203 F 
ATOM     46  F   UNL A   1      41.726  23.238  25.989  1.00  0.00    -0.200 F 
ATOM     47  C   UNL A   1      43.268  24.917  25.377  1.00  0.00     0.200 A 
ATOM     48  F   UNL A   1      44.823  26.606  24.830  1.00  0.00    -0.200 F 
ATOM     49  F   UNL A   1      43.699  24.169  24.353  1.00  0.00    -0.200 F 
ENDBRANCH  25  39
BRANCH  26  50
ATOM     50  C   UNL A   1      39.408  32.101  35.414  1.00  0.00     0.064 A 
ATOM     51  C   UNL A   1      39.867  33.416  35.576  1.00  0.00     0.173 A 
ATOM     52  C   UNL A   1      38.517  31.606  36.381  1.00  0.00     0.173 A 
ATOM     53  F   UNL A   1      40.738  33.933  34.698  1.00  0.00    -0.203 F 
ATOM     54  C   UNL A   1      39.464  34.195  36.661  1.00  0.00     0.198 A 
ATOM     55  C   UNL A   1      38.086  32.398  37.444  1.00  0.00     0.198 A 
ATOM     56  F   UNL A   1      38.046  30.355  36.284  1.00  0.00    -0.203 F 
ATOM     57  F   UNL A   1      39.956  35.432  36.815  1.00  0.00    -0.200 F 
ATOM     58  C   UNL A   1      38.567  33.689  37.589  1.00  0.00     0.200 A 
ATOM     59  F   UNL A   1      37.204  31.908  38.326  1.00  0.00    -0.200 F 
ATOM     60  F   UNL A   1      38.173  34.440  38.627  1.00  0.00    -0.200 F 
ENDBRANCH  26  50
BRANCH  38  61
ATOM     61  C   UNL A   1      44.436  27.369  34.458  1.00  0.00     0.064 A 
ATOM     62  C   UNL A   1      45.679  28.003  34.585  1.00  0.00     0.173 A 
ATOM     63  C   UNL A   1      44.185  26.233  35.240  1.00  0.00     0.173 A 
ATOM     64  F   UNL A   1      45.967  29.082  33.841  1.00  0.00    -0.203 F 
ATOM     65  C   UNL A   1      46.646  27.500  35.448  1.00  0.00     0.198 A 
ATOM     66  C   UNL A   1      45.143  25.753  36.125  1.00  0.00     0.198 A 
ATOM     67  F   UNL A   1      43.006  25.598  35.153  1.00  0.00    -0.203 F 
ATOM     68  F   UNL A   1      47.849  28.088  35.517  1.00  0.00    -0.200 F 
ATOM     69  C   UNL A   1      46.375  26.381  36.222  1.00  0.00     0.200 A 
ATOM     70  F   UNL A   1      44.874  24.681  36.882  1.00  0.00    -0.200 F 
ATOM     71  F   UNL A   1      47.307  25.902  37.056  1.00  0.00    -0.200 F 
ENDBRANCH  38  61
ENDBRANCH  12  13
ENDBRANCH   5   7
ENDBRANCH   4   5
ENDBRANCH   3   4
ENDBRANCH   2   3
ENDBRANCH   1   2
BRANCH   1  72
ATOM     72  C   UNL A   1      30.856  28.208  22.938  1.00  0.00     0.202 C 
BRANCH  72  73
ATOM     73  C   UNL A   1      31.456  26.783  23.392  1.00  0.00     0.261 C 
BRANCH  73  74
ATOM     74  O   UNL A   1      32.751  26.594  24.036  1.00  0.00    -0.458 OA
BRANCH  74  75
ATOM     75  C   UNL A   1      32.993  25.926  25.217  1.00  0.00     0.359 C 
ATOM     76  O   UNL A   1      33.724  26.335  26.101  1.00  0.00    -0.244 OA
BRANCH  75  77
ATOM     77  C   UNL A   1      32.039  24.743  25.312  1.00  0.00     0.179 A 
ATOM     78  N   UNL A   1      31.094  24.884  26.301  1.00  0.00    -0.245 NA
ATOM     79  C   UNL A   1      32.208  23.503  24.671  1.00  0.00     0.161 A 
ATOM     80  C   UNL A   1      30.413  23.770  26.658  1.00  0.00     0.132 A 
ATOM     81  N   UNL A   1      31.506  22.383  25.056  1.00  0.00    -0.247 NA
ATOM     82  C   UNL A   1      30.629  22.543  26.064  1.00  0.00     0.132 A 
BRANCH  79  83
ATOM     83  C   UNL A   1      33.147  23.162  23.561  1.00  0.00     0.278 C 
ATOM     84  O   UNL A   1      33.100  23.806  22.514  1.00  0.00    -0.267 OA
ATOM     85  N   UNL A   1      33.959  22.024  23.660  1.00  0.00    -0.303 N 
ATOM     86  H   UNL A   1      34.065  21.404  22.903  1.00  0.00     0.172 HD
BRANCH  85  87
ATOM     87  C   UNL A   1      34.603  21.805  24.858  1.00  0.00     0.164 A 
ATOM     88  N   UNL A   1      34.615  20.522  25.233  1.00  0.00    -0.155 NA
ATOM     89  C   UNL A   1      35.720  22.505  25.390  1.00  0.00     0.063 A 
ATOM     90  N   UNL A   1      35.927  20.323  25.351  1.00  0.00    -0.259 N 
ATOM     91  C   UNL A   1      36.638  21.489  25.483  1.00  0.00     0.157 A 
ATOM     92  C   UNL A   1      36.218  23.798  25.615  1.00  0.00     0.017 A 
ATOM     93  H   UNL A   1      36.343  19.430  25.346  1.00  0.00     0.192 HD
ATOM     94  N   UNL A   1      37.963  21.608  25.664  1.00  0.00    -0.237 NA
ATOM     95  C   UNL A   1      37.577  23.941  25.956  1.00  0.00     0.021 A 
ATOM     96  C   UNL A   1      38.402  22.837  25.929  1.00  0.00     0.113 A 
ENDBRANCH  85  87
ENDBRANCH  79  83
ENDBRANCH  75  77
ENDBRANCH  74  75
ENDBRANCH  73  74
ENDBRANCH  72  73
ENDBRANCH   1  72
TORSDOF 16
ENDMDL
MODEL 2
REMARK VINA RESULT:     -12.1      1.309      3.392
REMARK SMILES O=C(OCCOCCOC(=O)c1nccnc1C(=O)Nc1n[nH]c2ncccc12)c1ccc(-c2c3nc(c(-c4c(F)c(F)c(F)c(F)c4F)c4ccc([nH]4)c(-c4c(F)c(F)c(F)c(F)c4F)c4nc(c(-c5c(F)c(F)c(F)c(F)c5F)c5ccc2[nH]5)C=C4)C=C3)cc1
REMARK SMILES IDX 6 1 5 2 4 3 3 4 2 5 1 6 30 7 31 8 92 9 32 10 91 11 33 12
REMARK SMILES IDX 34 13 35 14 85 15 36 16 90 17 84 18 86 19 37 20 89 21 83 22
REMARK SMILES IDX 82 23 38 25 70 26 50 27 69 28 51 29 54 30 68 31 87 32 52 33
REMARK SMILES IDX 53 34 67 36 88 37 55 38 39 39 40 40 48 41 41 42 42 43 46 44
REMARK SMILES IDX 49 45 43 46 44 47 47 48 45 49 71 50 72 51 80 52 73 53 74 54
REMARK SMILES IDX 78 55 81 56 75 57 76 58 79 59 77 60 56 61 57 62 65 63 58 64
REMARK SMILES IDX 59 65 63 66 66 67 60 68 61 69 64 70 62 71 7 72 8 73 9 74
REMARK SMILES IDX 10 75 11 76 12 77 13 78 17 79 14 80 16 81 15 82 18 83 19 84
REMARK SMILES IDX 20 85 21 87 22 88 29 89 23 90 24 91 28 92 25 94 27 95 26 96
REMARK H PARENT 86 24 54 35 20 86 23 93
REMARK Flexibility Score: inf
ROOT
ATOM      1  O   UNL A   1      32.515  27.613  26.910  1.00  0.00    -0.374 OA
ENDROOT
BRANCH   1   2
ATOM      2  C   UNL A   1      31.533  28.537  26.374  1.00  0.00     0.202 C 
BRANCH   2   3
ATOM      3  C   UNL A   1      31.947  29.719  25.482  1.00  0.00     0.261 C 
BRANCH   3   4
ATOM      4  O   UNL A   1      33.215  30.286  25.799  1.00  0.00    -0.460 OA
BRANCH   4   5
ATOM      5  C   UNL A   1      33.454  31.065  26.873  1.00  0.00     0.338 C 
ATOM      6  O   UNL A   1      32.650  31.913  27.248  1.00  0.00    -0.246 OA
BRANCH   5   7
ATOM      7  C   UNL A   1      34.656  30.799  27.682  1.00  0.00     0.060 A 
ATOM      8  C   UNL A   1      35.502  31.836  28.041  1.00  0.00     0.016 A 
ATOM      9  C   UNL A   1      34.905  29.527  28.179  1.00  0.00     0.016 A 
ATOM     10  C   UNL A   1      36.694  31.620  28.694  1.00  0.00     0.010 A 
ATOM     11  C   UNL A   1      36.014  29.328  29.009  1.00  0.00     0.010 A 
ATOM     12  C   UNL A   1      36.930  30.371  29.247  1.00  0.00    -0.014 A 
BRANCH  12  13
ATOM     13  C   UNL A   1      38.168  30.162  30.024  1.00  0.00     0.031 A 
ATOM     14  C   UNL A   1      39.266  29.377  29.387  1.00  0.00     0.074 A 
ATOM     15  C   UNL A   1      38.324  30.724  31.240  1.00  0.00     0.049 A 
ATOM     16  N   UNL A   1      40.299  28.800  29.933  1.00  0.00    -0.248 NA
ATOM     17  C   UNL A   1      39.172  29.197  27.927  1.00  0.00     0.031 C 
ATOM     18  C   UNL A   1      37.380  31.640  31.888  1.00  0.00     0.029 A 
ATOM     19  N   UNL A   1      39.351  30.630  32.141  1.00  0.00    -0.354 N 
ATOM     20  C   UNL A   1      40.918  28.103  28.906  1.00  0.00     0.074 A 
ATOM     21  C   UNL A   1      40.167  28.356  27.696  1.00  0.00     0.031 C 
ATOM     22  C   UNL A   1      37.898  32.070  33.046  1.00  0.00     0.029 A 
ATOM     23  C   UNL A   1      39.134  31.345  33.295  1.00  0.00     0.049 A 
ATOM     24  H   UNL A   1      40.165  30.101  31.979  1.00  0.00     0.167 HD
ATOM     25  C   UNL A   1      42.000  27.298  28.997  1.00  0.00     0.037 A 
ATOM     26  C   UNL A   1      39.822  31.346  34.451  1.00  0.00     0.037 A 
ATOM     27  C   UNL A   1      42.736  27.132  30.223  1.00  0.00     0.049 A 
ATOM     28  C   UNL A   1      40.990  30.404  34.551  1.00  0.00     0.074 A 
ATOM     29  C   UNL A   1      43.817  26.314  30.487  1.00  0.00     0.029 A 
ATOM     30  N   UNL A   1      42.462  27.832  31.394  1.00  0.00    -0.354 N 
ATOM     31  N   UNL A   1      41.497  29.615  33.631  1.00  0.00    -0.248 NA
ATOM     32  C   UNL A   1      41.654  30.314  35.854  1.00  0.00     0.031 C 
ATOM     33  C   UNL A   1      44.171  26.493  31.830  1.00  0.00     0.029 A 
ATOM     34  C   UNL A   1      43.347  27.461  32.388  1.00  0.00     0.049 A 
ATOM     35  H   UNL A   1      41.741  28.495  31.499  1.00  0.00     0.167 HD
ATOM     36  C   UNL A   1      42.549  28.947  34.236  1.00  0.00     0.074 A 
ATOM     37  C   UNL A   1      42.618  29.442  35.599  1.00  0.00     0.031 C 
ATOM     38  C   UNL A   1      43.380  28.005  33.724  1.00  0.00     0.037 A 
BRANCH  25  39
ATOM     39  C   UNL A   1      42.353  26.485  27.788  1.00  0.00     0.064 A 
ATOM     40  C   UNL A   1      41.776  25.234  27.521  1.00  0.00     0.173 A 
ATOM     41  C   UNL A   1      43.349  26.943  26.911  1.00  0.00     0.173 A 
ATOM     42  F   UNL A   1      40.847  24.730  28.346  1.00  0.00    -0.203 F 
ATOM     43  C   UNL A   1      42.213  24.457  26.449  1.00  0.00     0.198 A 
ATOM     44  C   UNL A   1      43.759  26.179  25.821  1.00  0.00     0.198 A 
ATOM     45  F   UNL A   1      43.945  28.126  27.123  1.00  0.00    -0.203 F 
ATOM     46  F   UNL A   1      41.703  23.231  26.261  1.00  0.00    -0.200 F 
ATOM     47  C   UNL A   1      43.201  24.931  25.599  1.00  0.00     0.200 A 
ATOM     48  F   UNL A   1      44.713  26.641  25.001  1.00  0.00    -0.200 F 
ATOM     49  F   UNL A   1      43.628  24.176  24.577  1.00  0.00    -0.200 F 
ENDBRANCH  25  39
BRANCH  26  50
ATOM     50  C   UNL A   1      39.384  32.184  35.602  1.00  0.00     0.064 A 
ATOM     51  C   UNL A   1      38.485  31.686  36.556  1.00  0.00     0.173 A 
ATOM     52  C   UNL A   1      39.850  33.497  35.780  1.00  0.00     0.173 A 
ATOM     53  F   UNL A   1      37.987  30.448  36.424  1.00  0.00    -0.203 F 
ATOM     54  C   UNL A   1      38.062  32.469  37.631  1.00  0.00     0.198 A 
ATOM     55  C   UNL A   1      39.456  34.266  36.874  1.00  0.00     0.198 A 
ATOM     56  F   UNL A   1      40.707  34.032  34.899  1.00  0.00    -0.203 F 
ATOM     57  F   UNL A   1      37.166  31.983  38.500  1.00  0.00    -0.200 F 
ATOM     58  C   UNL A   1      38.555  33.755  37.794  1.00  0.00     0.200 A 
ATOM     59  F   UNL A   1      39.951  35.500  37.036  1.00  0.00    -0.200 F 
ATOM     60  F   UNL A   1      38.155  34.504  38.831  1.00  0.00    -0.200 F 
ENDBRANCH  26  50
BRANCH  38  61
ATOM     61  C   UNL A   1      44.462  27.508  34.633  1.00  0.00     0.064 A 
ATOM     62  C   UNL A   1      44.289  26.368  35.430  1.00  0.00     0.173 A 
ATOM     63  C   UNL A   1      45.696  28.171  34.676  1.00  0.00     0.173 A 
ATOM     64  F   UNL A   1      43.118  25.715  35.432  1.00  0.00    -0.203 F 
ATOM     65  C   UNL A   1      45.311  25.925  36.263  1.00  0.00     0.198 A 
ATOM     66  C   UNL A   1      46.725  27.705  35.485  1.00  0.00     0.198 A 
ATOM     67  F   UNL A   1      45.905  29.262  33.925  1.00  0.00    -0.203 F 
ATOM     68  F   UNL A   1      45.111  24.866  37.059  1.00  0.00    -0.200 F 
ATOM     69  C   UNL A   1      46.529  26.589  36.284  1.00  0.00     0.200 A 
ATOM     70  F   UNL A   1      47.906  28.339  35.494  1.00  0.00    -0.200 F 
ATOM     71  F   UNL A   1      47.514  26.156  37.083  1.00  0.00    -0.200 F 
ENDBRANCH  38  61
ENDBRANCH  12  13
ENDBRANCH   5   7
ENDBRANCH   4   5
ENDBRANCH   3   4
ENDBRANCH   2   3
ENDBRANCH   1   2
BRANCH   1  72
ATOM     72  C   UNL A   1      33.530  27.053  26.030  1.00  0.00     0.202 C 
BRANCH  72  73
ATOM     73  C   UNL A   1      33.871  25.509  25.721  1.00  0.00     0.261 C 
BRANCH  73  74
ATOM     74  O   UNL A   1      33.177  24.371  26.314  1.00  0.00    -0.458 OA
BRANCH  74  75
ATOM     75  C   UNL A   1      33.088  23.099  25.792  1.00  0.00     0.359 C 
ATOM     76  O   UNL A   1      32.110  22.380  25.898  1.00  0.00    -0.244 OA
BRANCH  75  77
ATOM     77  C   UNL A   1      34.295  22.853  24.897  1.00  0.00     0.179 A 
ATOM     78  N   UNL A   1      35.491  22.889  25.574  1.00  0.00    -0.245 NA
ATOM     79  C   UNL A   1      34.282  22.845  23.491  1.00  0.00     0.161 A 
ATOM     80  C   UNL A   1      36.613  22.989  24.825  1.00  0.00     0.132 A 
ATOM     81  N   UNL A   1      35.438  22.953  22.752  1.00  0.00    -0.247 NA
ATOM     82  C   UNL A   1      36.587  23.041  23.446  1.00  0.00     0.132 A 
BRANCH  79  83
ATOM     83  C   UNL A   1      33.098  22.774  22.583  1.00  0.00     0.278 C 
ATOM     84  O   UNL A   1      32.512  21.703  22.440  1.00  0.00    -0.267 OA
ATOM     85  N   UNL A   1      32.762  23.879  21.788  1.00  0.00    -0.303 N 
ATOM     86  H   UNL A   1      32.524  23.773  20.839  1.00  0.00     0.172 HD
BRANCH  85  87
ATOM     87  C   UNL A   1      32.779  25.120  22.386  1.00  0.00     0.164 A 
ATOM     88  N   UNL A   1      33.653  25.968  21.836  1.00  0.00    -0.155 NA
ATOM     89  C   UNL A   1      31.692  25.818  22.981  1.00  0.00     0.063 A 
ATOM     90  N   UNL A   1      32.837  26.968  21.506  1.00  0.00    -0.259 N 
ATOM     91  C   UNL A   1      31.650  26.943  22.194  1.00  0.00     0.157 A 
ATOM     92  C   UNL A   1      30.615  25.654  23.866  1.00  0.00     0.017 A 
ATOM     93  H   UNL A   1      33.063  27.656  20.837  1.00  0.00     0.192 HD
ATOM     94  N   UNL A   1      30.652  27.837  22.112  1.00  0.00    -0.237 NA
ATOM     95  C   UNL A   1      29.626  26.655  23.908  1.00  0.00     0.021 A 
ATOM     96  C   UNL A   1      29.669  27.690  22.998  1.00  0.00     0.113 A 
ENDBRANCH  85  87
ENDBRANCH  79  83
ENDBRANCH  75  77
ENDBRANCH  74  75
ENDBRANCH  73  74
ENDBRANCH  72  73
ENDBRANCH   1  72
TORSDOF 16
ENDMDL
MODEL 3
REMARK VINA RESULT:     -12.0      4.121      9.424
REMARK SMILES O=C(OCCOCCOC(=O)c1nccnc1C(=O)Nc1n[nH]c2ncccc12)c1ccc(-c2c3nc(c(-c4c(F)c(F)c(F)c(F)c4F)c4ccc([nH]4)c(-c4c(F)c(F)c(F)c(F)c4F)c4nc(c(-c5c(F)c(F)c(F)c(F)c5F)c5ccc2[nH]5)C=C4)C=C3)cc1
REMARK SMILES IDX 6 1 5 2 4 3 3 4 2 5 1 6 30 7 31 8 92 9 32 10 91 11 33 12
REMARK SMILES IDX 34 13 35 14 85 15 36 16 90 17 84 18 86 19 37 20 89 21 83 22
REMARK SMILES IDX 82 23 38 25 70 26 50 27 69 28 51 29 54 30 68 31 87 32 52 33
REMARK SMILES IDX 53 34 67 36 88 37 55 38 39 39 40 40 48 41 41 42 42 43 46 44
REMARK SMILES IDX 49 45 43 46 44 47 47 48 45 49 71 50 72 51 80 52 73 53 74 54
REMARK SMILES IDX 78 55 81 56 75 57 76 58 79 59 77 60 56 61 57 62 65 63 58 64
REMARK SMILES IDX 59 65 63 66 66 67 60 68 61 69 64 70 62 71 7 72 8 73 9 74
REMARK SMILES IDX 10 75 11 76 12 77 13 78 17 79 14 80 16 81 15 82 18 83 19 84
REMARK SMILES IDX 20 85 21 87 22 88 29 89 23 90 24 91 28 92 25 94 27 95 26 96
REMARK H PARENT 86 24 54 35 20 86 23 93
REMARK Flexibility Score: inf
ROOT
ATOM      1  O   UNL A   1      35.608  23.502  23.564  1.00  0.00    -0.374 OA
ENDROOT
BRANCH   1   2
ATOM      2  C   UNL A   1      36.653  22.495  23.562  1.00  0.00     0.202 C 
BRANCH   2   3
ATOM      3  C   UNL A   1      36.709  21.395  24.634  1.00  0.00     0.261 C 
BRANCH   3   4
ATOM      4  O   UNL A   1      37.354  21.778  25.846  1.00  0.00    -0.460 OA
BRANCH   4   5
ATOM      5  C   UNL A   1      38.666  21.600  26.098  1.00  0.00     0.338 C 
ATOM      6  O   UNL A   1      39.231  20.535  25.866  1.00  0.00    -0.246 OA
BRANCH   5   7
ATOM      7  C   UNL A   1      39.459  22.757  26.548  1.00  0.00     0.060 A 
ATOM      8  C   UNL A   1      39.095  24.042  26.176  1.00  0.00     0.016 A 
ATOM      9  C   UNL A   1      40.519  22.588  27.428  1.00  0.00     0.016 A 
ATOM     10  C   UNL A   1      39.870  25.140  26.474  1.00  0.00     0.010 A 
ATOM     11  C   UNL A   1      41.201  23.717  27.895  1.00  0.00     0.010 A 
ATOM     12  C   UNL A   1      40.895  24.999  27.396  1.00  0.00    -0.014 A 
BRANCH  12  13
ATOM     13  C   UNL A   1      41.670  26.194  27.784  1.00  0.00     0.031 A 
ATOM     14  C   UNL A   1      41.020  27.181  28.695  1.00  0.00     0.074 A 
ATOM     15  C   UNL A   1      42.949  26.348  27.383  1.00  0.00     0.049 A 
ATOM     16  N   UNL A   1      41.339  28.420  28.940  1.00  0.00    -0.248 NA
ATOM     17  C   UNL A   1      39.823  26.709  29.414  1.00  0.00     0.031 C 
ATOM     18  C   UNL A   1      43.733  25.368  26.624  1.00  0.00     0.029 A 
ATOM     19  N   UNL A   1      43.828  27.379  27.582  1.00  0.00    -0.354 N 
ATOM     20  C   UNL A   1      40.328  28.907  29.755  1.00  0.00     0.074 A 
ATOM     21  C   UNL A   1      39.402  27.822  29.993  1.00  0.00     0.031 C 
ATOM     22  C   UNL A   1      44.987  25.816  26.478  1.00  0.00     0.029 A 
ATOM     23  C   UNL A   1      45.055  27.173  26.995  1.00  0.00     0.049 A 
ATOM     24  H   UNL A   1      43.604  28.188  28.095  1.00  0.00     0.167 HD
ATOM     25  C   UNL A   1      40.188  30.167  30.223  1.00  0.00     0.037 A 
ATOM     26  C   UNL A   1      46.084  28.024  26.829  1.00  0.00     0.037 A 
ATOM     27  C   UNL A   1      41.176  31.189  29.995  1.00  0.00     0.049 A 
ATOM     28  C   UNL A   1      45.887  29.436  27.308  1.00  0.00     0.074 A 
ATOM     29  C   UNL A   1      41.152  32.522  30.356  1.00  0.00     0.029 A 
ATOM     30  N   UNL A   1      42.389  30.966  29.351  1.00  0.00    -0.354 N 
ATOM     31  N   UNL A   1      44.865  29.957  27.947  1.00  0.00    -0.248 NA
ATOM     32  C   UNL A   1      46.959  30.388  27.008  1.00  0.00     0.031 C 
ATOM     33  C   UNL A   1      42.336  33.112  29.896  1.00  0.00     0.029 A 
ATOM     34  C   UNL A   1      43.121  32.136  29.297  1.00  0.00     0.049 A 
ATOM     35  H   UNL A   1      42.682  30.100  28.985  1.00  0.00     0.167 HD
ATOM     36  C   UNL A   1      45.174  31.293  28.141  1.00  0.00     0.074 A 
ATOM     37  C   UNL A   1      46.492  31.495  27.567  1.00  0.00     0.031 C 
ATOM     38  C   UNL A   1      44.441  32.272  28.728  1.00  0.00     0.037 A 
BRANCH  25  39
ATOM     39  C   UNL A   1      38.898  30.504  30.909  1.00  0.00     0.064 A 
ATOM     40  C   UNL A   1      37.759  30.934  30.212  1.00  0.00     0.173 A 
ATOM     41  C   UNL A   1      38.826  30.461  32.311  1.00  0.00     0.173 A 
ATOM     42  F   UNL A   1      37.783  31.030  28.874  1.00  0.00    -0.203 F 
ATOM     43  C   UNL A   1      36.614  31.347  30.893  1.00  0.00     0.198 A 
ATOM     44  C   UNL A   1      37.669  30.842  32.986  1.00  0.00     0.198 A 
ATOM     45  F   UNL A   1      39.888  30.070  33.031  1.00  0.00    -0.203 F 
ATOM     46  F   UNL A   1      35.567  31.828  30.208  1.00  0.00    -0.200 F 
ATOM     47  C   UNL A   1      36.569  31.298  32.278  1.00  0.00     0.200 A 
ATOM     48  F   UNL A   1      37.630  30.793  34.325  1.00  0.00    -0.200 F 
ATOM     49  F   UNL A   1      35.474  31.708  32.931  1.00  0.00    -0.200 F 
ENDBRANCH  25  39
BRANCH  26  50
ATOM     50  C   UNL A   1      47.324  27.596  26.122  1.00  0.00     0.064 A 
ATOM     51  C   UNL A   1      47.432  27.700  24.729  1.00  0.00     0.173 A 
ATOM     52  C   UNL A   1      48.428  27.075  26.818  1.00  0.00     0.173 A 
ATOM     53  F   UNL A   1      46.401  28.167  24.010  1.00  0.00    -0.203 F 
ATOM     54  C   UNL A   1      48.587  27.291  24.060  1.00  0.00     0.198 A 
ATOM     55  C   UNL A   1      49.595  26.702  26.153  1.00  0.00     0.198 A 
ATOM     56  F   UNL A   1      48.384  26.946  28.152  1.00  0.00    -0.203 F 
ATOM     57  F   UNL A   1      48.644  27.359  22.723  1.00  0.00    -0.200 F 
ATOM     58  C   UNL A   1      49.670  26.801  24.773  1.00  0.00     0.200 A 
ATOM     59  F   UNL A   1      50.644  26.248  26.850  1.00  0.00    -0.200 F 
ATOM     60  F   UNL A   1      50.782  26.417  24.131  1.00  0.00    -0.200 F 
ENDBRANCH  26  50
BRANCH  38  61
ATOM     61  C   UNL A   1      45.087  33.620  28.825  1.00  0.00     0.064 A 
ATOM     62  C   UNL A   1      45.922  33.962  29.896  1.00  0.00     0.173 A 
ATOM     63  C   UNL A   1      44.884  34.565  27.810  1.00  0.00     0.173 A 
ATOM     64  F   UNL A   1      46.128  33.093  30.898  1.00  0.00    -0.203 F 
ATOM     65  C   UNL A   1      46.514  35.219  29.961  1.00  0.00     0.198 A 
ATOM     66  C   UNL A   1      45.503  35.807  27.862  1.00  0.00     0.198 A 
ATOM     67  F   UNL A   1      44.096  34.276  26.763  1.00  0.00    -0.203 F 
ATOM     68  F   UNL A   1      47.266  35.548  31.019  1.00  0.00    -0.200 F 
ATOM     69  C   UNL A   1      46.309  36.137  28.941  1.00  0.00     0.200 A 
ATOM     70  F   UNL A   1      45.317  36.688  26.869  1.00  0.00    -0.200 F 
ATOM     71  F   UNL A   1      46.885  37.345  29.002  1.00  0.00    -0.200 F 
ENDBRANCH  38  61
ENDBRANCH  12  13
ENDBRANCH   5   7
ENDBRANCH   4   5
ENDBRANCH   3   4
ENDBRANCH   2   3
ENDBRANCH   1   2
BRANCH   1  72
ATOM     72  C   UNL A   1      35.349  24.267  24.774  1.00  0.00     0.202 C 
BRANCH  72  73
ATOM     73  C   UNL A   1      34.347  25.508  24.999  1.00  0.00     0.261 C 
BRANCH  73  74
ATOM     74  O   UNL A   1      33.908  26.421  23.950  1.00  0.00    -0.458 OA
BRANCH  74  75
ATOM     75  C   UNL A   1      32.625  26.883  23.745  1.00  0.00     0.359 C 
ATOM     76  O   UNL A   1      31.983  26.696  22.728  1.00  0.00    -0.244 OA
BRANCH  75  77
ATOM     77  C   UNL A   1      32.094  27.445  25.057  1.00  0.00     0.179 A 
ATOM     78  N   UNL A   1      32.942  28.355  25.642  1.00  0.00    -0.245 NA
ATOM     79  C   UNL A   1      30.996  26.942  25.777  1.00  0.00     0.161 A 
ATOM     80  C   UNL A   1      32.703  28.668  26.937  1.00  0.00     0.132 A 
ATOM     81  N   UNL A   1      30.777  27.272  27.095  1.00  0.00    -0.247 NA
ATOM     82  C   UNL A   1      31.657  28.123  27.653  1.00  0.00     0.132 A 
BRANCH  79  83
ATOM     83  C   UNL A   1      29.951  25.983  25.308  1.00  0.00     0.278 C 
ATOM     84  O   UNL A   1      29.051  26.384  24.574  1.00  0.00    -0.267 OA
ATOM     85  N   UNL A   1      29.916  24.682  25.830  1.00  0.00    -0.303 N 
ATOM     86  H   UNL A   1      29.069  24.266  26.111  1.00  0.00     0.172 HD
BRANCH  85  87
ATOM     87  C   UNL A   1      31.113  24.007  25.935  1.00  0.00     0.164 A 
ATOM     88  N   UNL A   1      31.419  23.651  27.186  1.00  0.00    -0.155 NA
ATOM     89  C   UNL A   1      31.702  23.122  24.990  1.00  0.00     0.063 A 
ATOM     90  N   UNL A   1      31.551  22.335  27.031  1.00  0.00    -0.259 N 
ATOM     91  C   UNL A   1      31.757  21.964  25.726  1.00  0.00     0.157 A 
ATOM     92  C   UNL A   1      32.005  22.992  23.626  1.00  0.00     0.017 A 
ATOM     93  H   UNL A   1      31.505  21.693  27.778  1.00  0.00     0.192 HD
ATOM     94  N   UNL A   1      31.969  20.721  25.265  1.00  0.00    -0.237 NA
ATOM     95  C   UNL A   1      32.377  21.723  23.142  1.00  0.00     0.021 A 
ATOM     96  C   UNL A   1      32.306  20.631  23.980  1.00  0.00     0.113 A 
ENDBRANCH  85  87
ENDBRANCH  79  83
ENDBRANCH  75  77
ENDBRANCH  74  75
ENDBRANCH  73  74
ENDBRANCH  72  73
ENDBRANCH   1  72
TORSDOF 16
ENDMDL
