MODEL 1
REMARK VINA RESULT:     -11.2      0.000      0.000
REMARK SMILES Cc1cc2[nH]c(C(=O)OCCOCCOC(=O)c3ccc(-c4c5nc(c(-c6c(F)c(F)c(F)c(F)c6F)c6ccc([nH]6)c(-c6c(F)c(F)c(F)c(F)c6F)c6nc(c(-c7c(F)c(F)c(F)c(F)c7F)c7ccc4[nH]7)C=C6)C=C5)cc3)c(C=O)c2s1
REMARK SMILES IDX 13 1 12 2 11 3 10 4 9 5 7 6 8 7 6 8 1 9 2 10 3 11 85 12 4 13
REMARK SMILES IDX 84 14 5 15 81 16 82 18 83 19 14 20 15 21 16 22 17 23 18 24
REMARK SMILES IDX 19 25 80 26 20 27 79 28 21 29 22 30 23 31 73 32 24 33 78 34
REMARK SMILES IDX 72 35 74 36 25 37 77 38 71 39 70 40 26 42 58 43 38 44 57 45
REMARK SMILES IDX 39 46 42 47 56 48 75 49 40 50 41 51 55 53 76 54 43 55 27 56
REMARK SMILES IDX 28 57 36 58 29 59 30 60 34 61 37 62 31 63 32 64 35 65 33 66
REMARK SMILES IDX 59 67 60 68 68 69 61 70 62 71 66 72 69 73 63 74 64 75 67 76
REMARK SMILES IDX 65 77 44 78 45 79 53 80 46 81 47 82 51 83 54 84 48 85 49 86
REMARK SMILES IDX 52 87 50 88
REMARK H PARENT 5 17 74 41 42 52
REMARK Flexibility Score: inf
ROOT
ATOM      1  C   UNL A   1      33.392  34.632  29.122  1.00  0.00     0.202 C 
ENDROOT
BRANCH   1   2
ATOM      2  O   UNL A   1      32.479  35.225  30.038  1.00  0.00    -0.374 OA
BRANCH   2   3
ATOM      3  C   UNL A   1      32.975  36.224  30.932  1.00  0.00     0.202 C 
BRANCH   3   4
ATOM      4  C   UNL A   1      32.950  35.845  32.413  1.00  0.00     0.261 C 
BRANCH   4   5
ATOM      5  O   UNL A   1      34.289  35.761  32.930  1.00  0.00    -0.459 OA
BRANCH   5   6
ATOM      6  C   UNL A   1      34.737  34.531  33.258  1.00  0.00     0.355 C 
ATOM      7  O   UNL A   1      34.029  33.564  33.517  1.00  0.00    -0.244 OA
BRANCH   6   8
ATOM      8  C   UNL A   1      36.174  34.431  33.105  1.00  0.00     0.137 A 
ATOM      9  C   UNL A   1      41.639  33.866  30.982  1.00  0.00     0.056 C 
ATOM     10  C   UNL A   1      40.306  34.079  31.620  1.00  0.00     0.004 A 
ATOM     11  C   UNL A   1      39.162  34.555  31.008  1.00  0.00     0.041 A 
ATOM     12  S   UNL A   1      40.089  33.714  33.288  1.00  0.00    -0.138 S 
ATOM     13  C   UNL A   1      38.072  34.501  31.911  1.00  0.00     0.058 A 
ATOM     14  C   UNL A   1      38.399  34.079  33.161  1.00  0.00     0.064 A 
ATOM     15  N   UNL A   1      36.728  34.747  31.878  1.00  0.00    -0.348 N 
ATOM     16  C   UNL A   1      37.212  34.066  33.959  1.00  0.00     0.065 A 
ATOM     17  H   UNL A   1      36.231  35.093  31.102  1.00  0.00     0.167 HD
BRANCH  16  18
ATOM     18  C   UNL A   1      37.232  33.664  35.347  1.00  0.00     0.264 C 
ATOM     19  O   UNL A   1      37.095  32.519  35.762  1.00  0.00    -0.298 OA
ENDBRANCH  16  18
ENDBRANCH   6   8
ENDBRANCH   5   6
ENDBRANCH   4   5
ENDBRANCH   3   4
ENDBRANCH   2   3
ENDBRANCH   1   2
BRANCH   1  20
ATOM     20  C   UNL A   1      34.312  33.562  29.688  1.00  0.00     0.261 C 
BRANCH  20  21
ATOM     21  O   UNL A   1      35.314  33.167  28.757  1.00  0.00    -0.460 OA
BRANCH  21  22
ATOM     22  C   UNL A   1      35.228  31.882  28.345  1.00  0.00     0.338 C 
ATOM     23  O   UNL A   1      34.215  31.221  28.196  1.00  0.00    -0.246 OA
BRANCH  22  24
ATOM     24  C   UNL A   1      36.587  31.324  28.286  1.00  0.00     0.060 A 
ATOM     25  C   UNL A   1      36.721  30.061  27.706  1.00  0.00     0.016 A 
ATOM     26  C   UNL A   1      37.650  31.928  28.976  1.00  0.00     0.016 A 
ATOM     27  C   UNL A   1      37.872  29.339  27.950  1.00  0.00     0.010 A 
ATOM     28  C   UNL A   1      38.797  31.203  29.227  1.00  0.00     0.010 A 
ATOM     29  C   UNL A   1      38.870  29.894  28.763  1.00  0.00    -0.014 A 
BRANCH  29  30
ATOM     30  C   UNL A   1      40.044  29.084  29.024  1.00  0.00     0.031 A 
ATOM     31  C   UNL A   1      40.314  28.887  30.462  1.00  0.00     0.074 A 
ATOM     32  C   UNL A   1      40.806  28.533  28.061  1.00  0.00     0.049 A 
ATOM     33  N   UNL A   1      41.298  29.377  31.137  1.00  0.00    -0.248 NA
ATOM     34  C   UNL A   1      39.315  28.178  31.272  1.00  0.00     0.031 C 
ATOM     35  C   UNL A   1      40.516  28.444  26.629  1.00  0.00     0.029 A 
ATOM     36  N   UNL A   1      41.991  27.867  28.187  1.00  0.00    -0.354 N 
ATOM     37  C   UNL A   1      41.145  28.896  32.430  1.00  0.00     0.074 A 
ATOM     38  C   UNL A   1      39.844  28.283  32.493  1.00  0.00     0.031 C 
ATOM     39  C   UNL A   1      41.395  27.596  26.050  1.00  0.00     0.029 A 
ATOM     40  C   UNL A   1      42.392  27.208  27.036  1.00  0.00     0.049 A 
ATOM     41  H   UNL A   1      42.513  27.855  29.021  1.00  0.00     0.167 HD
ATOM     42  C   UNL A   1      42.216  28.828  33.266  1.00  0.00     0.037 A 
ATOM     43  C   UNL A   1      43.460  26.388  26.903  1.00  0.00     0.037 A 
ATOM     44  C   UNL A   1      43.324  29.598  32.765  1.00  0.00     0.049 A 
ATOM     45  C   UNL A   1      44.443  26.741  27.952  1.00  0.00     0.074 A 
ATOM     46  C   UNL A   1      43.704  30.920  32.756  1.00  0.00     0.029 A 
ATOM     47  N   UNL A   1      44.078  28.947  31.827  1.00  0.00    -0.354 N 
ATOM     48  N   UNL A   1      45.111  27.859  27.960  1.00  0.00    -0.248 NA
ATOM     49  C   UNL A   1      44.479  25.982  29.198  1.00  0.00     0.031 C 
ATOM     50  C   UNL A   1      44.609  31.069  31.661  1.00  0.00     0.029 A 
ATOM     51  C   UNL A   1      44.763  29.832  31.040  1.00  0.00     0.049 A 
ATOM     52  H   UNL A   1      44.122  27.968  31.731  1.00  0.00     0.167 HD
ATOM     53  C   UNL A   1      45.273  28.146  29.299  1.00  0.00     0.074 A 
ATOM     54  C   UNL A   1      45.049  26.889  29.998  1.00  0.00     0.031 C 
ATOM     55  C   UNL A   1      45.245  29.434  29.740  1.00  0.00     0.037 A 
BRANCH  42  56
ATOM     56  C   UNL A   1      42.445  27.720  34.262  1.00  0.00     0.064 A 
ATOM     57  C   UNL A   1      42.976  26.494  33.811  1.00  0.00     0.173 A 
ATOM     58  C   UNL A   1      41.856  27.696  35.544  1.00  0.00     0.173 A 
ATOM     59  F   UNL A   1      43.537  26.400  32.595  1.00  0.00    -0.203 F 
ATOM     60  C   UNL A   1      42.858  25.321  34.560  1.00  0.00     0.198 A 
ATOM     61  C   UNL A   1      41.789  26.536  36.311  1.00  0.00     0.198 A 
ATOM     62  F   UNL A   1      41.219  28.759  36.052  1.00  0.00    -0.203 F 
ATOM     63  F   UNL A   1      43.267  24.155  34.041  1.00  0.00    -0.200 F 
ATOM     64  C   UNL A   1      42.260  25.342  35.807  1.00  0.00     0.200 A 
ATOM     65  F   UNL A   1      41.182  26.570  37.506  1.00  0.00    -0.200 F 
ATOM     66  F   UNL A   1      42.094  24.209  36.501  1.00  0.00    -0.200 F 
ENDBRANCH  42  56
BRANCH  43  67
ATOM     67  C   UNL A   1      43.638  25.218  26.021  1.00  0.00     0.064 A 
ATOM     68  C   UNL A   1      44.809  25.040  25.269  1.00  0.00     0.173 A 
ATOM     69  C   UNL A   1      42.779  24.109  26.128  1.00  0.00     0.173 A 
ATOM     70  F   UNL A   1      45.695  26.039  25.150  1.00  0.00    -0.203 F 
ATOM     71  C   UNL A   1      45.123  23.808  24.687  1.00  0.00     0.198 A 
ATOM     72  C   UNL A   1      43.091  22.881  25.544  1.00  0.00     0.198 A 
ATOM     73  F   UNL A   1      41.672  24.171  26.882  1.00  0.00    -0.203 F 
ATOM     74  F   UNL A   1      46.282  23.655  24.033  1.00  0.00    -0.200 F 
ATOM     75  C   UNL A   1      44.271  22.726  24.838  1.00  0.00     0.200 A 
ATOM     76  F   UNL A   1      42.277  21.832  25.726  1.00  0.00    -0.200 F 
ATOM     77  F   UNL A   1      44.605  21.528  24.341  1.00  0.00    -0.200 F 
ENDBRANCH  43  67
BRANCH  55  78
ATOM     78  C   UNL A   1      45.561  30.494  28.735  1.00  0.00     0.064 A 
ATOM     79  C   UNL A   1      46.863  30.886  28.386  1.00  0.00     0.173 A 
ATOM     80  C   UNL A   1      44.493  31.111  28.071  1.00  0.00     0.173 A 
ATOM     81  F   UNL A   1      47.931  30.287  28.928  1.00  0.00    -0.203 F 
ATOM     82  C   UNL A   1      47.080  31.890  27.443  1.00  0.00     0.198 A 
ATOM     83  C   UNL A   1      44.714  32.088  27.108  1.00  0.00     0.198 A 
ATOM     84  F   UNL A   1      43.231  30.743  28.343  1.00  0.00    -0.203 F 
ATOM     85  F   UNL A   1      48.330  32.271  27.142  1.00  0.00    -0.200 F 
ATOM     86  C   UNL A   1      46.005  32.486  26.802  1.00  0.00     0.200 A 
ATOM     87  F   UNL A   1      43.673  32.634  26.465  1.00  0.00    -0.200 F 
ATOM     88  F   UNL A   1      46.213  33.435  25.878  1.00  0.00    -0.200 F 
ENDBRANCH  55  78
ENDBRANCH  29  30
ENDBRANCH  22  24
ENDBRANCH  21  22
ENDBRANCH  20  21
ENDBRANCH   1  20
TORSDOF 15
ENDMDL
MODEL 2
REMARK VINA RESULT:     -11.0      4.844     10.741
REMARK SMILES Cc1cc2[nH]c(C(=O)OCCOCCOC(=O)c3ccc(-c4c5nc(c(-c6c(F)c(F)c(F)c(F)c6F)c6ccc([nH]6)c(-c6c(F)c(F)c(F)c(F)c6F)c6nc(c(-c7c(F)c(F)c(F)c(F)c7F)c7ccc4[nH]7)C=C6)C=C5)cc3)c(C=O)c2s1
REMARK SMILES IDX 13 1 12 2 11 3 10 4 9 5 7 6 8 7 6 8 1 9 2 10 3 11 85 12 4 13
REMARK SMILES IDX 84 14 5 15 81 16 82 18 83 19 14 20 15 21 16 22 17 23 18 24
REMARK SMILES IDX 19 25 80 26 20 27 79 28 21 29 22 30 23 31 73 32 24 33 78 34
REMARK SMILES IDX 72 35 74 36 25 37 77 38 71 39 70 40 26 42 58 43 38 44 57 45
REMARK SMILES IDX 39 46 42 47 56 48 75 49 40 50 41 51 55 53 76 54 43 55 27 56
REMARK SMILES IDX 28 57 36 58 29 59 30 60 34 61 37 62 31 63 32 64 35 65 33 66
REMARK SMILES IDX 59 67 60 68 68 69 61 70 62 71 66 72 69 73 63 74 64 75 67 76
REMARK SMILES IDX 65 77 44 78 45 79 53 80 46 81 47 82 51 83 54 84 48 85 49 86
REMARK SMILES IDX 52 87 50 88
REMARK H PARENT 5 17 74 41 42 52
REMARK Flexibility Score: inf
ROOT
ATOM      1  C   UNL A   1      38.007  22.341  26.022  1.00  0.00     0.202 C 
ENDROOT
BRANCH   1   2
ATOM      2  O   UNL A   1      37.024  21.818  25.135  1.00  0.00    -0.374 OA
BRANCH   2   3
ATOM      3  C   UNL A   1      35.668  21.774  25.584  1.00  0.00     0.202 C 
BRANCH   3   4
ATOM      4  C   UNL A   1      34.640  21.393  24.519  1.00  0.00     0.261 C 
BRANCH   4   5
ATOM      5  O   UNL A   1      33.887  22.549  24.114  1.00  0.00    -0.459 OA
BRANCH   5   6
ATOM      6  C   UNL A   1      34.573  23.537  23.501  1.00  0.00     0.355 C 
ATOM      7  O   UNL A   1      35.410  23.378  22.620  1.00  0.00    -0.244 OA
BRANCH   6   8
ATOM      8  C   UNL A   1      34.081  24.843  23.889  1.00  0.00     0.137 A 
ATOM      9  C   UNL A   1      32.244  29.563  26.896  1.00  0.00     0.056 C 
ATOM     10  C   UNL A   1      32.747  28.450  26.037  1.00  0.00     0.004 A 
ATOM     11  C   UNL A   1      33.613  27.441  26.415  1.00  0.00     0.041 A 
ATOM     12  S   UNL A   1      32.239  28.339  24.398  1.00  0.00    -0.138 S 
ATOM     13  C   UNL A   1      33.758  26.508  25.358  1.00  0.00     0.058 A 
ATOM     14  C   UNL A   1      33.093  26.841  24.221  1.00  0.00     0.064 A 
ATOM     15  N   UNL A   1      34.385  25.311  25.154  1.00  0.00    -0.348 N 
ATOM     16  C   UNL A   1      33.318  25.816  23.249  1.00  0.00     0.065 A 
ATOM     17  H   UNL A   1      34.963  24.853  25.806  1.00  0.00     0.167 HD
BRANCH  16  18
ATOM     18  C   UNL A   1      32.744  25.883  21.924  1.00  0.00     0.264 C 
ATOM     19  O   UNL A   1      33.345  25.688  20.874  1.00  0.00    -0.298 OA
ENDBRANCH  16  18
ENDBRANCH   6   8
ENDBRANCH   5   6
ENDBRANCH   4   5
ENDBRANCH   3   4
ENDBRANCH   2   3
ENDBRANCH   1   2
BRANCH   1  20
ATOM     20  C   UNL A   1      39.317  21.574  26.100  1.00  0.00     0.261 C 
BRANCH  20  21
ATOM     21  O   UNL A   1      40.448  22.439  26.089  1.00  0.00    -0.460 OA
BRANCH  21  22
ATOM     22  C   UNL A   1      40.920  22.768  27.312  1.00  0.00     0.338 C 
ATOM     23  O   UNL A   1      41.030  22.038  28.282  1.00  0.00    -0.246 OA
BRANCH  22  24
ATOM     24  C   UNL A   1      41.107  24.226  27.359  1.00  0.00     0.060 A 
ATOM     25  C   UNL A   1      41.954  24.718  28.354  1.00  0.00     0.016 A 
ATOM     26  C   UNL A   1      40.303  25.084  26.592  1.00  0.00     0.016 A 
ATOM     27  C   UNL A   1      41.880  26.056  28.684  1.00  0.00     0.010 A 
ATOM     28  C   UNL A   1      40.224  26.421  26.927  1.00  0.00     0.010 A 
ATOM     29  C   UNL A   1      40.968  26.880  28.009  1.00  0.00    -0.014 A 
BRANCH  29  30
ATOM     30  C   UNL A   1      40.898  28.269  28.415  1.00  0.00     0.031 A 
ATOM     31  C   UNL A   1      42.026  29.084  27.922  1.00  0.00     0.074 A 
ATOM     32  C   UNL A   1      39.894  28.789  29.145  1.00  0.00     0.049 A 
ATOM     33  N   UNL A   1      42.975  29.597  28.629  1.00  0.00    -0.248 NA
ATOM     34  C   UNL A   1      42.197  29.238  26.471  1.00  0.00     0.031 C 
ATOM     35  C   UNL A   1      38.615  28.163  29.485  1.00  0.00     0.029 A 
ATOM     36  N   UNL A   1      39.789  30.038  29.687  1.00  0.00    -0.354 N 
ATOM     37  C   UNL A   1      43.778  30.293  27.735  1.00  0.00     0.074 A 
ATOM     38  C   UNL A   1      43.339  29.928  26.413  1.00  0.00     0.031 C 
ATOM     39  C   UNL A   1      37.786  29.099  30.001  1.00  0.00     0.029 A 
ATOM     40  C   UNL A   1      38.525  30.340  30.167  1.00  0.00     0.049 A 
ATOM     41  H   UNL A   1      40.545  30.668  29.731  1.00  0.00     0.167 HD
ATOM     42  C   UNL A   1      44.573  31.305  28.173  1.00  0.00     0.037 A 
ATOM     43  C   UNL A   1      38.108  31.532  30.654  1.00  0.00     0.037 A 
ATOM     44  C   UNL A   1      44.706  31.286  29.606  1.00  0.00     0.049 A 
ATOM     45  C   UNL A   1      39.296  32.272  31.136  1.00  0.00     0.074 A 
ATOM     46  C   UNL A   1      45.455  30.600  30.535  1.00  0.00     0.029 A 
ATOM     47  N   UNL A   1      43.669  31.879  30.273  1.00  0.00    -0.354 N 
ATOM     48  N   UNL A   1      39.986  31.915  32.182  1.00  0.00    -0.248 NA
ATOM     49  C   UNL A   1      39.934  33.263  30.275  1.00  0.00     0.031 C 
ATOM     50  C   UNL A   1      44.734  30.676  31.766  1.00  0.00     0.029 A 
ATOM     51  C   UNL A   1      43.572  31.413  31.556  1.00  0.00     0.049 A 
ATOM     52  H   UNL A   1      43.068  32.553  29.879  1.00  0.00     0.167 HD
ATOM     53  C   UNL A   1      41.278  32.290  31.878  1.00  0.00     0.074 A 
ATOM     54  C   UNL A   1      41.158  33.271  30.810  1.00  0.00     0.031 C 
ATOM     55  C   UNL A   1      42.333  31.532  32.286  1.00  0.00     0.037 A 
BRANCH  42  56
ATOM     56  C   UNL A   1      44.838  32.572  27.400  1.00  0.00     0.064 A 
ATOM     57  C   UNL A   1      46.072  32.721  26.736  1.00  0.00     0.173 A 
ATOM     58  C   UNL A   1      44.087  33.755  27.569  1.00  0.00     0.173 A 
ATOM     59  F   UNL A   1      46.876  31.663  26.543  1.00  0.00    -0.203 F 
ATOM     60  C   UNL A   1      46.548  33.973  26.337  1.00  0.00     0.198 A 
ATOM     61  C   UNL A   1      44.541  34.993  27.123  1.00  0.00     0.198 A 
ATOM     62  F   UNL A   1      42.950  33.779  28.276  1.00  0.00    -0.203 F 
ATOM     63  F   UNL A   1      47.778  34.085  25.820  1.00  0.00    -0.200 F 
ATOM     64  C   UNL A   1      45.783  35.109  26.536  1.00  0.00     0.200 A 
ATOM     65  F   UNL A   1      43.798  36.087  27.348  1.00  0.00    -0.200 F 
ATOM     66  F   UNL A   1      46.261  36.316  26.209  1.00  0.00    -0.200 F 
ENDBRANCH  42  56
BRANCH  43  67
ATOM     67  C   UNL A   1      36.767  32.145  30.604  1.00  0.00     0.064 A 
ATOM     68  C   UNL A   1      35.901  32.103  31.708  1.00  0.00     0.173 A 
ATOM     69  C   UNL A   1      36.428  33.035  29.569  1.00  0.00     0.173 A 
ATOM     70  F   UNL A   1      36.174  31.306  32.752  1.00  0.00    -0.203 F 
ATOM     71  C   UNL A   1      34.779  32.933  31.788  1.00  0.00     0.198 A 
ATOM     72  C   UNL A   1      35.307  33.860  29.647  1.00  0.00     0.198 A 
ATOM     73  F   UNL A   1      37.234  33.188  28.507  1.00  0.00    -0.203 F 
ATOM     74  F   UNL A   1      34.013  32.915  32.887  1.00  0.00    -0.200 F 
ATOM     75  C   UNL A   1      34.492  33.821  30.765  1.00  0.00     0.200 A 
ATOM     76  F   UNL A   1      35.058  34.741  28.668  1.00  0.00    -0.200 F 
ATOM     77  F   UNL A   1      33.458  34.666  30.873  1.00  0.00    -0.200 F 
ENDBRANCH  43  67
BRANCH  55  78
ATOM     78  C   UNL A   1      42.102  30.637  33.460  1.00  0.00     0.064 A 
ATOM     79  C   UNL A   1      42.224  31.045  34.798  1.00  0.00     0.173 A 
ATOM     80  C   UNL A   1      41.704  29.317  33.214  1.00  0.00     0.173 A 
ATOM     81  F   UNL A   1      42.531  32.312  35.106  1.00  0.00    -0.203 F 
ATOM     82  C   UNL A   1      42.000  30.150  35.843  1.00  0.00     0.198 A 
ATOM     83  C   UNL A   1      41.448  28.437  34.258  1.00  0.00     0.198 A 
ATOM     84  F   UNL A   1      41.537  28.892  31.951  1.00  0.00    -0.203 F 
ATOM     85  F   UNL A   1      42.148  30.550  37.114  1.00  0.00    -0.200 F 
ATOM     86  C   UNL A   1      41.608  28.849  35.571  1.00  0.00     0.200 A 
ATOM     87  F   UNL A   1      41.034  27.191  33.991  1.00  0.00    -0.200 F 
ATOM     88  F   UNL A   1      41.369  27.993  36.576  1.00  0.00    -0.200 F 
ENDBRANCH  55  78
ENDBRANCH  29  30
ENDBRANCH  22  24
ENDBRANCH  21  22
ENDBRANCH  20  21
ENDBRANCH   1  20
TORSDOF 15
ENDMDL
MODEL 3
REMARK VINA RESULT:     -10.9      5.002     10.731
REMARK SMILES Cc1cc2[nH]c(C(=O)OCCOCCOC(=O)c3ccc(-c4c5nc(c(-c6c(F)c(F)c(F)c(F)c6F)c6ccc([nH]6)c(-c6c(F)c(F)c(F)c(F)c6F)c6nc(c(-c7c(F)c(F)c(F)c(F)c7F)c7ccc4[nH]7)C=C6)C=C5)cc3)c(C=O)c2s1
REMARK SMILES IDX 13 1 12 2 11 3 10 4 9 5 7 6 8 7 6 8 1 9 2 10 3 11 85 12 4 13
REMARK SMILES IDX 84 14 5 15 81 16 82 18 83 19 14 20 15 21 16 22 17 23 18 24
REMARK SMILES IDX 19 25 80 26 20 27 79 28 21 29 22 30 23 31 73 32 24 33 78 34
REMARK SMILES IDX 72 35 74 36 25 37 77 38 71 39 70 40 26 42 58 43 38 44 57 45
REMARK SMILES IDX 39 46 42 47 56 48 75 49 40 50 41 51 55 53 76 54 43 55 27 56
REMARK SMILES IDX 28 57 36 58 29 59 30 60 34 61 37 62 31 63 32 64 35 65 33 66
REMARK SMILES IDX 59 67 60 68 68 69 61 70 62 71 66 72 69 73 63 74 64 75 67 76
REMARK SMILES IDX 65 77 44 78 45 79 53 80 46 81 47 82 51 83 54 84 48 85 49 86
REMARK SMILES IDX 52 87 50 88
REMARK H PARENT 5 17 74 41 42 52
REMARK Flexibility Score: inf
ROOT
ATOM      1  C   UNL A   1      38.010  22.152  25.578  1.00  0.00     0.202 C 
ENDROOT
BRANCH   1   2
ATOM      2  O   UNL A   1      36.798  21.443  25.809  1.00  0.00    -0.374 OA
BRANCH   2   3
ATOM      3  C   UNL A   1      35.924  21.223  24.700  1.00  0.00     0.202 C 
BRANCH   3   4
ATOM      4  C   UNL A   1      34.711  20.339  24.991  1.00  0.00     0.261 C 
BRANCH   4   5
ATOM      5  O   UNL A   1      33.537  21.148  25.178  1.00  0.00    -0.459 OA
BRANCH   5   6
ATOM      6  C   UNL A   1      33.389  21.734  26.385  1.00  0.00     0.355 C 
ATOM      7  O   UNL A   1      33.710  21.237  27.459  1.00  0.00    -0.244 OA
BRANCH   6   8
ATOM      8  C   UNL A   1      32.957  23.110  26.257  1.00  0.00     0.137 A 
ATOM      9  C   UNL A   1      32.682  28.992  26.112  1.00  0.00     0.056 C 
ATOM     10  C   UNL A   1      32.651  27.500  26.061  1.00  0.00     0.004 A 
ATOM     11  C   UNL A   1      33.727  26.658  25.850  1.00  0.00     0.041 A 
ATOM     12  S   UNL A   1      31.162  26.668  26.284  1.00  0.00    -0.138 S 
ATOM     13  C   UNL A   1      33.319  25.308  25.992  1.00  0.00     0.058 A 
ATOM     14  C   UNL A   1      31.990  25.145  26.224  1.00  0.00     0.064 A 
ATOM     15  N   UNL A   1      33.908  24.075  25.981  1.00  0.00    -0.348 N 
ATOM     16  C   UNL A   1      31.722  23.746  26.353  1.00  0.00     0.065 A 
ATOM     17  H   UNL A   1      34.860  23.901  25.804  1.00  0.00     0.167 HD
BRANCH  16  18
ATOM     18  C   UNL A   1      30.389  23.246  26.601  1.00  0.00     0.264 C 
ATOM     19  O   UNL A   1      29.582  23.724  27.390  1.00  0.00    -0.298 OA
ENDBRANCH  16  18
ENDBRANCH   6   8
ENDBRANCH   5   6
ENDBRANCH   4   5
ENDBRANCH   3   4
ENDBRANCH   2   3
ENDBRANCH   1   2
BRANCH   1  20
ATOM     20  C   UNL A   1      39.292  21.439  25.972  1.00  0.00     0.261 C 
BRANCH  20  21
ATOM     21  O   UNL A   1      40.414  22.316  25.985  1.00  0.00    -0.460 OA
BRANCH  21  22
ATOM     22  C   UNL A   1      40.878  22.622  27.218  1.00  0.00     0.338 C 
ATOM     23  O   UNL A   1      40.971  21.877  28.178  1.00  0.00    -0.246 OA
BRANCH  22  24
ATOM     24  C   UNL A   1      41.080  24.077  27.288  1.00  0.00     0.060 A 
ATOM     25  C   UNL A   1      41.938  24.543  28.285  1.00  0.00     0.016 A 
ATOM     26  C   UNL A   1      40.280  24.956  26.540  1.00  0.00     0.016 A 
ATOM     27  C   UNL A   1      41.880  25.876  28.638  1.00  0.00     0.010 A 
ATOM     28  C   UNL A   1      40.217  26.288  26.897  1.00  0.00     0.010 A 
ATOM     29  C   UNL A   1      40.972  26.721  27.982  1.00  0.00    -0.014 A 
BRANCH  29  30
ATOM     30  C   UNL A   1      40.919  28.104  28.412  1.00  0.00     0.031 A 
ATOM     31  C   UNL A   1      42.059  28.912  27.936  1.00  0.00     0.074 A 
ATOM     32  C   UNL A   1      39.920  28.624  29.149  1.00  0.00     0.049 A 
ATOM     33  N   UNL A   1      43.012  29.401  28.653  1.00  0.00    -0.248 NA
ATOM     34  C   UNL A   1      42.235  29.089  26.488  1.00  0.00     0.031 C 
ATOM     35  C   UNL A   1      38.632  28.009  29.475  1.00  0.00     0.029 A 
ATOM     36  N   UNL A   1      39.830  29.865  29.711  1.00  0.00    -0.354 N 
ATOM     37  C   UNL A   1      43.826  30.102  27.773  1.00  0.00     0.074 A 
ATOM     38  C   UNL A   1      43.385  29.765  26.445  1.00  0.00     0.031 C 
ATOM     39  C   UNL A   1      37.814  28.946  30.005  1.00  0.00     0.029 A 
ATOM     40  C   UNL A   1      38.568  30.175  30.194  1.00  0.00     0.049 A 
ATOM     41  H   UNL A   1      40.593  30.484  29.768  1.00  0.00     0.167 HD
ATOM     42  C   UNL A   1      44.632  31.096  28.231  1.00  0.00     0.037 A 
ATOM     43  C   UNL A   1      38.165  31.363  30.700  1.00  0.00     0.037 A 
ATOM     44  C   UNL A   1      44.762  31.051  29.663  1.00  0.00     0.049 A 
ATOM     45  C   UNL A   1      39.361  32.079  31.198  1.00  0.00     0.074 A 
ATOM     46  C   UNL A   1      45.500  30.340  30.582  1.00  0.00     0.029 A 
ATOM     47  N   UNL A   1      43.730  31.645  30.337  1.00  0.00    -0.354 N 
ATOM     48  N   UNL A   1      40.044  31.696  32.239  1.00  0.00    -0.248 NA
ATOM     49  C   UNL A   1      40.013  33.077  30.355  1.00  0.00     0.031 C 
ATOM     50  C   UNL A   1      44.777  30.404  31.813  1.00  0.00     0.029 A 
ATOM     51  C   UNL A   1      43.625  31.160  31.612  1.00  0.00     0.049 A 
ATOM     52  H   UNL A   1      43.140  32.334  29.954  1.00  0.00     0.167 HD
ATOM     53  C   UNL A   1      41.341  32.060  31.944  1.00  0.00     0.074 A 
ATOM     54  C   UNL A   1      41.237  33.061  30.893  1.00  0.00     0.031 C 
ATOM     55  C   UNL A   1      42.386  31.282  32.342  1.00  0.00     0.037 A 
BRANCH  42  56
ATOM     56  C   UNL A   1      44.916  32.373  27.479  1.00  0.00     0.064 A 
ATOM     57  C   UNL A   1      46.154  32.518  26.822  1.00  0.00     0.173 A 
ATOM     58  C   UNL A   1      44.178  33.561  27.666  1.00  0.00     0.173 A 
ATOM     59  F   UNL A   1      46.946  31.454  26.615  1.00  0.00    -0.203 F 
ATOM     60  C   UNL A   1      46.646  33.771  26.447  1.00  0.00     0.198 A 
ATOM     61  C   UNL A   1      44.648  34.802  27.242  1.00  0.00     0.198 A 
ATOM     62  F   UNL A   1      43.039  33.587  28.369  1.00  0.00    -0.203 F 
ATOM     63  F   UNL A   1      47.880  33.877  25.936  1.00  0.00    -0.200 F 
ATOM     64  C   UNL A   1      45.894  34.912  26.662  1.00  0.00     0.200 A 
ATOM     65  F   UNL A   1      43.918  35.900  27.483  1.00  0.00    -0.200 F 
ATOM     66  F   UNL A   1      46.388  36.119  26.357  1.00  0.00    -0.200 F 
ENDBRANCH  42  56
BRANCH  43  67
ATOM     67  C   UNL A   1      36.832  31.994  30.658  1.00  0.00     0.064 A 
ATOM     68  C   UNL A   1      35.983  31.988  31.776  1.00  0.00     0.173 A 
ATOM     69  C   UNL A   1      36.489  32.866  29.609  1.00  0.00     0.173 A 
ATOM     70  F   UNL A   1      36.261  31.210  32.832  1.00  0.00    -0.203 F 
ATOM     71  C   UNL A   1      34.875  32.836  31.856  1.00  0.00     0.198 A 
ATOM     72  C   UNL A   1      35.381  33.709  29.687  1.00  0.00     0.198 A 
ATOM     73  F   UNL A   1      37.281  32.985  28.532  1.00  0.00    -0.203 F 
ATOM     74  F   UNL A   1      34.125  32.851  32.966  1.00  0.00    -0.200 F 
ATOM     75  C   UNL A   1      34.583  33.705  30.818  1.00  0.00     0.200 A 
ATOM     76  F   UNL A   1      35.129  34.572  28.693  1.00  0.00    -0.200 F 
ATOM     77  F   UNL A   1      33.563  34.567  30.924  1.00  0.00    -0.200 F 
ENDBRANCH  43  67
BRANCH  55  78
ATOM     78  C   UNL A   1      42.141  30.370  33.500  1.00  0.00     0.064 A 
ATOM     79  C   UNL A   1      41.755  29.025  33.376  1.00  0.00     0.173 A 
ATOM     80  C   UNL A   1      42.343  30.875  34.790  1.00  0.00     0.173 A 
ATOM     81  F   UNL A   1      41.613  28.457  32.172  1.00  0.00    -0.203 F 
ATOM     82  C   UNL A   1      41.536  28.237  34.505  1.00  0.00     0.198 A 
ATOM     83  C   UNL A   1      42.157  30.077  35.912  1.00  0.00     0.198 A 
ATOM     84  F   UNL A   1      42.750  32.144  34.958  1.00  0.00    -0.203 F 
ATOM     85  F   UNL A   1      41.141  26.962  34.368  1.00  0.00    -0.200 F 
ATOM     86  C   UNL A   1      41.742  28.762  35.771  1.00  0.00     0.200 A 
ATOM     87  F   UNL A   1      42.394  30.579  37.132  1.00  0.00    -0.200 F 
ATOM     88  F   UNL A   1      41.556  27.998  36.856  1.00  0.00    -0.200 F 
ENDBRANCH  55  78
ENDBRANCH  29  30
ENDBRANCH  22  24
ENDBRANCH  21  22
ENDBRANCH  20  21
ENDBRANCH   1  20
TORSDOF 15
ENDMDL
