MODEL 1
REMARK VINA RESULT:     -12.2      0.000      0.000
REMARK SMILES Cc1c[nH]c(C[N@H+]2C[C@@H]3CN(S(C)(=O)=O)C[C@]3(C(=O)OCCOCCOC(=O)c3ccc(-c4c5nc(c(-c6c(F)c(F)c(F)c(F)c6F)c6ccc([nH]6)c(-c6c(F)c(F)c(F)c(F)c6F)c6nc(c(-c7c(F)c(F)c(F)c(F)c7F)c7ccc4[nH]7)C=C6)C=C5)cc3)C2)n1
REMARK SMILES IDX 23 1 22 2 21 3 20 4 18 5 19 6 17 7 7 8 8 9 92 10 9 12 10 13
REMARK SMILES IDX 16 14 11 15 6 16 5 17 1 18 2 19 3 20 93 21 4 22 12 24 13 25
REMARK SMILES IDX 14 26 15 27 24 28 25 29 26 30 27 31 28 32 29 33 30 34 91 35
REMARK SMILES IDX 31 36 90 37 32 38 33 39 34 40 84 41 35 42 89 43 83 44 85 45
REMARK SMILES IDX 36 46 88 47 82 48 81 49 37 51 69 52 49 53 68 54 50 55 53 56
REMARK SMILES IDX 67 57 86 58 51 59 52 60 66 62 87 63 54 64 38 65 39 66 47 67
REMARK SMILES IDX 40 68 41 69 45 70 48 71 42 72 43 73 46 74 44 75 70 76 71 77
REMARK SMILES IDX 79 78 72 79 73 80 77 81 80 82 74 83 75 84 78 85 76 86 55 87
REMARK SMILES IDX 56 88 64 89 57 90 58 91 62 92 65 93 59 94 60 95 63 96 61 97
REMARK H PARENT 7 11 4 23 85 50 53 61
REMARK Flexibility Score: inf
ROOT
ATOM      1  O   UNL A   1      32.656  30.186  26.105  1.00  0.00    -0.374 OA
ENDROOT
BRANCH   1   2
ATOM      2  C   UNL A   1      32.744  29.033  26.938  1.00  0.00     0.202 C 
BRANCH   2   3
ATOM      3  C   UNL A   1      31.442  28.240  27.056  1.00  0.00     0.261 C 
BRANCH   3   4
ATOM      4  O   UNL A   1      31.682  26.824  27.093  1.00  0.00    -0.463 OA
BRANCH   4   5
ATOM      5  C   UNL A   1      31.094  25.938  26.217  1.00  0.00     0.319 C 
ATOM      6  O   UNL A   1      29.977  25.475  26.335  1.00  0.00    -0.251 OA
BRANCH   5   7
ATOM      7  C   UNL A   1      32.160  25.588  25.175  1.00  0.00     0.140 C 
ATOM      8  N   UNL A   1      32.458  27.031  23.189  1.00  0.00    -0.327 N 
ATOM      9  C   UNL A   1      33.762  26.563  23.610  1.00  0.00     0.268 C 
ATOM     10  C   UNL A   1      31.485  26.209  23.930  1.00  0.00     0.283 C 
ATOM     11  H   UNL A   1      32.317  26.900  22.188  1.00  0.00     0.348 HD
ATOM     12  C   UNL A   1      33.618  26.074  25.060  1.00  0.00     0.084 C 
ATOM     13  C   UNL A   1      34.579  24.880  25.175  1.00  0.00     0.113 C 
ATOM     14  C   UNL A   1      32.348  24.072  25.417  1.00  0.00     0.127 C 
ATOM     15  N   UNL A   1      33.715  23.718  25.087  1.00  0.00    -0.200 NA
BRANCH   8  16
ATOM     16  C   UNL A   1      32.281  28.499  23.267  1.00  0.00     0.338 C 
BRANCH  16  17
ATOM     17  C   UNL A   1      30.958  29.072  22.828  1.00  0.00     0.161 A 
ATOM     18  C   UNL A   1      27.495  29.877  23.109  1.00  0.00     0.068 C 
ATOM     19  C   UNL A   1      28.909  29.737  22.695  1.00  0.00     0.056 A 
ATOM     20  C   UNL A   1      29.560  30.318  21.631  1.00  0.00     0.107 A 
ATOM     21  N   UNL A   1      29.783  28.957  23.416  1.00  0.00    -0.233 NA
ATOM     22  N   UNL A   1      30.849  29.872  21.712  1.00  0.00    -0.344 N 
ATOM     23  H   UNL A   1      31.575  30.086  21.082  1.00  0.00     0.167 HD
ENDBRANCH  16  17
ENDBRANCH   8  16
BRANCH  15  24
ATOM     24  S   UNL A   1      34.056  22.293  24.312  1.00  0.00     0.211 S 
ATOM     25  C   UNL A   1      34.656  21.294  25.659  1.00  0.00     0.176 C 
ATOM     26  O   UNL A   1      32.818  21.719  23.824  1.00  0.00    -0.213 OA
ATOM     27  O   UNL A   1      35.173  22.543  23.430  1.00  0.00    -0.213 OA
ENDBRANCH  15  24
ENDBRANCH   5   7
ENDBRANCH   4   5
ENDBRANCH   3   4
ENDBRANCH   2   3
ENDBRANCH   1   2
BRANCH   1  28
ATOM     28  C   UNL A   1      31.544  31.050  26.338  1.00  0.00     0.202 C 
BRANCH  28  29
ATOM     29  C   UNL A   1      31.889  32.425  26.903  1.00  0.00     0.261 C 
BRANCH  29  30
ATOM     30  O   UNL A   1      32.795  32.303  28.014  1.00  0.00    -0.460 OA
BRANCH  30  31
ATOM     31  C   UNL A   1      33.760  33.249  28.020  1.00  0.00     0.338 C 
ATOM     32  O   UNL A   1      33.607  34.460  28.023  1.00  0.00    -0.246 OA
BRANCH  31  33
ATOM     33  C   UNL A   1      35.092  32.639  28.180  1.00  0.00     0.060 A 
ATOM     34  C   UNL A   1      35.115  31.263  28.433  1.00  0.00     0.016 A 
ATOM     35  C   UNL A   1      36.269  33.389  28.208  1.00  0.00     0.016 A 
ATOM     36  C   UNL A   1      36.295  30.652  28.834  1.00  0.00     0.010 A 
ATOM     37  C   UNL A   1      37.460  32.771  28.607  1.00  0.00     0.010 A 
ATOM     38  C   UNL A   1      37.459  31.416  28.986  1.00  0.00    -0.014 A 
BRANCH  38  39
ATOM     39  C   UNL A   1      38.598  30.809  29.716  1.00  0.00     0.031 A 
ATOM     40  C   UNL A   1      38.806  31.157  31.166  1.00  0.00     0.074 A 
ATOM     41  C   UNL A   1      39.358  29.870  29.128  1.00  0.00     0.049 A 
ATOM     42  N   UNL A   1      39.675  30.676  32.021  1.00  0.00    -0.248 NA
ATOM     43  C   UNL A   1      37.913  32.179  31.733  1.00  0.00     0.031 C 
ATOM     44  C   UNL A   1      39.219  29.422  27.744  1.00  0.00     0.029 A 
ATOM     45  N   UNL A   1      40.385  29.113  29.628  1.00  0.00    -0.354 N 
ATOM     46  C   UNL A   1      39.433  31.338  33.218  1.00  0.00     0.074 A 
ATOM     47  C   UNL A   1      38.366  32.282  32.973  1.00  0.00     0.031 C 
ATOM     48  C   UNL A   1      40.122  28.457  27.507  1.00  0.00     0.029 A 
ATOM     49  C   UNL A   1      40.921  28.244  28.713  1.00  0.00     0.049 A 
ATOM     50  H   UNL A   1      40.708  29.186  30.555  1.00  0.00     0.167 HD
ATOM     51  C   UNL A   1      40.039  31.163  34.418  1.00  0.00     0.037 A 
ATOM     52  C   UNL A   1      41.949  27.382  28.833  1.00  0.00     0.037 A 
ATOM     53  C   UNL A   1      41.102  30.222  34.655  1.00  0.00     0.049 A 
ATOM     54  C   UNL A   1      42.647  27.253  30.162  1.00  0.00     0.074 A 
ATOM     55  C   UNL A   1      41.777  29.960  35.835  1.00  0.00     0.029 A 
ATOM     56  N   UNL A   1      41.654  29.392  33.689  1.00  0.00    -0.354 N 
ATOM     57  N   UNL A   1      42.397  27.862  31.295  1.00  0.00    -0.248 NA
ATOM     58  C   UNL A   1      43.765  26.303  30.228  1.00  0.00     0.031 C 
ATOM     59  C   UNL A   1      42.778  29.020  35.568  1.00  0.00     0.029 A 
ATOM     60  C   UNL A   1      42.678  28.637  34.240  1.00  0.00     0.049 A 
ATOM     61  H   UNL A   1      41.361  29.346  32.750  1.00  0.00     0.167 HD
ATOM     62  C   UNL A   1      43.297  27.344  32.217  1.00  0.00     0.074 A 
ATOM     63  C   UNL A   1      44.089  26.357  31.512  1.00  0.00     0.031 C 
ATOM     64  C   UNL A   1      43.454  27.653  33.528  1.00  0.00     0.037 A 
BRANCH  51  65
ATOM     65  C   UNL A   1      39.588  32.032  35.559  1.00  0.00     0.064 A 
ATOM     66  C   UNL A   1      40.112  33.317  35.768  1.00  0.00     0.173 A 
ATOM     67  C   UNL A   1      38.588  31.585  36.436  1.00  0.00     0.173 A 
ATOM     68  F   UNL A   1      41.079  33.792  34.967  1.00  0.00    -0.203 F 
ATOM     69  C   UNL A   1      39.674  34.108  36.827  1.00  0.00     0.198 A 
ATOM     70  C   UNL A   1      38.128  32.391  37.474  1.00  0.00     0.198 A 
ATOM     71  F   UNL A   1      38.047  30.367  36.281  1.00  0.00    -0.203 F 
ATOM     72  F   UNL A   1      40.225  35.311  37.037  1.00  0.00    -0.200 F 
ATOM     73  C   UNL A   1      38.676  33.649  37.673  1.00  0.00     0.200 A 
ATOM     74  F   UNL A   1      37.151  31.951  38.280  1.00  0.00    -0.200 F 
ATOM     75  F   UNL A   1      38.247  34.415  38.687  1.00  0.00    -0.200 F 
ENDBRANCH  51  65
BRANCH  52  76
ATOM     76  C   UNL A   1      42.379  26.573  27.661  1.00  0.00     0.064 A 
ATOM     77  C   UNL A   1      41.793  25.333  27.378  1.00  0.00     0.173 A 
ATOM     78  C   UNL A   1      43.403  27.019  26.812  1.00  0.00     0.173 A 
ATOM     79  F   UNL A   1      40.825  24.852  28.172  1.00  0.00    -0.203 F 
ATOM     80  C   UNL A   1      42.230  24.558  26.305  1.00  0.00     0.198 A 
ATOM     81  C   UNL A   1      43.816  26.261  25.720  1.00  0.00     0.198 A 
ATOM     82  F   UNL A   1      43.997  28.201  27.038  1.00  0.00    -0.203 F 
ATOM     83  F   UNL A   1      41.690  23.351  26.089  1.00  0.00    -0.200 F 
ATOM     84  C   UNL A   1      43.237  25.025  25.473  1.00  0.00     0.200 A 
ATOM     85  F   UNL A   1      44.777  26.725  24.909  1.00  0.00    -0.200 F 
ATOM     86  F   UNL A   1      43.655  24.282  24.439  1.00  0.00    -0.200 F 
ENDBRANCH  52  76
BRANCH  64  87
ATOM     87  C   UNL A   1      44.484  26.875  34.300  1.00  0.00     0.064 A 
ATOM     88  C   UNL A   1      45.806  27.324  34.443  1.00  0.00     0.173 A 
ATOM     89  C   UNL A   1      44.137  25.662  34.918  1.00  0.00     0.173 A 
ATOM     90  F   UNL A   1      46.195  28.471  33.866  1.00  0.00    -0.203 F 
ATOM     91  C   UNL A   1      46.751  26.566  35.131  1.00  0.00     0.198 A 
ATOM     92  C   UNL A   1      45.074  24.927  35.638  1.00  0.00     0.198 A 
ATOM     93  F   UNL A   1      42.884  25.189  34.824  1.00  0.00    -0.203 F 
ATOM     94  F   UNL A   1      48.024  26.980  35.190  1.00  0.00    -0.200 F 
ATOM     95  C   UNL A   1      46.382  25.372  35.732  1.00  0.00     0.200 A 
ATOM     96  F   UNL A   1      44.710  23.784  36.235  1.00  0.00    -0.200 F 
ATOM     97  F   UNL A   1      47.293  24.644  36.393  1.00  0.00    -0.200 F 
ENDBRANCH  64  87
ENDBRANCH  38  39
ENDBRANCH  31  33
ENDBRANCH  30  31
ENDBRANCH  29  30
ENDBRANCH  28  29
ENDBRANCH   1  28
TORSDOF 17
ENDMDL
MODEL 2
REMARK VINA RESULT:     -11.8      1.324      1.647
REMARK SMILES Cc1c[nH]c(C[N@H+]2C[C@@H]3CN(S(C)(=O)=O)C[C@]3(C(=O)OCCOCCOC(=O)c3ccc(-c4c5nc(c(-c6c(F)c(F)c(F)c(F)c6F)c6ccc([nH]6)c(-c6c(F)c(F)c(F)c(F)c6F)c6nc(c(-c7c(F)c(F)c(F)c(F)c7F)c7ccc4[nH]7)C=C6)C=C5)cc3)C2)n1
REMARK SMILES IDX 23 1 22 2 21 3 20 4 18 5 19 6 17 7 7 8 8 9 92 10 9 12 10 13
REMARK SMILES IDX 16 14 11 15 6 16 5 17 1 18 2 19 3 20 93 21 4 22 12 24 13 25
REMARK SMILES IDX 14 26 15 27 24 28 25 29 26 30 27 31 28 32 29 33 30 34 91 35
REMARK SMILES IDX 31 36 90 37 32 38 33 39 34 40 84 41 35 42 89 43 83 44 85 45
REMARK SMILES IDX 36 46 88 47 82 48 81 49 37 51 69 52 49 53 68 54 50 55 53 56
REMARK SMILES IDX 67 57 86 58 51 59 52 60 66 62 87 63 54 64 38 65 39 66 47 67
REMARK SMILES IDX 40 68 41 69 45 70 48 71 42 72 43 73 46 74 44 75 70 76 71 77
REMARK SMILES IDX 79 78 72 79 73 80 77 81 80 82 74 83 75 84 78 85 76 86 55 87
REMARK SMILES IDX 56 88 64 89 57 90 58 91 62 92 65 93 59 94 60 95 63 96 61 97
REMARK H PARENT 7 11 4 23 85 50 53 61
REMARK Flexibility Score: inf
ROOT
ATOM      1  O   UNL A   1      31.389  28.741  25.811  1.00  0.00    -0.374 OA
ENDROOT
BRANCH   1   2
ATOM      2  C   UNL A   1      32.400  27.739  25.879  1.00  0.00     0.202 C 
BRANCH   2   3
ATOM      3  C   UNL A   1      31.984  26.474  26.630  1.00  0.00     0.261 C 
BRANCH   3   4
ATOM      4  O   UNL A   1      31.877  25.343  25.750  1.00  0.00    -0.463 OA
BRANCH   4   5
ATOM      5  C   UNL A   1      31.856  24.040  26.199  1.00  0.00     0.319 C 
ATOM      6  O   UNL A   1      31.650  23.700  27.347  1.00  0.00    -0.251 OA
BRANCH   5   7
ATOM      7  C   UNL A   1      32.254  23.165  25.008  1.00  0.00     0.140 C 
ATOM      8  N   UNL A   1      31.741  23.913  22.707  1.00  0.00    -0.327 N 
ATOM      9  C   UNL A   1      33.025  23.246  22.691  1.00  0.00     0.268 C 
ATOM     10  C   UNL A   1      31.147  23.597  24.018  1.00  0.00     0.283 C 
ATOM     11  H   UNL A   1      31.129  23.570  21.968  1.00  0.00     0.348 HD
ATOM     12  C   UNL A   1      33.529  23.205  24.143  1.00  0.00     0.084 C 
ATOM     13  C   UNL A   1      34.286  21.872  24.264  1.00  0.00     0.113 C 
ATOM     14  C   UNL A   1      32.359  21.770  25.666  1.00  0.00     0.127 C 
ATOM     15  N   UNL A   1      33.356  20.997  24.951  1.00  0.00    -0.200 NA
BRANCH   8  16
ATOM     16  C   UNL A   1      31.791  25.345  22.331  1.00  0.00     0.338 C 
BRANCH  16  17
ATOM     17  C   UNL A   1      30.690  26.243  22.832  1.00  0.00     0.161 A 
ATOM     18  C   UNL A   1      28.705  29.202  22.980  1.00  0.00     0.068 C 
ATOM     19  C   UNL A   1      29.288  27.853  23.151  1.00  0.00     0.056 A 
ATOM     20  C   UNL A   1      28.808  26.790  23.882  1.00  0.00     0.107 A 
ATOM     21  N   UNL A   1      30.460  27.504  22.522  1.00  0.00    -0.233 NA
ATOM     22  N   UNL A   1      29.715  25.786  23.690  1.00  0.00    -0.344 N 
ATOM     23  H   UNL A   1      29.677  24.889  24.096  1.00  0.00     0.167 HD
ENDBRANCH  16  17
ENDBRANCH   8  16
BRANCH  15  24
ATOM     24  S   UNL A   1      33.124  19.381  24.658  1.00  0.00     0.211 S 
ATOM     25  C   UNL A   1      32.356  19.421  23.051  1.00  0.00     0.176 C 
ATOM     26  O   UNL A   1      34.418  18.739  24.538  1.00  0.00    -0.213 OA
ATOM     27  O   UNL A   1      32.132  18.914  25.599  1.00  0.00    -0.213 OA
ENDBRANCH  15  24
ENDBRANCH   5   7
ENDBRANCH   4   5
ENDBRANCH   3   4
ENDBRANCH   2   3
ENDBRANCH   1   2
BRANCH   1  28
ATOM     28  C   UNL A   1      31.814  30.042  25.404  1.00  0.00     0.202 C 
BRANCH  28  29
ATOM     29  C   UNL A   1      31.699  31.131  26.466  1.00  0.00     0.261 C 
BRANCH  29  30
ATOM     30  O   UNL A   1      32.717  30.971  27.469  1.00  0.00    -0.460 OA
BRANCH  30  31
ATOM     31  C   UNL A   1      33.486  32.072  27.627  1.00  0.00     0.338 C 
ATOM     32  O   UNL A   1      33.108  33.228  27.724  1.00  0.00    -0.246 OA
BRANCH  31  33
ATOM     33  C   UNL A   1      34.897  31.701  27.831  1.00  0.00     0.060 A 
ATOM     34  C   UNL A   1      35.171  30.332  27.917  1.00  0.00     0.016 A 
ATOM     35  C   UNL A   1      35.903  32.644  28.055  1.00  0.00     0.016 A 
ATOM     36  C   UNL A   1      36.418  29.900  28.344  1.00  0.00     0.010 A 
ATOM     37  C   UNL A   1      37.162  32.208  28.482  1.00  0.00     0.010 A 
ATOM     38  C   UNL A   1      37.399  30.837  28.692  1.00  0.00    -0.014 A 
BRANCH  38  39
ATOM     39  C   UNL A   1      38.585  30.356  29.442  1.00  0.00     0.031 A 
ATOM     40  C   UNL A   1      38.764  30.780  30.876  1.00  0.00     0.074 A 
ATOM     41  C   UNL A   1      39.420  29.460  28.890  1.00  0.00     0.049 A 
ATOM     42  N   UNL A   1      39.669  30.408  31.747  1.00  0.00    -0.248 NA
ATOM     43  C   UNL A   1      37.789  31.747  31.404  1.00  0.00     0.031 C 
ATOM     44  C   UNL A   1      39.318  28.945  27.527  1.00  0.00     0.029 A 
ATOM     45  N   UNL A   1      40.506  28.811  29.418  1.00  0.00    -0.354 N 
ATOM     46  C   UNL A   1      39.374  31.096  32.917  1.00  0.00     0.074 A 
ATOM     47  C   UNL A   1      38.232  31.937  32.637  1.00  0.00     0.031 C 
ATOM     48  C   UNL A   1      40.298  28.049  27.326  1.00  0.00     0.029 A 
ATOM     49  C   UNL A   1      41.112  27.953  28.536  1.00  0.00     0.049 A 
ATOM     50  H   UNL A   1      40.822  28.949  30.340  1.00  0.00     0.167 HD
ATOM     51  C   UNL A   1      39.992  31.021  34.120  1.00  0.00     0.037 A 
ATOM     52  C   UNL A   1      42.207  27.184  28.688  1.00  0.00     0.037 A 
ATOM     53  C   UNL A   1      41.129  30.181  34.393  1.00  0.00     0.049 A 
ATOM     54  C   UNL A   1      42.913  27.167  30.019  1.00  0.00     0.074 A 
ATOM     55  C   UNL A   1      41.824  30.024  35.580  1.00  0.00     0.029 A 
ATOM     56  N   UNL A   1      41.747  29.360  33.459  1.00  0.00    -0.354 N 
ATOM     57  N   UNL A   1      42.614  27.800  31.127  1.00  0.00    -0.248 NA
ATOM     58  C   UNL A   1      44.106  26.316  30.120  1.00  0.00     0.031 C 
ATOM     59  C   UNL A   1      42.899  29.160  35.348  1.00  0.00     0.029 A 
ATOM     60  C   UNL A   1      42.831  28.716  34.037  1.00  0.00     0.049 A 
ATOM     61  H   UNL A   1      41.460  29.252  32.524  1.00  0.00     0.167 HD
ATOM     62  C   UNL A   1      43.554  27.396  32.066  1.00  0.00     0.074 A 
ATOM     63  C   UNL A   1      44.425  26.450  31.399  1.00  0.00     0.031 C 
ATOM     64  C   UNL A   1      43.685  27.770  33.363  1.00  0.00     0.037 A 
BRANCH  51  65
ATOM     65  C   UNL A   1      39.471  31.896  35.227  1.00  0.00     0.064 A 
ATOM     66  C   UNL A   1      39.799  33.257  35.315  1.00  0.00     0.173 A 
ATOM     67  C   UNL A   1      38.601  31.370  36.194  1.00  0.00     0.173 A 
ATOM     68  F   UNL A   1      40.636  33.811  34.424  1.00  0.00    -0.203 F 
ATOM     69  C   UNL A   1      39.298  34.051  36.345  1.00  0.00     0.198 A 
ATOM     70  C   UNL A   1      38.075  32.174  37.201  1.00  0.00     0.198 A 
ATOM     71  F   UNL A   1      38.249  30.076  36.155  1.00  0.00    -0.203 F 
ATOM     72  F   UNL A   1      39.665  35.337  36.438  1.00  0.00    -0.200 F 
ATOM     73  C   UNL A   1      38.430  33.511  37.281  1.00  0.00     0.200 A 
ATOM     74  F   UNL A   1      37.222  31.653  38.096  1.00  0.00    -0.200 F 
ATOM     75  F   UNL A   1      37.940  34.278  38.265  1.00  0.00    -0.200 F 
ENDBRANCH  51  65
BRANCH  52  76
ATOM     76  C   UNL A   1      42.702  26.366  27.549  1.00  0.00     0.064 A 
ATOM     77  C   UNL A   1      42.219  25.072  27.317  1.00  0.00     0.173 A 
ATOM     78  C   UNL A   1      43.688  26.859  26.680  1.00  0.00     0.173 A 
ATOM     79  F   UNL A   1      41.293  24.546  28.133  1.00  0.00    -0.203 F 
ATOM     80  C   UNL A   1      42.719  24.292  26.276  1.00  0.00     0.198 A 
ATOM     81  C   UNL A   1      44.161  26.093  25.619  1.00  0.00     0.198 A 
ATOM     82  F   UNL A   1      44.184  28.093  26.856  1.00  0.00    -0.203 F 
ATOM     83  F   UNL A   1      42.279  23.038  26.110  1.00  0.00    -0.200 F 
ATOM     84  C   UNL A   1      43.685  24.806  25.423  1.00  0.00     0.200 A 
ATOM     85  F   UNL A   1      45.082  26.601  24.787  1.00  0.00    -0.200 F 
ATOM     86  F   UNL A   1      44.163  24.058  24.419  1.00  0.00    -0.200 F 
ENDBRANCH  52  76
BRANCH  64  87
ATOM     87  C   UNL A   1      44.776  27.112  34.163  1.00  0.00     0.064 A 
ATOM     88  C   UNL A   1      46.057  27.673  34.280  1.00  0.00     0.173 A 
ATOM     89  C   UNL A   1      44.529  25.903  34.833  1.00  0.00     0.173 A 
ATOM     90  F   UNL A   1      46.352  28.822  33.653  1.00  0.00    -0.203 F 
ATOM     91  C   UNL A   1      47.062  27.024  34.995  1.00  0.00     0.198 A 
ATOM     92  C   UNL A   1      45.524  25.278  35.580  1.00  0.00     0.198 A 
ATOM     93  F   UNL A   1      43.319  25.327  34.766  1.00  0.00    -0.203 F 
ATOM     94  F   UNL A   1      48.297  27.542  35.031  1.00  0.00    -0.200 F 
ATOM     95  C   UNL A   1      46.792  25.831  35.649  1.00  0.00     0.200 A 
ATOM     96  F   UNL A   1      45.255  24.136  36.227  1.00  0.00    -0.200 F 
ATOM     97  F   UNL A   1      47.760  25.208  36.336  1.00  0.00    -0.200 F 
ENDBRANCH  64  87
ENDBRANCH  38  39
ENDBRANCH  31  33
ENDBRANCH  30  31
ENDBRANCH  29  30
ENDBRANCH  28  29
ENDBRANCH   1  28
TORSDOF 17
ENDMDL
MODEL 3
REMARK VINA RESULT:     -11.8      4.888     10.235
REMARK SMILES Cc1c[nH]c(C[N@H+]2C[C@@H]3CN(S(C)(=O)=O)C[C@]3(C(=O)OCCOCCOC(=O)c3ccc(-c4c5nc(c(-c6c(F)c(F)c(F)c(F)c6F)c6ccc([nH]6)c(-c6c(F)c(F)c(F)c(F)c6F)c6nc(c(-c7c(F)c(F)c(F)c(F)c7F)c7ccc4[nH]7)C=C6)C=C5)cc3)C2)n1
REMARK SMILES IDX 23 1 22 2 21 3 20 4 18 5 19 6 17 7 7 8 8 9 92 10 9 12 10 13
REMARK SMILES IDX 16 14 11 15 6 16 5 17 1 18 2 19 3 20 93 21 4 22 12 24 13 25
REMARK SMILES IDX 14 26 15 27 24 28 25 29 26 30 27 31 28 32 29 33 30 34 91 35
REMARK SMILES IDX 31 36 90 37 32 38 33 39 34 40 84 41 35 42 89 43 83 44 85 45
REMARK SMILES IDX 36 46 88 47 82 48 81 49 37 51 69 52 49 53 68 54 50 55 53 56
REMARK SMILES IDX 67 57 86 58 51 59 52 60 66 62 87 63 54 64 38 65 39 66 47 67
REMARK SMILES IDX 40 68 41 69 45 70 48 71 42 72 43 73 46 74 44 75 70 76 71 77
REMARK SMILES IDX 79 78 72 79 73 80 77 81 80 82 74 83 75 84 78 85 76 86 55 87
REMARK SMILES IDX 56 88 64 89 57 90 58 91 62 92 65 93 59 94 60 95 63 96 61 97
REMARK H PARENT 7 11 4 23 85 50 53 61
REMARK Flexibility Score: inf
ROOT
ATOM      1  O   UNL A   1      38.914  22.287  26.062  1.00  0.00    -0.374 OA
ENDROOT
BRANCH   1   2
ATOM      2  C   UNL A   1      38.115  23.468  26.076  1.00  0.00     0.202 C 
BRANCH   2   3
ATOM      3  C   UNL A   1      37.044  23.517  24.987  1.00  0.00     0.261 C 
BRANCH   3   4
ATOM      4  O   UNL A   1      35.910  24.304  25.389  1.00  0.00    -0.463 OA
BRANCH   4   5
ATOM      5  C   UNL A   1      34.788  23.761  25.977  1.00  0.00     0.319 C 
ATOM      6  O   UNL A   1      34.773  23.169  27.038  1.00  0.00    -0.251 OA
BRANCH   5   7
ATOM      7  C   UNL A   1      33.641  23.955  24.983  1.00  0.00     0.140 C 
ATOM      8  N   UNL A   1      32.258  22.019  24.309  1.00  0.00    -0.327 N 
ATOM      9  C   UNL A   1      31.397  23.178  24.408  1.00  0.00     0.268 C 
ATOM     10  C   UNL A   1      33.634  22.544  24.352  1.00  0.00     0.283 C 
ATOM     11  H   UNL A   1      32.116  21.518  23.432  1.00  0.00     0.348 HD
ATOM     12  C   UNL A   1      32.147  24.225  25.249  1.00  0.00     0.084 C 
ATOM     13  C   UNL A   1      31.744  25.581  24.648  1.00  0.00     0.113 C 
ATOM     14  C   UNL A   1      34.073  25.250  24.255  1.00  0.00     0.127 C 
ATOM     15  N   UNL A   1      32.882  25.961  23.833  1.00  0.00    -0.200 NA
BRANCH   8  16
ATOM     16  C   UNL A   1      31.933  20.933  25.261  1.00  0.00     0.338 C 
BRANCH  16  17
ATOM     17  C   UNL A   1      32.513  19.567  24.996  1.00  0.00     0.161 A 
ATOM     18  C   UNL A   1      33.971  16.963  23.044  1.00  0.00     0.068 C 
ATOM     19  C   UNL A   1      33.427  17.818  24.123  1.00  0.00     0.056 A 
ATOM     20  C   UNL A   1      33.410  17.591  25.480  1.00  0.00     0.107 A 
ATOM     21  N   UNL A   1      32.854  19.036  23.839  1.00  0.00    -0.233 NA
ATOM     22  N   UNL A   1      32.809  18.694  26.019  1.00  0.00    -0.344 N 
ATOM     23  H   UNL A   1      32.620  18.839  26.975  1.00  0.00     0.167 HD
ENDBRANCH  16  17
ENDBRANCH   8  16
BRANCH  15  24
ATOM     24  S   UNL A   1      32.830  26.725  22.362  1.00  0.00     0.211 S 
ATOM     25  C   UNL A   1      33.227  28.400  22.821  1.00  0.00     0.176 C 
ATOM     26  O   UNL A   1      33.897  26.207  21.529  1.00  0.00    -0.213 OA
ATOM     27  O   UNL A   1      31.454  26.713  21.924  1.00  0.00    -0.213 OA
ENDBRANCH  15  24
ENDBRANCH   5   7
ENDBRANCH   4   5
ENDBRANCH   3   4
ENDBRANCH   2   3
ENDBRANCH   1   2
BRANCH   1  28
ATOM     28  C   UNL A   1      38.365  21.163  25.375  1.00  0.00     0.202 C 
BRANCH  28  29
ATOM     29  C   UNL A   1      39.260  19.927  25.322  1.00  0.00     0.261 C 
BRANCH  29  30
ATOM     30  O   UNL A   1      40.096  19.857  26.490  1.00  0.00    -0.460 OA
BRANCH  30  31
ATOM     31  C   UNL A   1      41.394  19.613  26.202  1.00  0.00     0.338 C 
ATOM     32  O   UNL A   1      41.852  18.634  25.635  1.00  0.00    -0.246 OA
BRANCH  31  33
ATOM     33  C   UNL A   1      42.232  20.780  26.528  1.00  0.00     0.060 A 
ATOM     34  C   UNL A   1      42.381  21.073  27.888  1.00  0.00     0.016 A 
ATOM     35  C   UNL A   1      42.753  21.633  25.553  1.00  0.00     0.016 A 
ATOM     36  C   UNL A   1      42.946  22.279  28.279  1.00  0.00     0.010 A 
ATOM     37  C   UNL A   1      43.327  22.847  25.948  1.00  0.00     0.010 A 
ATOM     38  C   UNL A   1      43.362  23.201  27.309  1.00  0.00    -0.014 A 
BRANCH  38  39
ATOM     39  C   UNL A   1      43.651  24.587  27.749  1.00  0.00     0.031 A 
ATOM     40  C   UNL A   1      45.080  25.063  27.775  1.00  0.00     0.074 A 
ATOM     41  C   UNL A   1      42.647  25.443  28.002  1.00  0.00     0.049 A 
ATOM     42  N   UNL A   1      45.555  26.256  28.032  1.00  0.00    -0.248 NA
ATOM     43  C   UNL A   1      46.113  24.063  27.462  1.00  0.00     0.031 C 
ATOM     44  C   UNL A   1      41.226  25.105  27.964  1.00  0.00     0.029 A 
ATOM     45  N   UNL A   1      42.671  26.775  28.323  1.00  0.00    -0.354 N 
ATOM     46  C   UNL A   1      46.935  26.147  27.916  1.00  0.00     0.074 A 
ATOM     47  C   UNL A   1      47.226  24.765  27.604  1.00  0.00     0.031 C 
ATOM     48  C   UNL A   1      40.509  26.207  28.240  1.00  0.00     0.029 A 
ATOM     49  C   UNL A   1      41.424  27.317  28.505  1.00  0.00     0.049 A 
ATOM     50  H   UNL A   1      43.502  27.294  28.414  1.00  0.00     0.167 HD
ATOM     51  C   UNL A   1      47.873  27.116  28.044  1.00  0.00     0.037 A 
ATOM     52  C   UNL A   1      41.063  28.566  28.856  1.00  0.00     0.037 A 
ATOM     53  C   UNL A   1      47.577  28.490  28.355  1.00  0.00     0.049 A 
ATOM     54  C   UNL A   1      42.132  29.610  29.054  1.00  0.00     0.074 A 
ATOM     55  C   UNL A   1      48.453  29.553  28.498  1.00  0.00     0.029 A 
ATOM     56  N   UNL A   1      46.303  28.992  28.583  1.00  0.00    -0.354 N 
ATOM     57  N   UNL A   1      43.431  29.506  28.918  1.00  0.00    -0.248 NA
ATOM     58  C   UNL A   1      41.677  30.950  29.445  1.00  0.00     0.031 C 
ATOM     59  C   UNL A   1      47.717  30.681  28.875  1.00  0.00     0.029 A 
ATOM     60  C   UNL A   1      46.373  30.342  28.891  1.00  0.00     0.049 A 
ATOM     61  H   UNL A   1      45.472  28.467  28.533  1.00  0.00     0.167 HD
ATOM     62  C   UNL A   1      43.946  30.772  29.166  1.00  0.00     0.074 A 
ATOM     63  C   UNL A   1      42.814  31.631  29.446  1.00  0.00     0.031 C 
ATOM     64  C   UNL A   1      45.237  31.188  29.161  1.00  0.00     0.037 A 
BRANCH  51  65
ATOM     65  C   UNL A   1      49.314  26.717  27.880  1.00  0.00     0.064 A 
ATOM     66  C   UNL A   1      49.925  26.642  26.620  1.00  0.00     0.173 A 
ATOM     67  C   UNL A   1      50.104  26.442  29.007  1.00  0.00     0.173 A 
ATOM     68  F   UNL A   1      49.215  26.884  25.507  1.00  0.00    -0.203 F 
ATOM     69  C   UNL A   1      51.264  26.278  26.491  1.00  0.00     0.198 A 
ATOM     70  C   UNL A   1      51.451  26.112  28.877  1.00  0.00     0.198 A 
ATOM     71  F   UNL A   1      49.573  26.504  30.237  1.00  0.00    -0.203 F 
ATOM     72  F   UNL A   1      51.813  26.163  25.274  1.00  0.00    -0.200 F 
ATOM     73  C   UNL A   1      52.028  26.022  27.620  1.00  0.00     0.200 A 
ATOM     74  F   UNL A   1      52.191  25.881  29.971  1.00  0.00    -0.200 F 
ATOM     75  F   UNL A   1      53.319  25.683  27.497  1.00  0.00    -0.200 F 
ENDBRANCH  51  65
BRANCH  52  76
ATOM     76  C   UNL A   1      39.626  28.898  29.043  1.00  0.00     0.064 A 
ATOM     77  C   UNL A   1      38.999  28.748  30.287  1.00  0.00     0.173 A 
ATOM     78  C   UNL A   1      38.844  29.353  27.970  1.00  0.00     0.173 A 
ATOM     79  F   UNL A   1      39.697  28.295  31.339  1.00  0.00    -0.203 F 
ATOM     80  C   UNL A   1      37.641  29.017  30.446  1.00  0.00     0.198 A 
ATOM     81  C   UNL A   1      37.496  29.655  28.137  1.00  0.00     0.198 A 
ATOM     82  F   UNL A   1      39.395  29.515  26.758  1.00  0.00    -0.203 F 
ATOM     83  F   UNL A   1      37.054  28.813  31.633  1.00  0.00    -0.200 F 
ATOM     84  C   UNL A   1      36.892  29.477  29.372  1.00  0.00     0.200 A 
ATOM     85  F   UNL A   1      36.781  30.116  27.102  1.00  0.00    -0.200 F 
ATOM     86  F   UNL A   1      35.587  29.740  29.526  1.00  0.00    -0.200 F 
ENDBRANCH  52  76
BRANCH  64  87
ATOM     87  C   UNL A   1      45.490  32.650  29.411  1.00  0.00     0.064 A 
ATOM     88  C   UNL A   1      45.731  33.155  30.697  1.00  0.00     0.173 A 
ATOM     89  C   UNL A   1      45.502  33.558  28.340  1.00  0.00     0.173 A 
ATOM     90  F   UNL A   1      45.722  32.335  31.759  1.00  0.00    -0.203 F 
ATOM     91  C   UNL A   1      45.925  34.519  30.908  1.00  0.00     0.198 A 
ATOM     92  C   UNL A   1      45.736  34.913  28.548  1.00  0.00     0.198 A 
ATOM     93  F   UNL A   1      45.290  33.128  27.086  1.00  0.00    -0.203 F 
ATOM     94  F   UNL A   1      46.079  34.987  32.153  1.00  0.00    -0.200 F 
ATOM     95  C   UNL A   1      45.933  35.395  29.833  1.00  0.00     0.200 A 
ATOM     96  F   UNL A   1      45.764  35.755  27.506  1.00  0.00    -0.200 F 
ATOM     97  F   UNL A   1      46.119  36.707  30.037  1.00  0.00    -0.200 F 
ENDBRANCH  64  87
ENDBRANCH  38  39
ENDBRANCH  31  33
ENDBRANCH  30  31
ENDBRANCH  29  30
ENDBRANCH  28  29
ENDBRANCH   1  28
TORSDOF 17
ENDMDL
