MODEL 1
REMARK VINA RESULT:     -11.4      0.000      0.000
REMARK SMILES Cc1nc(Nc2ccc(F)cc2)nc(OCC(=O)OCCOCCOC(=O)c2ccc(-c3c4nc(c(-c5c(F)c(F)c(F)c(F)c5F)c5ccc([nH]5)c(-c5c(F)c(F)c(F)c(F)c5F)c5nc(c(-c6c(F)c(F)c(F)c(F)c6F)c6ccc3[nH]6)C=C5)C=C4)cc2)c1CCO
REMARK SMILES IDX 20 1 19 2 17 3 18 4 16 5 15 6 14 7 1 8 2 9 3 10 91 11 4 12
REMARK SMILES IDX 13 13 92 14 93 15 94 16 5 18 6 20 7 21 12 22 8 23 11 24 9 25
REMARK SMILES IDX 10 26 21 27 22 28 23 29 24 30 25 31 26 32 27 33 28 34 29 35
REMARK SMILES IDX 90 36 30 37 89 38 31 39 32 40 33 41 83 42 34 43 88 44 82 45
REMARK SMILES IDX 84 46 35 47 87 48 81 49 80 50 36 52 68 53 48 54 67 55 49 56
REMARK SMILES IDX 52 57 66 58 85 59 50 60 51 61 65 63 86 64 53 65 37 66 38 67
REMARK SMILES IDX 46 68 39 69 40 70 44 71 47 72 41 73 42 74 45 75 43 76 69 77
REMARK SMILES IDX 70 78 78 79 71 80 72 81 76 82 79 83 73 84 74 85 77 86 75 87
REMARK SMILES IDX 54 88 55 89 63 90 56 91 57 92 61 93 64 94 58 95 59 96 62 97
REMARK SMILES IDX 60 98
REMARK H PARENT 94 17 5 19 84 51 52 62
REMARK Flexibility Score: inf
ROOT
ATOM      1  C   UNL A   1      32.951  21.849  25.912  1.00  0.00     0.261 C 
ENDROOT
BRANCH   1   2
ATOM      2  O   UNL A   1      32.834  23.278  25.731  1.00  0.00    -0.461 OA
BRANCH   2   3
ATOM      3  C   UNL A   1      31.656  23.818  26.150  1.00  0.00     0.344 C 
ATOM      4  O   UNL A   1      31.373  24.041  27.324  1.00  0.00    -0.248 OA
BRANCH   3   5
ATOM      5  C   UNL A   1      30.667  24.091  25.013  1.00  0.00     0.353 C 
BRANCH   5   6
ATOM      6  O   UNL A   1      30.987  24.827  23.862  1.00  0.00    -0.465 OA
BRANCH   6   7
ATOM      7  C   UNL A   1      31.378  26.117  23.778  1.00  0.00     0.222 A 
ATOM      8  C   UNL A   1      33.793  28.830  22.753  1.00  0.00     0.067 C 
ATOM      9  C   UNL A   1      32.619  28.036  23.255  1.00  0.00     0.050 A 
ATOM     10  N   UNL A   1      31.495  28.774  23.294  1.00  0.00    -0.218 NA
ATOM     11  C   UNL A   1      32.640  26.672  23.573  1.00  0.00     0.038 A 
ATOM     12  C   UNL A   1      30.355  28.193  23.650  1.00  0.00     0.230 A 
ATOM     13  N   UNL A   1      30.268  26.885  23.879  1.00  0.00    -0.177 NA
BRANCH  11  14
ATOM     14  C   UNL A   1      33.955  25.950  23.709  1.00  0.00     0.071 C 
BRANCH  14  15
ATOM     15  C   UNL A   1      34.081  24.747  22.773  1.00  0.00     0.161 C 
BRANCH  15  16
ATOM     16  O   UNL A   1      34.552  23.595  23.457  1.00  0.00    -0.396 OA
ATOM     17  H   UNL A   1      34.250  23.621  24.379  1.00  0.00     0.210 HD
ENDBRANCH  15  16
ENDBRANCH  14  15
ENDBRANCH  11  14
BRANCH  12  18
ATOM     18  N   UNL A   1      29.215  28.970  23.831  1.00  0.00    -0.324 N 
ATOM     19  H   UNL A   1      28.657  28.748  24.610  1.00  0.00     0.170 HD
BRANCH  18  20
ATOM     20  C   UNL A   1      28.772  30.030  23.035  1.00  0.00     0.041 A 
ATOM     21  C   UNL A   1      28.408  29.817  21.695  1.00  0.00     0.029 A 
ATOM     22  C   UNL A   1      28.756  31.336  23.538  1.00  0.00     0.029 A 
ATOM     23  C   UNL A   1      28.028  30.883  20.878  1.00  0.00     0.041 A 
ATOM     24  C   UNL A   1      28.406  32.410  22.713  1.00  0.00     0.041 A 
ATOM     25  C   UNL A   1      28.043  32.172  21.393  1.00  0.00     0.123 A 
ATOM     26  F   UNL A   1      27.713  33.202  20.602  1.00  0.00    -0.207 F 
ENDBRANCH  18  20
ENDBRANCH  12  18
ENDBRANCH   6   7
ENDBRANCH   5   6
ENDBRANCH   3   5
ENDBRANCH   2   3
ENDBRANCH   1   2
BRANCH   1  27
ATOM     27  C   UNL A   1      34.253  21.446  26.612  1.00  0.00     0.202 C 
BRANCH  27  28
ATOM     28  O   UNL A   1      35.467  21.729  25.911  1.00  0.00    -0.374 OA
BRANCH  28  29
ATOM     29  C   UNL A   1      35.935  20.742  24.998  1.00  0.00     0.202 C 
BRANCH  29  30
ATOM     30  C   UNL A   1      37.444  20.487  24.993  1.00  0.00     0.261 C 
BRANCH  30  31
ATOM     31  O   UNL A   1      38.187  21.638  25.394  1.00  0.00    -0.460 OA
BRANCH  31  32
ATOM     32  C   UNL A   1      39.279  21.354  26.127  1.00  0.00     0.338 C 
ATOM     33  O   UNL A   1      39.939  20.319  26.140  1.00  0.00    -0.246 OA
BRANCH  32  34
ATOM     34  C   UNL A   1      39.710  22.568  26.815  1.00  0.00     0.060 A 
ATOM     35  C   UNL A   1      39.054  23.756  26.477  1.00  0.00     0.016 A 
ATOM     36  C   UNL A   1      40.769  22.549  27.724  1.00  0.00     0.016 A 
ATOM     37  C   UNL A   1      39.503  24.955  27.005  1.00  0.00     0.010 A 
ATOM     38  C   UNL A   1      41.227  23.756  28.247  1.00  0.00     0.010 A 
ATOM     39  C   UNL A   1      40.621  24.961  27.851  1.00  0.00    -0.014 A 
BRANCH  39  40
ATOM     40  C   UNL A   1      41.255  26.256  28.157  1.00  0.00     0.031 A 
ATOM     41  C   UNL A   1      42.654  26.494  27.672  1.00  0.00     0.074 A 
ATOM     42  C   UNL A   1      40.550  27.220  28.769  1.00  0.00     0.049 A 
ATOM     43  N   UNL A   1      43.390  27.570  27.757  1.00  0.00    -0.248 NA
ATOM     44  C   UNL A   1      43.313  25.369  26.986  1.00  0.00     0.031 C 
ATOM     45  C   UNL A   1      39.169  27.086  29.227  1.00  0.00     0.029 A 
ATOM     46  N   UNL A   1      40.893  28.505  29.095  1.00  0.00    -0.354 N 
ATOM     47  C   UNL A   1      44.587  27.256  27.130  1.00  0.00     0.074 A 
ATOM     48  C   UNL A   1      44.502  25.878  26.702  1.00  0.00     0.031 C 
ATOM     49  C   UNL A   1      38.773  28.252  29.763  1.00  0.00     0.029 A 
ATOM     50  C   UNL A   1      39.883  29.201  29.709  1.00  0.00     0.049 A 
ATOM     51  H   UNL A   1      41.778  28.892  28.906  1.00  0.00     0.167 HD
ATOM     52  C   UNL A   1      45.655  28.058  26.918  1.00  0.00     0.037 A 
ATOM     53  C   UNL A   1      39.868  30.464  30.175  1.00  0.00     0.037 A 
ATOM     54  C   UNL A   1      45.721  29.425  27.360  1.00  0.00     0.049 A 
ATOM     55  C   UNL A   1      41.098  31.313  29.995  1.00  0.00     0.074 A 
ATOM     56  C   UNL A   1      46.756  30.329  27.216  1.00  0.00     0.029 A 
ATOM     57  N   UNL A   1      44.702  30.080  28.038  1.00  0.00    -0.354 N 
ATOM     58  N   UNL A   1      42.228  31.013  29.398  1.00  0.00    -0.248 NA
ATOM     59  C   UNL A   1      41.054  32.673  30.547  1.00  0.00     0.031 C 
ATOM     60  C   UNL A   1      46.381  31.519  27.848  1.00  0.00     0.029 A 
ATOM     61  C   UNL A   1      45.092  31.373  28.339  1.00  0.00     0.049 A 
ATOM     62  H   UNL A   1      43.831  29.684  28.270  1.00  0.00     0.167 HD
ATOM     63  C   UNL A   1      43.021  32.148  29.486  1.00  0.00     0.074 A 
ATOM     64  C   UNL A   1      42.238  33.149  30.181  1.00  0.00     0.031 C 
ATOM     65  C   UNL A   1      44.284  32.345  29.033  1.00  0.00     0.037 A 
BRANCH  52  66
ATOM     66  C   UNL A   1      46.834  27.477  26.197  1.00  0.00     0.064 A 
ATOM     67  C   UNL A   1      47.852  26.822  26.908  1.00  0.00     0.173 A 
ATOM     68  C   UNL A   1      46.979  27.600  24.808  1.00  0.00     0.173 A 
ATOM     69  F   UNL A   1      47.761  26.676  28.238  1.00  0.00    -0.203 F 
ATOM     70  C   UNL A   1      48.976  26.325  26.255  1.00  0.00     0.198 A 
ATOM     71  C   UNL A   1      48.093  27.078  24.154  1.00  0.00     0.198 A 
ATOM     72  F   UNL A   1      46.025  28.200  24.079  1.00  0.00    -0.203 F 
ATOM     73  F   UNL A   1      49.948  25.727  26.958  1.00  0.00    -0.200 F 
ATOM     74  C   UNL A   1      49.095  26.450  24.879  1.00  0.00     0.200 A 
ATOM     75  F   UNL A   1      48.193  27.177  22.821  1.00  0.00    -0.200 F 
ATOM     76  F   UNL A   1      50.172  25.960  24.251  1.00  0.00    -0.200 F 
ENDBRANCH  52  66
BRANCH  53  77
ATOM     77  C   UNL A   1      38.644  30.990  30.830  1.00  0.00     0.064 A 
ATOM     78  C   UNL A   1      38.478  30.919  32.222  1.00  0.00     0.173 A 
ATOM     79  C   UNL A   1      37.595  31.533  30.076  1.00  0.00     0.173 A 
ATOM     80  F   UNL A   1      39.451  30.405  32.989  1.00  0.00    -0.203 F 
ATOM     81  C   UNL A   1      37.301  31.349  32.831  1.00  0.00     0.198 A 
ATOM     82  C   UNL A   1      36.428  31.986  30.690  1.00  0.00     0.198 A 
ATOM     83  F   UNL A   1      37.713  31.639  28.745  1.00  0.00    -0.203 F 
ATOM     84  F   UNL A   1      37.155  31.233  34.159  1.00  0.00    -0.200 F 
ATOM     85  C   UNL A   1      36.278  31.885  32.065  1.00  0.00     0.200 A 
ATOM     86  F   UNL A   1      35.449  32.521  29.948  1.00  0.00    -0.200 F 
ATOM     87  F   UNL A   1      35.148  32.302  32.651  1.00  0.00    -0.200 F 
ENDBRANCH  53  77
BRANCH  65  88
ATOM     88  C   UNL A   1      44.896  33.695  29.260  1.00  0.00     0.064 A 
ATOM     89  C   UNL A   1      45.599  33.965  30.444  1.00  0.00     0.173 A 
ATOM     90  C   UNL A   1      44.704  34.745  28.350  1.00  0.00     0.173 A 
ATOM     91  F   UNL A   1      45.797  32.995  31.348  1.00  0.00    -0.203 F 
ATOM     92  C   UNL A   1      46.074  35.244  30.716  1.00  0.00     0.198 A 
ATOM     93  C   UNL A   1      45.205  36.016  28.614  1.00  0.00     0.198 A 
ATOM     94  F   UNL A   1      44.046  34.531  27.201  1.00  0.00    -0.203 F 
ATOM     95  F   UNL A   1      46.709  35.490  31.870  1.00  0.00    -0.200 F 
ATOM     96  C   UNL A   1      45.879  36.267  29.801  1.00  0.00     0.200 A 
ATOM     97  F   UNL A   1      45.036  36.999  27.719  1.00  0.00    -0.200 F 
ATOM     98  F   UNL A   1      46.342  37.497  30.061  1.00  0.00    -0.200 F 
ENDBRANCH  65  88
ENDBRANCH  39  40
ENDBRANCH  32  34
ENDBRANCH  31  32
ENDBRANCH  30  31
ENDBRANCH  29  30
ENDBRANCH  28  29
ENDBRANCH  27  28
ENDBRANCH   1  27
TORSDOF 21
ENDMDL
MODEL 2
REMARK VINA RESULT:     -11.2      4.772      8.207
REMARK SMILES Cc1nc(Nc2ccc(F)cc2)nc(OCC(=O)OCCOCCOC(=O)c2ccc(-c3c4nc(c(-c5c(F)c(F)c(F)c(F)c5F)c5ccc([nH]5)c(-c5c(F)c(F)c(F)c(F)c5F)c5nc(c(-c6c(F)c(F)c(F)c(F)c6F)c6ccc3[nH]6)C=C5)C=C4)cc2)c1CCO
REMARK SMILES IDX 20 1 19 2 17 3 18 4 16 5 15 6 14 7 1 8 2 9 3 10 91 11 4 12
REMARK SMILES IDX 13 13 92 14 93 15 94 16 5 18 6 20 7 21 12 22 8 23 11 24 9 25
REMARK SMILES IDX 10 26 21 27 22 28 23 29 24 30 25 31 26 32 27 33 28 34 29 35
REMARK SMILES IDX 90 36 30 37 89 38 31 39 32 40 33 41 83 42 34 43 88 44 82 45
REMARK SMILES IDX 84 46 35 47 87 48 81 49 80 50 36 52 68 53 48 54 67 55 49 56
REMARK SMILES IDX 52 57 66 58 85 59 50 60 51 61 65 63 86 64 53 65 37 66 38 67
REMARK SMILES IDX 46 68 39 69 40 70 44 71 47 72 41 73 42 74 45 75 43 76 69 77
REMARK SMILES IDX 70 78 78 79 71 80 72 81 76 82 79 83 73 84 74 85 77 86 75 87
REMARK SMILES IDX 54 88 55 89 63 90 56 91 57 92 61 93 64 94 58 95 59 96 62 97
REMARK SMILES IDX 60 98
REMARK H PARENT 94 17 5 19 84 51 52 62
REMARK Flexibility Score: inf
ROOT
ATOM      1  C   UNL A   1      33.159  27.407  23.425  1.00  0.00     0.261 C 
ENDROOT
BRANCH   1   2
ATOM      2  O   UNL A   1      32.650  26.098  23.083  1.00  0.00    -0.461 OA
BRANCH   2   3
ATOM      3  C   UNL A   1      33.092  25.598  21.896  1.00  0.00     0.344 C 
ATOM      4  O   UNL A   1      33.275  26.271  20.885  1.00  0.00    -0.248 OA
BRANCH   3   5
ATOM      5  C   UNL A   1      33.304  24.082  21.909  1.00  0.00     0.353 C 
BRANCH   5   6
ATOM      6  O   UNL A   1      34.285  23.440  22.678  1.00  0.00    -0.465 OA
BRANCH   6   7
ATOM      7  C   UNL A   1      34.130  22.772  23.842  1.00  0.00     0.222 A 
ATOM      8  C   UNL A   1      34.024  22.576  27.609  1.00  0.00     0.067 C 
ATOM      9  C   UNL A   1      33.954  22.304  26.132  1.00  0.00     0.050 A 
ATOM     10  N   UNL A   1      33.178  21.240  25.856  1.00  0.00    -0.218 NA
ATOM     11  C   UNL A   1      34.543  23.090  25.134  1.00  0.00     0.038 A 
ATOM     12  C   UNL A   1      32.960  20.914  24.586  1.00  0.00     0.230 A 
ATOM     13  N   UNL A   1      33.404  21.660  23.578  1.00  0.00    -0.177 NA
BRANCH  11  14
ATOM     14  C   UNL A   1      35.560  24.138  25.503  1.00  0.00     0.071 C 
BRANCH  14  15
ATOM     15  C   UNL A   1      37.003  23.674  25.303  1.00  0.00     0.161 C 
BRANCH  15  16
ATOM     16  O   UNL A   1      37.332  22.593  26.164  1.00  0.00    -0.396 OA
ATOM     17  H   UNL A   1      36.919  21.780  25.833  1.00  0.00     0.210 HD
ENDBRANCH  15  16
ENDBRANCH  14  15
ENDBRANCH  11  14
BRANCH  12  18
ATOM     18  N   UNL A   1      32.279  19.739  24.286  1.00  0.00    -0.324 N 
ATOM     19  H   UNL A   1      31.371  19.844  23.919  1.00  0.00     0.170 HD
BRANCH  18  20
ATOM     20  C   UNL A   1      32.734  18.427  24.445  1.00  0.00     0.041 A 
ATOM     21  C   UNL A   1      32.526  17.736  25.649  1.00  0.00     0.029 A 
ATOM     22  C   UNL A   1      33.472  17.806  23.430  1.00  0.00     0.029 A 
ATOM     23  C   UNL A   1      33.036  16.451  25.835  1.00  0.00     0.041 A 
ATOM     24  C   UNL A   1      34.010  16.530  23.625  1.00  0.00     0.041 A 
ATOM     25  C   UNL A   1      33.785  15.864  24.825  1.00  0.00     0.123 A 
ATOM     26  F   UNL A   1      34.306  14.644  25.012  1.00  0.00    -0.207 F 
ENDBRANCH  18  20
ENDBRANCH  12  18
ENDBRANCH   6   7
ENDBRANCH   5   6
ENDBRANCH   3   5
ENDBRANCH   2   3
ENDBRANCH   1   2
BRANCH   1  27
ATOM     27  C   UNL A   1      32.137  28.522  23.177  1.00  0.00     0.202 C 
BRANCH  27  28
ATOM     28  O   UNL A   1      31.549  29.116  24.337  1.00  0.00    -0.374 OA
BRANCH  28  29
ATOM     29  C   UNL A   1      32.432  29.727  25.272  1.00  0.00     0.202 C 
BRANCH  29  30
ATOM     30  C   UNL A   1      31.834  30.835  26.141  1.00  0.00     0.261 C 
BRANCH  30  31
ATOM     31  O   UNL A   1      32.505  30.962  27.395  1.00  0.00    -0.460 OA
BRANCH  31  32
ATOM     32  C   UNL A   1      33.363  31.996  27.452  1.00  0.00     0.338 C 
ATOM     33  O   UNL A   1      33.128  33.190  27.290  1.00  0.00    -0.246 OA
BRANCH  32  34
ATOM     34  C   UNL A   1      34.652  31.508  27.935  1.00  0.00     0.060 A 
ATOM     35  C   UNL A   1      34.738  30.149  28.253  1.00  0.00     0.016 A 
ATOM     36  C   UNL A   1      35.730  32.375  28.126  1.00  0.00     0.016 A 
ATOM     37  C   UNL A   1      35.897  29.657  28.833  1.00  0.00     0.010 A 
ATOM     38  C   UNL A   1      36.891  31.882  28.717  1.00  0.00     0.010 A 
ATOM     39  C   UNL A   1      36.954  30.534  29.110  1.00  0.00    -0.014 A 
BRANCH  39  40
ATOM     40  C   UNL A   1      38.042  30.057  29.985  1.00  0.00     0.031 A 
ATOM     41  C   UNL A   1      39.050  29.106  29.410  1.00  0.00     0.074 A 
ATOM     42  C   UNL A   1      38.166  30.546  31.228  1.00  0.00     0.049 A 
ATOM     43  N   UNL A   1      40.125  28.607  29.958  1.00  0.00    -0.248 NA
ATOM     44  C   UNL A   1      38.821  28.664  28.023  1.00  0.00     0.031 C 
ATOM     45  C   UNL A   1      37.258  31.512  31.843  1.00  0.00     0.029 A 
ATOM     46  N   UNL A   1      39.114  30.312  32.187  1.00  0.00    -0.354 N 
ATOM     47  C   UNL A   1      40.704  27.805  28.984  1.00  0.00     0.074 A 
ATOM     48  C   UNL A   1      39.845  27.848  27.823  1.00  0.00     0.031 C 
ATOM     49  C   UNL A   1      37.702  31.801  33.077  1.00  0.00     0.029 A 
ATOM     50  C   UNL A   1      38.908  31.020  33.344  1.00  0.00     0.049 A 
ATOM     51  H   UNL A   1      39.871  29.695  32.060  1.00  0.00     0.167 HD
ATOM     52  C   UNL A   1      41.861  27.110  29.055  1.00  0.00     0.037 A 
ATOM     53  C   UNL A   1      39.619  31.028  34.486  1.00  0.00     0.037 A 
ATOM     54  C   UNL A   1      42.697  27.075  30.224  1.00  0.00     0.049 A 
ATOM     55  C   UNL A   1      40.863  30.184  34.566  1.00  0.00     0.074 A 
ATOM     56  C   UNL A   1      43.883  26.393  30.417  1.00  0.00     0.029 A 
ATOM     57  N   UNL A   1      42.424  27.755  31.404  1.00  0.00    -0.354 N 
ATOM     58  N   UNL A   1      41.409  29.429  33.642  1.00  0.00    -0.248 NA
ATOM     59  C   UNL A   1      41.592  30.193  35.841  1.00  0.00     0.031 C 
ATOM     60  C   UNL A   1      44.305  26.624  31.730  1.00  0.00     0.029 A 
ATOM     61  C   UNL A   1      43.410  27.492  32.338  1.00  0.00     0.049 A 
ATOM     62  H   UNL A   1      41.645  28.338  31.553  1.00  0.00     0.167 HD
ATOM     63  C   UNL A   1      42.552  28.888  34.213  1.00  0.00     0.074 A 
ATOM     64  C   UNL A   1      42.630  29.414  35.562  1.00  0.00     0.031 C 
ATOM     65  C   UNL A   1      43.457  28.034  33.673  1.00  0.00     0.037 A 
BRANCH  52  66
ATOM     66  C   UNL A   1      42.278  26.323  27.848  1.00  0.00     0.064 A 
ATOM     67  C   UNL A   1      41.834  25.003  27.671  1.00  0.00     0.173 A 
ATOM     68  C   UNL A   1      43.148  26.858  26.887  1.00  0.00     0.173 A 
ATOM     69  F   UNL A   1      41.000  24.444  28.560  1.00  0.00    -0.203 F 
ATOM     70  C   UNL A   1      42.257  24.246  26.581  1.00  0.00     0.198 A 
ATOM     71  C   UNL A   1      43.548  26.106  25.785  1.00  0.00     0.198 A 
ATOM     72  F   UNL A   1      43.585  28.122  27.000  1.00  0.00    -0.203 F 
ATOM     73  F   UNL A   1      41.841  22.979  26.447  1.00  0.00    -0.200 F 
ATOM     74  C   UNL A   1      43.111  24.798  25.638  1.00  0.00     0.200 A 
ATOM     75  F   UNL A   1      44.352  26.651  24.860  1.00  0.00    -0.200 F 
ATOM     76  F   UNL A   1      43.507  24.072  24.584  1.00  0.00    -0.200 F 
ENDBRANCH  52  66
BRANCH  53  77
ATOM     77  C   UNL A   1      39.175  31.875  35.622  1.00  0.00     0.064 A 
ATOM     78  C   UNL A   1      38.332  31.365  36.622  1.00  0.00     0.173 A 
ATOM     79  C   UNL A   1      39.546  33.224  35.708  1.00  0.00     0.173 A 
ATOM     80  F   UNL A   1      37.946  30.081  36.585  1.00  0.00    -0.203 F 
ATOM     81  C   UNL A   1      37.859  32.178  37.650  1.00  0.00     0.198 A 
ATOM     82  C   UNL A   1      39.091  34.029  36.752  1.00  0.00     0.198 A 
ATOM     83  F   UNL A   1      40.364  33.752  34.787  1.00  0.00    -0.203 F 
ATOM     84  F   UNL A   1      37.024  31.673  38.570  1.00  0.00    -0.200 F 
ATOM     85  C   UNL A   1      38.241  33.509  37.716  1.00  0.00     0.200 A 
ATOM     86  F   UNL A   1      39.479  35.310  36.823  1.00  0.00    -0.200 F 
ATOM     87  F   UNL A   1      37.790  34.289  38.707  1.00  0.00    -0.200 F 
ENDBRANCH  53  77
BRANCH  65  88
ATOM     88  C   UNL A   1      44.615  27.623  34.531  1.00  0.00     0.064 A 
ATOM     89  C   UNL A   1      44.516  26.499  35.365  1.00  0.00     0.173 A 
ATOM     90  C   UNL A   1      45.784  28.394  34.596  1.00  0.00     0.173 A 
ATOM     91  F   UNL A   1      43.412  25.737  35.346  1.00  0.00    -0.203 F 
ATOM     92  C   UNL A   1      45.541  26.172  36.248  1.00  0.00     0.198 A 
ATOM     93  C   UNL A   1      46.818  28.047  35.460  1.00  0.00     0.198 A 
ATOM     94  F   UNL A   1      45.927  29.471  33.810  1.00  0.00    -0.203 F 
ATOM     95  F   UNL A   1      45.409  25.117  37.064  1.00  0.00    -0.200 F 
ATOM     96  C   UNL A   1      46.691  26.945  36.293  1.00  0.00     0.200 A 
ATOM     97  F   UNL A   1      47.940  28.781  35.487  1.00  0.00    -0.200 F 
ATOM     98  F   UNL A   1      47.680  26.625  37.138  1.00  0.00    -0.200 F 
ENDBRANCH  65  88
ENDBRANCH  39  40
ENDBRANCH  32  34
ENDBRANCH  31  32
ENDBRANCH  30  31
ENDBRANCH  29  30
ENDBRANCH  28  29
ENDBRANCH  27  28
ENDBRANCH   1  27
TORSDOF 21
ENDMDL
MODEL 3
REMARK VINA RESULT:     -11.0      4.728     10.321
REMARK SMILES Cc1nc(Nc2ccc(F)cc2)nc(OCC(=O)OCCOCCOC(=O)c2ccc(-c3c4nc(c(-c5c(F)c(F)c(F)c(F)c5F)c5ccc([nH]5)c(-c5c(F)c(F)c(F)c(F)c5F)c5nc(c(-c6c(F)c(F)c(F)c(F)c6F)c6ccc3[nH]6)C=C5)C=C4)cc2)c1CCO
REMARK SMILES IDX 20 1 19 2 17 3 18 4 16 5 15 6 14 7 1 8 2 9 3 10 91 11 4 12
REMARK SMILES IDX 13 13 92 14 93 15 94 16 5 18 6 20 7 21 12 22 8 23 11 24 9 25
REMARK SMILES IDX 10 26 21 27 22 28 23 29 24 30 25 31 26 32 27 33 28 34 29 35
REMARK SMILES IDX 90 36 30 37 89 38 31 39 32 40 33 41 83 42 34 43 88 44 82 45
REMARK SMILES IDX 84 46 35 47 87 48 81 49 80 50 36 52 68 53 48 54 67 55 49 56
REMARK SMILES IDX 52 57 66 58 85 59 50 60 51 61 65 63 86 64 53 65 37 66 38 67
REMARK SMILES IDX 46 68 39 69 40 70 44 71 47 72 41 73 42 74 45 75 43 76 69 77
REMARK SMILES IDX 70 78 78 79 71 80 72 81 76 82 79 83 73 84 74 85 77 86 75 87
REMARK SMILES IDX 54 88 55 89 63 90 56 91 57 92 61 93 64 94 58 95 59 96 62 97
REMARK SMILES IDX 60 98
REMARK H PARENT 94 17 5 19 84 51 52 62
REMARK Flexibility Score: inf
ROOT
ATOM      1  C   UNL A   1      33.660  27.044  23.342  1.00  0.00     0.261 C 
ENDROOT
BRANCH   1   2
ATOM      2  O   UNL A   1      32.934  25.819  23.091  1.00  0.00    -0.461 OA
BRANCH   2   3
ATOM      3  C   UNL A   1      33.110  25.289  21.849  1.00  0.00     0.344 C 
ATOM      4  O   UNL A   1      33.147  25.946  20.812  1.00  0.00    -0.248 OA
BRANCH   3   5
ATOM      5  C   UNL A   1      33.214  23.761  21.843  1.00  0.00     0.353 C 
BRANCH   5   6
ATOM      6  O   UNL A   1      34.183  23.044  22.562  1.00  0.00    -0.465 OA
BRANCH   6   7
ATOM      7  C   UNL A   1      34.099  22.556  23.819  1.00  0.00     0.222 A 
ATOM      8  C   UNL A   1      34.122  22.934  27.573  1.00  0.00     0.067 C 
ATOM      9  C   UNL A   1      34.020  22.436  26.158  1.00  0.00     0.050 A 
ATOM     10  N   UNL A   1      33.293  21.307  26.077  1.00  0.00    -0.218 NA
ATOM     11  C   UNL A   1      34.535  23.088  25.030  1.00  0.00     0.038 A 
ATOM     12  C   UNL A   1      33.053  20.780  24.880  1.00  0.00     0.230 A 
ATOM     13  N   UNL A   1      33.425  21.383  23.754  1.00  0.00    -0.177 NA
BRANCH  11  14
ATOM     14  C   UNL A   1      35.506  24.227  25.197  1.00  0.00     0.071 C 
BRANCH  14  15
ATOM     15  C   UNL A   1      36.956  23.766  25.343  1.00  0.00     0.161 C 
BRANCH  15  16
ATOM     16  O   UNL A   1      37.052  22.352  25.449  1.00  0.00    -0.396 OA
ATOM     17  H   UNL A   1      37.899  22.057  25.080  1.00  0.00     0.210 HD
ENDBRANCH  15  16
ENDBRANCH  14  15
ENDBRANCH  11  14
BRANCH  12  18
ATOM     18  N   UNL A   1      32.427  19.542  24.788  1.00  0.00    -0.324 N 
ATOM     19  H   UNL A   1      31.451  19.557  24.663  1.00  0.00     0.170 HD
BRANCH  18  20
ATOM     20  C   UNL A   1      33.023  18.279  24.852  1.00  0.00     0.041 A 
ATOM     21  C   UNL A   1      32.318  17.178  25.364  1.00  0.00     0.029 A 
ATOM     22  C   UNL A   1      34.361  18.107  24.477  1.00  0.00     0.029 A 
ATOM     23  C   UNL A   1      32.930  15.930  25.490  1.00  0.00     0.041 A 
ATOM     24  C   UNL A   1      34.987  16.866  24.632  1.00  0.00     0.041 A 
ATOM     25  C   UNL A   1      34.265  15.790  25.135  1.00  0.00     0.123 A 
ATOM     26  F   UNL A   1      34.867  14.603  25.287  1.00  0.00    -0.207 F 
ENDBRANCH  18  20
ENDBRANCH  12  18
ENDBRANCH   6   7
ENDBRANCH   5   6
ENDBRANCH   3   5
ENDBRANCH   2   3
ENDBRANCH   1   2
BRANCH   1  27
ATOM     27  C   UNL A   1      32.758  28.282  23.316  1.00  0.00     0.202 C 
BRANCH  27  28
ATOM     28  O   UNL A   1      32.235  28.716  24.574  1.00  0.00    -0.374 OA
BRANCH  28  29
ATOM     29  C   UNL A   1      32.840  29.860  25.169  1.00  0.00     0.202 C 
BRANCH  29  30
ATOM     30  C   UNL A   1      32.066  30.513  26.316  1.00  0.00     0.261 C 
BRANCH  30  31
ATOM     31  O   UNL A   1      32.832  30.573  27.520  1.00  0.00    -0.460 OA
BRANCH  31  32
ATOM     32  C   UNL A   1      33.565  31.694  27.644  1.00  0.00     0.338 C 
ATOM     33  O   UNL A   1      33.179  32.860  27.644  1.00  0.00    -0.246 OA
BRANCH  32  34
ATOM     34  C   UNL A   1      34.937  31.321  27.979  1.00  0.00     0.060 A 
ATOM     35  C   UNL A   1      35.194  29.962  28.182  1.00  0.00     0.016 A 
ATOM     36  C   UNL A   1      35.930  32.288  28.146  1.00  0.00     0.016 A 
ATOM     37  C   UNL A   1      36.446  29.564  28.622  1.00  0.00     0.010 A 
ATOM     38  C   UNL A   1      37.186  31.889  28.597  1.00  0.00     0.010 A 
ATOM     39  C   UNL A   1      37.427  30.533  28.877  1.00  0.00    -0.014 A 
BRANCH  39  40
ATOM     40  C   UNL A   1      38.634  30.122  29.618  1.00  0.00     0.031 A 
ATOM     41  C   UNL A   1      38.819  30.635  31.015  1.00  0.00     0.074 A 
ATOM     42  C   UNL A   1      39.483  29.235  29.077  1.00  0.00     0.049 A 
ATOM     43  N   UNL A   1      39.756  30.361  31.882  1.00  0.00    -0.248 NA
ATOM     44  C   UNL A   1      37.802  31.581  31.508  1.00  0.00     0.031 C 
ATOM     45  C   UNL A   1      39.347  28.649  27.745  1.00  0.00     0.029 A 
ATOM     46  N   UNL A   1      40.616  28.660  29.587  1.00  0.00    -0.354 N 
ATOM     47  C   UNL A   1      39.437  31.088  33.021  1.00  0.00     0.074 A 
ATOM     48  C   UNL A   1      38.245  31.848  32.728  1.00  0.00     0.031 C 
ATOM     49  C   UNL A   1      40.354  27.783  27.546  1.00  0.00     0.029 A 
ATOM     50  C   UNL A   1      41.215  27.776  28.727  1.00  0.00     0.049 A 
ATOM     51  H   UNL A   1      40.967  28.861  30.485  1.00  0.00     0.167 HD
ATOM     52  C   UNL A   1      40.081  31.101  34.210  1.00  0.00     0.037 A 
ATOM     53  C   UNL A   1      42.337  27.048  28.884  1.00  0.00     0.037 A 
ATOM     54  C   UNL A   1      41.272  30.341  34.478  1.00  0.00     0.049 A 
ATOM     55  C   UNL A   1      43.077  27.139  30.192  1.00  0.00     0.074 A 
ATOM     56  C   UNL A   1      42.019  30.288  35.639  1.00  0.00     0.029 A 
ATOM     57  N   UNL A   1      41.890  29.503  33.559  1.00  0.00    -0.354 N 
ATOM     58  N   UNL A   1      42.771  27.825  31.268  1.00  0.00    -0.248 NA
ATOM     59  C   UNL A   1      44.314  26.357  30.311  1.00  0.00     0.031 C 
ATOM     60  C   UNL A   1      43.116  29.451  35.408  1.00  0.00     0.029 A 
ATOM     61  C   UNL A   1      43.023  28.942  34.122  1.00  0.00     0.049 A 
ATOM     62  H   UNL A   1      41.569  29.332  32.644  1.00  0.00     0.167 HD
ATOM     63  C   UNL A   1      43.763  27.546  32.197  1.00  0.00     0.074 A 
ATOM     64  C   UNL A   1      44.674  26.615  31.562  1.00  0.00     0.031 C 
ATOM     65  C   UNL A   1      43.908  28.016  33.460  1.00  0.00     0.037 A 
BRANCH  52  66
ATOM     66  C   UNL A   1      39.522  31.970  35.297  1.00  0.00     0.064 A 
ATOM     67  C   UNL A   1      39.896  33.319  35.393  1.00  0.00     0.173 A 
ATOM     68  C   UNL A   1      38.648  31.461  36.268  1.00  0.00     0.173 A 
ATOM     69  F   UNL A   1      40.728  33.856  34.488  1.00  0.00    -0.203 F 
ATOM     70  C   UNL A   1      39.424  34.122  36.428  1.00  0.00     0.198 A 
ATOM     71  C   UNL A   1      38.158  32.273  37.288  1.00  0.00     0.198 A 
ATOM     72  F   UNL A   1      38.244  30.182  36.211  1.00  0.00    -0.203 F 
ATOM     73  F   UNL A   1      39.816  35.401  36.514  1.00  0.00    -0.200 F 
ATOM     74  C   UNL A   1      38.554  33.600  37.373  1.00  0.00     0.200 A 
ATOM     75  F   UNL A   1      37.296  31.773  38.185  1.00  0.00    -0.200 F 
ATOM     76  F   UNL A   1      38.092  34.376  38.362  1.00  0.00    -0.200 F 
ENDBRANCH  52  66
BRANCH  53  77
ATOM     77  C   UNL A   1      42.800  26.166  27.783  1.00  0.00     0.064 A 
ATOM     78  C   UNL A   1      43.755  26.607  26.853  1.00  0.00     0.173 A 
ATOM     79  C   UNL A   1      42.266  24.882  27.609  1.00  0.00     0.173 A 
ATOM     80  F   UNL A   1      44.295  27.829  26.973  1.00  0.00    -0.203 F 
ATOM     81  C   UNL A   1      44.139  25.807  25.780  1.00  0.00     0.198 A 
ATOM     82  C   UNL A   1      42.671  24.073  26.549  1.00  0.00     0.198 A 
ATOM     83  F   UNL A   1      41.365  24.410  28.481  1.00  0.00    -0.203 F 
ATOM     84  F   UNL A   1      45.024  26.269  24.885  1.00  0.00    -0.200 F 
ATOM     85  C   UNL A   1      43.598  24.539  25.629  1.00  0.00     0.200 A 
ATOM     86  F   UNL A   1      42.161  22.841  26.418  1.00  0.00    -0.200 F 
ATOM     87  F   UNL A   1      43.972  23.768  24.600  1.00  0.00    -0.200 F 
ENDBRANCH  53  77
BRANCH  65  88
ATOM     88  C   UNL A   1      45.085  27.524  34.249  1.00  0.00     0.064 A 
ATOM     89  C   UNL A   1      44.970  26.383  35.057  1.00  0.00     0.173 A 
ATOM     90  C   UNL A   1      46.293  28.236  34.277  1.00  0.00     0.173 A 
ATOM     91  F   UNL A   1      43.830  25.676  35.071  1.00  0.00    -0.203 F 
ATOM     92  C   UNL A   1      46.019  25.981  35.878  1.00  0.00     0.198 A 
ATOM     93  C   UNL A   1      47.349  27.815  35.079  1.00  0.00     0.198 A 
ATOM     94  F   UNL A   1      46.451  29.328  33.514  1.00  0.00    -0.203 F 
ATOM     95  F   UNL A   1      45.874  24.911  36.671  1.00  0.00    -0.200 F 
ATOM     96  C   UNL A   1      47.207  26.696  35.887  1.00  0.00     0.200 A 
ATOM     97  F   UNL A   1      48.505  28.492  35.070  1.00  0.00    -0.200 F 
ATOM     98  F   UNL A   1      48.218  26.304  36.674  1.00  0.00    -0.200 F 
ENDBRANCH  65  88
ENDBRANCH  39  40
ENDBRANCH  32  34
ENDBRANCH  31  32
ENDBRANCH  30  31
ENDBRANCH  29  30
ENDBRANCH  28  29
ENDBRANCH  27  28
ENDBRANCH   1  27
TORSDOF 21
ENDMDL
