MODEL 1
REMARK VINA RESULT:     -12.2      0.000      0.000
REMARK SMILES O=C(OCCOCCOC(=O)[C@@H]1CCCN(C(=O)[C@H]2COc3ccccc3O2)C1)c1ccc(-c2c3nc(c(-c4c(F)c(F)c(F)c(F)c4F)c4ccc([nH]4)c(-c4c(F)c(F)c(F)c(F)c4F)c4nc(c(-c5c(F)c(F)c(F)c(F)c5F)c5ccc2[nH]5)C=C4)C=C3)cc1
REMARK SMILES IDX 6 1 5 2 4 3 3 4 2 5 1 6 30 7 31 8 92 9 32 10 91 11 33 12
REMARK SMILES IDX 34 13 35 14 85 15 36 16 90 17 84 18 86 19 37 20 89 21 83 22
REMARK SMILES IDX 82 23 38 25 70 26 50 27 69 28 51 29 54 30 68 31 87 32 52 33
REMARK SMILES IDX 53 34 67 36 88 37 55 38 39 39 40 40 48 41 41 42 42 43 46 44
REMARK SMILES IDX 49 45 43 46 44 47 47 48 45 49 71 50 72 51 80 52 73 53 74 54
REMARK SMILES IDX 78 55 81 56 75 57 76 58 79 59 77 60 56 61 57 62 65 63 58 64
REMARK SMILES IDX 59 65 63 66 66 67 60 68 61 69 64 70 62 71 7 72 8 73 9 74
REMARK SMILES IDX 10 75 11 76 12 77 13 78 29 79 14 80 16 81 15 82 17 83 18 84
REMARK SMILES IDX 19 85 20 86 28 87 21 88 27 89 22 90 26 91 23 92 25 93 24 94
REMARK H PARENT 86 24 54 35
REMARK Flexibility Score: inf
ROOT
ATOM      1  O   UNL A   1      37.783  21.480  24.659  1.00  0.00    -0.374 OA
ENDROOT
BRANCH   1   2
ATOM      2  C   UNL A   1      38.268  20.189  25.025  1.00  0.00     0.202 C 
BRANCH   2   3
ATOM      3  C   UNL A   1      39.410  20.170  26.042  1.00  0.00     0.261 C 
BRANCH   3   4
ATOM      4  O   UNL A   1      40.400  19.202  25.687  1.00  0.00    -0.460 OA
BRANCH   4   5
ATOM      5  C   UNL A   1      41.712  19.311  26.000  1.00  0.00     0.338 C 
ATOM      6  O   UNL A   1      42.427  18.304  25.985  1.00  0.00    -0.246 OA
BRANCH   5   7
ATOM      7  C   UNL A   1      42.341  20.624  26.319  1.00  0.00     0.060 A 
ATOM      8  C   UNL A   1      42.718  21.552  25.351  1.00  0.00     0.016 A 
ATOM      9  C   UNL A   1      42.478  20.988  27.663  1.00  0.00     0.016 A 
ATOM     10  C   UNL A   1      43.283  22.764  25.667  1.00  0.00     0.010 A 
ATOM     11  C   UNL A   1      42.910  22.274  27.998  1.00  0.00     0.010 A 
ATOM     12  C   UNL A   1      43.286  23.171  26.989  1.00  0.00    -0.014 A 
BRANCH  12  13
ATOM     13  C   UNL A   1      43.634  24.577  27.233  1.00  0.00     0.031 A 
ATOM     14  C   UNL A   1      45.022  25.038  26.963  1.00  0.00     0.074 A 
ATOM     15  C   UNL A   1      42.638  25.428  27.552  1.00  0.00     0.049 A 
ATOM     16  N   UNL A   1      45.518  26.242  27.029  1.00  0.00    -0.248 NA
ATOM     17  C   UNL A   1      45.978  24.016  26.509  1.00  0.00     0.031 C 
ATOM     18  C   UNL A   1      41.220  25.067  27.694  1.00  0.00     0.029 A 
ATOM     19  N   UNL A   1      42.653  26.775  27.788  1.00  0.00    -0.354 N 
ATOM     20  C   UNL A   1      46.830  26.123  26.599  1.00  0.00     0.074 A 
ATOM     21  C   UNL A   1      47.060  24.738  26.268  1.00  0.00     0.031 C 
ATOM     22  C   UNL A   1      40.507  26.165  27.981  1.00  0.00     0.029 A 
ATOM     23  C   UNL A   1      41.426  27.278  28.148  1.00  0.00     0.049 A 
ATOM     24  H   UNL A   1      43.463  27.329  27.708  1.00  0.00     0.167 HD
ATOM     25  C   UNL A   1      47.765  27.094  26.537  1.00  0.00     0.037 A 
ATOM     26  C   UNL A   1      41.109  28.490  28.636  1.00  0.00     0.037 A 
ATOM     27  C   UNL A   1      47.537  28.423  27.026  1.00  0.00     0.049 A 
ATOM     28  C   UNL A   1      42.233  29.477  28.786  1.00  0.00     0.074 A 
ATOM     29  C   UNL A   1      48.438  29.457  27.177  1.00  0.00     0.029 A 
ATOM     30  N   UNL A   1      46.312  28.876  27.502  1.00  0.00    -0.354 N 
ATOM     31  N   UNL A   1      43.483  29.368  28.400  1.00  0.00    -0.248 NA
ATOM     32  C   UNL A   1      41.918  30.737  29.463  1.00  0.00     0.031 C 
ATOM     33  C   UNL A   1      47.781  30.500  27.838  1.00  0.00     0.029 A 
ATOM     34  C   UNL A   1      46.450  30.151  28.017  1.00  0.00     0.049 A 
ATOM     35  H   UNL A   1      45.471  28.364  27.476  1.00  0.00     0.167 HD
ATOM     36  C   UNL A   1      44.101  30.550  28.767  1.00  0.00     0.074 A 
ATOM     37  C   UNL A   1      43.079  31.372  29.388  1.00  0.00     0.031 C 
ATOM     38  C   UNL A   1      45.395  30.927  28.619  1.00  0.00     0.037 A 
BRANCH  25  39
ATOM     39  C   UNL A   1      49.129  26.692  26.075  1.00  0.00     0.064 A 
ATOM     40  C   UNL A   1      50.067  26.112  26.941  1.00  0.00     0.173 A 
ATOM     41  C   UNL A   1      49.515  26.932  24.749  1.00  0.00     0.173 A 
ATOM     42  F   UNL A   1      49.759  25.903  28.230  1.00  0.00    -0.203 F 
ATOM     43  C   UNL A   1      51.347  25.790  26.494  1.00  0.00     0.198 A 
ATOM     44  C   UNL A   1      50.788  26.594  24.301  1.00  0.00     0.198 A 
ATOM     45  F   UNL A   1      48.663  27.515  23.892  1.00  0.00    -0.203 F 
ATOM     46  F   UNL A   1      52.245  25.275  27.345  1.00  0.00    -0.200 F 
ATOM     47  C   UNL A   1      51.704  26.027  25.174  1.00  0.00     0.200 A 
ATOM     48  F   UNL A   1      51.134  26.834  23.029  1.00  0.00    -0.200 F 
ATOM     49  F   UNL A   1      52.937  25.724  24.746  1.00  0.00    -0.200 F 
ENDBRANCH  25  39
BRANCH  26  50
ATOM     50  C   UNL A   1      39.731  28.784  29.118  1.00  0.00     0.064 A 
ATOM     51  C   UNL A   1      39.334  28.487  30.428  1.00  0.00     0.173 A 
ATOM     52  C   UNL A   1      38.759  29.323  28.256  1.00  0.00     0.173 A 
ATOM     53  F   UNL A   1      40.212  27.950  31.288  1.00  0.00    -0.203 F 
ATOM     54  C   UNL A   1      38.018  28.684  30.846  1.00  0.00     0.198 A 
ATOM     55  C   UNL A   1      37.455  29.557  28.686  1.00  0.00     0.198 A 
ATOM     56  F   UNL A   1      39.074  29.623  26.987  1.00  0.00    -0.203 F 
ATOM     57  F   UNL A   1      37.649  28.324  32.083  1.00  0.00    -0.200 F 
ATOM     58  C   UNL A   1      37.081  29.222  29.976  1.00  0.00     0.200 A 
ATOM     59  F   UNL A   1      36.559  30.090  27.844  1.00  0.00    -0.200 F 
ATOM     60  F   UNL A   1      35.814  29.400  30.376  1.00  0.00    -0.200 F 
ENDBRANCH  26  50
BRANCH  38  61
ATOM     61  C   UNL A   1      45.755  32.296  29.106  1.00  0.00     0.064 A 
ATOM     62  C   UNL A   1      46.271  32.507  30.391  1.00  0.00     0.173 A 
ATOM     63  C   UNL A   1      45.634  33.398  28.246  1.00  0.00     0.173 A 
ATOM     64  F   UNL A   1      46.388  31.483  31.250  1.00  0.00    -0.203 F 
ATOM     65  C   UNL A   1      46.632  33.783  30.809  1.00  0.00     0.198 A 
ATOM     66  C   UNL A   1      46.032  34.664  28.654  1.00  0.00     0.198 A 
ATOM     67  F   UNL A   1      45.154  33.239  27.004  1.00  0.00    -0.203 F 
ATOM     68  F   UNL A   1      47.075  33.976  32.059  1.00  0.00    -0.200 F 
ATOM     69  C   UNL A   1      46.522  34.857  29.938  1.00  0.00     0.200 A 
ATOM     70  F   UNL A   1      45.946  35.696  27.805  1.00  0.00    -0.200 F 
ATOM     71  F   UNL A   1      46.886  36.083  30.337  1.00  0.00    -0.200 F 
ENDBRANCH  38  61
ENDBRANCH  12  13
ENDBRANCH   5   7
ENDBRANCH   4   5
ENDBRANCH   3   4
ENDBRANCH   2   3
ENDBRANCH   1   2
BRANCH   1  72
ATOM     72  C   UNL A   1      37.727  22.415  25.731  1.00  0.00     0.202 C 
BRANCH  72  73
ATOM     73  C   UNL A   1      36.370  23.123  25.781  1.00  0.00     0.261 C 
BRANCH  73  74
ATOM     74  O   UNL A   1      36.293  24.139  24.752  1.00  0.00    -0.463 OA
BRANCH  74  75
ATOM     75  C   UNL A   1      35.510  23.851  23.676  1.00  0.00     0.310 C 
ATOM     76  O   UNL A   1      35.871  23.163  22.727  1.00  0.00    -0.252 OA
BRANCH  75  77
ATOM     77  C   UNL A   1      34.119  24.492  23.751  1.00  0.00     0.119 C 
ATOM     78  C   UNL A   1      33.906  25.616  24.783  1.00  0.00     0.019 C 
ATOM     79  C   UNL A   1      33.010  23.415  23.763  1.00  0.00     0.134 C 
ATOM     80  C   UNL A   1      33.213  25.223  26.088  1.00  0.00     0.022 C 
ATOM     81  N   UNL A   1      32.414  23.114  25.078  1.00  0.00    -0.338 N 
ATOM     82  C   UNL A   1      32.048  24.268  25.889  1.00  0.00     0.119 C 
BRANCH  81  83
ATOM     83  C   UNL A   1      31.883  21.826  25.275  1.00  0.00     0.267 C 
ATOM     84  O   UNL A   1      30.763  21.673  25.771  1.00  0.00    -0.270 OA
BRANCH  83  85
ATOM     85  C   UNL A   1      32.677  20.610  24.760  1.00  0.00     0.299 C 
ATOM     86  C   UNL A   1      34.120  20.636  25.237  1.00  0.00     0.285 C 
ATOM     87  O   UNL A   1      32.040  19.408  25.236  1.00  0.00    -0.473 OA
ATOM     88  O   UNL A   1      34.854  19.573  24.601  1.00  0.00    -0.485 OA
ATOM     89  C   UNL A   1      32.838  18.302  25.075  1.00  0.00     0.162 A 
ATOM     90  C   UNL A   1      34.190  18.377  24.730  1.00  0.00     0.161 A 
ATOM     91  C   UNL A   1      32.241  17.060  25.278  1.00  0.00     0.050 A 
ATOM     92  C   UNL A   1      34.919  17.209  24.504  1.00  0.00     0.050 A 
ATOM     93  C   UNL A   1      32.978  15.891  25.080  1.00  0.00     0.004 A 
ATOM     94  C   UNL A   1      34.312  15.964  24.679  1.00  0.00     0.004 A 
ENDBRANCH  83  85
ENDBRANCH  81  83
ENDBRANCH  75  77
ENDBRANCH  74  75
ENDBRANCH  73  74
ENDBRANCH  72  73
ENDBRANCH   1  72
TORSDOF 16
ENDMDL
MODEL 2
REMARK VINA RESULT:     -12.0      5.623      9.595
REMARK SMILES O=C(OCCOCCOC(=O)[C@@H]1CCCN(C(=O)[C@H]2COc3ccccc3O2)C1)c1ccc(-c2c3nc(c(-c4c(F)c(F)c(F)c(F)c4F)c4ccc([nH]4)c(-c4c(F)c(F)c(F)c(F)c4F)c4nc(c(-c5c(F)c(F)c(F)c(F)c5F)c5ccc2[nH]5)C=C4)C=C3)cc1
REMARK SMILES IDX 6 1 5 2 4 3 3 4 2 5 1 6 30 7 31 8 92 9 32 10 91 11 33 12
REMARK SMILES IDX 34 13 35 14 85 15 36 16 90 17 84 18 86 19 37 20 89 21 83 22
REMARK SMILES IDX 82 23 38 25 70 26 50 27 69 28 51 29 54 30 68 31 87 32 52 33
REMARK SMILES IDX 53 34 67 36 88 37 55 38 39 39 40 40 48 41 41 42 42 43 46 44
REMARK SMILES IDX 49 45 43 46 44 47 47 48 45 49 71 50 72 51 80 52 73 53 74 54
REMARK SMILES IDX 78 55 81 56 75 57 76 58 79 59 77 60 56 61 57 62 65 63 58 64
REMARK SMILES IDX 59 65 63 66 66 67 60 68 61 69 64 70 62 71 7 72 8 73 9 74
REMARK SMILES IDX 10 75 11 76 12 77 13 78 29 79 14 80 16 81 15 82 17 83 18 84
REMARK SMILES IDX 19 85 20 86 28 87 21 88 27 89 22 90 26 91 23 92 25 93 24 94
REMARK H PARENT 86 24 54 35
REMARK Flexibility Score: inf
ROOT
ATOM      1  O   UNL A   1      32.014  29.951  27.285  1.00  0.00    -0.374 OA
ENDROOT
BRANCH   1   2
ATOM      2  C   UNL A   1      32.754  31.155  27.084  1.00  0.00     0.202 C 
BRANCH   2   3
ATOM      3  C   UNL A   1      31.964  32.455  27.240  1.00  0.00     0.261 C 
BRANCH   3   4
ATOM      4  O   UNL A   1      32.836  33.587  27.273  1.00  0.00    -0.460 OA
BRANCH   4   5
ATOM      5  C   UNL A   1      33.175  34.250  28.403  1.00  0.00     0.338 C 
ATOM      6  O   UNL A   1      32.468  35.182  28.798  1.00  0.00    -0.246 OA
BRANCH   5   7
ATOM      7  C   UNL A   1      34.358  33.859  29.221  1.00  0.00     0.060 A 
ATOM      8  C   UNL A   1      34.286  33.006  30.321  1.00  0.00     0.016 A 
ATOM      9  C   UNL A   1      35.623  34.295  28.814  1.00  0.00     0.016 A 
ATOM     10  C   UNL A   1      35.391  32.647  31.053  1.00  0.00     0.010 A 
ATOM     11  C   UNL A   1      36.768  33.817  29.458  1.00  0.00     0.010 A 
ATOM     12  C   UNL A   1      36.645  32.966  30.565  1.00  0.00    -0.014 A 
BRANCH  12  13
ATOM     13  C   UNL A   1      37.784  32.317  31.228  1.00  0.00     0.031 A 
ATOM     14  C   UNL A   1      38.507  31.226  30.521  1.00  0.00     0.074 A 
ATOM     15  C   UNL A   1      38.219  32.840  32.391  1.00  0.00     0.049 A 
ATOM     16  N   UNL A   1      39.580  30.580  30.883  1.00  0.00    -0.248 NA
ATOM     17  C   UNL A   1      37.985  30.835  29.203  1.00  0.00     0.031 C 
ATOM     18  C   UNL A   1      37.640  34.007  33.073  1.00  0.00     0.029 A 
ATOM     19  N   UNL A   1      39.264  32.482  33.197  1.00  0.00    -0.354 N 
ATOM     20  C   UNL A   1      39.873  29.733  29.827  1.00  0.00     0.074 A 
ATOM     21  C   UNL A   1      38.876  29.942  28.806  1.00  0.00     0.031 C 
ATOM     22  C   UNL A   1      38.344  34.270  34.182  1.00  0.00     0.029 A 
ATOM     23  C   UNL A   1      39.349  33.233  34.345  1.00  0.00     0.049 A 
ATOM     24  H   UNL A   1      39.895  31.758  32.976  1.00  0.00     0.167 HD
ATOM     25  C   UNL A   1      40.870  28.826  29.753  1.00  0.00     0.037 A 
ATOM     26  C   UNL A   1      40.107  33.042  35.438  1.00  0.00     0.037 A 
ATOM     27  C   UNL A   1      41.742  28.541  30.856  1.00  0.00     0.049 A 
ATOM     28  C   UNL A   1      41.041  31.864  35.418  1.00  0.00     0.074 A 
ATOM     29  C   UNL A   1      42.685  27.541  30.978  1.00  0.00     0.029 A 
ATOM     30  N   UNL A   1      41.727  29.238  32.059  1.00  0.00    -0.354 N 
ATOM     31  N   UNL A   1      41.312  31.043  34.430  1.00  0.00    -0.248 NA
ATOM     32  C   UNL A   1      41.750  31.563  36.664  1.00  0.00     0.031 C 
ATOM     33  C   UNL A   1      43.166  27.569  32.291  1.00  0.00     0.029 A 
ATOM     34  C   UNL A   1      42.590  28.642  32.958  1.00  0.00     0.049 A 
ATOM     35  H   UNL A   1      41.181  30.036  32.243  1.00  0.00     0.167 HD
ATOM     36  C   UNL A   1      42.237  30.139  34.926  1.00  0.00     0.074 A 
ATOM     37  C   UNL A   1      42.497  30.530  36.299  1.00  0.00     0.031 C 
ATOM     38  C   UNL A   1      42.816  29.077  34.313  1.00  0.00     0.037 A 
BRANCH  25  39
ATOM     39  C   UNL A   1      40.942  27.998  28.510  1.00  0.00     0.064 A 
ATOM     40  C   UNL A   1      41.708  28.386  27.402  1.00  0.00     0.173 A 
ATOM     41  C   UNL A   1      40.195  26.815  28.416  1.00  0.00     0.173 A 
ATOM     42  F   UNL A   1      42.406  29.532  27.429  1.00  0.00    -0.203 F 
ATOM     43  C   UNL A   1      41.719  27.618  26.239  1.00  0.00     0.198 A 
ATOM     44  C   UNL A   1      40.222  26.042  27.260  1.00  0.00     0.198 A 
ATOM     45  F   UNL A   1      39.422  26.421  29.439  1.00  0.00    -0.203 F 
ATOM     46  F   UNL A   1      42.424  28.024  25.174  1.00  0.00    -0.200 F 
ATOM     47  C   UNL A   1      40.981  26.445  26.171  1.00  0.00     0.200 A 
ATOM     48  F   UNL A   1      39.498  24.916  27.193  1.00  0.00    -0.200 F 
ATOM     49  F   UNL A   1      40.986  25.711  25.051  1.00  0.00    -0.200 F 
ENDBRANCH  25  39
BRANCH  26  50
ATOM     50  C   UNL A   1      39.931  33.888  36.650  1.00  0.00     0.064 A 
ATOM     51  C   UNL A   1      39.051  33.523  37.676  1.00  0.00     0.173 A 
ATOM     52  C   UNL A   1      40.604  35.116  36.783  1.00  0.00     0.173 A 
ATOM     53  F   UNL A   1      38.365  32.374  37.593  1.00  0.00    -0.203 F 
ATOM     54  C   UNL A   1      38.825  34.364  38.766  1.00  0.00     0.198 A 
ATOM     55  C   UNL A   1      40.408  35.936  37.892  1.00  0.00     0.198 A 
ATOM     56  F   UNL A   1      41.455  35.526  35.831  1.00  0.00    -0.203 F 
ATOM     57  F   UNL A   1      37.924  34.021  39.698  1.00  0.00    -0.200 F 
ATOM     58  C   UNL A   1      39.506  35.567  38.875  1.00  0.00     0.200 A 
ATOM     59  F   UNL A   1      41.080  37.091  37.997  1.00  0.00    -0.200 F 
ATOM     60  F   UNL A   1      39.279  36.378  39.918  1.00  0.00    -0.200 F 
ENDBRANCH  26  50
BRANCH  38  61
ATOM     61  C   UNL A   1      43.805  28.296  35.120  1.00  0.00     0.064 A 
ATOM     62  C   UNL A   1      43.426  27.166  35.857  1.00  0.00     0.173 A 
ATOM     63  C   UNL A   1      45.161  28.655  35.101  1.00  0.00     0.173 A 
ATOM     64  F   UNL A   1      42.137  26.797  35.914  1.00  0.00    -0.203 F 
ATOM     65  C   UNL A   1      44.369  26.436  36.570  1.00  0.00     0.198 A 
ATOM     66  C   UNL A   1      46.106  27.900  35.784  1.00  0.00     0.198 A 
ATOM     67  F   UNL A   1      45.570  29.724  34.401  1.00  0.00    -0.203 F 
ATOM     68  F   UNL A   1      43.982  25.388  37.311  1.00  0.00    -0.200 F 
ATOM     69  C   UNL A   1      45.708  26.796  36.524  1.00  0.00     0.200 A 
ATOM     70  F   UNL A   1      47.401  28.236  35.721  1.00  0.00    -0.200 F 
ATOM     71  F   UNL A   1      46.618  26.080  37.198  1.00  0.00    -0.200 F 
ENDBRANCH  38  61
ENDBRANCH  12  13
ENDBRANCH   5   7
ENDBRANCH   4   5
ENDBRANCH   3   4
ENDBRANCH   2   3
ENDBRANCH   1   2
BRANCH   1  72
ATOM     72  C   UNL A   1      32.737  28.760  26.993  1.00  0.00     0.202 C 
BRANCH  72  73
ATOM     73  C   UNL A   1      32.008  27.910  25.948  1.00  0.00     0.261 C 
BRANCH  73  74
ATOM     74  O   UNL A   1      32.114  28.518  24.639  1.00  0.00    -0.463 OA
BRANCH  74  75
ATOM     75  C   UNL A   1      30.950  28.942  24.073  1.00  0.00     0.310 C 
ATOM     76  O   UNL A   1      30.436  30.034  24.293  1.00  0.00    -0.252 OA
BRANCH  75  77
ATOM     77  C   UNL A   1      30.321  27.906  23.135  1.00  0.00     0.119 C 
ATOM     78  C   UNL A   1      29.217  26.999  23.710  1.00  0.00     0.019 C 
ATOM     79  C   UNL A   1      31.407  27.142  22.342  1.00  0.00     0.134 C 
ATOM     80  C   UNL A   1      29.637  25.588  24.123  1.00  0.00     0.022 C 
ATOM     81  N   UNL A   1      31.735  25.790  22.831  1.00  0.00    -0.338 N 
ATOM     82  C   UNL A   1      30.598  24.935  23.144  1.00  0.00     0.119 C 
BRANCH  81  83
ATOM     83  C   UNL A   1      33.030  25.301  22.581  1.00  0.00     0.267 C 
ATOM     84  O   UNL A   1      33.745  25.819  21.719  1.00  0.00    -0.270 OA
BRANCH  83  85
ATOM     85  C   UNL A   1      33.583  24.175  23.476  1.00  0.00     0.299 C 
ATOM     86  C   UNL A   1      33.396  22.807  22.841  1.00  0.00     0.285 C 
ATOM     87  O   UNL A   1      34.988  24.409  23.695  1.00  0.00    -0.473 OA
ATOM     88  O   UNL A   1      33.780  21.786  23.782  1.00  0.00    -0.485 OA
ATOM     89  C   UNL A   1      35.617  23.312  24.229  1.00  0.00     0.162 A 
ATOM     90  C   UNL A   1      35.022  22.051  24.308  1.00  0.00     0.161 A 
ATOM     91  C   UNL A   1      36.915  23.498  24.700  1.00  0.00     0.050 A 
ATOM     92  C   UNL A   1      35.691  20.999  24.935  1.00  0.00     0.050 A 
ATOM     93  C   UNL A   1      37.597  22.439  25.303  1.00  0.00     0.004 A 
ATOM     94  C   UNL A   1      36.980  21.195  25.435  1.00  0.00     0.004 A 
ENDBRANCH  83  85
ENDBRANCH  81  83
ENDBRANCH  75  77
ENDBRANCH  74  75
ENDBRANCH  73  74
ENDBRANCH  72  73
ENDBRANCH   1  72
TORSDOF 16
ENDMDL
MODEL 3
REMARK VINA RESULT:     -11.9      5.640      9.718
REMARK SMILES O=C(OCCOCCOC(=O)[C@@H]1CCCN(C(=O)[C@H]2COc3ccccc3O2)C1)c1ccc(-c2c3nc(c(-c4c(F)c(F)c(F)c(F)c4F)c4ccc([nH]4)c(-c4c(F)c(F)c(F)c(F)c4F)c4nc(c(-c5c(F)c(F)c(F)c(F)c5F)c5ccc2[nH]5)C=C4)C=C3)cc1
REMARK SMILES IDX 6 1 5 2 4 3 3 4 2 5 1 6 30 7 31 8 92 9 32 10 91 11 33 12
REMARK SMILES IDX 34 13 35 14 85 15 36 16 90 17 84 18 86 19 37 20 89 21 83 22
REMARK SMILES IDX 82 23 38 25 70 26 50 27 69 28 51 29 54 30 68 31 87 32 52 33
REMARK SMILES IDX 53 34 67 36 88 37 55 38 39 39 40 40 48 41 41 42 42 43 46 44
REMARK SMILES IDX 49 45 43 46 44 47 47 48 45 49 71 50 72 51 80 52 73 53 74 54
REMARK SMILES IDX 78 55 81 56 75 57 76 58 79 59 77 60 56 61 57 62 65 63 58 64
REMARK SMILES IDX 59 65 63 66 66 67 60 68 61 69 64 70 62 71 7 72 8 73 9 74
REMARK SMILES IDX 10 75 11 76 12 77 13 78 29 79 14 80 16 81 15 82 17 83 18 84
REMARK SMILES IDX 19 85 20 86 28 87 21 88 27 89 22 90 26 91 23 92 25 93 24 94
REMARK H PARENT 86 24 54 35
REMARK Flexibility Score: inf
ROOT
ATOM      1  O   UNL A   1      31.393  30.475  26.946  1.00  0.00    -0.374 OA
ENDROOT
BRANCH   1   2
ATOM      2  C   UNL A   1      31.570  31.853  26.619  1.00  0.00     0.202 C 
BRANCH   2   3
ATOM      3  C   UNL A   1      32.718  32.565  27.336  1.00  0.00     0.261 C 
BRANCH   3   4
ATOM      4  O   UNL A   1      32.244  33.697  28.069  1.00  0.00    -0.460 OA
BRANCH   4   5
ATOM      5  C   UNL A   1      33.052  34.612  28.655  1.00  0.00     0.338 C 
ATOM      6  O   UNL A   1      32.785  35.813  28.554  1.00  0.00    -0.246 OA
BRANCH   5   7
ATOM      7  C   UNL A   1      34.236  34.213  29.467  1.00  0.00     0.060 A 
ATOM      8  C   UNL A   1      34.153  33.429  30.616  1.00  0.00     0.016 A 
ATOM      9  C   UNL A   1      35.509  34.564  29.006  1.00  0.00     0.016 A 
ATOM     10  C   UNL A   1      35.260  33.060  31.342  1.00  0.00     0.010 A 
ATOM     11  C   UNL A   1      36.647  34.070  29.649  1.00  0.00     0.010 A 
ATOM     12  C   UNL A   1      36.513  33.291  30.807  1.00  0.00    -0.014 A 
BRANCH  12  13
ATOM     13  C   UNL A   1      37.638  32.627  31.479  1.00  0.00     0.031 A 
ATOM     14  C   UNL A   1      38.287  31.460  30.825  1.00  0.00     0.074 A 
ATOM     15  C   UNL A   1      38.133  33.199  32.596  1.00  0.00     0.049 A 
ATOM     16  N   UNL A   1      39.337  30.785  31.199  1.00  0.00    -0.248 NA
ATOM     17  C   UNL A   1      37.708  31.015  29.548  1.00  0.00     0.031 C 
ATOM     18  C   UNL A   1      37.631  34.433  33.217  1.00  0.00     0.029 A 
ATOM     19  N   UNL A   1      39.182  32.839  33.395  1.00  0.00    -0.354 N 
ATOM     20  C   UNL A   1      39.558  29.860  30.192  1.00  0.00     0.074 A 
ATOM     21  C   UNL A   1      38.543  30.056  29.185  1.00  0.00     0.031 C 
ATOM     22  C   UNL A   1      38.379  34.729  34.289  1.00  0.00     0.029 A 
ATOM     23  C   UNL A   1      39.336  33.655  34.491  1.00  0.00     0.049 A 
ATOM     24  H   UNL A   1      39.770  32.073  33.204  1.00  0.00     0.167 HD
ATOM     25  C   UNL A   1      40.508  28.902  30.149  1.00  0.00     0.037 A 
ATOM     26  C   UNL A   1      40.116  33.494  35.573  1.00  0.00     0.037 A 
ATOM     27  C   UNL A   1      41.397  28.642  31.245  1.00  0.00     0.049 A 
ATOM     28  C   UNL A   1      40.991  32.271  35.604  1.00  0.00     0.074 A 
ATOM     29  C   UNL A   1      42.292  27.605  31.405  1.00  0.00     0.029 A 
ATOM     30  N   UNL A   1      41.450  29.411  32.401  1.00  0.00    -0.354 N 
ATOM     31  N   UNL A   1      41.192  31.378  34.663  1.00  0.00    -0.248 NA
ATOM     32  C   UNL A   1      41.720  32.013  36.848  1.00  0.00     0.031 C 
ATOM     33  C   UNL A   1      42.812  27.690  32.701  1.00  0.00     0.029 A 
ATOM     34  C   UNL A   1      42.309  28.830  33.314  1.00  0.00     0.049 A 
ATOM     35  H   UNL A   1      40.949  30.246  32.548  1.00  0.00     0.167 HD
ATOM     36  C   UNL A   1      42.086  30.462  35.191  1.00  0.00     0.074 A 
ATOM     37  C   UNL A   1      42.404  30.923  36.529  1.00  0.00     0.031 C 
ATOM     38  C   UNL A   1      42.595  29.336  34.632  1.00  0.00     0.037 A 
BRANCH  25  39
ATOM     39  C   UNL A   1      40.503  27.996  28.960  1.00  0.00     0.064 A 
ATOM     40  C   UNL A   1      41.228  28.291  27.797  1.00  0.00     0.173 A 
ATOM     41  C   UNL A   1      39.723  26.831  28.973  1.00  0.00     0.173 A 
ATOM     42  F   UNL A   1      41.955  29.417  27.720  1.00  0.00    -0.203 F 
ATOM     43  C   UNL A   1      41.168  27.452  26.686  1.00  0.00     0.198 A 
ATOM     44  C   UNL A   1      39.678  25.986  27.869  1.00  0.00     0.198 A 
ATOM     45  F   UNL A   1      38.986  26.523  30.051  1.00  0.00    -0.203 F 
ATOM     46  F   UNL A   1      41.835  27.771  25.568  1.00  0.00    -0.200 F 
ATOM     47  C   UNL A   1      40.398  26.298  26.725  1.00  0.00     0.200 A 
ATOM     48  F   UNL A   1      38.924  24.879  27.905  1.00  0.00    -0.200 F 
ATOM     49  F   UNL A   1      40.335  25.495  25.655  1.00  0.00    -0.200 F 
ENDBRANCH  25  39
BRANCH  26  50
ATOM     50  C   UNL A   1      40.017  34.421  36.734  1.00  0.00     0.064 A 
ATOM     51  C   UNL A   1      40.826  35.559  36.834  1.00  0.00     0.173 A 
ATOM     52  C   UNL A   1      39.142  34.156  37.803  1.00  0.00     0.173 A 
ATOM     53  F   UNL A   1      41.696  35.850  35.855  1.00  0.00    -0.203 F 
ATOM     54  C   UNL A   1      40.790  36.375  37.965  1.00  0.00     0.198 A 
ATOM     55  C   UNL A   1      39.077  34.993  38.915  1.00  0.00     0.198 A 
ATOM     56  F   UNL A   1      38.345  33.078  37.772  1.00  0.00    -0.203 F 
ATOM     57  F   UNL A   1      41.627  37.417  38.064  1.00  0.00    -0.200 F 
ATOM     58  C   UNL A   1      39.913  36.093  39.002  1.00  0.00     0.200 A 
ATOM     59  F   UNL A   1      38.218  34.722  39.907  1.00  0.00    -0.200 F 
ATOM     60  F   UNL A   1      39.888  36.871  40.093  1.00  0.00    -0.200 F 
ENDBRANCH  26  50
BRANCH  38  61
ATOM     61  C   UNL A   1      43.568  28.557  35.460  1.00  0.00     0.064 A 
ATOM     62  C   UNL A   1      44.946  28.803  35.402  1.00  0.00     0.173 A 
ATOM     63  C   UNL A   1      43.101  27.594  36.367  1.00  0.00     0.173 A 
ATOM     64  F   UNL A   1      45.436  29.705  34.537  1.00  0.00    -0.203 F 
ATOM     65  C   UNL A   1      45.828  28.090  36.206  1.00  0.00     0.198 A 
ATOM     66  C   UNL A   1      43.982  26.912  37.196  1.00  0.00     0.198 A 
ATOM     67  F   UNL A   1      41.788  27.334  36.463  1.00  0.00    -0.203 F 
ATOM     68  F   UNL A   1      47.147  28.302  36.100  1.00  0.00    -0.200 F 
ATOM     69  C   UNL A   1      45.345  27.155  37.109  1.00  0.00     0.200 A 
ATOM     70  F   UNL A   1      43.512  26.025  38.083  1.00  0.00    -0.200 F 
ATOM     71  F   UNL A   1      46.195  26.482  37.896  1.00  0.00    -0.200 F 
ENDBRANCH  38  61
ENDBRANCH  12  13
ENDBRANCH   5   7
ENDBRANCH   4   5
ENDBRANCH   3   4
ENDBRANCH   2   3
ENDBRANCH   1   2
BRANCH   1  72
ATOM     72  C   UNL A   1      32.582  29.695  26.877  1.00  0.00     0.202 C 
BRANCH  72  73
ATOM     73  C   UNL A   1      32.301  28.225  27.201  1.00  0.00     0.261 C 
BRANCH  73  74
ATOM     74  O   UNL A   1      31.300  27.691  26.302  1.00  0.00    -0.463 OA
BRANCH  74  75
ATOM     75  C   UNL A   1      31.267  26.337  26.168  1.00  0.00     0.310 C 
ATOM     76  O   UNL A   1      30.447  25.610  26.720  1.00  0.00    -0.252 OA
BRANCH  75  77
ATOM     77  C   UNL A   1      32.379  25.791  25.263  1.00  0.00     0.119 C 
ATOM     78  C   UNL A   1      32.298  26.116  23.760  1.00  0.00     0.019 C 
ATOM     79  C   UNL A   1      32.663  24.302  25.566  1.00  0.00     0.134 C 
ATOM     80  C   UNL A   1      31.749  25.016  22.851  1.00  0.00     0.022 C 
ATOM     81  N   UNL A   1      32.080  23.327  24.625  1.00  0.00    -0.338 N 
ATOM     82  C   UNL A   1      32.254  23.629  23.211  1.00  0.00     0.119 C 
BRANCH  81  83
ATOM     83  C   UNL A   1      31.785  22.042  25.115  1.00  0.00     0.267 C 
ATOM     84  O   UNL A   1      30.812  21.855  25.850  1.00  0.00    -0.270 OA
BRANCH  83  85
ATOM     85  C   UNL A   1      32.634  20.850  24.630  1.00  0.00     0.299 C 
ATOM     86  C   UNL A   1      34.054  20.915  25.167  1.00  0.00     0.285 C 
ATOM     87  O   UNL A   1      32.011  19.630  25.078  1.00  0.00    -0.473 OA
ATOM     88  O   UNL A   1      34.843  19.875  24.559  1.00  0.00    -0.485 OA
ATOM     89  C   UNL A   1      32.846  18.548  24.946  1.00  0.00     0.162 A 
ATOM     90  C   UNL A   1      34.208  18.661  24.658  1.00  0.00     0.161 A 
ATOM     91  C   UNL A   1      32.275  17.288  25.122  1.00  0.00     0.050 A 
ATOM     92  C   UNL A   1      34.978  17.515  24.460  1.00  0.00     0.050 A 
ATOM     93  C   UNL A   1      33.053  16.141  24.952  1.00  0.00     0.004 A 
ATOM     94  C   UNL A   1      34.399  16.252  24.606  1.00  0.00     0.004 A 
ENDBRANCH  83  85
ENDBRANCH  81  83
ENDBRANCH  75  77
ENDBRANCH  74  75
ENDBRANCH  73  74
ENDBRANCH  72  73
ENDBRANCH   1  72
TORSDOF 16
ENDMDL
