MODEL 1
REMARK VINA RESULT:     -12.0      0.000      0.000
REMARK SMILES COc1ccc(-c2noc(CC(=O)OCCOCCOC(=O)c3ccc(-c4c5nc(c(-c6c(F)c(F)c(F)c(F)c6F)c6ccc([nH]6)c(-c6c(F)c(F)c(F)c(F)c6F)c6nc(c(-c7c(F)c(F)c(F)c(F)c7F)c7ccc4[nH]7)C=C6)C=C5)cc3)c2-c2ccc(OC)cc2)cc1
REMARK SMILES IDX 16 1 15 2 14 3 12 4 13 5 11 6 10 7 7 8 8 9 86 10 9 11 6 12
REMARK SMILES IDX 3 13 4 14 96 15 5 16 95 17 2 18 1 19 87 20 88 21 94 22 89 23
REMARK SMILES IDX 93 24 90 25 91 26 92 27 17 28 18 29 19 30 20 31 21 32 22 33
REMARK SMILES IDX 23 34 24 35 85 36 25 37 84 38 26 39 27 40 28 41 78 42 29 43
REMARK SMILES IDX 83 44 77 45 79 46 30 47 82 48 76 49 75 50 31 52 63 53 43 54
REMARK SMILES IDX 62 55 44 56 47 57 61 58 80 59 45 60 46 61 60 63 81 64 48 65
REMARK SMILES IDX 32 66 33 67 41 68 34 69 35 70 39 71 42 72 36 73 37 74 40 75
REMARK SMILES IDX 38 76 64 77 65 78 73 79 66 80 67 81 71 82 74 83 68 84 69 85
REMARK SMILES IDX 72 86 70 87 49 88 50 89 58 90 51 91 52 92 56 93 59 94 53 95
REMARK SMILES IDX 54 96 57 97 55 98
REMARK H PARENT 79 51 47 62
REMARK Flexibility Score: inf
ROOT
ATOM      1  C   UNL A   1      33.778  20.279  24.886  1.00  0.00     0.202 C 
ENDROOT
BRANCH   1   2
ATOM      2  C   UNL A   1      32.654  21.303  25.067  1.00  0.00     0.261 C 
BRANCH   2   3
ATOM      3  O   UNL A   1      32.599  21.785  26.421  1.00  0.00    -0.463 OA
BRANCH   3   4
ATOM      4  C   UNL A   1      32.140  23.054  26.570  1.00  0.00     0.313 C 
ATOM      5  O   UNL A   1      31.446  23.433  27.510  1.00  0.00    -0.252 OA
BRANCH   4   6
ATOM      6  C   UNL A   1      32.650  24.031  25.543  1.00  0.00     0.201 C 
BRANCH   6   7
ATOM      7  C   UNL A   1      31.626  24.866  24.867  1.00  0.00     0.156 A 
ATOM      8  C   UNL A   1      30.342  26.339  23.811  1.00  0.00     0.122 A 
ATOM      9  N   UNL A   1      29.986  25.130  23.351  1.00  0.00    -0.079 NA
ATOM     10  C   UNL A   1      31.341  26.213  24.823  1.00  0.00     0.053 A 
ATOM     11  O   UNL A   1      30.807  24.222  23.989  1.00  0.00    -0.359 OA
BRANCH   8  12
ATOM     12  C   UNL A   1      29.785  27.569  23.261  1.00  0.00     0.005 A 
ATOM     13  C   UNL A   1      28.639  29.864  22.106  1.00  0.00     0.118 A 
ATOM     14  C   UNL A   1      30.006  29.603  21.968  1.00  0.00     0.047 A 
ATOM     15  C   UNL A   1      27.848  28.982  22.839  1.00  0.00     0.047 A 
ATOM     16  C   UNL A   1      30.583  28.469  22.551  1.00  0.00     0.014 A 
ATOM     17  C   UNL A   1      28.419  27.842  23.412  1.00  0.00     0.014 A 
BRANCH  13  18
ATOM     18  O   UNL A   1      28.200  30.990  21.467  1.00  0.00    -0.497 OA
ATOM     19  C   UNL A   1      28.550  32.238  22.053  1.00  0.00     0.278 C 
ENDBRANCH  13  18
ENDBRANCH   8  12
BRANCH  10  20
ATOM     20  C   UNL A   1      31.994  27.227  25.619  1.00  0.00    -0.012 A 
ATOM     21  C   UNL A   1      33.214  27.762  25.195  1.00  0.00     0.013 A 
ATOM     22  C   UNL A   1      31.438  27.657  26.828  1.00  0.00     0.013 A 
ATOM     23  C   UNL A   1      33.852  28.739  25.962  1.00  0.00     0.047 A 
ATOM     24  C   UNL A   1      32.074  28.643  27.587  1.00  0.00     0.047 A 
ATOM     25  C   UNL A   1      33.278  29.195  27.150  1.00  0.00     0.118 A 
BRANCH  25  26
ATOM     26  O   UNL A   1      33.992  30.165  27.796  1.00  0.00    -0.497 OA
ATOM     27  C   UNL A   1      33.692  31.512  27.446  1.00  0.00     0.278 C 
ENDBRANCH  25  26
ENDBRANCH  10  20
ENDBRANCH   6   7
ENDBRANCH   4   6
ENDBRANCH   3   4
ENDBRANCH   2   3
ENDBRANCH   1   2
BRANCH   1  28
ATOM     28  O   UNL A   1      35.111  20.777  25.001  1.00  0.00    -0.374 OA
BRANCH  28  29
ATOM     29  C   UNL A   1      36.174  19.822  25.002  1.00  0.00     0.202 C 
BRANCH  29  30
ATOM     30  C   UNL A   1      37.571  20.345  24.643  1.00  0.00     0.261 C 
BRANCH  30  31
ATOM     31  O   UNL A   1      38.004  21.397  25.526  1.00  0.00    -0.460 OA
BRANCH  31  32
ATOM     32  C   UNL A   1      39.186  21.174  26.141  1.00  0.00     0.338 C 
ATOM     33  O   UNL A   1      39.859  20.150  26.115  1.00  0.00    -0.246 OA
BRANCH  32  34
ATOM     34  C   UNL A   1      39.694  22.420  26.740  1.00  0.00     0.060 A 
ATOM     35  C   UNL A   1      39.148  23.625  26.278  1.00  0.00     0.016 A 
ATOM     36  C   UNL A   1      40.747  22.423  27.657  1.00  0.00     0.016 A 
ATOM     37  C   UNL A   1      39.691  24.841  26.686  1.00  0.00     0.010 A 
ATOM     38  C   UNL A   1      41.300  23.646  28.057  1.00  0.00     0.010 A 
ATOM     39  C   UNL A   1      40.799  24.857  27.543  1.00  0.00    -0.014 A 
BRANCH  39  40
ATOM     40  C   UNL A   1      41.524  26.132  27.767  1.00  0.00     0.031 A 
ATOM     41  C   UNL A   1      40.838  27.238  28.522  1.00  0.00     0.074 A 
ATOM     42  C   UNL A   1      42.790  26.290  27.344  1.00  0.00     0.049 A 
ATOM     43  N   UNL A   1      41.271  28.438  28.815  1.00  0.00    -0.248 NA
ATOM     44  C   UNL A   1      39.483  26.949  29.017  1.00  0.00     0.031 C 
ATOM     45  C   UNL A   1      43.580  25.279  26.646  1.00  0.00     0.029 A 
ATOM     46  N   UNL A   1      43.633  27.370  27.440  1.00  0.00    -0.354 N 
ATOM     47  C   UNL A   1      40.243  29.048  29.521  1.00  0.00     0.074 A 
ATOM     48  C   UNL A   1      39.155  28.097  29.593  1.00  0.00     0.031 C 
ATOM     49  C   UNL A   1      44.791  25.789  26.366  1.00  0.00     0.029 A 
ATOM     50  C   UNL A   1      44.850  27.172  26.838  1.00  0.00     0.049 A 
ATOM     51  H   UNL A   1      43.387  28.206  27.898  1.00  0.00     0.167 HD
ATOM     52  C   UNL A   1      40.212  30.286  30.069  1.00  0.00     0.037 A 
ATOM     53  C   UNL A   1      45.884  28.019  26.669  1.00  0.00     0.037 A 
ATOM     54  C   UNL A   1      41.293  31.232  30.003  1.00  0.00     0.049 A 
ATOM     55  C   UNL A   1      45.796  29.418  27.221  1.00  0.00     0.074 A 
ATOM     56  C   UNL A   1      41.363  32.504  30.543  1.00  0.00     0.029 A 
ATOM     57  N   UNL A   1      42.496  31.008  29.349  1.00  0.00    -0.354 N 
ATOM     58  N   UNL A   1      44.829  29.979  27.906  1.00  0.00    -0.248 NA
ATOM     59  C   UNL A   1      46.945  30.303  26.976  1.00  0.00     0.031 C 
ATOM     60  C   UNL A   1      42.590  33.069  30.176  1.00  0.00     0.029 A 
ATOM     61  C   UNL A   1      43.304  32.129  29.448  1.00  0.00     0.049 A 
ATOM     62  H   UNL A   1      42.740  30.176  28.882  1.00  0.00     0.167 HD
ATOM     63  C   UNL A   1      45.261  31.267  28.195  1.00  0.00     0.074 A 
ATOM     64  C   UNL A   1      46.583  31.404  27.620  1.00  0.00     0.031 C 
ATOM     65  C   UNL A   1      44.621  32.247  28.879  1.00  0.00     0.037 A 
BRANCH  52  66
ATOM     66  C   UNL A   1      38.953  30.701  30.770  1.00  0.00     0.064 A 
ATOM     67  C   UNL A   1      37.873  31.262  30.073  1.00  0.00     0.173 A 
ATOM     68  C   UNL A   1      38.811  30.499  32.152  1.00  0.00     0.173 A 
ATOM     69  F   UNL A   1      37.964  31.486  28.754  1.00  0.00    -0.203 F 
ATOM     70  C   UNL A   1      36.705  31.627  30.738  1.00  0.00     0.198 A 
ATOM     71  C   UNL A   1      37.633  30.842  32.809  1.00  0.00     0.198 A 
ATOM     72  F   UNL A   1      39.813  29.961  32.862  1.00  0.00    -0.203 F 
ATOM     73  F   UNL A   1      35.699  32.198  30.060  1.00  0.00    -0.200 F 
ATOM     74  C   UNL A   1      36.583  31.410  32.103  1.00  0.00     0.200 A 
ATOM     75  F   UNL A   1      37.513  30.622  34.125  1.00  0.00    -0.200 F 
ATOM     76  F   UNL A   1      35.455  31.755  32.740  1.00  0.00    -0.200 F 
ENDBRANCH  52  66
BRANCH  53  77
ATOM     77  C   UNL A   1      47.092  27.573  25.928  1.00  0.00     0.064 A 
ATOM     78  C   UNL A   1      48.209  27.064  26.603  1.00  0.00     0.173 A 
ATOM     79  C   UNL A   1      47.158  27.665  24.529  1.00  0.00     0.173 A 
ATOM     80  F   UNL A   1      48.204  26.984  27.941  1.00  0.00    -0.203 F 
ATOM     81  C   UNL A   1      49.353  26.675  25.908  1.00  0.00     0.198 A 
ATOM     82  C   UNL A   1      48.292  27.251  23.834  1.00  0.00     0.198 A 
ATOM     83  F   UNL A   1      46.117  28.150  23.838  1.00  0.00    -0.203 F 
ATOM     84  F   UNL A   1      50.424  26.233  26.580  1.00  0.00    -0.200 F 
ATOM     85  C   UNL A   1      49.391  26.764  24.524  1.00  0.00     0.200 A 
ATOM     86  F   UNL A   1      48.321  27.331  22.497  1.00  0.00    -0.200 F 
ATOM     87  F   UNL A   1      50.491  26.388  23.857  1.00  0.00    -0.200 F 
ENDBRANCH  53  77
BRANCH  65  88
ATOM     88  C   UNL A   1      45.350  33.545  29.075  1.00  0.00     0.064 A 
ATOM     89  C   UNL A   1      46.210  33.746  30.163  1.00  0.00     0.173 A 
ATOM     90  C   UNL A   1      45.227  34.577  28.133  1.00  0.00     0.173 A 
ATOM     91  F   UNL A   1      46.351  32.795  31.098  1.00  0.00    -0.203 F 
ATOM     92  C   UNL A   1      46.908  34.942  30.310  1.00  0.00     0.198 A 
ATOM     93  C   UNL A   1      45.946  35.761  28.269  1.00  0.00     0.198 A 
ATOM     94  F   UNL A   1      44.420  34.431  27.071  1.00  0.00    -0.203 F 
ATOM     95  F   UNL A   1      47.698  35.129  31.378  1.00  0.00    -0.200 F 
ATOM     96  C   UNL A   1      46.782  35.945  29.359  1.00  0.00     0.200 A 
ATOM     97  F   UNL A   1      45.832  36.723  27.343  1.00  0.00    -0.200 F 
ATOM     98  F   UNL A   1      47.463  37.091  29.498  1.00  0.00    -0.200 F 
ENDBRANCH  65  88
ENDBRANCH  39  40
ENDBRANCH  32  34
ENDBRANCH  31  32
ENDBRANCH  30  31
ENDBRANCH  29  30
ENDBRANCH  28  29
ENDBRANCH   1  28
TORSDOF 19
ENDMDL
MODEL 2
REMARK VINA RESULT:     -11.7      0.818      7.182
REMARK SMILES COc1ccc(-c2noc(CC(=O)OCCOCCOC(=O)c3ccc(-c4c5nc(c(-c6c(F)c(F)c(F)c(F)c6F)c6ccc([nH]6)c(-c6c(F)c(F)c(F)c(F)c6F)c6nc(c(-c7c(F)c(F)c(F)c(F)c7F)c7ccc4[nH]7)C=C6)C=C5)cc3)c2-c2ccc(OC)cc2)cc1
REMARK SMILES IDX 16 1 15 2 14 3 12 4 13 5 11 6 10 7 7 8 8 9 86 10 9 11 6 12
REMARK SMILES IDX 3 13 4 14 96 15 5 16 95 17 2 18 1 19 87 20 88 21 94 22 89 23
REMARK SMILES IDX 93 24 90 25 91 26 92 27 17 28 18 29 19 30 20 31 21 32 22 33
REMARK SMILES IDX 23 34 24 35 85 36 25 37 84 38 26 39 27 40 28 41 78 42 29 43
REMARK SMILES IDX 83 44 77 45 79 46 30 47 82 48 76 49 75 50 31 52 63 53 43 54
REMARK SMILES IDX 62 55 44 56 47 57 61 58 80 59 45 60 46 61 60 63 81 64 48 65
REMARK SMILES IDX 32 66 33 67 41 68 34 69 35 70 39 71 42 72 36 73 37 74 40 75
REMARK SMILES IDX 38 76 64 77 65 78 73 79 66 80 67 81 71 82 74 83 68 84 69 85
REMARK SMILES IDX 72 86 70 87 49 88 50 89 58 90 51 91 52 92 56 93 59 94 53 95
REMARK SMILES IDX 54 96 57 97 55 98
REMARK H PARENT 79 51 47 62
REMARK Flexibility Score: inf
ROOT
ATOM      1  C   UNL A   1      36.096  23.215  26.026  1.00  0.00     0.202 C 
ENDROOT
BRANCH   1   2
ATOM      2  C   UNL A   1      34.765  23.907  25.721  1.00  0.00     0.261 C 
BRANCH   2   3
ATOM      3  O   UNL A   1      33.852  23.795  26.826  1.00  0.00    -0.463 OA
BRANCH   3   4
ATOM      4  C   UNL A   1      32.541  23.694  26.491  1.00  0.00     0.313 C 
ATOM      5  O   UNL A   1      31.615  23.728  27.298  1.00  0.00    -0.252 OA
BRANCH   4   6
ATOM      6  C   UNL A   1      32.272  23.658  25.009  1.00  0.00     0.201 C 
BRANCH   6   7
ATOM      7  C   UNL A   1      31.247  24.606  24.505  1.00  0.00     0.156 A 
ATOM      8  C   UNL A   1      29.973  26.232  23.689  1.00  0.00     0.122 A 
ATOM      9  N   UNL A   1      29.475  25.084  23.206  1.00  0.00    -0.079 NA
ATOM     10  C   UNL A   1      31.065  25.970  24.570  1.00  0.00     0.053 A 
ATOM     11  O   UNL A   1      30.289  24.080  23.693  1.00  0.00    -0.359 OA
BRANCH   8  12
ATOM     12  C   UNL A   1      29.456  27.532  23.277  1.00  0.00     0.005 A 
ATOM     13  C   UNL A   1      28.387  29.974  22.379  1.00  0.00     0.118 A 
ATOM     14  C   UNL A   1      29.751  29.696  22.236  1.00  0.00     0.047 A 
ATOM     15  C   UNL A   1      27.561  29.033  22.990  1.00  0.00     0.047 A 
ATOM     16  C   UNL A   1      30.289  28.488  22.692  1.00  0.00     0.014 A 
ATOM     17  C   UNL A   1      28.094  27.820  23.436  1.00  0.00     0.014 A 
BRANCH  13  18
ATOM     18  O   UNL A   1      27.987  31.178  21.868  1.00  0.00    -0.497 OA
ATOM     19  C   UNL A   1      28.769  32.314  22.218  1.00  0.00     0.278 C 
ENDBRANCH  13  18
ENDBRANCH   8  12
BRANCH  10  20
ATOM     20  C   UNL A   1      31.880  26.882  25.341  1.00  0.00    -0.012 A 
ATOM     21  C   UNL A   1      31.373  27.436  26.520  1.00  0.00     0.013 A 
ATOM     22  C   UNL A   1      33.158  27.244  24.905  1.00  0.00     0.013 A 
ATOM     23  C   UNL A   1      32.154  28.320  27.267  1.00  0.00     0.047 A 
ATOM     24  C   UNL A   1      33.940  28.120  25.661  1.00  0.00     0.047 A 
ATOM     25  C   UNL A   1      33.444  28.653  26.852  1.00  0.00     0.118 A 
BRANCH  25  26
ATOM     26  O   UNL A   1      34.111  29.512  27.680  1.00  0.00    -0.497 OA
ATOM     27  C   UNL A   1      35.532  29.473  27.622  1.00  0.00     0.278 C 
ENDBRANCH  25  26
ENDBRANCH  10  20
ENDBRANCH   6   7
ENDBRANCH   4   6
ENDBRANCH   3   4
ENDBRANCH   2   3
ENDBRANCH   1   2
BRANCH   1  28
ATOM     28  O   UNL A   1      36.188  21.837  25.668  1.00  0.00    -0.374 OA
BRANCH  28  29
ATOM     29  C   UNL A   1      37.110  21.483  24.634  1.00  0.00     0.202 C 
BRANCH  29  30
ATOM     30  C   UNL A   1      38.242  20.523  25.019  1.00  0.00     0.261 C 
BRANCH  30  31
ATOM     31  O   UNL A   1      38.718  20.750  26.360  1.00  0.00    -0.460 OA
BRANCH  31  32
ATOM     32  C   UNL A   1      40.054  20.931  26.467  1.00  0.00     0.338 C 
ATOM     33  O   UNL A   1      40.942  20.208  26.034  1.00  0.00    -0.246 OA
BRANCH  32  34
ATOM     34  C   UNL A   1      40.345  22.255  27.044  1.00  0.00     0.060 A 
ATOM     35  C   UNL A   1      39.644  23.352  26.524  1.00  0.00     0.016 A 
ATOM     36  C   UNL A   1      41.347  22.441  27.997  1.00  0.00     0.016 A 
ATOM     37  C   UNL A   1      39.982  24.646  26.913  1.00  0.00     0.010 A 
ATOM     38  C   UNL A   1      41.695  23.744  28.378  1.00  0.00     0.010 A 
ATOM     39  C   UNL A   1      41.040  24.851  27.808  1.00  0.00    -0.014 A 
BRANCH  39  40
ATOM     40  C   UNL A   1      41.556  26.226  28.016  1.00  0.00     0.031 A 
ATOM     41  C   UNL A   1      42.930  26.574  27.512  1.00  0.00     0.074 A 
ATOM     42  C   UNL A   1      40.798  27.167  28.606  1.00  0.00     0.049 A 
ATOM     43  N   UNL A   1      43.589  27.702  27.602  1.00  0.00    -0.248 NA
ATOM     44  C   UNL A   1      43.658  25.506  26.809  1.00  0.00     0.031 C 
ATOM     45  C   UNL A   1      39.435  26.969  29.092  1.00  0.00     0.029 A 
ATOM     46  N   UNL A   1      41.075  28.479  28.898  1.00  0.00    -0.354 N 
ATOM     47  C   UNL A   1      44.807  27.478  26.973  1.00  0.00     0.074 A 
ATOM     48  C   UNL A   1      44.808  26.102  26.527  1.00  0.00     0.031 C 
ATOM     49  C   UNL A   1      38.995  28.118  29.633  1.00  0.00     0.029 A 
ATOM     50  C   UNL A   1      40.057  29.121  29.558  1.00  0.00     0.049 A 
ATOM     51  H   UNL A   1      41.922  28.919  28.655  1.00  0.00     0.167 HD
ATOM     52  C   UNL A   1      45.828  28.345  26.776  1.00  0.00     0.037 A 
ATOM     53  C   UNL A   1      39.999  30.369  30.063  1.00  0.00     0.037 A 
ATOM     54  C   UNL A   1      45.828  29.715  27.215  1.00  0.00     0.049 A 
ATOM     55  C   UNL A   1      41.178  31.292  29.899  1.00  0.00     0.074 A 
ATOM     56  C   UNL A   1      46.808  30.677  27.046  1.00  0.00     0.029 A 
ATOM     57  N   UNL A   1      44.793  30.317  27.916  1.00  0.00    -0.354 N 
ATOM     58  N   UNL A   1      42.317  31.079  29.284  1.00  0.00    -0.248 NA
ATOM     59  C   UNL A   1      41.065  32.630  30.499  1.00  0.00     0.031 C 
ATOM     60  C   UNL A   1      46.388  31.848  27.686  1.00  0.00     0.029 A 
ATOM     61  C   UNL A   1      45.124  31.630  28.212  1.00  0.00     0.049 A 
ATOM     62  H   UNL A   1      43.950  29.877  28.168  1.00  0.00     0.167 HD
ATOM     63  C   UNL A   1      43.042  32.259  29.400  1.00  0.00     0.074 A 
ATOM     64  C   UNL A   1      42.211  33.189  30.137  1.00  0.00     0.031 C 
ATOM     65  C   UNL A   1      44.283  32.546  28.937  1.00  0.00     0.037 A 
BRANCH  52  66
ATOM     66  C   UNL A   1      47.049  27.829  26.074  1.00  0.00     0.064 A 
ATOM     67  C   UNL A   1      48.168  27.370  26.785  1.00  0.00     0.173 A 
ATOM     68  C   UNL A   1      47.084  27.757  24.673  1.00  0.00     0.173 A 
ATOM     69  F   UNL A   1      48.187  27.430  28.125  1.00  0.00    -0.203 F 
ATOM     70  C   UNL A   1      49.287  26.879  26.117  1.00  0.00     0.198 A 
ATOM     71  C   UNL A   1      48.194  27.243  24.010  1.00  0.00     0.198 A 
ATOM     72  F   UNL A   1      46.037  28.179  23.949  1.00  0.00    -0.203 F 
ATOM     73  F   UNL A   1      50.361  26.482  26.814  1.00  0.00    -0.200 F 
ATOM     74  C   UNL A   1      49.296  26.809  24.732  1.00  0.00     0.200 A 
ATOM     75  F   UNL A   1      48.198  27.166  22.672  1.00  0.00    -0.200 F 
ATOM     76  F   UNL A   1      50.371  26.329  24.090  1.00  0.00    -0.200 F 
ENDBRANCH  52  66
BRANCH  53  77
ATOM     77  C   UNL A   1      38.783  30.818  30.789  1.00  0.00     0.064 A 
ATOM     78  C   UNL A   1      37.701  31.387  30.106  1.00  0.00     0.173 A 
ATOM     79  C   UNL A   1      38.689  30.701  32.184  1.00  0.00     0.173 A 
ATOM     80  F   UNL A   1      37.756  31.546  28.776  1.00  0.00    -0.203 F 
ATOM     81  C   UNL A   1      36.573  31.836  30.793  1.00  0.00     0.198 A 
ATOM     82  C   UNL A   1      37.551  31.126  32.866  1.00  0.00     0.198 A 
ATOM     83  F   UNL A   1      39.701  30.167  32.884  1.00  0.00    -0.203 F 
ATOM     84  F   UNL A   1      35.570  32.417  30.121  1.00  0.00    -0.200 F 
ATOM     85  C   UNL A   1      36.498  31.700  32.171  1.00  0.00     0.200 A 
ATOM     86  F   UNL A   1      37.479  30.985  34.197  1.00  0.00    -0.200 F 
ATOM     87  F   UNL A   1      35.412  32.130  32.830  1.00  0.00    -0.200 F 
ENDBRANCH  53  77
BRANCH  65  88
ATOM     88  C   UNL A   1      44.809  33.931  29.178  1.00  0.00     0.064 A 
ATOM     89  C   UNL A   1      45.586  34.235  30.304  1.00  0.00     0.173 A 
ATOM     90  C   UNL A   1      44.578  34.951  28.242  1.00  0.00     0.173 A 
ATOM     91  F   UNL A   1      45.823  33.299  31.234  1.00  0.00    -0.203 F 
ATOM     92  C   UNL A   1      46.098  35.516  30.494  1.00  0.00     0.198 A 
ATOM     93  C   UNL A   1      45.113  36.223  28.422  1.00  0.00     0.198 A 
ATOM     94  F   UNL A   1      43.845  34.708  27.145  1.00  0.00    -0.203 F 
ATOM     95  F   UNL A   1      46.808  35.796  31.597  1.00  0.00    -0.200 F 
ATOM     96  C   UNL A   1      45.868  36.506  29.549  1.00  0.00     0.200 A 
ATOM     97  F   UNL A   1      44.900  37.175  27.502  1.00  0.00    -0.200 F 
ATOM     98  F   UNL A   1      46.371  37.736  29.729  1.00  0.00    -0.200 F 
ENDBRANCH  65  88
ENDBRANCH  39  40
ENDBRANCH  32  34
ENDBRANCH  31  32
ENDBRANCH  30  31
ENDBRANCH  29  30
ENDBRANCH  28  29
ENDBRANCH   1  28
TORSDOF 19
ENDMDL
MODEL 3
REMARK VINA RESULT:     -11.5      1.611      2.585
REMARK SMILES COc1ccc(-c2noc(CC(=O)OCCOCCOC(=O)c3ccc(-c4c5nc(c(-c6c(F)c(F)c(F)c(F)c6F)c6ccc([nH]6)c(-c6c(F)c(F)c(F)c(F)c6F)c6nc(c(-c7c(F)c(F)c(F)c(F)c7F)c7ccc4[nH]7)C=C6)C=C5)cc3)c2-c2ccc(OC)cc2)cc1
REMARK SMILES IDX 16 1 15 2 14 3 12 4 13 5 11 6 10 7 7 8 8 9 86 10 9 11 6 12
REMARK SMILES IDX 3 13 4 14 96 15 5 16 95 17 2 18 1 19 87 20 88 21 94 22 89 23
REMARK SMILES IDX 93 24 90 25 91 26 92 27 17 28 18 29 19 30 20 31 21 32 22 33
REMARK SMILES IDX 23 34 24 35 85 36 25 37 84 38 26 39 27 40 28 41 78 42 29 43
REMARK SMILES IDX 83 44 77 45 79 46 30 47 82 48 76 49 75 50 31 52 63 53 43 54
REMARK SMILES IDX 62 55 44 56 47 57 61 58 80 59 45 60 46 61 60 63 81 64 48 65
REMARK SMILES IDX 32 66 33 67 41 68 34 69 35 70 39 71 42 72 36 73 37 74 40 75
REMARK SMILES IDX 38 76 64 77 65 78 73 79 66 80 67 81 71 82 74 83 68 84 69 85
REMARK SMILES IDX 72 86 70 87 49 88 50 89 58 90 51 91 52 92 56 93 59 94 53 95
REMARK SMILES IDX 54 96 57 97 55 98
REMARK H PARENT 79 51 47 62
REMARK Flexibility Score: inf
ROOT
ATOM      1  C   UNL A   1      36.611  21.712  25.303  1.00  0.00     0.202 C 
ENDROOT
BRANCH   1   2
ATOM      2  C   UNL A   1      35.283  22.058  25.981  1.00  0.00     0.261 C 
BRANCH   2   3
ATOM      3  O   UNL A   1      34.243  22.280  25.013  1.00  0.00    -0.463 OA
BRANCH   3   4
ATOM      4  C   UNL A   1      33.885  23.576  24.829  1.00  0.00     0.313 C 
ATOM      5  O   UNL A   1      34.353  24.307  23.959  1.00  0.00    -0.252 OA
BRANCH   4   6
ATOM      6  C   UNL A   1      32.755  24.047  25.707  1.00  0.00     0.201 C 
BRANCH   6   7
ATOM      7  C   UNL A   1      31.685  24.827  25.037  1.00  0.00     0.156 A 
ATOM      8  C   UNL A   1      30.325  26.217  23.964  1.00  0.00     0.122 A 
ATOM      9  N   UNL A   1      29.969  24.979  23.592  1.00  0.00    -0.079 NA
ATOM     10  C   UNL A   1      31.374  26.164  24.931  1.00  0.00     0.053 A 
ATOM     11  O   UNL A   1      30.837  24.121  24.238  1.00  0.00    -0.359 OA
BRANCH   8  12
ATOM     12  C   UNL A   1      29.720  27.405  23.375  1.00  0.00     0.005 A 
ATOM     13  C   UNL A   1      28.622  29.777  22.334  1.00  0.00     0.118 A 
ATOM     14  C   UNL A   1      27.813  28.845  22.992  1.00  0.00     0.047 A 
ATOM     15  C   UNL A   1      29.981  29.512  22.181  1.00  0.00     0.047 A 
ATOM     16  C   UNL A   1      28.353  27.658  23.501  1.00  0.00     0.014 A 
ATOM     17  C   UNL A   1      30.525  28.333  22.699  1.00  0.00     0.014 A 
BRANCH  13  18
ATOM     18  O   UNL A   1      27.974  30.904  21.909  1.00  0.00    -0.497 OA
ATOM     19  C   UNL A   1      28.692  32.129  22.002  1.00  0.00     0.278 C 
ENDBRANCH  13  18
ENDBRANCH   8  12
BRANCH  10  20
ATOM     20  C   UNL A   1      32.047  27.232  25.636  1.00  0.00    -0.012 A 
ATOM     21  C   UNL A   1      33.369  27.550  25.313  1.00  0.00     0.013 A 
ATOM     22  C   UNL A   1      31.403  27.930  26.662  1.00  0.00     0.013 A 
ATOM     23  C   UNL A   1      34.026  28.577  25.992  1.00  0.00     0.047 A 
ATOM     24  C   UNL A   1      32.061  28.965  27.333  1.00  0.00     0.047 A 
ATOM     25  C   UNL A   1      33.371  29.299  26.991  1.00  0.00     0.118 A 
BRANCH  25  26
ATOM     26  O   UNL A   1      34.117  30.290  27.566  1.00  0.00    -0.497 OA
ATOM     27  C   UNL A   1      33.517  31.580  27.626  1.00  0.00     0.278 C 
ENDBRANCH  25  26
ENDBRANCH  10  20
ENDBRANCH   6   7
ENDBRANCH   4   6
ENDBRANCH   3   4
ENDBRANCH   2   3
ENDBRANCH   1   2
BRANCH   1  28
ATOM     28  O   UNL A   1      36.823  20.335  24.995  1.00  0.00    -0.374 OA
BRANCH  28  29
ATOM     29  C   UNL A   1      38.168  19.852  25.020  1.00  0.00     0.202 C 
BRANCH  29  30
ATOM     30  C   UNL A   1      39.198  20.720  25.754  1.00  0.00     0.261 C 
BRANCH  30  31
ATOM     31  O   UNL A   1      39.973  19.963  26.703  1.00  0.00    -0.460 OA
BRANCH  31  32
ATOM     32  C   UNL A   1      41.240  19.693  26.318  1.00  0.00     0.338 C 
ATOM     33  O   UNL A   1      41.648  18.687  25.751  1.00  0.00    -0.246 OA
BRANCH  32  34
ATOM     34  C   UNL A   1      42.096  20.876  26.510  1.00  0.00     0.060 A 
ATOM     35  C   UNL A   1      42.287  21.326  27.823  1.00  0.00     0.016 A 
ATOM     36  C   UNL A   1      42.619  21.592  25.432  1.00  0.00     0.016 A 
ATOM     37  C   UNL A   1      42.953  22.526  28.062  1.00  0.00     0.010 A 
ATOM     38  C   UNL A   1      43.278  22.805  25.672  1.00  0.00     0.010 A 
ATOM     39  C   UNL A   1      43.412  23.294  26.985  1.00  0.00    -0.014 A 
BRANCH  39  40
ATOM     40  C   UNL A   1      43.887  24.678  27.232  1.00  0.00     0.031 A 
ATOM     41  C   UNL A   1      42.894  25.724  27.661  1.00  0.00     0.074 A 
ATOM     42  C   UNL A   1      45.189  24.992  27.121  1.00  0.00     0.049 A 
ATOM     43  N   UNL A   1      43.080  26.995  27.911  1.00  0.00    -0.248 NA
ATOM     44  C   UNL A   1      41.504  25.274  27.834  1.00  0.00     0.031 C 
ATOM     45  C   UNL A   1      46.254  24.060  26.762  1.00  0.00     0.029 A 
ATOM     46  N   UNL A   1      45.834  26.192  27.297  1.00  0.00    -0.354 N 
ATOM     47  C   UNL A   1      41.835  27.497  28.265  1.00  0.00     0.074 A 
ATOM     48  C   UNL A   1      40.894  26.401  28.174  1.00  0.00     0.031 C 
ATOM     49  C   UNL A   1      47.422  24.724  26.734  1.00  0.00     0.029 A 
ATOM     50  C   UNL A   1      47.181  26.133  27.043  1.00  0.00     0.049 A 
ATOM     51  H   UNL A   1      45.374  27.015  27.580  1.00  0.00     0.167 HD
ATOM     52  C   UNL A   1      41.506  28.755  28.641  1.00  0.00     0.037 A 
ATOM     53  C   UNL A   1      48.109  27.110  27.038  1.00  0.00     0.037 A 
ATOM     54  C   UNL A   1      42.439  29.846  28.736  1.00  0.00     0.049 A 
ATOM     55  C   UNL A   1      47.704  28.519  27.386  1.00  0.00     0.074 A 
ATOM     56  C   UNL A   1      42.204  31.153  29.125  1.00  0.00     0.029 A 
ATOM     57  N   UNL A   1      43.788  29.755  28.431  1.00  0.00    -0.354 N 
ATOM     58  N   UNL A   1      46.528  28.980  27.740  1.00  0.00    -0.248 NA
ATOM     59  C   UNL A   1      48.756  29.546  27.332  1.00  0.00     0.031 C 
ATOM     60  C   UNL A   1      43.403  31.866  29.011  1.00  0.00     0.029 A 
ATOM     61  C   UNL A   1      44.394  30.990  28.597  1.00  0.00     0.049 A 
ATOM     62  H   UNL A   1      44.249  28.936  28.138  1.00  0.00     0.167 HD
ATOM     63  C   UNL A   1      46.704  30.337  27.976  1.00  0.00     0.074 A 
ATOM     64  C   UNL A   1      48.102  30.627  27.735  1.00  0.00     0.031 C 
ATOM     65  C   UNL A   1      45.789  31.261  28.362  1.00  0.00     0.037 A 
BRANCH  52  66
ATOM     66  C   UNL A   1      40.065  29.029  28.956  1.00  0.00     0.064 A 
ATOM     67  C   UNL A   1      39.132  29.312  27.947  1.00  0.00     0.173 A 
ATOM     68  C   UNL A   1      39.605  28.971  30.280  1.00  0.00     0.173 A 
ATOM     69  F   UNL A   1      39.525  29.392  26.667  1.00  0.00    -0.203 F 
ATOM     70  C   UNL A   1      37.795  29.548  28.256  1.00  0.00     0.198 A 
ATOM     71  C   UNL A   1      38.263  29.183  30.582  1.00  0.00     0.198 A 
ATOM     72  F   UNL A   1      40.457  28.699  31.279  1.00  0.00    -0.203 F 
ATOM     73  F   UNL A   1      36.927  29.856  27.281  1.00  0.00    -0.200 F 
ATOM     74  C   UNL A   1      37.360  29.477  29.571  1.00  0.00     0.200 A 
ATOM     75  F   UNL A   1      37.843  29.103  31.852  1.00  0.00    -0.200 F 
ATOM     76  F   UNL A   1      36.071  29.697  29.866  1.00  0.00    -0.200 F 
ENDBRANCH  52  66
BRANCH  53  77
ATOM     77  C   UNL A   1      49.515  26.795  26.676  1.00  0.00     0.064 A 
ATOM     78  C   UNL A   1      50.461  26.476  27.658  1.00  0.00     0.173 A 
ATOM     79  C   UNL A   1      49.942  26.823  25.340  1.00  0.00     0.173 A 
ATOM     80  F   UNL A   1      50.107  26.464  28.951  1.00  0.00    -0.203 F 
ATOM     81  C   UNL A   1      51.787  26.211  27.319  1.00  0.00     0.198 A 
ATOM     82  C   UNL A   1      51.261  26.533  25.000  1.00  0.00     0.198 A 
ATOM     83  F   UNL A   1      49.074  27.128  24.363  1.00  0.00    -0.203 F 
ATOM     84  F   UNL A   1      52.683  25.952  28.281  1.00  0.00    -0.200 F 
ATOM     85  C   UNL A   1      52.184  26.234  25.990  1.00  0.00     0.200 A 
ATOM     86  F   UNL A   1      51.638  26.548  23.714  1.00  0.00    -0.200 F 
ATOM     87  F   UNL A   1      53.459  25.976  25.665  1.00  0.00    -0.200 F 
ENDBRANCH  53  77
BRANCH  65  88
ATOM     88  C   UNL A   1      46.272  32.665  28.581  1.00  0.00     0.064 A 
ATOM     89  C   UNL A   1      46.278  33.609  27.546  1.00  0.00     0.173 A 
ATOM     90  C   UNL A   1      46.682  33.083  29.856  1.00  0.00     0.173 A 
ATOM     91  F   UNL A   1      45.908  33.256  26.306  1.00  0.00    -0.203 F 
ATOM     92  C   UNL A   1      46.693  34.919  27.775  1.00  0.00     0.198 A 
ATOM     93  C   UNL A   1      47.073  34.399  30.088  1.00  0.00     0.198 A 
ATOM     94  F   UNL A   1      46.690  32.217  30.882  1.00  0.00    -0.203 F 
ATOM     95  F   UNL A   1      46.727  35.797  26.763  1.00  0.00    -0.200 F 
ATOM     96  C   UNL A   1      47.082  35.314  29.047  1.00  0.00     0.200 A 
ATOM     97  F   UNL A   1      47.437  34.782  31.320  1.00  0.00    -0.200 F 
ATOM     98  F   UNL A   1      47.473  36.577  29.268  1.00  0.00    -0.200 F 
ENDBRANCH  65  88
ENDBRANCH  39  40
ENDBRANCH  32  34
ENDBRANCH  31  32
ENDBRANCH  30  31
ENDBRANCH  29  30
ENDBRANCH  28  29
ENDBRANCH   1  28
TORSDOF 19
ENDMDL
