MODEL 1
REMARK VINA RESULT:      -9.7      0.000      0.000
REMARK SMILES CCc1nc(COC)cc(OCC(=O)OCCOCCOC(=O)c2ccc(-c3c4nc(c(-c5c(F)c(F)c(F)c(F)c5F)c5ccc([nH]5)c(-c5c(F)c(F)c(F)c(F)c5F)c5nc(c(-c6c(F)c(F)c(F)c(F)c6F)c6ccc3[nH]6)C=C5)C=C4)cc2)n1
REMARK SMILES IDX 17 1 16 2 15 3 13 4 14 5 12 6 11 7 10 8 3 9 4 10 87 11 5 12
REMARK SMILES IDX 9 13 2 14 1 15 6 16 7 17 8 18 18 19 19 20 20 21 21 22 22 23
REMARK SMILES IDX 23 24 24 25 25 26 86 27 26 28 85 29 27 30 28 31 29 32 79 33
REMARK SMILES IDX 30 34 84 35 78 36 80 37 31 38 83 39 77 40 76 41 32 43 64 44
REMARK SMILES IDX 44 45 63 46 45 47 48 48 62 49 81 50 46 51 47 52 61 54 82 55
REMARK SMILES IDX 49 56 33 57 34 58 42 59 35 60 36 61 40 62 43 63 37 64 38 65
REMARK SMILES IDX 41 66 39 67 65 68 66 69 74 70 67 71 68 72 72 73 75 74 69 75
REMARK SMILES IDX 70 76 73 77 71 78 50 79 51 80 59 81 52 82 53 83 57 84 60 85
REMARK SMILES IDX 54 86 55 87 58 88 56 89
REMARK H PARENT 80 42 48 53
REMARK Flexibility Score: inf
ROOT
ATOM      1  C   UNL A   1      34.200  23.346  22.770  1.00  0.00     0.202 C 
ENDROOT
BRANCH   1   2
ATOM      2  C   UNL A   1      33.884  24.786  23.186  1.00  0.00     0.261 C 
BRANCH   2   3
ATOM      3  O   UNL A   1      33.930  25.743  22.103  1.00  0.00    -0.461 OA
BRANCH   3   4
ATOM      4  C   UNL A   1      32.917  25.669  21.197  1.00  0.00     0.344 C 
ATOM      5  O   UNL A   1      33.064  25.366  20.018  1.00  0.00    -0.248 OA
BRANCH   4   6
ATOM      6  C   UNL A   1      31.537  26.046  21.761  1.00  0.00     0.353 C 
BRANCH   6   7
ATOM      7  O   UNL A   1      31.368  27.097  22.686  1.00  0.00    -0.466 OA
BRANCH   7   8
ATOM      8  C   UNL A   1      31.092  26.852  24.000  1.00  0.00     0.217 A 
ATOM      9  C   UNL A   1      31.552  27.623  26.117  1.00  0.00     0.132 A 
ATOM     10  N   UNL A   1      31.129  26.488  26.697  1.00  0.00    -0.235 NA
ATOM     11  N   UNL A   1      31.572  27.826  24.791  1.00  0.00    -0.198 NA
ATOM     12  C   UNL A   1      30.674  25.508  25.891  1.00  0.00     0.074 A 
ATOM     13  C   UNL A   1      30.570  25.682  24.515  1.00  0.00     0.094 A 
BRANCH   9  14
ATOM     14  C   UNL A   1      32.039  28.733  27.008  1.00  0.00     0.074 C 
ATOM     15  C   UNL A   1      33.515  28.601  27.359  1.00  0.00     0.012 C 
ENDBRANCH   9  14
BRANCH  12  16
ATOM     16  C   UNL A   1      30.306  24.175  26.528  1.00  0.00     0.216 C 
BRANCH  16  17
ATOM     17  O   UNL A   1      31.246  23.669  27.484  1.00  0.00    -0.378 OA
ATOM     18  C   UNL A   1      32.262  22.841  26.934  1.00  0.00     0.195 C 
ENDBRANCH  16  17
ENDBRANCH  12  16
ENDBRANCH   7   8
ENDBRANCH   6   7
ENDBRANCH   4   6
ENDBRANCH   3   4
ENDBRANCH   2   3
ENDBRANCH   1   2
BRANCH   1  19
ATOM     19  O   UNL A   1      34.780  22.489  23.739  1.00  0.00    -0.374 OA
BRANCH  19  20
ATOM     20  C   UNL A   1      35.567  23.045  24.780  1.00  0.00     0.202 C 
BRANCH  20  21
ATOM     21  C   UNL A   1      37.027  22.617  24.953  1.00  0.00     0.261 C 
BRANCH  21  22
ATOM     22  O   UNL A   1      37.902  23.567  25.508  1.00  0.00    -0.460 OA
BRANCH  22  23
ATOM     23  C   UNL A   1      38.985  23.101  26.142  1.00  0.00     0.338 C 
ATOM     24  O   UNL A   1      39.506  22.006  26.090  1.00  0.00    -0.246 OA
BRANCH  23  25
ATOM     25  C   UNL A   1      39.423  24.288  26.870  1.00  0.00     0.060 A 
ATOM     26  C   UNL A   1      40.092  25.290  26.172  1.00  0.00     0.016 A 
ATOM     27  C   UNL A   1      38.980  24.466  28.190  1.00  0.00     0.016 A 
ATOM     28  C   UNL A   1      40.363  26.484  26.823  1.00  0.00     0.010 A 
ATOM     29  C   UNL A   1      39.233  25.667  28.830  1.00  0.00     0.010 A 
ATOM     30  C   UNL A   1      39.952  26.663  28.155  1.00  0.00    -0.014 A 
BRANCH  30  31
ATOM     31  C   UNL A   1      40.406  27.850  28.895  1.00  0.00     0.031 A 
ATOM     32  C   UNL A   1      41.839  27.899  29.327  1.00  0.00     0.074 A 
ATOM     33  C   UNL A   1      39.550  28.854  29.142  1.00  0.00     0.049 A 
ATOM     34  N   UNL A   1      42.479  28.842  29.963  1.00  0.00    -0.248 NA
ATOM     35  C   UNL A   1      42.664  26.721  29.003  1.00  0.00     0.031 C 
ATOM     36  C   UNL A   1      38.139  28.873  28.755  1.00  0.00     0.029 A 
ATOM     37  N   UNL A   1      39.744  30.051  29.775  1.00  0.00    -0.354 N 
ATOM     38  C   UNL A   1      43.778  28.375  30.106  1.00  0.00     0.074 A 
ATOM     39  C   UNL A   1      43.828  27.048  29.539  1.00  0.00     0.031 C 
ATOM     40  C   UNL A   1      37.594  30.035  29.153  1.00  0.00     0.029 A 
ATOM     41  C   UNL A   1      38.612  30.823  29.842  1.00  0.00     0.049 A 
ATOM     42  H   UNL A   1      40.612  30.330  30.146  1.00  0.00     0.167 HD
ATOM     43  C   UNL A   1      44.838  29.017  30.649  1.00  0.00     0.037 A 
ATOM     44  C   UNL A   1      38.432  32.030  30.410  1.00  0.00     0.037 A 
ATOM     45  C   UNL A   1      44.757  30.336  31.212  1.00  0.00     0.049 A 
ATOM     46  C   UNL A   1      39.620  32.701  31.048  1.00  0.00     0.074 A 
ATOM     47  C   UNL A   1      45.761  31.097  31.779  1.00  0.00     0.029 A 
ATOM     48  N   UNL A   1      43.592  31.087  31.283  1.00  0.00    -0.354 N 
ATOM     49  N   UNL A   1      40.860  32.278  31.140  1.00  0.00    -0.248 NA
ATOM     50  C   UNL A   1      39.390  34.018  31.655  1.00  0.00     0.031 C 
ATOM     51  C   UNL A   1      45.193  32.290  32.237  1.00  0.00     0.029 A 
ATOM     52  C   UNL A   1      43.846  32.296  31.906  1.00  0.00     0.049 A 
ATOM     53  H   UNL A   1      42.714  30.802  30.940  1.00  0.00     0.167 HD
ATOM     54  C   UNL A   1      41.562  33.283  31.791  1.00  0.00     0.074 A 
ATOM     55  C   UNL A   1      40.610  34.346  32.053  1.00  0.00     0.031 C 
ATOM     56  C   UNL A   1      42.870  33.329  32.145  1.00  0.00     0.037 A 
BRANCH  43  57
ATOM     57  C   UNL A   1      46.150  28.292  30.670  1.00  0.00     0.064 A 
ATOM     58  C   UNL A   1      47.087  28.433  29.635  1.00  0.00     0.173 A 
ATOM     59  C   UNL A   1      46.483  27.456  31.745  1.00  0.00     0.173 A 
ATOM     60  F   UNL A   1      46.809  29.203  28.572  1.00  0.00    -0.203 F 
ATOM     61  C   UNL A   1      48.300  27.749  29.666  1.00  0.00     0.198 A 
ATOM     62  C   UNL A   1      47.708  26.795  31.788  1.00  0.00     0.198 A 
ATOM     63  F   UNL A   1      45.620  27.281  32.758  1.00  0.00    -0.203 F 
ATOM     64  F   UNL A   1      49.159  27.863  28.644  1.00  0.00    -0.200 F 
ATOM     65  C   UNL A   1      48.612  26.937  30.746  1.00  0.00     0.200 A 
ATOM     66  F   UNL A   1      48.012  26.017  32.836  1.00  0.00    -0.200 F 
ATOM     67  F   UNL A   1      49.783  26.285  30.780  1.00  0.00    -0.200 F 
ENDBRANCH  43  57
BRANCH  44  68
ATOM     68  C   UNL A   1      37.093  32.674  30.392  1.00  0.00     0.064 A 
ATOM     69  C   UNL A   1      36.720  33.545  29.360  1.00  0.00     0.173 A 
ATOM     70  C   UNL A   1      36.159  32.434  31.412  1.00  0.00     0.173 A 
ATOM     71  F   UNL A   1      37.582  33.821  28.371  1.00  0.00    -0.203 F 
ATOM     72  C   UNL A   1      35.473  34.170  29.359  1.00  0.00     0.198 A 
ATOM     73  C   UNL A   1      34.902  33.035  31.395  1.00  0.00     0.198 A 
ATOM     74  F   UNL A   1      36.463  31.605  32.421  1.00  0.00    -0.203 F 
ATOM     75  F   UNL A   1      35.160  35.034  28.385  1.00  0.00    -0.200 F 
ATOM     76  C   UNL A   1      34.563  33.910  30.374  1.00  0.00     0.200 A 
ATOM     77  F   UNL A   1      34.022  32.769  32.368  1.00  0.00    -0.200 F 
ATOM     78  F   UNL A   1      33.364  34.508  30.371  1.00  0.00    -0.200 F 
ENDBRANCH  44  68
BRANCH  56  79
ATOM     79  C   UNL A   1      43.346  34.577  32.827  1.00  0.00     0.064 A 
ATOM     80  C   UNL A   1      43.783  35.691  32.098  1.00  0.00     0.173 A 
ATOM     81  C   UNL A   1      43.318  34.672  34.227  1.00  0.00     0.173 A 
ATOM     82  F   UNL A   1      43.839  35.641  30.759  1.00  0.00    -0.203 F 
ATOM     83  C   UNL A   1      44.201  36.848  32.747  1.00  0.00     0.198 A 
ATOM     84  C   UNL A   1      43.706  35.842  34.871  1.00  0.00     0.198 A 
ATOM     85  F   UNL A   1      42.899  33.635  34.968  1.00  0.00    -0.203 F 
ATOM     86  F   UNL A   1      44.663  37.884  32.033  1.00  0.00    -0.200 F 
ATOM     87  C   UNL A   1      44.155  36.926  34.131  1.00  0.00     0.200 A 
ATOM     88  F   UNL A   1      43.646  35.922  36.207  1.00  0.00    -0.200 F 
ATOM     89  F   UNL A   1      44.551  38.045  34.754  1.00  0.00    -0.200 F 
ENDBRANCH  56  79
ENDBRANCH  30  31
ENDBRANCH  23  25
ENDBRANCH  22  23
ENDBRANCH  21  22
ENDBRANCH  20  21
ENDBRANCH  19  20
ENDBRANCH   1  19
TORSDOF 19
ENDMDL
MODEL 2
REMARK VINA RESULT:      -9.6      2.804      4.423
REMARK SMILES CCc1nc(COC)cc(OCC(=O)OCCOCCOC(=O)c2ccc(-c3c4nc(c(-c5c(F)c(F)c(F)c(F)c5F)c5ccc([nH]5)c(-c5c(F)c(F)c(F)c(F)c5F)c5nc(c(-c6c(F)c(F)c(F)c(F)c6F)c6ccc3[nH]6)C=C5)C=C4)cc2)n1
REMARK SMILES IDX 17 1 16 2 15 3 13 4 14 5 12 6 11 7 10 8 3 9 4 10 87 11 5 12
REMARK SMILES IDX 9 13 2 14 1 15 6 16 7 17 8 18 18 19 19 20 20 21 21 22 22 23
REMARK SMILES IDX 23 24 24 25 25 26 86 27 26 28 85 29 27 30 28 31 29 32 79 33
REMARK SMILES IDX 30 34 84 35 78 36 80 37 31 38 83 39 77 40 76 41 32 43 64 44
REMARK SMILES IDX 44 45 63 46 45 47 48 48 62 49 81 50 46 51 47 52 61 54 82 55
REMARK SMILES IDX 49 56 33 57 34 58 42 59 35 60 36 61 40 62 43 63 37 64 38 65
REMARK SMILES IDX 41 66 39 67 65 68 66 69 74 70 67 71 68 72 72 73 75 74 69 75
REMARK SMILES IDX 70 76 73 77 71 78 50 79 51 80 59 81 52 82 53 83 57 84 60 85
REMARK SMILES IDX 54 86 55 87 58 88 56 89
REMARK H PARENT 80 42 48 53
REMARK Flexibility Score: inf
ROOT
ATOM      1  C   UNL A   1      33.720  20.245  24.687  1.00  0.00     0.202 C 
ENDROOT
BRANCH   1   2
ATOM      2  C   UNL A   1      33.141  21.042  25.860  1.00  0.00     0.261 C 
BRANCH   2   3
ATOM      3  O   UNL A   1      32.473  22.265  25.479  1.00  0.00    -0.461 OA
BRANCH   3   4
ATOM      4  C   UNL A   1      32.335  23.201  26.458  1.00  0.00     0.344 C 
ATOM      5  O   UNL A   1      31.984  22.955  27.607  1.00  0.00    -0.248 OA
BRANCH   4   6
ATOM      6  C   UNL A   1      32.614  24.641  25.998  1.00  0.00     0.353 C 
BRANCH   6   7
ATOM      7  O   UNL A   1      31.937  25.749  26.548  1.00  0.00    -0.466 OA
BRANCH   7   8
ATOM      8  C   UNL A   1      32.195  27.021  26.129  1.00  0.00     0.217 A 
ATOM      9  C   UNL A   1      33.166  28.195  24.405  1.00  0.00     0.132 A 
ATOM     10  N   UNL A   1      33.240  29.326  25.125  1.00  0.00    -0.235 NA
ATOM     11  N   UNL A   1      32.681  27.035  24.876  1.00  0.00    -0.198 NA
ATOM     12  C   UNL A   1      32.772  29.293  26.389  1.00  0.00     0.074 A 
ATOM     13  C   UNL A   1      32.164  28.157  26.913  1.00  0.00     0.094 A 
BRANCH   9  14
ATOM     14  C   UNL A   1      33.662  28.227  22.985  1.00  0.00     0.074 C 
ATOM     15  C   UNL A   1      33.280  26.979  22.200  1.00  0.00     0.012 C 
ENDBRANCH   9  14
BRANCH  12  16
ATOM     16  C   UNL A   1      32.961  30.532  27.252  1.00  0.00     0.216 C 
BRANCH  16  17
ATOM     17  O   UNL A   1      34.321  30.933  27.464  1.00  0.00    -0.378 OA
ATOM     18  C   UNL A   1      35.175  29.899  27.936  1.00  0.00     0.195 C 
ENDBRANCH  16  17
ENDBRANCH  12  16
ENDBRANCH   7   8
ENDBRANCH   6   7
ENDBRANCH   4   6
ENDBRANCH   3   4
ENDBRANCH   2   3
ENDBRANCH   1   2
BRANCH   1  19
ATOM     19  O   UNL A   1      35.116  20.001  24.677  1.00  0.00    -0.374 OA
BRANCH  19  20
ATOM     20  C   UNL A   1      35.998  20.968  25.221  1.00  0.00     0.202 C 
BRANCH  20  21
ATOM     21  C   UNL A   1      37.513  20.783  25.101  1.00  0.00     0.261 C 
BRANCH  21  22
ATOM     22  O   UNL A   1      38.319  21.814  25.614  1.00  0.00    -0.460 OA
BRANCH  22  23
ATOM     23  C   UNL A   1      39.400  21.452  26.317  1.00  0.00     0.338 C 
ATOM     24  O   UNL A   1      39.831  20.345  26.563  1.00  0.00    -0.246 OA
BRANCH  23  25
ATOM     25  C   UNL A   1      39.969  22.753  26.655  1.00  0.00     0.060 A 
ATOM     26  C   UNL A   1      39.384  23.897  26.119  1.00  0.00     0.016 A 
ATOM     27  C   UNL A   1      40.950  22.814  27.657  1.00  0.00     0.016 A 
ATOM     28  C   UNL A   1      39.820  25.135  26.567  1.00  0.00     0.010 A 
ATOM     29  C   UNL A   1      41.367  24.051  28.116  1.00  0.00     0.010 A 
ATOM     30  C   UNL A   1      40.823  25.211  27.548  1.00  0.00    -0.014 A 
BRANCH  30  31
ATOM     31  C   UNL A   1      41.410  26.519  27.877  1.00  0.00     0.031 A 
ATOM     32  C   UNL A   1      42.810  26.791  27.421  1.00  0.00     0.074 A 
ATOM     33  C   UNL A   1      40.685  27.430  28.545  1.00  0.00     0.049 A 
ATOM     34  N   UNL A   1      43.531  27.870  27.565  1.00  0.00    -0.248 NA
ATOM     35  C   UNL A   1      43.495  25.696  26.712  1.00  0.00     0.031 C 
ATOM     36  C   UNL A   1      39.316  27.232  29.023  1.00  0.00     0.029 A 
ATOM     37  N   UNL A   1      40.999  28.704  28.933  1.00  0.00    -0.354 N 
ATOM     38  C   UNL A   1      44.746  27.586  26.957  1.00  0.00     0.074 A 
ATOM     39  C   UNL A   1      44.689  26.221  26.489  1.00  0.00     0.031 C 
ATOM     40  C   UNL A   1      38.903  28.355  29.635  1.00  0.00     0.029 A 
ATOM     41  C   UNL A   1      39.987  29.333  29.612  1.00  0.00     0.049 A 
ATOM     42  H   UNL A   1      41.867  29.127  28.742  1.00  0.00     0.167 HD
ATOM     43  C   UNL A   1      45.807  28.409  26.793  1.00  0.00     0.037 A 
ATOM     44  C   UNL A   1      39.958  30.563  30.157  1.00  0.00     0.037 A 
ATOM     45  C   UNL A   1      45.838  29.761  27.276  1.00  0.00     0.049 A 
ATOM     46  C   UNL A   1      41.172  31.442  29.998  1.00  0.00     0.074 A 
ATOM     47  C   UNL A   1      46.848  30.697  27.160  1.00  0.00     0.029 A 
ATOM     48  N   UNL A   1      44.805  30.366  27.979  1.00  0.00    -0.354 N 
ATOM     49  N   UNL A   1      42.303  31.188  29.381  1.00  0.00    -0.248 NA
ATOM     50  C   UNL A   1      41.105  32.778  30.602  1.00  0.00     0.031 C 
ATOM     51  C   UNL A   1      46.444  31.854  27.835  1.00  0.00     0.029 A 
ATOM     52  C   UNL A   1      45.160  31.657  28.324  1.00  0.00     0.049 A 
ATOM     53  H   UNL A   1      43.945  29.939  28.198  1.00  0.00     0.167 HD
ATOM     54  C   UNL A   1      43.072  32.336  29.501  1.00  0.00     0.074 A 
ATOM     55  C   UNL A   1      42.268  33.296  30.234  1.00  0.00     0.031 C 
ATOM     56  C   UNL A   1      44.328  32.582  29.052  1.00  0.00     0.037 A 
BRANCH  43  57
ATOM     57  C   UNL A   1      47.007  27.858  26.083  1.00  0.00     0.064 A 
ATOM     58  C   UNL A   1      48.109  27.348  26.787  1.00  0.00     0.173 A 
ATOM     59  C   UNL A   1      47.052  27.824  24.682  1.00  0.00     0.173 A 
ATOM     60  F   UNL A   1      48.127  27.377  28.128  1.00  0.00    -0.203 F 
ATOM     61  C   UNL A   1      49.220  26.844  26.114  1.00  0.00     0.198 A 
ATOM     62  C   UNL A   1      48.152  27.294  24.013  1.00  0.00     0.198 A 
ATOM     63  F   UNL A   1      46.028  28.305  23.961  1.00  0.00    -0.203 F 
ATOM     64  F   UNL A   1      50.280  26.405  26.807  1.00  0.00    -0.200 F 
ATOM     65  C   UNL A   1      49.236  26.810  24.728  1.00  0.00     0.200 A 
ATOM     66  F   UNL A   1      48.163  27.255  22.672  1.00  0.00    -0.200 F 
ATOM     67  F   UNL A   1      50.301  26.317  24.081  1.00  0.00    -0.200 F 
ENDBRANCH  43  57
BRANCH  44  68
ATOM     68  C   UNL A   1      38.751  31.031  30.886  1.00  0.00     0.064 A 
ATOM     69  C   UNL A   1      38.643  30.895  32.276  1.00  0.00     0.173 A 
ATOM     70  C   UNL A   1      37.676  31.622  30.205  1.00  0.00     0.173 A 
ATOM     71  F   UNL A   1      39.636  30.321  32.972  1.00  0.00    -0.203 F 
ATOM     72  C   UNL A   1      37.497  31.309  32.955  1.00  0.00     0.198 A 
ATOM     73  C   UNL A   1      36.544  32.064  30.887  1.00  0.00     0.198 A 
ATOM     74  F   UNL A   1      37.729  31.782  28.874  1.00  0.00    -0.203 F 
ATOM     75  F   UNL A   1      37.402  31.125  34.278  1.00  0.00    -0.200 F 
ATOM     76  C   UNL A   1      36.451  31.899  32.261  1.00  0.00     0.200 A 
ATOM     77  F   UNL A   1      35.543  32.646  30.214  1.00  0.00    -0.200 F 
ATOM     78  F   UNL A   1      35.353  32.300  32.914  1.00  0.00    -0.200 F 
ENDBRANCH  44  68
BRANCH  56  79
ATOM     79  C   UNL A   1      44.891  33.946  29.320  1.00  0.00     0.064 A 
ATOM     80  C   UNL A   1      45.650  34.214  30.467  1.00  0.00     0.173 A 
ATOM     81  C   UNL A   1      44.706  34.982  28.392  1.00  0.00     0.173 A 
ATOM     82  F   UNL A   1      45.842  33.259  31.388  1.00  0.00    -0.203 F 
ATOM     83  C   UNL A   1      46.182  35.480  30.689  1.00  0.00     0.198 A 
ATOM     84  C   UNL A   1      45.267  36.237  28.601  1.00  0.00     0.198 A 
ATOM     85  F   UNL A   1      43.994  34.770  27.273  1.00  0.00    -0.203 F 
ATOM     86  F   UNL A   1      46.862  35.730  31.816  1.00  0.00    -0.200 F 
ATOM     87  C   UNL A   1      45.997  36.488  29.753  1.00  0.00     0.200 A 
ATOM     88  F   UNL A   1      45.101  37.204  27.689  1.00  0.00    -0.200 F 
ATOM     89  F   UNL A   1      46.517  37.704  29.965  1.00  0.00    -0.200 F 
ENDBRANCH  56  79
ENDBRANCH  30  31
ENDBRANCH  23  25
ENDBRANCH  22  23
ENDBRANCH  21  22
ENDBRANCH  20  21
ENDBRANCH  19  20
ENDBRANCH   1  19
TORSDOF 19
ENDMDL
MODEL 3
REMARK VINA RESULT:      -9.6      2.797      4.144
REMARK SMILES CCc1nc(COC)cc(OCC(=O)OCCOCCOC(=O)c2ccc(-c3c4nc(c(-c5c(F)c(F)c(F)c(F)c5F)c5ccc([nH]5)c(-c5c(F)c(F)c(F)c(F)c5F)c5nc(c(-c6c(F)c(F)c(F)c(F)c6F)c6ccc3[nH]6)C=C5)C=C4)cc2)n1
REMARK SMILES IDX 17 1 16 2 15 3 13 4 14 5 12 6 11 7 10 8 3 9 4 10 87 11 5 12
REMARK SMILES IDX 9 13 2 14 1 15 6 16 7 17 8 18 18 19 19 20 20 21 21 22 22 23
REMARK SMILES IDX 23 24 24 25 25 26 86 27 26 28 85 29 27 30 28 31 29 32 79 33
REMARK SMILES IDX 30 34 84 35 78 36 80 37 31 38 83 39 77 40 76 41 32 43 64 44
REMARK SMILES IDX 44 45 63 46 45 47 48 48 62 49 81 50 46 51 47 52 61 54 82 55
REMARK SMILES IDX 49 56 33 57 34 58 42 59 35 60 36 61 40 62 43 63 37 64 38 65
REMARK SMILES IDX 41 66 39 67 65 68 66 69 74 70 67 71 68 72 72 73 75 74 69 75
REMARK SMILES IDX 70 76 73 77 71 78 50 79 51 80 59 81 52 82 53 83 57 84 60 85
REMARK SMILES IDX 54 86 55 87 58 88 56 89
REMARK H PARENT 80 42 48 53
REMARK Flexibility Score: inf
ROOT
ATOM      1  C   UNL A   1      34.019  21.455  25.999  1.00  0.00     0.202 C 
ENDROOT
BRANCH   1   2
ATOM      2  C   UNL A   1      33.288  22.516  25.171  1.00  0.00     0.261 C 
BRANCH   2   3
ATOM      3  O   UNL A   1      31.900  22.213  24.904  1.00  0.00    -0.461 OA
BRANCH   3   4
ATOM      4  C   UNL A   1      30.992  22.777  25.746  1.00  0.00     0.344 C 
ATOM      5  O   UNL A   1      30.081  22.165  26.293  1.00  0.00    -0.248 OA
BRANCH   4   6
ATOM      6  C   UNL A   1      31.166  24.293  25.937  1.00  0.00     0.353 C 
BRANCH   6   7
ATOM      7  O   UNL A   1      30.616  25.230  25.038  1.00  0.00    -0.466 OA
BRANCH   7   8
ATOM      8  C   UNL A   1      30.757  26.573  25.234  1.00  0.00     0.217 A 
ATOM      9  C   UNL A   1      30.640  28.583  24.122  1.00  0.00     0.132 A 
ATOM     10  N   UNL A   1      31.314  29.233  25.085  1.00  0.00    -0.235 NA
ATOM     11  N   UNL A   1      30.371  27.268  24.151  1.00  0.00    -0.198 NA
ATOM     12  C   UNL A   1      31.718  28.519  26.154  1.00  0.00     0.074 A 
ATOM     13  C   UNL A   1      31.390  27.175  26.302  1.00  0.00     0.094 A 
BRANCH   9  14
ATOM     14  C   UNL A   1      30.162  29.375  22.935  1.00  0.00     0.074 C 
ATOM     15  C   UNL A   1      29.178  30.473  23.318  1.00  0.00     0.012 C 
ENDBRANCH   9  14
BRANCH  12  16
ATOM     16  C   UNL A   1      32.586  29.218  27.191  1.00  0.00     0.216 C 
BRANCH  16  17
ATOM     17  O   UNL A   1      32.863  30.600  26.932  1.00  0.00    -0.378 OA
ATOM     18  C   UNL A   1      33.953  31.133  27.671  1.00  0.00     0.195 C 
ENDBRANCH  16  17
ENDBRANCH  12  16
ENDBRANCH   7   8
ENDBRANCH   6   7
ENDBRANCH   4   6
ENDBRANCH   3   4
ENDBRANCH   2   3
ENDBRANCH   1   2
BRANCH   1  19
ATOM     19  O   UNL A   1      35.434  21.512  26.048  1.00  0.00    -0.374 OA
BRANCH  19  20
ATOM     20  C   UNL A   1      36.192  20.971  24.978  1.00  0.00     0.202 C 
BRANCH  20  21
ATOM     21  C   UNL A   1      37.704  20.778  25.126  1.00  0.00     0.261 C 
BRANCH  21  22
ATOM     22  O   UNL A   1      38.368  21.642  26.013  1.00  0.00    -0.460 OA
BRANCH  22  23
ATOM     23  C   UNL A   1      39.616  21.311  26.368  1.00  0.00     0.338 C 
ATOM     24  O   UNL A   1      40.166  20.230  26.356  1.00  0.00    -0.246 OA
BRANCH  23  25
ATOM     25  C   UNL A   1      40.171  22.617  26.712  1.00  0.00     0.060 A 
ATOM     26  C   UNL A   1      39.593  23.755  26.156  1.00  0.00     0.016 A 
ATOM     27  C   UNL A   1      41.127  22.689  27.737  1.00  0.00     0.016 A 
ATOM     28  C   UNL A   1      40.011  24.998  26.606  1.00  0.00     0.010 A 
ATOM     29  C   UNL A   1      41.526  23.931  28.199  1.00  0.00     0.010 A 
ATOM     30  C   UNL A   1      40.990  25.085  27.610  1.00  0.00    -0.014 A 
BRANCH  30  31
ATOM     31  C   UNL A   1      41.563  26.398  27.946  1.00  0.00     0.031 A 
ATOM     32  C   UNL A   1      42.955  26.693  27.478  1.00  0.00     0.074 A 
ATOM     33  C   UNL A   1      40.832  27.292  28.629  1.00  0.00     0.049 A 
ATOM     34  N   UNL A   1      43.662  27.781  27.624  1.00  0.00    -0.248 NA
ATOM     35  C   UNL A   1      43.647  25.614  26.752  1.00  0.00     0.031 C 
ATOM     36  C   UNL A   1      39.471  27.072  29.119  1.00  0.00     0.029 A 
ATOM     37  N   UNL A   1      41.132  28.567  29.025  1.00  0.00    -0.354 N 
ATOM     38  C   UNL A   1      44.874  27.519  27.002  1.00  0.00     0.074 A 
ATOM     39  C   UNL A   1      44.831  26.158  26.522  1.00  0.00     0.031 C 
ATOM     40  C   UNL A   1      39.049  28.183  29.746  1.00  0.00     0.029 A 
ATOM     41  C   UNL A   1      40.119  29.176  29.721  1.00  0.00     0.049 A 
ATOM     42  H   UNL A   1      41.993  29.004  28.830  1.00  0.00     0.167 HD
ATOM     43  C   UNL A   1      45.922  28.358  26.834  1.00  0.00     0.037 A 
ATOM     44  C   UNL A   1      40.079  30.401  30.278  1.00  0.00     0.037 A 
ATOM     45  C   UNL A   1      45.940  29.706  27.330  1.00  0.00     0.049 A 
ATOM     46  C   UNL A   1      41.279  31.297  30.114  1.00  0.00     0.074 A 
ATOM     47  C   UNL A   1      46.935  30.657  27.213  1.00  0.00     0.029 A 
ATOM     48  N   UNL A   1      44.905  30.290  28.048  1.00  0.00    -0.354 N 
ATOM     49  N   UNL A   1      42.407  31.065  29.484  1.00  0.00    -0.248 NA
ATOM     50  C   UNL A   1      41.200  32.627  30.731  1.00  0.00     0.031 C 
ATOM     51  C   UNL A   1      46.522  31.801  27.902  1.00  0.00     0.029 A 
ATOM     52  C   UNL A   1      45.246  31.583  28.402  1.00  0.00     0.049 A 
ATOM     53  H   UNL A   1      44.054  29.849  28.273  1.00  0.00     0.167 HD
ATOM     54  C   UNL A   1      43.161  32.223  29.606  1.00  0.00     0.074 A 
ATOM     55  C   UNL A   1      42.352  33.164  30.356  1.00  0.00     0.031 C 
ATOM     56  C   UNL A   1      44.409  32.490  29.147  1.00  0.00     0.037 A 
BRANCH  43  57
ATOM     57  C   UNL A   1      47.122  27.830  26.108  1.00  0.00     0.064 A 
ATOM     58  C   UNL A   1      47.174  27.784  24.706  1.00  0.00     0.173 A 
ATOM     59  C   UNL A   1      48.242  27.377  26.819  1.00  0.00     0.173 A 
ATOM     60  F   UNL A   1      46.121  28.184  23.977  1.00  0.00    -0.203 F 
ATOM     61  C   UNL A   1      48.294  27.286  24.045  1.00  0.00     0.198 A 
ATOM     62  C   UNL A   1      49.372  26.906  26.155  1.00  0.00     0.198 A 
ATOM     63  F   UNL A   1      48.242  27.393  28.161  1.00  0.00    -0.203 F 
ATOM     64  F   UNL A   1      48.303  27.209  22.707  1.00  0.00    -0.200 F 
ATOM     65  C   UNL A   1      49.395  26.855  24.770  1.00  0.00     0.200 A 
ATOM     66  F   UNL A   1      50.438  26.497  26.858  1.00  0.00    -0.200 F 
ATOM     67  F   UNL A   1      50.476  26.384  24.134  1.00  0.00    -0.200 F 
ENDBRANCH  43  57
BRANCH  44  68
ATOM     68  C   UNL A   1      38.873  30.845  31.023  1.00  0.00     0.064 A 
ATOM     69  C   UNL A   1      37.795  31.452  30.366  1.00  0.00     0.173 A 
ATOM     70  C   UNL A   1      38.776  30.676  32.413  1.00  0.00     0.173 A 
ATOM     71  F   UNL A   1      37.845  31.652  29.041  1.00  0.00    -0.203 F 
ATOM     72  C   UNL A   1      36.676  31.893  31.071  1.00  0.00     0.198 A 
ATOM     73  C   UNL A   1      37.645  31.090  33.114  1.00  0.00     0.198 A 
ATOM     74  F   UNL A   1      39.778  30.096  33.091  1.00  0.00    -0.203 F 
ATOM     75  F   UNL A   1      35.680  32.511  30.424  1.00  0.00    -0.200 F 
ATOM     76  C   UNL A   1      36.600  31.707  32.444  1.00  0.00     0.200 A 
ATOM     77  F   UNL A   1      37.570  30.893  34.436  1.00  0.00    -0.200 F 
ATOM     78  F   UNL A   1      35.523  32.127  33.121  1.00  0.00    -0.200 F 
ENDBRANCH  44  68
BRANCH  56  79
ATOM     79  C   UNL A   1      44.956  33.859  29.421  1.00  0.00     0.064 A 
ATOM     80  C   UNL A   1      45.730  34.125  30.559  1.00  0.00     0.173 A 
ATOM     81  C   UNL A   1      44.740  34.902  28.509  1.00  0.00     0.173 A 
ATOM     82  F   UNL A   1      45.952  33.162  31.465  1.00  0.00    -0.203 F 
ATOM     83  C   UNL A   1      46.247  35.396  30.787  1.00  0.00     0.198 A 
ATOM     84  C   UNL A   1      45.286  36.164  28.724  1.00  0.00     0.198 A 
ATOM     85  F   UNL A   1      44.013  34.693  27.400  1.00  0.00    -0.203 F 
ATOM     86  F   UNL A   1      46.942  35.643  31.906  1.00  0.00    -0.200 F 
ATOM     87  C   UNL A   1      46.031  36.412  29.867  1.00  0.00     0.200 A 
ATOM     88  F   UNL A   1      45.090  37.139  27.826  1.00  0.00    -0.200 F 
ATOM     89  F   UNL A   1      46.537  37.633  30.085  1.00  0.00    -0.200 F 
ENDBRANCH  56  79
ENDBRANCH  30  31
ENDBRANCH  23  25
ENDBRANCH  22  23
ENDBRANCH  21  22
ENDBRANCH  20  21
ENDBRANCH  19  20
ENDBRANCH   1  19
TORSDOF 19
ENDMDL
