MODEL 1
REMARK VINA RESULT:     -11.8      0.000      0.000
REMARK SMILES O=C(OCCOCCOC(=O)c1ccc(Cl)cc1-c1ccc(O)c(F)c1)c1ccc(-c2c3nc(c(-c4c(F)c(F)c(F)c(F)c4F)c4ccc([nH]4)c(-c4c(F)c(F)c(F)c(F)c4F)c4nc(c(-c5c(F)c(F)c(F)c(F)c5F)c5ccc2[nH]5)C=C4)C=C3)cc1
REMARK SMILES IDX 6 1 5 2 4 3 3 4 2 5 1 6 27 7 28 8 89 9 29 10 88 11 30 12
REMARK SMILES IDX 31 13 32 14 82 15 33 16 87 17 81 18 83 19 34 20 86 21 80 22
REMARK SMILES IDX 79 23 35 25 67 26 47 27 66 28 48 29 51 30 65 31 84 32 49 33
REMARK SMILES IDX 50 34 64 36 85 37 52 38 36 39 37 40 45 41 38 42 39 43 43 44
REMARK SMILES IDX 46 45 40 46 41 47 44 48 42 49 68 50 69 51 77 52 70 53 71 54
REMARK SMILES IDX 75 55 78 56 72 57 73 58 76 59 74 60 53 61 54 62 62 63 55 64
REMARK SMILES IDX 56 65 60 66 63 67 57 68 58 69 61 70 59 71 7 72 8 73 9 74
REMARK SMILES IDX 10 75 11 76 12 77 13 78 18 79 14 80 17 81 15 82 16 83 19 84
REMARK SMILES IDX 20 85 26 86 21 87 24 88 22 89 25 90 23 91
REMARK H PARENT 83 24 51 35 23 92
REMARK Flexibility Score: inf
ROOT
ATOM      1  O   UNL A   1      31.874  30.615  27.103  1.00  0.00    -0.374 OA
ENDROOT
BRANCH   1   2
ATOM      2  C   UNL A   1      31.461  31.959  26.887  1.00  0.00     0.202 C 
BRANCH   2   3
ATOM      3  C   UNL A   1      32.593  32.975  27.041  1.00  0.00     0.261 C 
BRANCH   3   4
ATOM      4  O   UNL A   1      32.170  34.083  27.847  1.00  0.00    -0.460 OA
BRANCH   4   5
ATOM      5  C   UNL A   1      32.950  34.783  28.706  1.00  0.00     0.338 C 
ATOM      6  O   UNL A   1      32.653  35.944  28.975  1.00  0.00    -0.246 OA
BRANCH   5   7
ATOM      7  C   UNL A   1      34.131  34.183  29.396  1.00  0.00     0.060 A 
ATOM      8  C   UNL A   1      34.050  33.283  30.457  1.00  0.00     0.016 A 
ATOM      9  C   UNL A   1      35.404  34.480  28.888  1.00  0.00     0.016 A 
ATOM     10  C   UNL A   1      35.162  32.711  31.031  1.00  0.00     0.010 A 
ATOM     11  C   UNL A   1      36.541  33.868  29.425  1.00  0.00     0.010 A 
ATOM     12  C   UNL A   1      36.410  32.973  30.494  1.00  0.00    -0.014 A 
BRANCH  12  13
ATOM     13  C   UNL A   1      37.550  32.351  31.174  1.00  0.00     0.031 A 
ATOM     14  C   UNL A   1      38.345  31.345  30.419  1.00  0.00     0.074 A 
ATOM     15  C   UNL A   1      37.936  32.828  32.371  1.00  0.00     0.049 A 
ATOM     16  N   UNL A   1      39.331  30.597  30.823  1.00  0.00    -0.248 NA
ATOM     17  C   UNL A   1      37.981  31.158  29.003  1.00  0.00     0.031 C 
ATOM     18  C   UNL A   1      37.303  33.946  33.081  1.00  0.00     0.029 A 
ATOM     19  N   UNL A   1      38.974  32.467  33.182  1.00  0.00    -0.354 N 
ATOM     20  C   UNL A   1      39.664  29.806  29.734  1.00  0.00     0.074 A 
ATOM     21  C   UNL A   1      38.783  30.170  28.647  1.00  0.00     0.031 C 
ATOM     22  C   UNL A   1      37.989  34.197  34.206  1.00  0.00     0.029 A 
ATOM     23  C   UNL A   1      39.040  33.199  34.341  1.00  0.00     0.049 A 
ATOM     24  H   UNL A   1      39.612  31.751  32.957  1.00  0.00     0.167 HD
ATOM     25  C   UNL A   1      40.613  28.845  29.677  1.00  0.00     0.037 A 
ATOM     26  C   UNL A   1      39.842  33.034  35.407  1.00  0.00     0.037 A 
ATOM     27  C   UNL A   1      41.469  28.538  30.791  1.00  0.00     0.049 A 
ATOM     28  C   UNL A   1      40.822  31.894  35.357  1.00  0.00     0.074 A 
ATOM     29  C   UNL A   1      42.426  27.550  30.906  1.00  0.00     0.029 A 
ATOM     30  N   UNL A   1      41.461  29.238  31.994  1.00  0.00    -0.354 N 
ATOM     31  N   UNL A   1      41.070  31.060  34.373  1.00  0.00    -0.248 NA
ATOM     32  C   UNL A   1      41.614  31.654  36.565  1.00  0.00     0.031 C 
ATOM     33  C   UNL A   1      42.959  27.618  32.199  1.00  0.00     0.029 A 
ATOM     34  C   UNL A   1      42.384  28.691  32.868  1.00  0.00     0.049 A 
ATOM     35  H   UNL A   1      40.883  30.009  32.195  1.00  0.00     0.167 HD
ATOM     36  C   UNL A   1      42.067  30.214  34.829  1.00  0.00     0.074 A 
ATOM     37  C   UNL A   1      42.384  30.647  36.178  1.00  0.00     0.031 C 
ATOM     38  C   UNL A   1      42.671  29.175  34.198  1.00  0.00     0.037 A 
BRANCH  25  39
ATOM     39  C   UNL A   1      40.662  28.019  28.426  1.00  0.00     0.064 A 
ATOM     40  C   UNL A   1      40.023  26.775  28.317  1.00  0.00     0.173 A 
ATOM     41  C   UNL A   1      41.448  28.446  27.343  1.00  0.00     0.173 A 
ATOM     42  F   UNL A   1      39.291  26.299  29.337  1.00  0.00    -0.203 F 
ATOM     43  C   UNL A   1      40.210  25.968  27.196  1.00  0.00     0.198 A 
ATOM     44  C   UNL A   1      41.604  27.653  26.210  1.00  0.00     0.198 A 
ATOM     45  F   UNL A   1      42.093  29.622  27.397  1.00  0.00    -0.203 F 
ATOM     46  F   UNL A   1      39.665  24.744  27.155  1.00  0.00    -0.200 F 
ATOM     47  C   UNL A   1      40.998  26.409  26.143  1.00  0.00     0.200 A 
ATOM     48  F   UNL A   1      42.367  28.082  25.195  1.00  0.00    -0.200 F 
ATOM     49  F   UNL A   1      41.196  25.622  25.076  1.00  0.00    -0.200 F 
ENDBRANCH  25  39
BRANCH  26  50
ATOM     50  C   UNL A   1      39.715  33.918  36.597  1.00  0.00     0.064 A 
ATOM     51  C   UNL A   1      38.930  33.543  37.696  1.00  0.00     0.173 A 
ATOM     52  C   UNL A   1      40.372  35.157  36.664  1.00  0.00     0.173 A 
ATOM     53  F   UNL A   1      38.266  32.378  37.678  1.00  0.00    -0.203 F 
ATOM     54  C   UNL A   1      38.795  34.377  38.806  1.00  0.00     0.198 A 
ATOM     55  C   UNL A   1      40.262  35.976  37.786  1.00  0.00     0.198 A 
ATOM     56  F   UNL A   1      41.136  35.570  35.642  1.00  0.00    -0.203 F 
ATOM     57  F   UNL A   1      38.002  34.013  39.823  1.00  0.00    -0.200 F 
ATOM     58  C   UNL A   1      39.466  35.590  38.853  1.00  0.00     0.200 A 
ATOM     59  F   UNL A   1      40.925  37.140  37.832  1.00  0.00    -0.200 F 
ATOM     60  F   UNL A   1      39.338  36.390  39.920  1.00  0.00    -0.200 F 
ENDBRANCH  26  50
BRANCH  38  61
ATOM     61  C   UNL A   1      43.774  28.489  34.942  1.00  0.00     0.064 A 
ATOM     62  C   UNL A   1      43.533  27.396  35.784  1.00  0.00     0.173 A 
ATOM     63  C   UNL A   1      45.101  28.913  34.769  1.00  0.00     0.173 A 
ATOM     64  F   UNL A   1      42.279  26.966  35.993  1.00  0.00    -0.203 F 
ATOM     65  C   UNL A   1      44.580  26.765  36.448  1.00  0.00     0.198 A 
ATOM     66  C   UNL A   1      46.147  28.258  35.405  1.00  0.00     0.198 A 
ATOM     67  F   UNL A   1      45.380  29.951  33.966  1.00  0.00    -0.203 F 
ATOM     68  F   UNL A   1      44.325  25.755  37.291  1.00  0.00    -0.200 F 
ATOM     69  C   UNL A   1      45.886  27.190  36.251  1.00  0.00     0.200 A 
ATOM     70  F   UNL A   1      47.410  28.657  35.198  1.00  0.00    -0.200 F 
ATOM     71  F   UNL A   1      46.894  26.573  36.882  1.00  0.00    -0.200 F 
ENDBRANCH  38  61
ENDBRANCH  12  13
ENDBRANCH   5   7
ENDBRANCH   4   5
ENDBRANCH   3   4
ENDBRANCH   2   3
ENDBRANCH   1   2
BRANCH   1  72
ATOM     72  C   UNL A   1      33.265  30.403  27.257  1.00  0.00     0.202 C 
BRANCH  72  73
ATOM     73  C   UNL A   1      33.540  28.903  27.212  1.00  0.00     0.261 C 
BRANCH  73  74
ATOM     74  O   UNL A   1      32.855  28.329  26.084  1.00  0.00    -0.460 OA
BRANCH  74  75
ATOM     75  C   UNL A   1      32.023  27.273  26.307  1.00  0.00     0.338 C 
ATOM     76  O   UNL A   1      31.153  27.188  27.154  1.00  0.00    -0.246 OA
BRANCH  75  77
ATOM     77  C   UNL A   1      32.321  26.253  25.261  1.00  0.00     0.068 A 
ATOM     78  C   UNL A   1      33.540  25.555  25.407  1.00  0.00     0.018 A 
ATOM     79  C   UNL A   1      31.490  26.003  24.139  1.00  0.00    -0.002 A 
ATOM     80  C   UNL A   1      33.955  24.626  24.458  1.00  0.00     0.021 A 
ATOM     81  C   UNL A   1      31.928  25.034  23.209  1.00  0.00     0.030 A 
ATOM     82  C   UNL A   1      33.142  24.363  23.366  1.00  0.00     0.041 A 
ATOM     83  Cl  UNL A   1      33.643  23.219  22.187  1.00  0.00    -0.084 Cl
BRANCH  79  84
ATOM     84  C   UNL A   1      30.244  26.724  23.797  1.00  0.00    -0.014 A 
ATOM     85  C   UNL A   1      28.996  26.232  24.249  1.00  0.00     0.013 A 
ATOM     86  C   UNL A   1      30.250  27.938  23.099  1.00  0.00     0.052 A 
ATOM     87  C   UNL A   1      27.791  26.877  23.935  1.00  0.00     0.050 A 
ATOM     88  C   UNL A   1      29.051  28.598  22.819  1.00  0.00     0.165 A 
ATOM     89  C   UNL A   1      27.826  28.060  23.209  1.00  0.00     0.151 A 
ATOM     90  F   UNL A   1      29.093  29.769  22.167  1.00  0.00    -0.203 F 
BRANCH  89  91
ATOM     91  O   UNL A   1      26.673  28.707  22.868  1.00  0.00    -0.505 OA
ATOM     92  H   UNL A   1      26.367  28.688  21.983  1.00  0.00     0.293 HD
ENDBRANCH  89  91
ENDBRANCH  79  84
ENDBRANCH  75  77
ENDBRANCH  74  75
ENDBRANCH  73  74
ENDBRANCH  72  73
ENDBRANCH   1  72
TORSDOF 16
ENDMDL
MODEL 2
REMARK VINA RESULT:     -11.8      6.073     11.168
REMARK SMILES O=C(OCCOCCOC(=O)c1ccc(Cl)cc1-c1ccc(O)c(F)c1)c1ccc(-c2c3nc(c(-c4c(F)c(F)c(F)c(F)c4F)c4ccc([nH]4)c(-c4c(F)c(F)c(F)c(F)c4F)c4nc(c(-c5c(F)c(F)c(F)c(F)c5F)c5ccc2[nH]5)C=C4)C=C3)cc1
REMARK SMILES IDX 6 1 5 2 4 3 3 4 2 5 1 6 27 7 28 8 89 9 29 10 88 11 30 12
REMARK SMILES IDX 31 13 32 14 82 15 33 16 87 17 81 18 83 19 34 20 86 21 80 22
REMARK SMILES IDX 79 23 35 25 67 26 47 27 66 28 48 29 51 30 65 31 84 32 49 33
REMARK SMILES IDX 50 34 64 36 85 37 52 38 36 39 37 40 45 41 38 42 39 43 43 44
REMARK SMILES IDX 46 45 40 46 41 47 44 48 42 49 68 50 69 51 77 52 70 53 71 54
REMARK SMILES IDX 75 55 78 56 72 57 73 58 76 59 74 60 53 61 54 62 62 63 55 64
REMARK SMILES IDX 56 65 60 66 63 67 57 68 58 69 61 70 59 71 7 72 8 73 9 74
REMARK SMILES IDX 10 75 11 76 12 77 13 78 18 79 14 80 17 81 15 82 16 83 19 84
REMARK SMILES IDX 20 85 26 86 21 87 24 88 22 89 25 90 23 91
REMARK H PARENT 83 24 51 35 23 92
REMARK Flexibility Score: inf
ROOT
ATOM      1  O   UNL A   1      37.476  20.103  24.584  1.00  0.00    -0.374 OA
ENDROOT
BRANCH   1   2
ATOM      2  C   UNL A   1      38.349  19.231  25.292  1.00  0.00     0.202 C 
BRANCH   2   3
ATOM      3  C   UNL A   1      39.649  19.903  25.736  1.00  0.00     0.261 C 
BRANCH   3   4
ATOM      4  O   UNL A   1      40.731  18.961  25.728  1.00  0.00    -0.460 OA
BRANCH   4   5
ATOM      5  C   UNL A   1      42.041  19.257  25.906  1.00  0.00     0.338 C 
ATOM      6  O   UNL A   1      42.885  18.388  25.701  1.00  0.00    -0.246 OA
BRANCH   5   7
ATOM      7  C   UNL A   1      42.517  20.621  26.284  1.00  0.00     0.060 A 
ATOM      8  C   UNL A   1      42.894  21.605  25.372  1.00  0.00     0.016 A 
ATOM      9  C   UNL A   1      42.505  20.963  27.644  1.00  0.00     0.016 A 
ATOM     10  C   UNL A   1      43.276  22.868  25.759  1.00  0.00     0.010 A 
ATOM     11  C   UNL A   1      42.840  22.259  28.051  1.00  0.00     0.010 A 
ATOM     12  C   UNL A   1      43.216  23.212  27.097  1.00  0.00    -0.014 A 
BRANCH  12  13
ATOM     13  C   UNL A   1      43.664  24.566  27.439  1.00  0.00     0.031 A 
ATOM     14  C   UNL A   1      42.644  25.533  27.927  1.00  0.00     0.074 A 
ATOM     15  C   UNL A   1      44.983  24.830  27.463  1.00  0.00     0.049 A 
ATOM     16  N   UNL A   1      42.769  26.799  28.203  1.00  0.00    -0.248 NA
ATOM     17  C   UNL A   1      41.288  24.996  28.140  1.00  0.00     0.031 C 
ATOM     18  C   UNL A   1      46.046  23.861  27.173  1.00  0.00     0.029 A 
ATOM     19  N   UNL A   1      45.656  25.973  27.787  1.00  0.00    -0.354 N 
ATOM     20  C   UNL A   1      41.499  27.226  28.560  1.00  0.00     0.074 A 
ATOM     21  C   UNL A   1      40.618  26.084  28.477  1.00  0.00     0.031 C 
ATOM     22  C   UNL A   1      47.238  24.446  27.364  1.00  0.00     0.029 A 
ATOM     23  C   UNL A   1      47.020  25.848  27.691  1.00  0.00     0.049 A 
ATOM     24  H   UNL A   1      45.208  26.805  28.063  1.00  0.00     0.167 HD
ATOM     25  C   UNL A   1      41.120  28.478  28.902  1.00  0.00     0.037 A 
ATOM     26  C   UNL A   1      47.971  26.789  27.810  1.00  0.00     0.037 A 
ATOM     27  C   UNL A   1      42.050  29.572  28.981  1.00  0.00     0.049 A 
ATOM     28  C   UNL A   1      47.513  28.194  28.093  1.00  0.00     0.074 A 
ATOM     29  C   UNL A   1      41.805  30.904  29.246  1.00  0.00     0.029 A 
ATOM     30  N   UNL A   1      43.423  29.441  28.792  1.00  0.00    -0.354 N 
ATOM     31  N   UNL A   1      46.298  28.637  28.320  1.00  0.00    -0.248 NA
ATOM     32  C   UNL A   1      48.547  29.232  28.112  1.00  0.00     0.031 C 
ATOM     33  C   UNL A   1      43.024  31.588  29.163  1.00  0.00     0.029 A 
ATOM     34  C   UNL A   1      44.039  30.673  28.916  1.00  0.00     0.049 A 
ATOM     35  H   UNL A   1      43.888  28.595  28.599  1.00  0.00     0.167 HD
ATOM     36  C   UNL A   1      46.420  29.999  28.540  1.00  0.00     0.074 A 
ATOM     37  C   UNL A   1      47.835  30.304  28.428  1.00  0.00     0.031 C 
ATOM     38  C   UNL A   1      45.459  30.918  28.811  1.00  0.00     0.037 A 
BRANCH  25  39
ATOM     39  C   UNL A   1      39.651  28.710  29.086  1.00  0.00     0.064 A 
ATOM     40  C   UNL A   1      38.822  29.163  28.048  1.00  0.00     0.173 A 
ATOM     41  C   UNL A   1      39.079  28.564  30.361  1.00  0.00     0.173 A 
ATOM     42  F   UNL A   1      39.324  29.358  26.819  1.00  0.00    -0.203 F 
ATOM     43  C   UNL A   1      37.493  29.509  28.290  1.00  0.00     0.198 A 
ATOM     44  C   UNL A   1      37.743  28.877  30.590  1.00  0.00     0.198 A 
ATOM     45  F   UNL A   1      39.827  28.147  31.394  1.00  0.00    -0.203 F 
ATOM     46  F   UNL A   1      36.748  30.028  27.304  1.00  0.00    -0.200 F 
ATOM     47  C   UNL A   1      36.955  29.364  29.560  1.00  0.00     0.200 A 
ATOM     48  F   UNL A   1      37.226  28.736  31.819  1.00  0.00    -0.200 F 
ATOM     49  F   UNL A   1      35.684  29.718  29.796  1.00  0.00    -0.200 F 
ENDBRANCH  25  39
BRANCH  26  50
ATOM     50  C   UNL A   1      49.406  26.448  27.616  1.00  0.00     0.064 A 
ATOM     51  C   UNL A   1      50.263  26.270  28.710  1.00  0.00     0.173 A 
ATOM     52  C   UNL A   1      49.955  26.291  26.333  1.00  0.00     0.173 A 
ATOM     53  F   UNL A   1      49.796  26.426  29.958  1.00  0.00    -0.203 F 
ATOM     54  C   UNL A   1      51.612  25.967  28.530  1.00  0.00     0.198 A 
ATOM     55  C   UNL A   1      51.296  25.956  26.154  1.00  0.00     0.198 A 
ATOM     56  F   UNL A   1      49.184  26.449  25.247  1.00  0.00    -0.203 F 
ATOM     57  F   UNL A   1      52.418  25.848  29.595  1.00  0.00    -0.200 F 
ATOM     58  C   UNL A   1      52.127  25.803  27.252  1.00  0.00     0.200 A 
ATOM     59  F   UNL A   1      51.783  25.785  24.917  1.00  0.00    -0.200 F 
ATOM     60  F   UNL A   1      53.422  25.509  27.081  1.00  0.00    -0.200 F 
ENDBRANCH  26  50
BRANCH  38  61
ATOM     61  C   UNL A   1      45.924  32.318  29.068  1.00  0.00     0.064 A 
ATOM     62  C   UNL A   1      46.018  33.267  28.042  1.00  0.00     0.173 A 
ATOM     63  C   UNL A   1      46.235  32.720  30.375  1.00  0.00     0.173 A 
ATOM     64  F   UNL A   1      45.746  32.923  26.774  1.00  0.00    -0.203 F 
ATOM     65  C   UNL A   1      46.434  34.566  28.312  1.00  0.00     0.198 A 
ATOM     66  C   UNL A   1      46.616  34.028  30.647  1.00  0.00     0.198 A 
ATOM     67  F   UNL A   1      46.152  31.847  31.390  1.00  0.00    -0.203 F 
ATOM     68  F   UNL A   1      46.570  35.447  27.311  1.00  0.00    -0.200 F 
ATOM     69  C   UNL A   1      46.723  34.949  29.614  1.00  0.00     0.200 A 
ATOM     70  F   UNL A   1      46.876  34.400  31.908  1.00  0.00    -0.200 F 
ATOM     71  F   UNL A   1      47.113  36.204  29.875  1.00  0.00    -0.200 F 
ENDBRANCH  38  61
ENDBRANCH  12  13
ENDBRANCH   5   7
ENDBRANCH   4   5
ENDBRANCH   3   4
ENDBRANCH   2   3
ENDBRANCH   1   2
BRANCH   1  72
ATOM     72  C   UNL A   1      37.332  21.409  25.109  1.00  0.00     0.202 C 
BRANCH  72  73
ATOM     73  C   UNL A   1      36.756  22.313  24.025  1.00  0.00     0.261 C 
BRANCH  73  74
ATOM     74  O   UNL A   1      35.530  22.901  24.499  1.00  0.00    -0.460 OA
BRANCH  74  75
ATOM     75  C   UNL A   1      34.462  22.930  23.653  1.00  0.00     0.338 C 
ATOM     76  O   UNL A   1      34.488  22.957  22.437  1.00  0.00    -0.246 OA
BRANCH  75  77
ATOM     77  C   UNL A   1      33.235  22.844  24.495  1.00  0.00     0.068 A 
ATOM     78  C   UNL A   1      32.818  24.047  25.106  1.00  0.00     0.018 A 
ATOM     79  C   UNL A   1      32.528  21.640  24.743  1.00  0.00    -0.002 A 
ATOM     80  C   UNL A   1      31.724  24.076  25.965  1.00  0.00     0.021 A 
ATOM     81  C   UNL A   1      31.405  21.710  25.598  1.00  0.00     0.030 A 
ATOM     82  C   UNL A   1      31.016  22.907  26.201  1.00  0.00     0.041 A 
ATOM     83  Cl  UNL A   1      29.663  22.929  27.261  1.00  0.00    -0.084 Cl
BRANCH  79  84
ATOM     84  C   UNL A   1      32.902  20.292  24.262  1.00  0.00    -0.014 A 
ATOM     85  C   UNL A   1      32.192  19.701  23.190  1.00  0.00     0.013 A 
ATOM     86  C   UNL A   1      34.000  19.592  24.779  1.00  0.00     0.052 A 
ATOM     87  C   UNL A   1      32.506  18.420  22.713  1.00  0.00     0.050 A 
ATOM     88  C   UNL A   1      34.334  18.331  24.277  1.00  0.00     0.165 A 
ATOM     89  C   UNL A   1      33.577  17.735  23.270  1.00  0.00     0.151 A 
ATOM     90  F   UNL A   1      35.402  17.696  24.779  1.00  0.00    -0.203 F 
BRANCH  89  91
ATOM     91  O   UNL A   1      33.902  16.478  22.845  1.00  0.00    -0.505 OA
ATOM     92  H   UNL A   1      33.411  15.740  23.146  1.00  0.00     0.293 HD
ENDBRANCH  89  91
ENDBRANCH  79  84
ENDBRANCH  75  77
ENDBRANCH  74  75
ENDBRANCH  73  74
ENDBRANCH  72  73
ENDBRANCH   1  72
TORSDOF 16
ENDMDL
MODEL 3
REMARK VINA RESULT:     -11.8      0.772      7.570
REMARK SMILES O=C(OCCOCCOC(=O)c1ccc(Cl)cc1-c1ccc(O)c(F)c1)c1ccc(-c2c3nc(c(-c4c(F)c(F)c(F)c(F)c4F)c4ccc([nH]4)c(-c4c(F)c(F)c(F)c(F)c4F)c4nc(c(-c5c(F)c(F)c(F)c(F)c5F)c5ccc2[nH]5)C=C4)C=C3)cc1
REMARK SMILES IDX 6 1 5 2 4 3 3 4 2 5 1 6 27 7 28 8 89 9 29 10 88 11 30 12
REMARK SMILES IDX 31 13 32 14 82 15 33 16 87 17 81 18 83 19 34 20 86 21 80 22
REMARK SMILES IDX 79 23 35 25 67 26 47 27 66 28 48 29 51 30 65 31 84 32 49 33
REMARK SMILES IDX 50 34 64 36 85 37 52 38 36 39 37 40 45 41 38 42 39 43 43 44
REMARK SMILES IDX 46 45 40 46 41 47 44 48 42 49 68 50 69 51 77 52 70 53 71 54
REMARK SMILES IDX 75 55 78 56 72 57 73 58 76 59 74 60 53 61 54 62 62 63 55 64
REMARK SMILES IDX 56 65 60 66 63 67 57 68 58 69 61 70 59 71 7 72 8 73 9 74
REMARK SMILES IDX 10 75 11 76 12 77 13 78 18 79 14 80 17 81 15 82 16 83 19 84
REMARK SMILES IDX 20 85 26 86 21 87 24 88 22 89 25 90 23 91
REMARK H PARENT 83 24 51 35 23 92
REMARK Flexibility Score: inf
ROOT
ATOM      1  O   UNL A   1      31.924  30.625  27.098  1.00  0.00    -0.374 OA
ENDROOT
BRANCH   1   2
ATOM      2  C   UNL A   1      31.414  31.937  26.891  1.00  0.00     0.202 C 
BRANCH   2   3
ATOM      3  C   UNL A   1      32.501  33.011  26.854  1.00  0.00     0.261 C 
BRANCH   3   4
ATOM      4  O   UNL A   1      32.175  34.089  27.742  1.00  0.00    -0.460 OA
BRANCH   4   5
ATOM      5  C   UNL A   1      33.024  34.681  28.616  1.00  0.00     0.338 C 
ATOM      6  O   UNL A   1      32.826  35.847  28.949  1.00  0.00    -0.246 OA
BRANCH   5   7
ATOM      7  C   UNL A   1      34.168  33.957  29.248  1.00  0.00     0.060 A 
ATOM      8  C   UNL A   1      34.042  32.786  29.994  1.00  0.00     0.016 A 
ATOM      9  C   UNL A   1      35.462  34.440  29.006  1.00  0.00     0.016 A 
ATOM     10  C   UNL A   1      35.127  32.119  30.515  1.00  0.00     0.010 A 
ATOM     11  C   UNL A   1      36.578  33.746  29.484  1.00  0.00     0.010 A 
ATOM     12  C   UNL A   1      36.401  32.576  30.232  1.00  0.00    -0.014 A 
BRANCH  12  13
ATOM     13  C   UNL A   1      37.507  31.831  30.843  1.00  0.00     0.031 A 
ATOM     14  C   UNL A   1      37.745  32.013  32.301  1.00  0.00     0.074 A 
ATOM     15  C   UNL A   1      38.145  30.897  30.116  1.00  0.00     0.049 A 
ATOM     16  N   UNL A   1      38.702  31.544  33.048  1.00  0.00    -0.248 NA
ATOM     17  C   UNL A   1      36.759  32.838  33.023  1.00  0.00     0.031 C 
ATOM     18  C   UNL A   1      37.829  30.542  28.728  1.00  0.00     0.029 A 
ATOM     19  N   UNL A   1      39.159  30.046  30.452  1.00  0.00    -0.354 N 
ATOM     20  C   UNL A   1      38.474  32.066  34.312  1.00  0.00     0.074 A 
ATOM     21  C   UNL A   1      37.281  32.879  34.236  1.00  0.00     0.031 C 
ATOM     22  C   UNL A   1      38.614  29.524  28.344  1.00  0.00     0.029 A 
ATOM     23  C   UNL A   1      39.548  29.228  29.421  1.00  0.00     0.049 A 
ATOM     24  H   UNL A   1      39.571  30.022  31.346  1.00  0.00     0.167 HD
ATOM     25  C   UNL A   1      39.224  31.887  35.422  1.00  0.00     0.037 A 
ATOM     26  C   UNL A   1      40.581  28.370  29.358  1.00  0.00     0.037 A 
ATOM     27  C   UNL A   1      40.395  31.053  35.436  1.00  0.00     0.049 A 
ATOM     28  C   UNL A   1      41.459  28.265  30.575  1.00  0.00     0.074 A 
ATOM     29  C   UNL A   1      41.291  30.829  36.462  1.00  0.00     0.029 A 
ATOM     30  N   UNL A   1      40.824  30.296  34.350  1.00  0.00    -0.354 N 
ATOM     31  N   UNL A   1      41.321  28.844  31.746  1.00  0.00    -0.248 NA
ATOM     32  C   UNL A   1      42.644  27.413  30.459  1.00  0.00     0.031 C 
ATOM     33  C   UNL A   1      42.292  29.979  35.977  1.00  0.00     0.029 A 
ATOM     34  C   UNL A   1      41.985  29.617  34.672  1.00  0.00     0.049 A 
ATOM     35  H   UNL A   1      40.368  30.250  33.478  1.00  0.00     0.167 HD
ATOM     36  C   UNL A   1      42.382  28.405  32.519  1.00  0.00     0.074 A 
ATOM     37  C   UNL A   1      43.150  27.500  31.681  1.00  0.00     0.031 C 
ATOM     38  C   UNL A   1      42.700  28.713  33.802  1.00  0.00     0.037 A 
BRANCH  25  39
ATOM     39  C   UNL A   1      38.849  32.697  36.626  1.00  0.00     0.064 A 
ATOM     40  C   UNL A   1      39.318  34.004  36.834  1.00  0.00     0.173 A 
ATOM     41  C   UNL A   1      38.075  32.113  37.642  1.00  0.00     0.173 A 
ATOM     42  F   UNL A   1      40.095  34.597  35.914  1.00  0.00    -0.203 F 
ATOM     43  C   UNL A   1      39.071  34.673  38.031  1.00  0.00     0.198 A 
ATOM     44  C   UNL A   1      37.800  32.798  38.822  1.00  0.00     0.198 A 
ATOM     45  F   UNL A   1      37.610  30.862  37.504  1.00  0.00    -0.203 F 
ATOM     46  F   UNL A   1      39.608  35.883  38.244  1.00  0.00    -0.200 F 
ATOM     47  C   UNL A   1      38.311  34.071  39.023  1.00  0.00     0.200 A 
ATOM     48  F   UNL A   1      37.066  32.213  39.778  1.00  0.00    -0.200 F 
ATOM     49  F   UNL A   1      38.093  34.706  40.183  1.00  0.00    -0.200 F 
ENDBRANCH  25  39
BRANCH  26  50
ATOM     50  C   UNL A   1      40.859  27.607  28.112  1.00  0.00     0.064 A 
ATOM     51  C   UNL A   1      41.667  28.143  27.100  1.00  0.00     0.173 A 
ATOM     52  C   UNL A   1      40.325  26.326  27.901  1.00  0.00     0.173 A 
ATOM     53  F   UNL A   1      42.189  29.370  27.240  1.00  0.00    -0.203 F 
ATOM     54  C   UNL A   1      41.916  27.437  25.923  1.00  0.00     0.198 A 
ATOM     55  C   UNL A   1      40.600  25.607  26.739  1.00  0.00     0.198 A 
ATOM     56  F   UNL A   1      39.543  25.761  28.833  1.00  0.00    -0.203 F 
ATOM     57  F   UNL A   1      42.655  27.994  24.954  1.00  0.00    -0.200 F 
ATOM     58  C   UNL A   1      41.387  26.167  25.746  1.00  0.00     0.200 A 
ATOM     59  F   UNL A   1      40.098  24.375  26.581  1.00  0.00    -0.200 F 
ATOM     60  F   UNL A   1      41.629  25.488  24.616  1.00  0.00    -0.200 F 
ENDBRANCH  26  50
BRANCH  38  61
ATOM     61  C   UNL A   1      43.889  28.013  34.384  1.00  0.00     0.064 A 
ATOM     62  C   UNL A   1      45.169  28.582  34.361  1.00  0.00     0.173 A 
ATOM     63  C   UNL A   1      43.725  26.771  35.016  1.00  0.00     0.173 A 
ATOM     64  F   UNL A   1      45.375  29.760  33.754  1.00  0.00    -0.203 F 
ATOM     65  C   UNL A   1      46.252  27.918  34.928  1.00  0.00     0.198 A 
ATOM     66  C   UNL A   1      44.803  26.128  35.613  1.00  0.00     0.198 A 
ATOM     67  F   UNL A   1      42.517  26.192  35.069  1.00  0.00    -0.203 F 
ATOM     68  F   UNL A   1      47.479  28.452  34.849  1.00  0.00    -0.200 F 
ATOM     69  C   UNL A   1      46.067  26.697  35.561  1.00  0.00     0.200 A 
ATOM     70  F   UNL A   1      44.619  24.958  36.241  1.00  0.00    -0.200 F 
ATOM     71  F   UNL A   1      47.109  26.065  36.116  1.00  0.00    -0.200 F 
ENDBRANCH  38  61
ENDBRANCH  12  13
ENDBRANCH   5   7
ENDBRANCH   4   5
ENDBRANCH   3   4
ENDBRANCH   2   3
ENDBRANCH   1   2
BRANCH   1  72
ATOM     72  C   UNL A   1      33.333  30.500  27.153  1.00  0.00     0.202 C 
BRANCH  72  73
ATOM     73  C   UNL A   1      33.698  29.021  27.073  1.00  0.00     0.261 C 
BRANCH  73  74
ATOM     74  O   UNL A   1      33.031  28.429  25.943  1.00  0.00    -0.460 OA
BRANCH  74  75
ATOM     75  C   UNL A   1      32.160  27.407  26.174  1.00  0.00     0.338 C 
ATOM     76  O   UNL A   1      31.284  27.364  27.018  1.00  0.00    -0.246 OA
BRANCH  75  77
ATOM     77  C   UNL A   1      32.426  26.364  25.143  1.00  0.00     0.068 A 
ATOM     78  C   UNL A   1      33.640  25.654  25.279  1.00  0.00     0.018 A 
ATOM     79  C   UNL A   1      31.571  26.103  24.042  1.00  0.00    -0.002 A 
ATOM     80  C   UNL A   1      34.025  24.702  24.340  1.00  0.00     0.021 A 
ATOM     81  C   UNL A   1      31.979  25.110  23.123  1.00  0.00     0.030 A 
ATOM     82  C   UNL A   1      33.188  24.428  23.269  1.00  0.00     0.041 A 
ATOM     83  Cl  UNL A   1      33.653  23.256  22.102  1.00  0.00    -0.084 Cl
BRANCH  79  84
ATOM     84  C   UNL A   1      30.327  26.831  23.710  1.00  0.00    -0.014 A 
ATOM     85  C   UNL A   1      29.078  26.344  24.166  1.00  0.00     0.013 A 
ATOM     86  C   UNL A   1      30.336  28.049  23.017  1.00  0.00     0.052 A 
ATOM     87  C   UNL A   1      27.876  26.997  23.861  1.00  0.00     0.050 A 
ATOM     88  C   UNL A   1      29.138  28.717  22.747  1.00  0.00     0.165 A 
ATOM     89  C   UNL A   1      27.913  28.184  23.141  1.00  0.00     0.151 A 
ATOM     90  F   UNL A   1      29.183  29.890  22.100  1.00  0.00    -0.203 F 
BRANCH  89  91
ATOM     91  O   UNL A   1      26.761  28.838  22.810  1.00  0.00    -0.505 OA
ATOM     92  H   UNL A   1      26.056  28.372  22.407  1.00  0.00     0.293 HD
ENDBRANCH  89  91
ENDBRANCH  79  84
ENDBRANCH  75  77
ENDBRANCH  74  75
ENDBRANCH  73  74
ENDBRANCH  72  73
ENDBRANCH   1  72
TORSDOF 16
ENDMDL
