MODEL 1
REMARK VINA RESULT:     -11.9      0.000      0.000
REMARK SMILES Cc1nsc(N(C)C(=O)Nc2cccc(Cl)c2)c1C(=O)OCCOCCOC(=O)c1ccc(-c2c3nc(c(-c4c(F)c(F)c(F)c(F)c4F)c4ccc([nH]4)c(-c4c(F)c(F)c(F)c(F)c4F)c4nc(c(-c5c(F)c(F)c(F)c(F)c5F)c5ccc2[nH]5)C=C4)C=C3)cc1
REMARK SMILES IDX 23 1 22 2 21 3 19 4 20 5 18 6 1 7 2 8 3 9 4 10 5 11 6 12
REMARK SMILES IDX 7 13 8 14 9 15 10 16 11 18 12 19 17 20 13 21 15 22 14 23
REMARK SMILES IDX 16 24 24 25 25 26 26 27 27 28 28 29 29 30 30 31 31 32 92 33
REMARK SMILES IDX 32 34 91 35 33 36 34 37 35 38 85 39 36 40 90 41 84 42 86 43
REMARK SMILES IDX 37 44 89 45 83 46 82 47 38 49 70 50 50 51 69 52 51 53 54 54
REMARK SMILES IDX 68 55 87 56 52 57 53 58 67 60 88 61 55 62 39 63 40 64 48 65
REMARK SMILES IDX 41 66 42 67 46 68 49 69 43 70 44 71 47 72 45 73 71 74 72 75
REMARK SMILES IDX 80 76 73 77 74 78 78 79 81 80 75 81 76 82 79 83 77 84 56 85
REMARK SMILES IDX 57 86 65 87 58 88 59 89 63 90 66 91 60 92 61 93 64 94 62 95
REMARK H PARENT 10 17 86 48 54 59
REMARK Flexibility Score: inf
ROOT
ATOM      1  C   UNL A   1      33.340  27.759  26.695  1.00  0.00     0.202 C 
ENDROOT
BRANCH   1   2
ATOM      2  C   UNL A   1      31.877  27.377  26.449  1.00  0.00     0.261 C 
BRANCH   2   3
ATOM      3  O   UNL A   1      31.670  25.985  26.713  1.00  0.00    -0.460 OA
BRANCH   3   4
ATOM      4  C   UNL A   1      30.865  25.350  25.810  1.00  0.00     0.343 C 
ATOM      5  O   UNL A   1      29.827  25.805  25.353  1.00  0.00    -0.246 OA
BRANCH   4   6
ATOM      6  C   UNL A   1      31.325  23.998  25.557  1.00  0.00     0.118 A 
ATOM      7  C   UNL A   1      29.575  22.887  27.186  1.00  0.00     0.069 C 
ATOM      8  C   UNL A   1      30.665  22.858  26.167  1.00  0.00     0.068 A 
ATOM      9  N   UNL A   1      31.094  21.660  25.787  1.00  0.00    -0.195 NA
ATOM     10  S   UNL A   1      32.286  21.859  24.684  1.00  0.00    -0.017 S 
ATOM     11  C   UNL A   1      32.457  23.580  24.842  1.00  0.00     0.134 A 
BRANCH  11  12
ATOM     12  N   UNL A   1      33.649  24.164  24.286  1.00  0.00    -0.286 N 
ATOM     13  C   UNL A   1      34.641  24.792  25.181  1.00  0.00     0.156 C 
BRANCH  12  14
ATOM     14  C   UNL A   1      33.769  24.272  22.887  1.00  0.00     0.326 C 
ATOM     15  O   UNL A   1      34.454  23.531  22.184  1.00  0.00    -0.248 OA
ATOM     16  N   UNL A   1      32.918  25.098  22.193  1.00  0.00    -0.307 N 
ATOM     17  H   UNL A   1      32.479  24.674  21.419  1.00  0.00     0.171 HD
BRANCH  16  18
ATOM     18  C   UNL A   1      32.565  26.440  22.394  1.00  0.00     0.044 A 
ATOM     19  C   UNL A   1      33.525  27.411  22.677  1.00  0.00     0.026 A 
ATOM     20  C   UNL A   1      31.212  26.786  22.337  1.00  0.00     0.046 A 
ATOM     21  C   UNL A   1      33.131  28.705  23.014  1.00  0.00     0.004 A 
ATOM     22  C   UNL A   1      30.823  28.076  22.696  1.00  0.00     0.043 A 
ATOM     23  C   UNL A   1      31.775  29.032  23.050  1.00  0.00     0.020 A 
ATOM     24  Cl  UNL A   1      29.151  28.480  22.754  1.00  0.00    -0.084 Cl
ENDBRANCH  16  18
ENDBRANCH  12  14
ENDBRANCH  11  12
ENDBRANCH   4   6
ENDBRANCH   3   4
ENDBRANCH   2   3
ENDBRANCH   1   2
BRANCH   1  25
ATOM     25  O   UNL A   1      33.740  29.115  26.475  1.00  0.00    -0.374 OA
BRANCH  25  26
ATOM     26  C   UNL A   1      32.887  30.175  26.892  1.00  0.00     0.202 C 
BRANCH  26  27
ATOM     27  C   UNL A   1      33.505  31.448  27.429  1.00  0.00     0.261 C 
BRANCH  27  28
ATOM     28  O   UNL A   1      34.415  31.179  28.477  1.00  0.00    -0.460 OA
BRANCH  28  29
ATOM     29  C   UNL A   1      35.608  31.788  28.303  1.00  0.00     0.338 C 
ATOM     30  O   UNL A   1      35.876  32.702  27.547  1.00  0.00    -0.246 OA
BRANCH  29  31
ATOM     31  C   UNL A   1      36.614  31.005  29.018  1.00  0.00     0.060 A 
ATOM     32  C   UNL A   1      37.711  31.725  29.486  1.00  0.00     0.016 A 
ATOM     33  C   UNL A   1      36.629  29.608  28.874  1.00  0.00     0.016 A 
ATOM     34  C   UNL A   1      38.912  31.069  29.573  1.00  0.00     0.010 A 
ATOM     35  C   UNL A   1      37.832  28.958  28.947  1.00  0.00     0.010 A 
ATOM     36  C   UNL A   1      38.966  29.716  29.207  1.00  0.00    -0.014 A 
BRANCH  36  37
ATOM     37  C   UNL A   1      40.250  29.063  29.262  1.00  0.00     0.031 A 
ATOM     38  C   UNL A   1      40.711  28.920  30.659  1.00  0.00     0.074 A 
ATOM     39  C   UNL A   1      40.877  28.592  28.171  1.00  0.00     0.049 A 
ATOM     40  N   UNL A   1      41.676  29.561  31.226  1.00  0.00    -0.248 NA
ATOM     41  C   UNL A   1      39.858  28.163  31.590  1.00  0.00     0.031 C 
ATOM     42  C   UNL A   1      40.371  28.474  26.801  1.00  0.00     0.029 A 
ATOM     43  N   UNL A   1      42.113  28.033  28.086  1.00  0.00    -0.354 N 
ATOM     44  C   UNL A   1      41.686  29.119  32.542  1.00  0.00     0.074 A 
ATOM     45  C   UNL A   1      40.436  28.442  32.758  1.00  0.00     0.031 C 
ATOM     46  C   UNL A   1      41.199  27.675  26.087  1.00  0.00     0.029 A 
ATOM     47  C   UNL A   1      42.355  27.348  26.902  1.00  0.00     0.049 A 
ATOM     48  H   UNL A   1      42.781  28.107  28.805  1.00  0.00     0.167 HD
ATOM     49  C   UNL A   1      42.851  29.088  33.238  1.00  0.00     0.037 A 
ATOM     50  C   UNL A   1      43.403  26.514  26.678  1.00  0.00     0.037 A 
ATOM     51  C   UNL A   1      43.829  29.959  32.636  1.00  0.00     0.049 A 
ATOM     52  C   UNL A   1      44.449  26.853  27.681  1.00  0.00     0.074 A 
ATOM     53  C   UNL A   1      43.902  31.318  32.399  1.00  0.00     0.029 A 
ATOM     54  N   UNL A   1      44.764  29.379  31.813  1.00  0.00    -0.354 N 
ATOM     55  N   UNL A   1      45.103  27.982  27.686  1.00  0.00    -0.248 NA
ATOM     56  C   UNL A   1      44.416  26.143  28.952  1.00  0.00     0.031 C 
ATOM     57  C   UNL A   1      44.548  31.441  31.133  1.00  0.00     0.029 A 
ATOM     58  C   UNL A   1      44.900  30.162  30.698  1.00  0.00     0.049 A 
ATOM     59  H   UNL A   1      45.252  28.544  31.994  1.00  0.00     0.167 HD
ATOM     60  C   UNL A   1      45.186  28.334  29.027  1.00  0.00     0.074 A 
ATOM     61  C   UNL A   1      44.810  27.129  29.762  1.00  0.00     0.031 C 
ATOM     62  C   UNL A   1      45.260  29.644  29.400  1.00  0.00     0.037 A 
BRANCH  49  63
ATOM     63  C   UNL A   1      43.239  27.952  34.154  1.00  0.00     0.064 A 
ATOM     64  C   UNL A   1      43.445  26.679  33.590  1.00  0.00     0.173 A 
ATOM     65  C   UNL A   1      43.099  27.979  35.561  1.00  0.00     0.173 A 
ATOM     66  F   UNL A   1      43.579  26.532  32.263  1.00  0.00    -0.203 F 
ATOM     67  C   UNL A   1      43.412  25.517  34.364  1.00  0.00     0.198 A 
ATOM     68  C   UNL A   1      43.119  26.823  36.334  1.00  0.00     0.198 A 
ATOM     69  F   UNL A   1      42.821  29.096  36.240  1.00  0.00    -0.203 F 
ATOM     70  F   UNL A   1      43.470  24.320  33.765  1.00  0.00    -0.200 F 
ATOM     71  C   UNL A   1      43.239  25.589  35.734  1.00  0.00     0.200 A 
ATOM     72  F   UNL A   1      42.931  26.916  37.658  1.00  0.00    -0.200 F 
ATOM     73  F   UNL A   1      43.136  24.475  36.468  1.00  0.00    -0.200 F 
ENDBRANCH  49  63
BRANCH  50  74
ATOM     74  C   UNL A   1      43.412  25.228  25.937  1.00  0.00     0.064 A 
ATOM     75  C   UNL A   1      44.474  24.892  25.081  1.00  0.00     0.173 A 
ATOM     76  C   UNL A   1      42.533  24.180  26.277  1.00  0.00     0.173 A 
ATOM     77  F   UNL A   1      45.388  25.817  24.748  1.00  0.00    -0.203 F 
ATOM     78  C   UNL A   1      44.661  23.586  24.614  1.00  0.00     0.198 A 
ATOM     79  C   UNL A   1      42.717  22.878  25.808  1.00  0.00     0.198 A 
ATOM     80  F   UNL A   1      41.536  24.376  27.152  1.00  0.00    -0.203 F 
ATOM     81  F   UNL A   1      45.724  23.292  23.850  1.00  0.00    -0.200 F 
ATOM     82  C   UNL A   1      43.787  22.577  24.987  1.00  0.00     0.200 A 
ATOM     83  F   UNL A   1      41.888  21.903  26.209  1.00  0.00    -0.200 F 
ATOM     84  F   UNL A   1      44.001  21.314  24.593  1.00  0.00    -0.200 F 
ENDBRANCH  50  74
BRANCH  62  85
ATOM     85  C   UNL A   1      45.536  30.666  28.332  1.00  0.00     0.064 A 
ATOM     86  C   UNL A   1      44.548  31.255  27.526  1.00  0.00     0.173 A 
ATOM     87  C   UNL A   1      46.833  31.192  28.259  1.00  0.00     0.173 A 
ATOM     88  F   UNL A   1      43.270  30.863  27.603  1.00  0.00    -0.203 F 
ATOM     89  C   UNL A   1      44.855  32.314  26.671  1.00  0.00     0.198 A 
ATOM     90  C   UNL A   1      47.128  32.272  27.433  1.00  0.00     0.198 A 
ATOM     91  F   UNL A   1      47.803  30.697  29.043  1.00  0.00    -0.203 F 
ATOM     92  F   UNL A   1      43.897  32.868  25.913  1.00  0.00    -0.200 F 
ATOM     93  C   UNL A   1      46.142  32.830  26.636  1.00  0.00     0.200 A 
ATOM     94  F   UNL A   1      48.361  32.796  27.440  1.00  0.00    -0.200 F 
ATOM     95  F   UNL A   1      46.425  33.883  25.857  1.00  0.00    -0.200 F 
ENDBRANCH  62  85
ENDBRANCH  36  37
ENDBRANCH  29  31
ENDBRANCH  28  29
ENDBRANCH  27  28
ENDBRANCH  26  27
ENDBRANCH  25  26
ENDBRANCH   1  25
TORSDOF 17
ENDMDL
MODEL 2
REMARK VINA RESULT:     -11.7      3.302      8.690
REMARK SMILES Cc1nsc(N(C)C(=O)Nc2cccc(Cl)c2)c1C(=O)OCCOCCOC(=O)c1ccc(-c2c3nc(c(-c4c(F)c(F)c(F)c(F)c4F)c4ccc([nH]4)c(-c4c(F)c(F)c(F)c(F)c4F)c4nc(c(-c5c(F)c(F)c(F)c(F)c5F)c5ccc2[nH]5)C=C4)C=C3)cc1
REMARK SMILES IDX 23 1 22 2 21 3 19 4 20 5 18 6 1 7 2 8 3 9 4 10 5 11 6 12
REMARK SMILES IDX 7 13 8 14 9 15 10 16 11 18 12 19 17 20 13 21 15 22 14 23
REMARK SMILES IDX 16 24 24 25 25 26 26 27 27 28 28 29 29 30 30 31 31 32 92 33
REMARK SMILES IDX 32 34 91 35 33 36 34 37 35 38 85 39 36 40 90 41 84 42 86 43
REMARK SMILES IDX 37 44 89 45 83 46 82 47 38 49 70 50 50 51 69 52 51 53 54 54
REMARK SMILES IDX 68 55 87 56 52 57 53 58 67 60 88 61 55 62 39 63 40 64 48 65
REMARK SMILES IDX 41 66 42 67 46 68 49 69 43 70 44 71 47 72 45 73 71 74 72 75
REMARK SMILES IDX 80 76 73 77 74 78 78 79 81 80 75 81 76 82 79 83 77 84 56 85
REMARK SMILES IDX 57 86 65 87 58 88 59 89 63 90 66 91 60 92 61 93 64 94 62 95
REMARK H PARENT 10 17 86 48 54 59
REMARK Flexibility Score: inf
ROOT
ATOM      1  C   UNL A   1      36.575  23.233  24.046  1.00  0.00     0.202 C 
ENDROOT
BRANCH   1   2
ATOM      2  C   UNL A   1      35.154  22.920  23.566  1.00  0.00     0.261 C 
BRANCH   2   3
ATOM      3  O   UNL A   1      34.571  24.069  22.943  1.00  0.00    -0.460 OA
BRANCH   3   4
ATOM      4  C   UNL A   1      33.286  23.890  22.513  1.00  0.00     0.343 C 
ATOM      5  O   UNL A   1      32.853  22.870  22.001  1.00  0.00    -0.246 OA
BRANCH   4   6
ATOM      6  C   UNL A   1      32.522  25.119  22.618  1.00  0.00     0.118 A 
ATOM      7  C   UNL A   1      32.528  25.575  20.022  1.00  0.00     0.069 C 
ATOM      8  C   UNL A   1      32.129  25.858  21.432  1.00  0.00     0.068 A 
ATOM      9  N   UNL A   1      31.342  26.909  21.630  1.00  0.00    -0.195 NA
ATOM     10  S   UNL A   1      31.038  27.038  23.233  1.00  0.00    -0.017 S 
ATOM     11  C   UNL A   1      32.157  25.825  23.774  1.00  0.00     0.134 A 
BRANCH  11  12
ATOM     12  N   UNL A   1      32.478  25.824  25.177  1.00  0.00    -0.286 N 
ATOM     13  C   UNL A   1      33.859  26.117  25.610  1.00  0.00     0.156 C 
BRANCH  12  14
ATOM     14  C   UNL A   1      31.511  25.382  26.100  1.00  0.00     0.326 C 
ATOM     15  O   UNL A   1      30.786  26.121  26.763  1.00  0.00    -0.248 OA
ATOM     16  N   UNL A   1      31.163  24.052  26.137  1.00  0.00    -0.307 N 
ATOM     17  H   UNL A   1      30.193  23.884  26.106  1.00  0.00     0.171 HD
BRANCH  16  18
ATOM     18  C   UNL A   1      31.949  22.894  26.212  1.00  0.00     0.044 A 
ATOM     19  C   UNL A   1      32.910  22.728  27.210  1.00  0.00     0.026 A 
ATOM     20  C   UNL A   1      31.773  21.908  25.237  1.00  0.00     0.046 A 
ATOM     21  C   UNL A   1      33.772  21.634  27.173  1.00  0.00     0.004 A 
ATOM     22  C   UNL A   1      32.653  20.827  25.193  1.00  0.00     0.043 A 
ATOM     23  C   UNL A   1      33.661  20.695  26.148  1.00  0.00     0.020 A 
ATOM     24  Cl  UNL A   1      32.528  19.673  23.922  1.00  0.00    -0.084 Cl
ENDBRANCH  16  18
ENDBRANCH  12  14
ENDBRANCH  11  12
ENDBRANCH   4   6
ENDBRANCH   3   4
ENDBRANCH   2   3
ENDBRANCH   1   2
BRANCH   1  25
ATOM     25  O   UNL A   1      37.425  22.144  24.424  1.00  0.00    -0.374 OA
BRANCH  25  26
ATOM     26  C   UNL A   1      37.938  22.081  25.749  1.00  0.00     0.202 C 
BRANCH  26  27
ATOM     27  C   UNL A   1      39.256  21.380  25.995  1.00  0.00     0.261 C 
BRANCH  27  28
ATOM     28  O   UNL A   1      40.342  22.285  25.940  1.00  0.00    -0.460 OA
BRANCH  28  29
ATOM     29  C   UNL A   1      40.785  22.647  27.162  1.00  0.00     0.338 C 
ATOM     30  O   UNL A   1      40.770  21.991  28.186  1.00  0.00    -0.246 OA
BRANCH  29  31
ATOM     31  C   UNL A   1      41.086  24.077  27.120  1.00  0.00     0.060 A 
ATOM     32  C   UNL A   1      42.165  24.484  27.901  1.00  0.00     0.016 A 
ATOM     33  C   UNL A   1      40.112  24.971  26.647  1.00  0.00     0.016 A 
ATOM     34  C   UNL A   1      42.133  25.754  28.417  1.00  0.00     0.010 A 
ATOM     35  C   UNL A   1      40.074  26.234  27.175  1.00  0.00     0.010 A 
ATOM     36  C   UNL A   1      41.034  26.572  28.119  1.00  0.00    -0.014 A 
BRANCH  36  37
ATOM     37  C   UNL A   1      41.002  27.885  28.714  1.00  0.00     0.031 A 
ATOM     38  C   UNL A   1      42.075  28.740  28.165  1.00  0.00     0.074 A 
ATOM     39  C   UNL A   1      40.058  28.267  29.591  1.00  0.00     0.049 A 
ATOM     40  N   UNL A   1      43.138  29.138  28.777  1.00  0.00    -0.248 NA
ATOM     41  C   UNL A   1      42.088  28.980  26.712  1.00  0.00     0.031 C 
ATOM     42  C   UNL A   1      38.834  27.565  29.983  1.00  0.00     0.029 A 
ATOM     43  N   UNL A   1      39.967  29.440  30.272  1.00  0.00    -0.354 N 
ATOM     44  C   UNL A   1      43.853  29.867  27.835  1.00  0.00     0.074 A 
ATOM     45  C   UNL A   1      43.279  29.556  26.554  1.00  0.00     0.031 C 
ATOM     46  C   UNL A   1      38.021  28.423  30.646  1.00  0.00     0.029 A 
ATOM     47  C   UNL A   1      38.724  29.678  30.844  1.00  0.00     0.049 A 
ATOM     48  H   UNL A   1      40.720  30.068  30.352  1.00  0.00     0.167 HD
ATOM     49  C   UNL A   1      44.651  30.890  28.233  1.00  0.00     0.037 A 
ATOM     50  C   UNL A   1      38.312  30.864  31.361  1.00  0.00     0.037 A 
ATOM     51  C   UNL A   1      44.985  30.764  29.629  1.00  0.00     0.049 A 
ATOM     52  C   UNL A   1      39.536  31.659  31.650  1.00  0.00     0.074 A 
ATOM     53  C   UNL A   1      45.662  29.825  30.383  1.00  0.00     0.029 A 
ATOM     54  N   UNL A   1      44.254  31.511  30.520  1.00  0.00    -0.354 N 
ATOM     55  N   UNL A   1      40.401  31.340  32.574  1.00  0.00    -0.248 NA
ATOM     56  C   UNL A   1      40.041  32.525  30.594  1.00  0.00     0.031 C 
ATOM     57  C   UNL A   1      44.957  29.764  31.622  1.00  0.00     0.029 A 
ATOM     58  C   UNL A   1      43.937  30.716  31.589  1.00  0.00     0.049 A 
ATOM     59  H   UNL A   1      44.001  32.456  30.409  1.00  0.00     0.167 HD
ATOM     60  C   UNL A   1      41.639  31.593  32.000  1.00  0.00     0.074 A 
ATOM     61  C   UNL A   1      41.352  32.389  30.808  1.00  0.00     0.031 C 
ATOM     62  C   UNL A   1      42.741  30.884  32.380  1.00  0.00     0.037 A 
BRANCH  49  63
ATOM     63  C   UNL A   1      44.737  32.207  27.499  1.00  0.00     0.064 A 
ATOM     64  C   UNL A   1      45.887  32.472  26.731  1.00  0.00     0.173 A 
ATOM     65  C   UNL A   1      43.916  33.326  27.770  1.00  0.00     0.173 A 
ATOM     66  F   UNL A   1      46.745  31.487  26.424  1.00  0.00    -0.203 F 
ATOM     67  C   UNL A   1      46.238  33.769  26.354  1.00  0.00     0.198 A 
ATOM     68  C   UNL A   1      44.243  34.610  27.346  1.00  0.00     0.198 A 
ATOM     69  F   UNL A   1      42.831  33.257  28.549  1.00  0.00    -0.203 F 
ATOM     70  F   UNL A   1      47.412  33.989  25.749  1.00  0.00    -0.200 F 
ATOM     71  C   UNL A   1      45.421  34.839  26.670  1.00  0.00     0.200 A 
ATOM     72  F   UNL A   1      43.445  35.634  27.681  1.00  0.00    -0.200 F 
ATOM     73  F   UNL A   1      45.789  36.090  26.373  1.00  0.00    -0.200 F 
ENDBRANCH  49  63
BRANCH  50  74
ATOM     74  C   UNL A   1      36.971  31.493  31.262  1.00  0.00     0.064 A 
ATOM     75  C   UNL A   1      36.253  31.851  32.416  1.00  0.00     0.173 A 
ATOM     76  C   UNL A   1      36.498  32.023  30.046  1.00  0.00     0.173 A 
ATOM     77  F   UNL A   1      36.666  31.433  33.622  1.00  0.00    -0.203 F 
ATOM     78  C   UNL A   1      35.145  32.705  32.360  1.00  0.00     0.198 A 
ATOM     79  C   UNL A   1      35.390  32.872  29.990  1.00  0.00     0.198 A 
ATOM     80  F   UNL A   1      37.159  31.810  28.899  1.00  0.00    -0.203 F 
ATOM     81  F   UNL A   1      34.525  33.075  33.490  1.00  0.00    -0.200 F 
ATOM     82  C   UNL A   1      34.722  33.224  31.147  1.00  0.00     0.200 A 
ATOM     83  F   UNL A   1      35.016  33.399  28.815  1.00  0.00    -0.200 F 
ATOM     84  F   UNL A   1      33.702  34.092  31.099  1.00  0.00    -0.200 F 
ENDBRANCH  50  74
BRANCH  62  85
ATOM     85  C   UNL A   1      42.642  30.038  33.618  1.00  0.00     0.064 A 
ATOM     86  C   UNL A   1      42.806  30.526  34.926  1.00  0.00     0.173 A 
ATOM     87  C   UNL A   1      42.186  28.722  33.469  1.00  0.00     0.173 A 
ATOM     88  F   UNL A   1      43.158  31.799  35.149  1.00  0.00    -0.203 F 
ATOM     89  C   UNL A   1      42.539  29.720  36.032  1.00  0.00     0.198 A 
ATOM     90  C   UNL A   1      41.885  27.933  34.574  1.00  0.00     0.198 A 
ATOM     91  F   UNL A   1      41.967  28.222  32.243  1.00  0.00    -0.203 F 
ATOM     92  F   UNL A   1      42.696  30.205  37.274  1.00  0.00    -0.200 F 
ATOM     93  C   UNL A   1      42.066  28.428  35.855  1.00  0.00     0.200 A 
ATOM     94  F   UNL A   1      41.382  26.703  34.396  1.00  0.00    -0.200 F 
ATOM     95  F   UNL A   1      41.756  27.673  36.917  1.00  0.00    -0.200 F 
ENDBRANCH  62  85
ENDBRANCH  36  37
ENDBRANCH  29  31
ENDBRANCH  28  29
ENDBRANCH  27  28
ENDBRANCH  26  27
ENDBRANCH  25  26
ENDBRANCH   1  25
TORSDOF 17
ENDMDL
MODEL 3
REMARK VINA RESULT:     -11.6      3.277      8.512
REMARK SMILES Cc1nsc(N(C)C(=O)Nc2cccc(Cl)c2)c1C(=O)OCCOCCOC(=O)c1ccc(-c2c3nc(c(-c4c(F)c(F)c(F)c(F)c4F)c4ccc([nH]4)c(-c4c(F)c(F)c(F)c(F)c4F)c4nc(c(-c5c(F)c(F)c(F)c(F)c5F)c5ccc2[nH]5)C=C4)C=C3)cc1
REMARK SMILES IDX 23 1 22 2 21 3 19 4 20 5 18 6 1 7 2 8 3 9 4 10 5 11 6 12
REMARK SMILES IDX 7 13 8 14 9 15 10 16 11 18 12 19 17 20 13 21 15 22 14 23
REMARK SMILES IDX 16 24 24 25 25 26 26 27 27 28 28 29 29 30 30 31 31 32 92 33
REMARK SMILES IDX 32 34 91 35 33 36 34 37 35 38 85 39 36 40 90 41 84 42 86 43
REMARK SMILES IDX 37 44 89 45 83 46 82 47 38 49 70 50 50 51 69 52 51 53 54 54
REMARK SMILES IDX 68 55 87 56 52 57 53 58 67 60 88 61 55 62 39 63 40 64 48 65
REMARK SMILES IDX 41 66 42 67 46 68 49 69 43 70 44 71 47 72 45 73 71 74 72 75
REMARK SMILES IDX 80 76 73 77 74 78 78 79 81 80 75 81 76 82 79 83 77 84 56 85
REMARK SMILES IDX 57 86 65 87 58 88 59 89 63 90 66 91 60 92 61 93 64 94 62 95
REMARK H PARENT 10 17 86 48 54 59
REMARK Flexibility Score: inf
ROOT
ATOM      1  C   UNL A   1      36.295  22.586  24.241  1.00  0.00     0.202 C 
ENDROOT
BRANCH   1   2
ATOM      2  C   UNL A   1      35.629  22.971  22.916  1.00  0.00     0.261 C 
BRANCH   2   3
ATOM      3  O   UNL A   1      34.818  24.138  23.082  1.00  0.00    -0.460 OA
BRANCH   3   4
ATOM      4  C   UNL A   1      33.584  24.059  22.500  1.00  0.00     0.343 C 
ATOM      5  O   UNL A   1      33.381  23.878  21.310  1.00  0.00    -0.246 OA
BRANCH   4   6
ATOM      6  C   UNL A   1      32.534  24.354  23.455  1.00  0.00     0.118 A 
ATOM      7  C   UNL A   1      32.147  21.829  24.106  1.00  0.00     0.069 C 
ATOM      8  C   UNL A   1      31.918  23.298  24.238  1.00  0.00     0.068 A 
ATOM      9  N   UNL A   1      31.044  23.684  25.160  1.00  0.00    -0.195 NA
ATOM     10  S   UNL A   1      30.941  25.317  25.127  1.00  0.00    -0.017 S 
ATOM     11  C   UNL A   1      31.889  25.576  23.696  1.00  0.00     0.134 A 
BRANCH  11  12
ATOM     12  N   UNL A   1      31.792  26.875  23.084  1.00  0.00    -0.286 N 
ATOM     13  C   UNL A   1      30.490  27.345  22.570  1.00  0.00     0.156 C 
BRANCH  12  14
ATOM     14  C   UNL A   1      32.971  27.606  22.839  1.00  0.00     0.326 C 
ATOM     15  O   UNL A   1      33.797  27.331  21.970  1.00  0.00    -0.248 OA
ATOM     16  N   UNL A   1      33.146  28.834  23.430  1.00  0.00    -0.307 N 
ATOM     17  H   UNL A   1      33.406  29.552  22.807  1.00  0.00     0.171 HD
BRANCH  16  18
ATOM     18  C   UNL A   1      33.019  29.243  24.764  1.00  0.00     0.044 A 
ATOM     19  C   UNL A   1      31.884  29.916  25.216  1.00  0.00     0.026 A 
ATOM     20  C   UNL A   1      34.079  28.990  25.640  1.00  0.00     0.046 A 
ATOM     21  C   UNL A   1      31.849  30.437  26.508  1.00  0.00     0.004 A 
ATOM     22  C   UNL A   1      34.046  29.531  26.925  1.00  0.00     0.043 A 
ATOM     23  C   UNL A   1      32.943  30.266  27.356  1.00  0.00     0.020 A 
ATOM     24  Cl  UNL A   1      35.400  29.335  27.970  1.00  0.00    -0.084 Cl
ENDBRANCH  16  18
ENDBRANCH  12  14
ENDBRANCH  11  12
ENDBRANCH   4   6
ENDBRANCH   3   4
ENDBRANCH   2   3
ENDBRANCH   1   2
BRANCH   1  25
ATOM     25  O   UNL A   1      37.353  21.621  24.221  1.00  0.00    -0.374 OA
BRANCH  25  26
ATOM     26  C   UNL A   1      37.817  21.063  25.444  1.00  0.00     0.202 C 
BRANCH  26  27
ATOM     27  C   UNL A   1      39.249  21.309  25.868  1.00  0.00     0.261 C 
BRANCH  27  28
ATOM     28  O   UNL A   1      39.439  22.641  26.301  1.00  0.00    -0.460 OA
BRANCH  28  29
ATOM     29  C   UNL A   1      40.455  22.765  27.182  1.00  0.00     0.338 C 
ATOM     30  O   UNL A   1      40.851  21.942  27.985  1.00  0.00    -0.246 OA
BRANCH  29  31
ATOM     31  C   UNL A   1      40.872  24.166  27.184  1.00  0.00     0.060 A 
ATOM     32  C   UNL A   1      41.871  24.492  28.099  1.00  0.00     0.016 A 
ATOM     33  C   UNL A   1      40.042  25.131  26.591  1.00  0.00     0.016 A 
ATOM     34  C   UNL A   1      41.874  25.764  28.611  1.00  0.00     0.010 A 
ATOM     35  C   UNL A   1      40.037  26.397  27.115  1.00  0.00     0.010 A 
ATOM     36  C   UNL A   1      40.891  26.665  28.176  1.00  0.00    -0.014 A 
BRANCH  36  37
ATOM     37  C   UNL A   1      40.888  27.980  28.766  1.00  0.00     0.031 A 
ATOM     38  C   UNL A   1      41.980  28.809  28.216  1.00  0.00     0.074 A 
ATOM     39  C   UNL A   1      39.951  28.386  29.641  1.00  0.00     0.049 A 
ATOM     40  N   UNL A   1      43.051  29.186  28.827  1.00  0.00    -0.248 NA
ATOM     41  C   UNL A   1      41.999  29.043  26.762  1.00  0.00     0.031 C 
ATOM     42  C   UNL A   1      38.711  27.713  30.034  1.00  0.00     0.029 A 
ATOM     43  N   UNL A   1      39.886  29.563  30.317  1.00  0.00    -0.354 N 
ATOM     44  C   UNL A   1      43.782  29.895  27.883  1.00  0.00     0.074 A 
ATOM     45  C   UNL A   1      43.203  29.593  26.603  1.00  0.00     0.031 C 
ATOM     46  C   UNL A   1      37.917  28.591  30.693  1.00  0.00     0.029 A 
ATOM     47  C   UNL A   1      38.647  29.831  30.887  1.00  0.00     0.049 A 
ATOM     48  H   UNL A   1      40.652  30.175  30.396  1.00  0.00     0.167 HD
ATOM     49  C   UNL A   1      44.602  30.902  28.278  1.00  0.00     0.037 A 
ATOM     50  C   UNL A   1      38.262  31.028  31.399  1.00  0.00     0.037 A 
ATOM     51  C   UNL A   1      44.933  30.774  29.675  1.00  0.00     0.049 A 
ATOM     52  C   UNL A   1      39.503  31.797  31.687  1.00  0.00     0.074 A 
ATOM     53  C   UNL A   1      45.587  29.823  30.433  1.00  0.00     0.029 A 
ATOM     54  N   UNL A   1      44.217  31.540  30.562  1.00  0.00    -0.354 N 
ATOM     55  N   UNL A   1      40.359  31.462  32.613  1.00  0.00    -0.248 NA
ATOM     56  C   UNL A   1      40.027  32.647  30.628  1.00  0.00     0.031 C 
ATOM     57  C   UNL A   1      44.881  29.782  31.671  1.00  0.00     0.029 A 
ATOM     58  C   UNL A   1      43.881  30.756  31.634  1.00  0.00     0.049 A 
ATOM     59  H   UNL A   1      43.985  32.490  30.448  1.00  0.00     0.167 HD
ATOM     60  C   UNL A   1      41.603  31.685  32.039  1.00  0.00     0.074 A 
ATOM     61  C   UNL A   1      41.335  32.482  30.844  1.00  0.00     0.031 C 
ATOM     62  C   UNL A   1      42.689  30.954  32.423  1.00  0.00     0.037 A 
BRANCH  49  63
ATOM     63  C   UNL A   1      44.718  32.214  27.539  1.00  0.00     0.064 A 
ATOM     64  C   UNL A   1      45.881  32.456  26.783  1.00  0.00     0.173 A 
ATOM     65  C   UNL A   1      43.913  33.347  27.796  1.00  0.00     0.173 A 
ATOM     66  F   UNL A   1      46.726  31.456  26.490  1.00  0.00    -0.203 F 
ATOM     67  C   UNL A   1      46.257  33.746  26.405  1.00  0.00     0.198 A 
ATOM     68  C   UNL A   1      44.265  34.624  27.371  1.00  0.00     0.198 A 
ATOM     69  F   UNL A   1      42.818  33.300  28.563  1.00  0.00    -0.203 F 
ATOM     70  F   UNL A   1      47.442  33.944  25.813  1.00  0.00    -0.200 F 
ATOM     71  C   UNL A   1      45.454  34.830  26.707  1.00  0.00     0.200 A 
ATOM     72  F   UNL A   1      43.480  35.662  27.692  1.00  0.00    -0.200 F 
ATOM     73  F   UNL A   1      45.846  36.075  26.408  1.00  0.00    -0.200 F 
ENDBRANCH  49  63
BRANCH  50  74
ATOM     74  C   UNL A   1      36.935  31.686  31.297  1.00  0.00     0.064 A 
ATOM     75  C   UNL A   1      36.204  32.024  32.449  1.00  0.00     0.173 A 
ATOM     76  C   UNL A   1      36.493  32.261  30.089  1.00  0.00     0.173 A 
ATOM     77  F   UNL A   1      36.588  31.563  33.649  1.00  0.00    -0.203 F 
ATOM     78  C   UNL A   1      35.114  32.901  32.400  1.00  0.00     0.198 A 
ATOM     79  C   UNL A   1      35.403  33.133  30.040  1.00  0.00     0.198 A 
ATOM     80  F   UNL A   1      37.169  32.068  28.948  1.00  0.00    -0.203 F 
ATOM     81  F   UNL A   1      34.482  33.250  33.530  1.00  0.00    -0.200 F 
ATOM     82  C   UNL A   1      34.722  33.464  31.196  1.00  0.00     0.200 A 
ATOM     83  F   UNL A   1      35.060  33.701  28.875  1.00  0.00    -0.200 F 
ATOM     84  F   UNL A   1      33.720  34.353  31.156  1.00  0.00    -0.200 F 
ENDBRANCH  50  74
BRANCH  62  85
ATOM     85  C   UNL A   1      42.570  30.114  33.665  1.00  0.00     0.064 A 
ATOM     86  C   UNL A   1      42.738  30.604  34.970  1.00  0.00     0.173 A 
ATOM     87  C   UNL A   1      42.090  28.806  33.519  1.00  0.00     0.173 A 
ATOM     88  F   UNL A   1      43.113  31.871  35.190  1.00  0.00    -0.203 F 
ATOM     89  C   UNL A   1      42.452  29.808  36.079  1.00  0.00     0.198 A 
ATOM     90  C   UNL A   1      41.771  28.027  34.626  1.00  0.00     0.198 A 
ATOM     91  F   UNL A   1      41.866  28.306  32.294  1.00  0.00    -0.203 F 
ATOM     92  F   UNL A   1      42.614  30.295  37.319  1.00  0.00    -0.200 F 
ATOM     93  C   UNL A   1      41.957  28.525  35.906  1.00  0.00     0.200 A 
ATOM     94  F   UNL A   1      41.246  26.807  34.451  1.00  0.00    -0.200 F 
ATOM     95  F   UNL A   1      41.629  27.779  36.970  1.00  0.00    -0.200 F 
ENDBRANCH  62  85
ENDBRANCH  36  37
ENDBRANCH  29  31
ENDBRANCH  28  29
ENDBRANCH  27  28
ENDBRANCH  26  27
ENDBRANCH  25  26
ENDBRANCH   1  25
TORSDOF 17
ENDMDL
