MODEL 1
REMARK VINA RESULT:     -11.9      0.000      0.000
REMARK SMILES C[C@H]1[C@H](C(=O)OCCOCCOC(=O)c2ccc(-c3c4nc(c(-c5c(F)c(F)c(F)c(F)c5F)c5ccc([nH]5)c(-c5c(F)c(F)c(F)c(F)c5F)c5nc(c(-c6c(F)c(F)c(F)c(F)c6F)c6ccc3[nH]6)C=C5)C=C4)cc2)CC[N@@H+]1Cc1nnnn1-c1ccccc1
REMARK SMILES IDX 8 1 7 2 6 3 4 4 5 5 3 6 1 7 2 8 80 9 78 10 79 11 81 13 82 14
REMARK SMILES IDX 83 15 86 16 84 17 85 18 87 19 88 20 92 21 89 22 91 23 90 24
REMARK SMILES IDX 9 25 10 26 11 27 12 28 13 29 14 30 15 31 16 32 77 33 17 34
REMARK SMILES IDX 76 35 18 36 19 37 20 38 70 39 21 40 75 41 69 42 71 43 22 44
REMARK SMILES IDX 74 45 68 46 67 47 23 49 55 50 35 51 54 52 36 53 39 54 53 55
REMARK SMILES IDX 72 56 37 57 38 58 52 60 73 61 40 62 24 63 25 64 33 65 26 66
REMARK SMILES IDX 27 67 31 68 34 69 28 70 29 71 32 72 30 73 56 74 57 75 65 76
REMARK SMILES IDX 58 77 59 78 63 79 66 80 60 81 61 82 64 83 62 84 41 85 42 86
REMARK SMILES IDX 50 87 43 88 44 89 48 90 51 91 45 92 46 93 49 94 47 95
REMARK H PARENT 80 12 71 48 39 59
REMARK Flexibility Score: inf
ROOT
ATOM      1  C   UNL A   1      33.460  19.771  24.771  1.00  0.00     0.202 C 
ENDROOT
BRANCH   1   2
ATOM      2  C   UNL A   1      33.087  21.214  25.118  1.00  0.00     0.261 C 
BRANCH   2   3
ATOM      3  O   UNL A   1      32.672  21.895  23.923  1.00  0.00    -0.463 OA
BRANCH   3   4
ATOM      4  C   UNL A   1      32.159  23.134  24.071  1.00  0.00     0.315 C 
ATOM      5  O   UNL A   1      31.226  23.590  23.418  1.00  0.00    -0.252 OA
BRANCH   4   6
ATOM      6  C   UNL A   1      32.836  23.927  25.174  1.00  0.00     0.162 C 
ATOM      7  C   UNL A   1      35.262  24.422  25.676  1.00  0.00     0.076 C 
ATOM      8  C   UNL A   1      34.057  24.791  24.794  1.00  0.00     0.195 C 
ATOM      9  N   UNL A   1      33.706  26.180  25.120  1.00  0.00    -0.326 N 
ATOM     10  C   UNL A   1      31.829  24.889  25.788  1.00  0.00     0.083 C 
ATOM     11  C   UNL A   1      32.605  26.157  26.068  1.00  0.00     0.263 C 
ATOM     12  H   UNL A   1      34.499  26.623  25.584  1.00  0.00     0.348 HD
BRANCH   9  13
ATOM     13  C   UNL A   1      33.641  27.126  23.999  1.00  0.00     0.343 C 
BRANCH  13  14
ATOM     14  C   UNL A   1      33.174  26.630  22.671  1.00  0.00     0.210 A 
ATOM     15  N   UNL A   1      33.912  25.938  21.819  1.00  0.00    -0.107 NA
ATOM     16  N   UNL A   1      31.897  26.724  22.143  1.00  0.00    -0.192 N 
ATOM     17  N   UNL A   1      33.072  25.517  20.827  1.00  0.00    -0.023 NA
ATOM     18  N   UNL A   1      31.833  25.921  21.055  1.00  0.00    -0.040 NA
BRANCH  16  19
ATOM     19  C   UNL A   1      30.758  27.409  22.614  1.00  0.00     0.069 A 
ATOM     20  C   UNL A   1      30.623  28.772  22.317  1.00  0.00     0.028 A 
ATOM     21  C   UNL A   1      29.739  26.734  23.292  1.00  0.00     0.028 A 
ATOM     22  C   UNL A   1      29.412  29.416  22.579  1.00  0.00     0.002 A 
ATOM     23  C   UNL A   1      28.545  27.395  23.582  1.00  0.00     0.002 A 
ATOM     24  C   UNL A   1      28.372  28.724  23.197  1.00  0.00     0.000 A 
ENDBRANCH  16  19
ENDBRANCH  13  14
ENDBRANCH   9  13
ENDBRANCH   4   6
ENDBRANCH   3   4
ENDBRANCH   2   3
ENDBRANCH   1   2
BRANCH   1  25
ATOM     25  O   UNL A   1      34.863  19.517  24.636  1.00  0.00    -0.374 OA
BRANCH  25  26
ATOM     26  C   UNL A   1      35.762  20.545  25.048  1.00  0.00     0.202 C 
BRANCH  26  27
ATOM     27  C   UNL A   1      37.256  20.221  24.952  1.00  0.00     0.261 C 
BRANCH  27  28
ATOM     28  O   UNL A   1      38.088  21.380  25.133  1.00  0.00    -0.460 OA
BRANCH  28  29
ATOM     29  C   UNL A   1      39.148  21.173  25.947  1.00  0.00     0.338 C 
ATOM     30  O   UNL A   1      39.788  20.134  26.075  1.00  0.00    -0.246 OA
BRANCH  29  31
ATOM     31  C   UNL A   1      39.567  22.412  26.622  1.00  0.00     0.060 A 
ATOM     32  C   UNL A   1      38.994  23.604  26.162  1.00  0.00     0.016 A 
ATOM     33  C   UNL A   1      40.597  22.439  27.568  1.00  0.00     0.016 A 
ATOM     34  C   UNL A   1      39.508  24.829  26.572  1.00  0.00     0.010 A 
ATOM     35  C   UNL A   1      41.115  23.676  27.979  1.00  0.00     0.010 A 
ATOM     36  C   UNL A   1      40.610  24.871  27.436  1.00  0.00    -0.014 A 
BRANCH  36  37
ATOM     37  C   UNL A   1      41.328  26.162  27.594  1.00  0.00     0.031 A 
ATOM     38  C   UNL A   1      40.664  27.276  28.360  1.00  0.00     0.074 A 
ATOM     39  C   UNL A   1      42.591  26.305  27.157  1.00  0.00     0.049 A 
ATOM     40  N   UNL A   1      41.137  28.448  28.703  1.00  0.00    -0.248 NA
ATOM     41  C   UNL A   1      39.282  27.036  28.801  1.00  0.00     0.031 C 
ATOM     42  C   UNL A   1      43.353  25.289  26.435  1.00  0.00     0.029 A 
ATOM     43  N   UNL A   1      43.459  27.360  27.278  1.00  0.00    -0.354 N 
ATOM     44  C   UNL A   1      40.116  29.079  29.400  1.00  0.00     0.074 A 
ATOM     45  C   UNL A   1      38.983  28.179  29.400  1.00  0.00     0.031 C 
ATOM     46  C   UNL A   1      44.583  25.769  26.182  1.00  0.00     0.029 A 
ATOM     47  C   UNL A   1      44.687  27.128  26.711  1.00  0.00     0.049 A 
ATOM     48  H   UNL A   1      43.224  28.204  27.727  1.00  0.00     0.167 HD
ATOM     49  C   UNL A   1      40.124  30.293  30.003  1.00  0.00     0.037 A 
ATOM     50  C   UNL A   1      45.771  27.924  26.631  1.00  0.00     0.037 A 
ATOM     51  C   UNL A   1      41.251  31.187  30.013  1.00  0.00     0.049 A 
ATOM     52  C   UNL A   1      45.741  29.286  27.273  1.00  0.00     0.074 A 
ATOM     53  C   UNL A   1      41.360  32.433  30.606  1.00  0.00     0.029 A 
ATOM     54  N   UNL A   1      42.466  30.929  29.397  1.00  0.00    -0.354 N 
ATOM     55  N   UNL A   1      44.781  29.861  27.956  1.00  0.00    -0.248 NA
ATOM     56  C   UNL A   1      46.955  30.105  27.142  1.00  0.00     0.031 C 
ATOM     57  C   UNL A   1      42.628  32.948  30.313  1.00  0.00     0.029 A 
ATOM     58  C   UNL A   1      43.324  32.002  29.578  1.00  0.00     0.049 A 
ATOM     59  H   UNL A   1      42.685  30.107  28.903  1.00  0.00     0.167 HD
ATOM     60  C   UNL A   1      45.281  31.093  28.357  1.00  0.00     0.074 A 
ATOM     61  C   UNL A   1      46.637  31.176  27.855  1.00  0.00     0.031 C 
ATOM     62  C   UNL A   1      44.673  32.068  29.077  1.00  0.00     0.037 A 
BRANCH  49  63
ATOM     63  C   UNL A   1      38.863  30.732  30.689  1.00  0.00     0.064 A 
ATOM     64  C   UNL A   1      37.796  31.299  29.976  1.00  0.00     0.173 A 
ATOM     65  C   UNL A   1      38.711  30.557  32.072  1.00  0.00     0.173 A 
ATOM     66  F   UNL A   1      37.899  31.501  28.654  1.00  0.00    -0.203 F 
ATOM     67  C   UNL A   1      36.631  31.697  30.628  1.00  0.00     0.198 A 
ATOM     68  C   UNL A   1      37.535  30.931  32.716  1.00  0.00     0.198 A 
ATOM     69  F   UNL A   1      39.700  30.015  32.799  1.00  0.00    -0.203 F 
ATOM     70  F   UNL A   1      35.641  32.277  29.935  1.00  0.00    -0.200 F 
ATOM     71  C   UNL A   1      36.499  31.507  31.996  1.00  0.00     0.200 A 
ATOM     72  F   UNL A   1      37.403  30.737  34.036  1.00  0.00    -0.200 F 
ATOM     73  F   UNL A   1      35.375  31.886  32.620  1.00  0.00    -0.200 F 
ENDBRANCH  49  63
BRANCH  50  74
ATOM     74  C   UNL A   1      46.987  27.448  25.921  1.00  0.00     0.064 A 
ATOM     75  C   UNL A   1      48.030  26.818  26.612  1.00  0.00     0.173 A 
ATOM     76  C   UNL A   1      47.136  27.634  24.539  1.00  0.00     0.173 A 
ATOM     77  F   UNL A   1      47.946  26.643  27.940  1.00  0.00    -0.203 F 
ATOM     78  C   UNL A   1      49.186  26.408  25.950  1.00  0.00     0.198 A 
ATOM     79  C   UNL A   1      48.280  27.199  23.875  1.00  0.00     0.198 A 
ATOM     80  F   UNL A   1      46.168  28.237  23.835  1.00  0.00    -0.203 F 
ATOM     81  F   UNL A   1      50.190  25.851  26.642  1.00  0.00    -0.200 F 
ATOM     82  C   UNL A   1      49.308  26.593  24.582  1.00  0.00     0.200 A 
ATOM     83  F   UNL A   1      48.390  27.375  22.550  1.00  0.00    -0.200 F 
ATOM     84  F   UNL A   1      50.419  26.200  23.946  1.00  0.00    -0.200 F 
ENDBRANCH  50  74
BRANCH  62  85
ATOM     85  C   UNL A   1      45.480  33.295  29.394  1.00  0.00     0.064 A 
ATOM     86  C   UNL A   1      45.466  34.420  28.558  1.00  0.00     0.173 A 
ATOM     87  C   UNL A   1      46.255  33.354  30.562  1.00  0.00     0.173 A 
ATOM     88  F   UNL A   1      44.751  34.409  27.423  1.00  0.00    -0.203 F 
ATOM     89  C   UNL A   1      46.222  35.549  28.864  1.00  0.00     0.198 A 
ATOM     90  C   UNL A   1      46.987  34.494  30.880  1.00  0.00     0.198 A 
ATOM     91  F   UNL A   1      46.296  32.306  31.400  1.00  0.00    -0.203 F 
ATOM     92  F   UNL A   1      46.233  36.594  28.025  1.00  0.00    -0.200 F 
ATOM     93  C   UNL A   1      46.977  35.587  30.027  1.00  0.00     0.200 A 
ATOM     94  F   UNL A   1      47.707  34.534  32.010  1.00  0.00    -0.200 F 
ATOM     95  F   UNL A   1      47.703  36.674  30.321  1.00  0.00    -0.200 F 
ENDBRANCH  62  85
ENDBRANCH  36  37
ENDBRANCH  29  31
ENDBRANCH  28  29
ENDBRANCH  27  28
ENDBRANCH  26  27
ENDBRANCH  25  26
ENDBRANCH   1  25
TORSDOF 17
ENDMDL
MODEL 2
REMARK VINA RESULT:     -11.6      4.556      7.596
REMARK SMILES C[C@H]1[C@H](C(=O)OCCOCCOC(=O)c2ccc(-c3c4nc(c(-c5c(F)c(F)c(F)c(F)c5F)c5ccc([nH]5)c(-c5c(F)c(F)c(F)c(F)c5F)c5nc(c(-c6c(F)c(F)c(F)c(F)c6F)c6ccc3[nH]6)C=C5)C=C4)cc2)CC[N@@H+]1Cc1nnnn1-c1ccccc1
REMARK SMILES IDX 8 1 7 2 6 3 4 4 5 5 3 6 1 7 2 8 80 9 78 10 79 11 81 13 82 14
REMARK SMILES IDX 83 15 86 16 84 17 85 18 87 19 88 20 92 21 89 22 91 23 90 24
REMARK SMILES IDX 9 25 10 26 11 27 12 28 13 29 14 30 15 31 16 32 77 33 17 34
REMARK SMILES IDX 76 35 18 36 19 37 20 38 70 39 21 40 75 41 69 42 71 43 22 44
REMARK SMILES IDX 74 45 68 46 67 47 23 49 55 50 35 51 54 52 36 53 39 54 53 55
REMARK SMILES IDX 72 56 37 57 38 58 52 60 73 61 40 62 24 63 25 64 33 65 26 66
REMARK SMILES IDX 27 67 31 68 34 69 28 70 29 71 32 72 30 73 56 74 57 75 65 76
REMARK SMILES IDX 58 77 59 78 63 79 66 80 60 81 61 82 64 83 62 84 41 85 42 86
REMARK SMILES IDX 50 87 43 88 44 89 48 90 51 91 45 92 46 93 49 94 47 95
REMARK H PARENT 80 12 71 48 39 59
REMARK Flexibility Score: inf
ROOT
ATOM      1  C   UNL A   1      32.837  29.485  27.241  1.00  0.00     0.202 C 
ENDROOT
BRANCH   1   2
ATOM      2  C   UNL A   1      33.813  28.406  26.768  1.00  0.00     0.261 C 
BRANCH   2   3
ATOM      3  O   UNL A   1      33.302  27.800  25.570  1.00  0.00    -0.463 OA
BRANCH   3   4
ATOM      4  C   UNL A   1      33.394  26.457  25.476  1.00  0.00     0.315 C 
ATOM      5  O   UNL A   1      34.352  25.850  25.008  1.00  0.00    -0.252 OA
BRANCH   4   6
ATOM      6  C   UNL A   1      32.186  25.739  26.050  1.00  0.00     0.162 C 
ATOM      7  C   UNL A   1      29.708  26.218  25.943  1.00  0.00     0.076 C 
ATOM      8  C   UNL A   1      30.917  25.655  25.176  1.00  0.00     0.195 C 
ATOM      9  N   UNL A   1      30.650  24.228  24.958  1.00  0.00    -0.326 N 
ATOM     10  C   UNL A   1      32.563  24.298  26.363  1.00  0.00     0.083 C 
ATOM     11  C   UNL A   1      31.351  23.476  25.986  1.00  0.00     0.263 C 
ATOM     12  H   UNL A   1      29.653  24.053  25.081  1.00  0.00     0.348 HD
BRANCH   9  13
ATOM     13  C   UNL A   1      30.718  23.745  23.574  1.00  0.00     0.343 C 
BRANCH  13  14
ATOM     14  C   UNL A   1      31.993  23.919  22.819  1.00  0.00     0.210 A 
ATOM     15  N   UNL A   1      32.284  24.956  22.050  1.00  0.00    -0.107 NA
ATOM     16  N   UNL A   1      33.107  23.094  22.853  1.00  0.00    -0.192 N 
ATOM     17  N   UNL A   1      33.598  24.827  21.702  1.00  0.00    -0.023 NA
ATOM     18  N   UNL A   1      34.128  23.744  22.247  1.00  0.00    -0.040 NA
BRANCH  16  19
ATOM     19  C   UNL A   1      33.299  21.838  23.463  1.00  0.00     0.069 A 
ATOM     20  C   UNL A   1      34.341  21.693  24.389  1.00  0.00     0.028 A 
ATOM     21  C   UNL A   1      32.423  20.776  23.220  1.00  0.00     0.028 A 
ATOM     22  C   UNL A   1      34.416  20.534  25.164  1.00  0.00     0.002 A 
ATOM     23  C   UNL A   1      32.527  19.607  23.975  1.00  0.00     0.002 A 
ATOM     24  C   UNL A   1      33.502  19.500  24.966  1.00  0.00     0.000 A 
ENDBRANCH  16  19
ENDBRANCH  13  14
ENDBRANCH   9  13
ENDBRANCH   4   6
ENDBRANCH   3   4
ENDBRANCH   2   3
ENDBRANCH   1   2
BRANCH   1  25
ATOM     25  O   UNL A   1      32.785  30.663  26.429  1.00  0.00    -0.374 OA
BRANCH  25  26
ATOM     26  C   UNL A   1      31.636  31.499  26.553  1.00  0.00     0.202 C 
BRANCH  26  27
ATOM     27  C   UNL A   1      31.867  32.889  27.156  1.00  0.00     0.261 C 
BRANCH  27  28
ATOM     28  O   UNL A   1      33.243  33.300  27.090  1.00  0.00    -0.460 OA
BRANCH  28  29
ATOM     29  C   UNL A   1      33.809  33.519  28.299  1.00  0.00     0.338 C 
ATOM     30  O   UNL A   1      33.321  34.137  29.240  1.00  0.00    -0.246 OA
BRANCH  29  31
ATOM     31  C   UNL A   1      35.092  32.811  28.438  1.00  0.00     0.060 A 
ATOM     32  C   UNL A   1      35.031  31.482  28.874  1.00  0.00     0.016 A 
ATOM     33  C   UNL A   1      36.324  33.456  28.299  1.00  0.00     0.016 A 
ATOM     34  C   UNL A   1      36.192  30.822  29.263  1.00  0.00     0.010 A 
ATOM     35  C   UNL A   1      37.493  32.790  28.692  1.00  0.00     0.010 A 
ATOM     36  C   UNL A   1      37.421  31.492  29.231  1.00  0.00    -0.014 A 
BRANCH  36  37
ATOM     37  C   UNL A   1      38.572  30.882  29.945  1.00  0.00     0.031 A 
ATOM     38  C   UNL A   1      38.783  31.209  31.400  1.00  0.00     0.074 A 
ATOM     39  C   UNL A   1      39.353  29.971  29.340  1.00  0.00     0.049 A 
ATOM     40  N   UNL A   1      39.658  30.723  32.245  1.00  0.00    -0.248 NA
ATOM     41  C   UNL A   1      37.883  32.216  31.983  1.00  0.00     0.031 C 
ATOM     42  C   UNL A   1      39.229  29.545  27.948  1.00  0.00     0.029 A 
ATOM     43  N   UNL A   1      40.396  29.227  29.832  1.00  0.00    -0.354 N 
ATOM     44  C   UNL A   1      39.412  31.361  33.453  1.00  0.00     0.074 A 
ATOM     45  C   UNL A   1      38.332  32.297  33.227  1.00  0.00     0.031 C 
ATOM     46  C   UNL A   1      40.157  28.605  27.698  1.00  0.00     0.029 A 
ATOM     47  C   UNL A   1      40.948  28.377  28.907  1.00  0.00     0.049 A 
ATOM     48  H   UNL A   1      40.718  29.297  30.759  1.00  0.00     0.167 HD
ATOM     49  C   UNL A   1      40.018  31.174  34.651  1.00  0.00     0.037 A 
ATOM     50  C   UNL A   1      41.974  27.513  29.025  1.00  0.00     0.037 A 
ATOM     51  C   UNL A   1      41.086  30.238  34.882  1.00  0.00     0.049 A 
ATOM     52  C   UNL A   1      42.661  27.353  30.356  1.00  0.00     0.074 A 
ATOM     53  C   UNL A   1      41.758  29.967  36.062  1.00  0.00     0.029 A 
ATOM     54  N   UNL A   1      41.641  29.420  33.910  1.00  0.00    -0.354 N 
ATOM     55  N   UNL A   1      42.401  27.939  31.500  1.00  0.00    -0.248 NA
ATOM     56  C   UNL A   1      43.777  26.399  30.414  1.00  0.00     0.031 C 
ATOM     57  C   UNL A   1      42.748  29.015  35.794  1.00  0.00     0.029 A 
ATOM     58  C   UNL A   1      42.661  28.658  34.458  1.00  0.00     0.049 A 
ATOM     59  H   UNL A   1      41.354  29.386  32.969  1.00  0.00     0.167 HD
ATOM     60  C   UNL A   1      43.300  27.407  32.416  1.00  0.00     0.074 A 
ATOM     61  C   UNL A   1      44.102  26.439  31.698  1.00  0.00     0.031 C 
ATOM     62  C   UNL A   1      43.448  27.695  33.732  1.00  0.00     0.037 A 
BRANCH  49  63
ATOM     63  C   UNL A   1      39.549  32.014  35.802  1.00  0.00     0.064 A 
ATOM     64  C   UNL A   1      40.114  33.268  36.077  1.00  0.00     0.173 A 
ATOM     65  C   UNL A   1      38.502  31.570  36.624  1.00  0.00     0.173 A 
ATOM     66  F   UNL A   1      41.127  33.731  35.329  1.00  0.00    -0.203 F 
ATOM     67  C   UNL A   1      39.664  34.038  37.147  1.00  0.00     0.198 A 
ATOM     68  C   UNL A   1      38.037  32.353  37.676  1.00  0.00     0.198 A 
ATOM     69  F   UNL A   1      37.925  30.380  36.401  1.00  0.00    -0.203 F 
ATOM     70  F   UNL A   1      40.246  35.214  37.418  1.00  0.00    -0.200 F 
ATOM     71  C   UNL A   1      38.621  33.582  37.942  1.00  0.00     0.200 A 
ATOM     72  F   UNL A   1      37.022  31.918  38.437  1.00  0.00    -0.200 F 
ATOM     73  F   UNL A   1      38.186  34.326  38.968  1.00  0.00    -0.200 F 
ENDBRANCH  49  63
BRANCH  50  74
ATOM     74  C   UNL A   1      42.413  26.720  27.847  1.00  0.00     0.064 A 
ATOM     75  C   UNL A   1      43.367  27.219  26.951  1.00  0.00     0.173 A 
ATOM     76  C   UNL A   1      41.868  25.454  27.584  1.00  0.00     0.173 A 
ATOM     77  F   UNL A   1      43.896  28.437  27.144  1.00  0.00    -0.203 F 
ATOM     78  C   UNL A   1      43.748  26.490  25.826  1.00  0.00     0.198 A 
ATOM     79  C   UNL A   1      42.270  24.715  26.475  1.00  0.00     0.198 A 
ATOM     80  F   UNL A   1      40.947  24.936  28.409  1.00  0.00    -0.203 F 
ATOM     81  F   UNL A   1      44.627  27.011  24.958  1.00  0.00    -0.200 F 
ATOM     82  C   UNL A   1      43.203  25.237  25.592  1.00  0.00     0.200 A 
ATOM     83  F   UNL A   1      41.746  23.501  26.256  1.00  0.00    -0.200 F 
ATOM     84  F   UNL A   1      43.568  24.536  24.510  1.00  0.00    -0.200 F 
ENDBRANCH  50  74
BRANCH  62  85
ATOM     85  C   UNL A   1      44.494  26.929  34.491  1.00  0.00     0.064 A 
ATOM     86  C   UNL A   1      45.801  27.416  34.635  1.00  0.00     0.173 A 
ATOM     87  C   UNL A   1      44.176  25.708  35.104  1.00  0.00     0.173 A 
ATOM     88  F   UNL A   1      46.158  28.573  34.057  1.00  0.00    -0.203 F 
ATOM     89  C   UNL A   1      46.761  26.692  35.338  1.00  0.00     0.198 A 
ATOM     90  C   UNL A   1      45.130  25.001  35.830  1.00  0.00     0.198 A 
ATOM     91  F   UNL A   1      42.937  25.202  35.003  1.00  0.00    -0.203 F 
ATOM     92  F   UNL A   1      48.017  27.152  35.420  1.00  0.00    -0.200 F 
ATOM     93  C   UNL A   1      46.423  25.489  35.940  1.00  0.00     0.200 A 
ATOM     94  F   UNL A   1      44.800  23.844  36.421  1.00  0.00    -0.200 F 
ATOM     95  F   UNL A   1      47.348  24.794  36.618  1.00  0.00    -0.200 F 
ENDBRANCH  62  85
ENDBRANCH  36  37
ENDBRANCH  29  31
ENDBRANCH  28  29
ENDBRANCH  27  28
ENDBRANCH  26  27
ENDBRANCH  25  26
ENDBRANCH   1  25
TORSDOF 17
ENDMDL
MODEL 3
REMARK VINA RESULT:     -11.5      4.517      7.646
REMARK SMILES C[C@H]1[C@H](C(=O)OCCOCCOC(=O)c2ccc(-c3c4nc(c(-c5c(F)c(F)c(F)c(F)c5F)c5ccc([nH]5)c(-c5c(F)c(F)c(F)c(F)c5F)c5nc(c(-c6c(F)c(F)c(F)c(F)c6F)c6ccc3[nH]6)C=C5)C=C4)cc2)CC[N@@H+]1Cc1nnnn1-c1ccccc1
REMARK SMILES IDX 8 1 7 2 6 3 4 4 5 5 3 6 1 7 2 8 80 9 78 10 79 11 81 13 82 14
REMARK SMILES IDX 83 15 86 16 84 17 85 18 87 19 88 20 92 21 89 22 91 23 90 24
REMARK SMILES IDX 9 25 10 26 11 27 12 28 13 29 14 30 15 31 16 32 77 33 17 34
REMARK SMILES IDX 76 35 18 36 19 37 20 38 70 39 21 40 75 41 69 42 71 43 22 44
REMARK SMILES IDX 74 45 68 46 67 47 23 49 55 50 35 51 54 52 36 53 39 54 53 55
REMARK SMILES IDX 72 56 37 57 38 58 52 60 73 61 40 62 24 63 25 64 33 65 26 66
REMARK SMILES IDX 27 67 31 68 34 69 28 70 29 71 32 72 30 73 56 74 57 75 65 76
REMARK SMILES IDX 58 77 59 78 63 79 66 80 60 81 61 82 64 83 62 84 41 85 42 86
REMARK SMILES IDX 50 87 43 88 44 89 48 90 51 91 45 92 46 93 49 94 47 95
REMARK H PARENT 80 12 71 48 39 59
REMARK Flexibility Score: inf
ROOT
ATOM      1  C   UNL A   1      32.960  29.391  26.977  1.00  0.00     0.202 C 
ENDROOT
BRANCH   1   2
ATOM      2  C   UNL A   1      32.406  28.016  26.598  1.00  0.00     0.261 C 
BRANCH   2   3
ATOM      3  O   UNL A   1      33.395  27.303  25.837  1.00  0.00    -0.463 OA
BRANCH   3   4
ATOM      4  C   UNL A   1      33.285  25.959  25.798  1.00  0.00     0.315 C 
ATOM      5  O   UNL A   1      34.219  25.183  25.623  1.00  0.00    -0.252 OA
BRANCH   4   6
ATOM      6  C   UNL A   1      31.865  25.474  26.030  1.00  0.00     0.162 C 
ATOM      7  C   UNL A   1      29.636  26.218  25.104  1.00  0.00     0.076 C 
ATOM      8  C   UNL A   1      30.917  25.416  24.815  1.00  0.00     0.195 C 
ATOM      9  N   UNL A   1      30.510  24.013  24.665  1.00  0.00    -0.326 N 
ATOM     10  C   UNL A   1      31.906  24.058  26.585  1.00  0.00     0.083 C 
ATOM     11  C   UNL A   1      30.749  23.337  25.930  1.00  0.00     0.263 C 
ATOM     12  H   UNL A   1      29.507  23.974  24.485  1.00  0.00     0.348 HD
BRANCH   9  13
ATOM     13  C   UNL A   1      30.911  23.336  23.426  1.00  0.00     0.343 C 
BRANCH  13  14
ATOM     14  C   UNL A   1      32.367  23.198  23.127  1.00  0.00     0.210 A 
ATOM     15  N   UNL A   1      33.128  24.148  22.609  1.00  0.00    -0.107 NA
ATOM     16  N   UNL A   1      33.181  22.113  23.410  1.00  0.00    -0.192 N 
ATOM     17  N   UNL A   1      34.415  23.694  22.672  1.00  0.00    -0.023 NA
ATOM     18  N   UNL A   1      34.467  22.495  23.228  1.00  0.00    -0.040 NA
BRANCH  16  19
ATOM     19  C   UNL A   1      32.863  20.831  23.903  1.00  0.00     0.069 A 
ATOM     20  C   UNL A   1      32.494  19.833  22.992  1.00  0.00     0.028 A 
ATOM     21  C   UNL A   1      32.990  20.528  25.263  1.00  0.00     0.028 A 
ATOM     22  C   UNL A   1      32.389  18.510  23.426  1.00  0.00     0.002 A 
ATOM     23  C   UNL A   1      32.848  19.209  25.693  1.00  0.00     0.002 A 
ATOM     24  C   UNL A   1      32.579  18.198  24.771  1.00  0.00     0.000 A 
ENDBRANCH  16  19
ENDBRANCH  13  14
ENDBRANCH   9  13
ENDBRANCH   4   6
ENDBRANCH   3   4
ENDBRANCH   2   3
ENDBRANCH   1   2
BRANCH   1  25
ATOM     25  O   UNL A   1      32.655  30.448  26.060  1.00  0.00    -0.374 OA
BRANCH  25  26
ATOM     26  C   UNL A   1      31.535  31.279  26.360  1.00  0.00     0.202 C 
BRANCH  26  27
ATOM     27  C   UNL A   1      31.825  32.541  27.180  1.00  0.00     0.261 C 
BRANCH  27  28
ATOM     28  O   UNL A   1      33.143  33.065  26.945  1.00  0.00    -0.460 OA
BRANCH  28  29
ATOM     29  C   UNL A   1      33.776  33.480  28.066  1.00  0.00     0.338 C 
ATOM     30  O   UNL A   1      33.329  34.225  28.932  1.00  0.00    -0.246 OA
BRANCH  29  31
ATOM     31  C   UNL A   1      35.086  32.828  28.226  1.00  0.00     0.060 A 
ATOM     32  C   UNL A   1      35.076  31.457  28.508  1.00  0.00     0.016 A 
ATOM     33  C   UNL A   1      36.284  33.549  28.255  1.00  0.00     0.016 A 
ATOM     34  C   UNL A   1      36.244  30.819  28.912  1.00  0.00     0.010 A 
ATOM     35  C   UNL A   1      37.460  32.905  28.663  1.00  0.00     0.010 A 
ATOM     36  C   UNL A   1      37.429  31.552  29.050  1.00  0.00    -0.014 A 
BRANCH  36  37
ATOM     37  C   UNL A   1      38.560  30.926  29.781  1.00  0.00     0.031 A 
ATOM     38  C   UNL A   1      38.751  31.245  31.240  1.00  0.00     0.074 A 
ATOM     39  C   UNL A   1      39.341  30.008  29.185  1.00  0.00     0.049 A 
ATOM     40  N   UNL A   1      39.606  30.746  32.098  1.00  0.00    -0.248 NA
ATOM     41  C   UNL A   1      37.853  32.261  31.812  1.00  0.00     0.031 C 
ATOM     42  C   UNL A   1      39.235  29.590  27.789  1.00  0.00     0.029 A 
ATOM     43  N   UNL A   1      40.367  29.251  29.691  1.00  0.00    -0.354 N 
ATOM     44  C   UNL A   1      39.347  31.382  33.304  1.00  0.00     0.074 A 
ATOM     45  C   UNL A   1      38.282  32.331  33.064  1.00  0.00     0.031 C 
ATOM     46  C   UNL A   1      40.157  28.640  27.551  1.00  0.00     0.029 A 
ATOM     47  C   UNL A   1      40.924  28.398  28.772  1.00  0.00     0.049 A 
ATOM     48  H   UNL A   1      40.675  29.313  30.624  1.00  0.00     0.167 HD
ATOM     49  C   UNL A   1      39.931  31.183  34.511  1.00  0.00     0.037 A 
ATOM     50  C   UNL A   1      41.939  27.522  28.904  1.00  0.00     0.037 A 
ATOM     51  C   UNL A   1      40.984  30.234  34.756  1.00  0.00     0.049 A 
ATOM     52  C   UNL A   1      42.601  27.348  30.246  1.00  0.00     0.074 A 
ATOM     53  C   UNL A   1      41.632  29.951  35.946  1.00  0.00     0.029 A 
ATOM     54  N   UNL A   1      41.546  29.414  33.790  1.00  0.00    -0.354 N 
ATOM     55  N   UNL A   1      42.329  27.933  31.387  1.00  0.00    -0.248 NA
ATOM     56  C   UNL A   1      43.706  26.382  30.318  1.00  0.00     0.031 C 
ATOM     57  C   UNL A   1      42.616  28.988  35.691  1.00  0.00     0.029 A 
ATOM     58  C   UNL A   1      42.547  28.638  34.352  1.00  0.00     0.049 A 
ATOM     59  H   UNL A   1      41.274  29.387  32.844  1.00  0.00     0.167 HD
ATOM     60  C   UNL A   1      43.206  27.388  32.315  1.00  0.00     0.074 A 
ATOM     61  C   UNL A   1      44.009  26.413  31.607  1.00  0.00     0.031 C 
ATOM     62  C   UNL A   1      43.335  27.668  33.636  1.00  0.00     0.037 A 
BRANCH  49  63
ATOM     63  C   UNL A   1      39.452  32.024  35.657  1.00  0.00     0.064 A 
ATOM     64  C   UNL A   1      38.476  31.560  36.553  1.00  0.00     0.173 A 
ATOM     65  C   UNL A   1      39.995  33.298  35.879  1.00  0.00     0.173 A 
ATOM     66  F   UNL A   1      37.915  30.355  36.376  1.00  0.00    -0.203 F 
ATOM     67  C   UNL A   1      38.045  32.351  37.615  1.00  0.00     0.198 A 
ATOM     68  C   UNL A   1      39.582  34.075  36.957  1.00  0.00     0.198 A 
ATOM     69  F   UNL A   1      40.934  33.785  35.054  1.00  0.00    -0.203 F 
ATOM     70  F   UNL A   1      37.081  31.907  38.434  1.00  0.00    -0.200 F 
ATOM     71  C   UNL A   1      38.603  33.606  37.820  1.00  0.00     0.200 A 
ATOM     72  F   UNL A   1      40.129  35.282  37.161  1.00  0.00    -0.200 F 
ATOM     73  F   UNL A   1      38.191  34.364  38.846  1.00  0.00    -0.200 F 
ENDBRANCH  49  63
BRANCH  50  74
ATOM     74  C   UNL A   1      42.388  26.728  27.730  1.00  0.00     0.064 A 
ATOM     75  C   UNL A   1      41.830  25.476  27.444  1.00  0.00     0.173 A 
ATOM     76  C   UNL A   1      43.401  27.202  26.882  1.00  0.00     0.173 A 
ATOM     77  F   UNL A   1      40.878  24.968  28.243  1.00  0.00    -0.203 F 
ATOM     78  C   UNL A   1      42.280  24.717  26.366  1.00  0.00     0.198 A 
ATOM     79  C   UNL A   1      43.831  26.455  25.789  1.00  0.00     0.198 A 
ATOM     80  F   UNL A   1      43.970  28.392  27.117  1.00  0.00    -0.203 F 
ATOM     81  F   UNL A   1      41.764  23.500  26.142  1.00  0.00    -0.200 F 
ATOM     82  C   UNL A   1      43.276  25.209  25.536  1.00  0.00     0.200 A 
ATOM     83  F   UNL A   1      44.789  26.938  24.985  1.00  0.00    -0.200 F 
ATOM     84  F   UNL A   1      43.710  24.480  24.499  1.00  0.00    -0.200 F 
ENDBRANCH  50  74
BRANCH  62  85
ATOM     85  C   UNL A   1      44.360  26.887  34.408  1.00  0.00     0.064 A 
ATOM     86  C   UNL A   1      44.060  25.640  34.974  1.00  0.00     0.173 A 
ATOM     87  C   UNL A   1      45.664  27.382  34.560  1.00  0.00     0.173 A 
ATOM     88  F   UNL A   1      42.824  25.129  34.867  1.00  0.00    -0.203 F 
ATOM     89  C   UNL A   1      45.021  24.930  35.690  1.00  0.00     0.198 A 
ATOM     90  C   UNL A   1      46.629  26.656  35.252  1.00  0.00     0.198 A 
ATOM     91  F   UNL A   1      46.004  28.567  34.030  1.00  0.00    -0.203 F 
ATOM     92  F   UNL A   1      44.698  23.763  36.265  1.00  0.00    -0.200 F 
ATOM     93  C   UNL A   1      46.305  25.436  35.823  1.00  0.00     0.200 A 
ATOM     94  F   UNL A   1      47.874  27.141  35.370  1.00  0.00    -0.200 F 
ATOM     95  F   UNL A   1      47.229  24.750  36.512  1.00  0.00    -0.200 F 
ENDBRANCH  62  85
ENDBRANCH  36  37
ENDBRANCH  29  31
ENDBRANCH  28  29
ENDBRANCH  27  28
ENDBRANCH  26  27
ENDBRANCH  25  26
ENDBRANCH   1  25
TORSDOF 17
ENDMDL
