MODEL 1
REMARK VINA RESULT:     -10.4      0.000      0.000
REMARK SMILES C[C@@H](NC(=O)C(C)(C)C)C(=O)N[C@H](C)C(=O)OCCOCCOC(=O)c1ccc(-c2c3nc(c(-c4c(F)c(F)c(F)c(F)c4F)c4ccc([nH]4)c(-c4c(F)c(F)c(F)c(F)c4F)c4nc(c(-c5c(F)c(F)c(F)c(F)c5F)c5ccc2[nH]5)C=C4)C=C3)cc1
REMARK SMILES IDX 19 1 18 2 17 3 15 4 16 5 13 6 14 7 12 8 10 9 11 10 2 12 1 13
REMARK SMILES IDX 3 14 4 15 5 17 6 18 7 19 8 20 9 21 20 22 21 23 22 24 23 25
REMARK SMILES IDX 24 26 25 27 26 28 27 29 88 30 28 31 87 32 29 33 30 34 31 35
REMARK SMILES IDX 81 36 32 37 86 38 80 39 82 40 33 41 85 42 79 43 78 44 34 46
REMARK SMILES IDX 66 47 46 48 65 49 47 50 50 51 64 52 83 53 48 54 49 55 63 57
REMARK SMILES IDX 84 58 51 59 35 60 36 61 44 62 37 63 38 64 42 65 45 66 39 67
REMARK SMILES IDX 40 68 43 69 41 70 67 71 68 72 76 73 69 74 70 75 74 76 77 77
REMARK SMILES IDX 71 78 72 79 75 80 73 81 52 82 53 83 61 84 54 85 55 86 59 87
REMARK SMILES IDX 62 88 56 89 57 90 60 91 58 92
REMARK H PARENT 12 11 3 16 82 45 50 56
REMARK Flexibility Score: inf
ROOT
ATOM      1  C   UNL A   1      30.078  29.186  23.420  1.00  0.00     0.202 C 
ENDROOT
BRANCH   1   2
ATOM      2  C   UNL A   1      30.216  27.832  22.711  1.00  0.00     0.261 C 
BRANCH   2   3
ATOM      3  O   UNL A   1      31.583  27.677  22.284  1.00  0.00    -0.462 OA
BRANCH   3   4
ATOM      4  C   UNL A   1      32.276  26.610  22.753  1.00  0.00     0.328 C 
ATOM      5  O   UNL A   1      32.156  25.465  22.331  1.00  0.00    -0.250 OA
BRANCH   4   6
ATOM      6  C   UNL A   1      33.165  26.977  23.967  1.00  0.00     0.189 C 
ATOM      7  C   UNL A   1      33.929  28.279  23.808  1.00  0.00     0.043 C 
BRANCH   6   8
ATOM      8  N   UNL A   1      32.348  26.750  25.165  1.00  0.00    -0.341 N 
ATOM      9  C   UNL A   1      32.172  25.795  26.105  1.00  0.00     0.242 C 
ATOM     10  O   UNL A   1      31.401  26.098  27.027  1.00  0.00    -0.273 OA
ATOM     11  H   UNL A   1      31.754  27.517  25.332  1.00  0.00     0.164 HD
BRANCH   9  12
ATOM     12  C   UNL A   1      32.683  24.345  26.019  1.00  0.00     0.168 C 
ATOM     13  C   UNL A   1      31.717  23.484  26.852  1.00  0.00     0.041 C 
BRANCH  12  14
ATOM     14  N   UNL A   1      32.934  23.726  24.713  1.00  0.00    -0.344 N 
ATOM     15  C   UNL A   1      33.927  22.929  24.229  1.00  0.00     0.226 C 
ATOM     16  H   UNL A   1      32.239  23.929  24.047  1.00  0.00     0.164 HD
ATOM     17  O   UNL A   1      33.593  22.225  23.268  1.00  0.00    -0.275 OA
BRANCH  15  18
ATOM     18  C   UNL A   1      35.390  22.942  24.725  1.00  0.00     0.041 C 
ATOM     19  C   UNL A   1      36.336  22.583  23.578  1.00  0.00     0.021 C 
ATOM     20  C   UNL A   1      35.800  24.260  25.386  1.00  0.00     0.021 C 
ATOM     21  C   UNL A   1      35.572  21.816  25.774  1.00  0.00     0.021 C 
ENDBRANCH  15  18
ENDBRANCH  12  14
ENDBRANCH   9  12
ENDBRANCH   6   8
ENDBRANCH   4   6
ENDBRANCH   3   4
ENDBRANCH   2   3
ENDBRANCH   1   2
BRANCH   1  22
ATOM     22  O   UNL A   1      30.669  29.234  24.726  1.00  0.00    -0.374 OA
BRANCH  22  23
ATOM     23  C   UNL A   1      31.225  30.487  25.117  1.00  0.00     0.202 C 
BRANCH  23  24
ATOM     24  C   UNL A   1      31.793  30.563  26.536  1.00  0.00     0.261 C 
BRANCH  24  25
ATOM     25  O   UNL A   1      33.228  30.537  26.545  1.00  0.00    -0.460 OA
BRANCH  25  26
ATOM     26  C   UNL A   1      33.775  31.474  27.355  1.00  0.00     0.338 C 
ATOM     27  O   UNL A   1      33.225  32.454  27.825  1.00  0.00    -0.246 OA
BRANCH  26  28
ATOM     28  C   UNL A   1      35.153  31.108  27.725  1.00  0.00     0.060 A 
ATOM     29  C   UNL A   1      35.428  29.740  27.838  1.00  0.00     0.016 A 
ATOM     30  C   UNL A   1      36.112  32.059  28.081  1.00  0.00     0.016 A 
ATOM     31  C   UNL A   1      36.632  29.316  28.388  1.00  0.00     0.010 A 
ATOM     32  C   UNL A   1      37.326  31.630  28.633  1.00  0.00     0.010 A 
ATOM     33  C   UNL A   1      37.568  30.260  28.834  1.00  0.00    -0.014 A 
BRANCH  33  34
ATOM     34  C   UNL A   1      38.722  29.795  29.640  1.00  0.00     0.031 A 
ATOM     35  C   UNL A   1      38.902  30.318  31.039  1.00  0.00     0.074 A 
ATOM     36  C   UNL A   1      39.561  28.865  29.155  1.00  0.00     0.049 A 
ATOM     37  N   UNL A   1      39.824  30.028  31.923  1.00  0.00    -0.248 NA
ATOM     38  C   UNL A   1      37.910  31.300  31.503  1.00  0.00     0.031 C 
ATOM     39  C   UNL A   1      39.468  28.259  27.830  1.00  0.00     0.029 A 
ATOM     40  N   UNL A   1      40.658  28.271  29.726  1.00  0.00    -0.354 N 
ATOM     41  C   UNL A   1      39.523  30.791  33.044  1.00  0.00     0.074 A 
ATOM     42  C   UNL A   1      38.358  31.584  32.716  1.00  0.00     0.031 C 
ATOM     43  C   UNL A   1      40.475  27.383  27.683  1.00  0.00     0.029 A 
ATOM     44  C   UNL A   1      41.297  27.390  28.893  1.00  0.00     0.049 A 
ATOM     45  H   UNL A   1      40.957  28.459  30.645  1.00  0.00     0.167 HD
ATOM     46  C   UNL A   1      40.154  30.818  34.244  1.00  0.00     0.037 A 
ATOM     47  C   UNL A   1      42.430  26.685  29.077  1.00  0.00     0.037 A 
ATOM     48  C   UNL A   1      41.317  30.031  34.565  1.00  0.00     0.049 A 
ATOM     49  C   UNL A   1      43.153  26.776  30.393  1.00  0.00     0.074 A 
ATOM     50  C   UNL A   1      42.018  29.971  35.757  1.00  0.00     0.029 A 
ATOM     51  N   UNL A   1      41.959  29.174  33.682  1.00  0.00    -0.354 N 
ATOM     52  N   UNL A   1      42.847  27.475  31.460  1.00  0.00    -0.248 NA
ATOM     53  C   UNL A   1      44.376  25.974  30.535  1.00  0.00     0.031 C 
ATOM     54  C   UNL A   1      43.114  29.119  35.578  1.00  0.00     0.029 A 
ATOM     55  C   UNL A   1      43.065  28.604  34.293  1.00  0.00     0.049 A 
ATOM     56  H   UNL A   1      41.670  28.997  32.758  1.00  0.00     0.167 HD
ATOM     57  C   UNL A   1      43.824  27.186  32.403  1.00  0.00     0.074 A 
ATOM     58  C   UNL A   1      44.726  26.234  31.787  1.00  0.00     0.031 C 
ATOM     59  C   UNL A   1      43.960  27.664  33.665  1.00  0.00     0.037 A 
BRANCH  46  60
ATOM     60  C   UNL A   1      39.614  31.757  35.284  1.00  0.00     0.064 A 
ATOM     61  C   UNL A   1      38.678  31.341  36.242  1.00  0.00     0.173 A 
ATOM     62  C   UNL A   1      40.043  33.093  35.325  1.00  0.00     0.173 A 
ATOM     63  F   UNL A   1      38.225  30.078  36.240  1.00  0.00    -0.203 F 
ATOM     64  C   UNL A   1      38.162  32.235  37.177  1.00  0.00     0.198 A 
ATOM     65  C   UNL A   1      39.549  33.976  36.281  1.00  0.00     0.198 A 
ATOM     66  F   UNL A   1      40.942  33.542  34.436  1.00  0.00    -0.203 F 
ATOM     67  F   UNL A   1      37.224  31.829  38.045  1.00  0.00    -0.200 F 
ATOM     68  C   UNL A   1      38.601  33.550  37.198  1.00  0.00     0.200 A 
ATOM     69  F   UNL A   1      39.984  35.243  36.308  1.00  0.00    -0.200 F 
ATOM     70  F   UNL A   1      38.104  34.411  38.098  1.00  0.00    -0.200 F 
ENDBRANCH  46  60
BRANCH  47  71
ATOM     71  C   UNL A   1      42.947  25.841  27.971  1.00  0.00     0.064 A 
ATOM     72  C   UNL A   1      42.576  24.496  27.846  1.00  0.00     0.173 A 
ATOM     73  C   UNL A   1      43.806  26.376  26.999  1.00  0.00     0.173 A 
ATOM     74  F   UNL A   1      41.776  23.935  28.763  1.00  0.00    -0.203 F 
ATOM     75  C   UNL A   1      43.047  23.718  26.791  1.00  0.00     0.198 A 
ATOM     76  C   UNL A   1      44.255  25.605  25.931  1.00  0.00     0.198 A 
ATOM     77  F   UNL A   1      44.190  27.659  27.076  1.00  0.00    -0.203 F 
ATOM     78  F   UNL A   1      42.702  22.426  26.709  1.00  0.00    -0.200 F 
ATOM     79  C   UNL A   1      43.879  24.274  25.830  1.00  0.00     0.200 A 
ATOM     80  F   UNL A   1      45.046  26.151  24.997  1.00  0.00    -0.200 F 
ATOM     81  F   UNL A   1      44.320  23.528  24.808  1.00  0.00    -0.200 F 
ENDBRANCH  47  71
BRANCH  59  82
ATOM     82  C   UNL A   1      45.116  27.152  34.475  1.00  0.00     0.064 A 
ATOM     83  C   UNL A   1      46.349  27.823  34.508  1.00  0.00     0.173 A 
ATOM     84  C   UNL A   1      44.979  25.997  35.261  1.00  0.00     0.173 A 
ATOM     85  F   UNL A   1      46.537  28.923  33.764  1.00  0.00    -0.203 F 
ATOM     86  C   UNL A   1      47.405  27.344  35.278  1.00  0.00     0.198 A 
ATOM     87  C   UNL A   1      46.027  25.538  36.053  1.00  0.00     0.198 A 
ATOM     88  F   UNL A   1      43.820  25.321  35.272  1.00  0.00    -0.203 F 
ATOM     89  F   UNL A   1      48.588  27.975  35.257  1.00  0.00    -0.200 F 
ATOM     90  C   UNL A   1      47.242  26.206  36.055  1.00  0.00     0.200 A 
ATOM     91  F   UNL A   1      45.864  24.447  36.814  1.00  0.00    -0.200 F 
ATOM     92  F   UNL A   1      48.258  25.751  36.801  1.00  0.00    -0.200 F 
ENDBRANCH  59  82
ENDBRANCH  33  34
ENDBRANCH  26  28
ENDBRANCH  25  26
ENDBRANCH  24  25
ENDBRANCH  23  24
ENDBRANCH  22  23
ENDBRANCH   1  22
TORSDOF 18
ENDMDL
MODEL 2
REMARK VINA RESULT:     -10.3      4.704      8.318
REMARK SMILES C[C@@H](NC(=O)C(C)(C)C)C(=O)N[C@H](C)C(=O)OCCOCCOC(=O)c1ccc(-c2c3nc(c(-c4c(F)c(F)c(F)c(F)c4F)c4ccc([nH]4)c(-c4c(F)c(F)c(F)c(F)c4F)c4nc(c(-c5c(F)c(F)c(F)c(F)c5F)c5ccc2[nH]5)C=C4)C=C3)cc1
REMARK SMILES IDX 19 1 18 2 17 3 15 4 16 5 13 6 14 7 12 8 10 9 11 10 2 12 1 13
REMARK SMILES IDX 3 14 4 15 5 17 6 18 7 19 8 20 9 21 20 22 21 23 22 24 23 25
REMARK SMILES IDX 24 26 25 27 26 28 27 29 88 30 28 31 87 32 29 33 30 34 31 35
REMARK SMILES IDX 81 36 32 37 86 38 80 39 82 40 33 41 85 42 79 43 78 44 34 46
REMARK SMILES IDX 66 47 46 48 65 49 47 50 50 51 64 52 83 53 48 54 49 55 63 57
REMARK SMILES IDX 84 58 51 59 35 60 36 61 44 62 37 63 38 64 42 65 45 66 39 67
REMARK SMILES IDX 40 68 43 69 41 70 67 71 68 72 76 73 69 74 70 75 74 76 77 77
REMARK SMILES IDX 71 78 72 79 75 80 73 81 52 82 53 83 61 84 54 85 55 86 59 87
REMARK SMILES IDX 62 88 56 89 57 90 60 91 58 92
REMARK H PARENT 12 11 3 16 82 45 50 56
REMARK Flexibility Score: inf
ROOT
ATOM      1  C   UNL A   1      36.727  22.214  25.131  1.00  0.00     0.202 C 
ENDROOT
BRANCH   1   2
ATOM      2  C   UNL A   1      35.477  21.552  25.727  1.00  0.00     0.261 C 
BRANCH   2   3
ATOM      3  O   UNL A   1      34.679  21.030  24.648  1.00  0.00    -0.462 OA
BRANCH   3   4
ATOM      4  C   UNL A   1      33.338  20.948  24.833  1.00  0.00     0.328 C 
ATOM      5  O   UNL A   1      32.735  19.912  25.088  1.00  0.00    -0.250 OA
BRANCH   4   6
ATOM      6  C   UNL A   1      32.628  22.301  24.578  1.00  0.00     0.189 C 
ATOM      7  C   UNL A   1      32.026  22.434  23.190  1.00  0.00     0.043 C 
BRANCH   6   8
ATOM      8  N   UNL A   1      31.804  22.568  25.762  1.00  0.00    -0.341 N 
ATOM      9  C   UNL A   1      31.157  23.610  26.332  1.00  0.00     0.242 C 
ATOM     10  O   UNL A   1      30.478  23.327  27.328  1.00  0.00    -0.273 OA
ATOM     11  H   UNL A   1      31.688  21.751  26.298  1.00  0.00     0.164 HD
BRANCH   9  12
ATOM     12  C   UNL A   1      31.350  25.094  25.967  1.00  0.00     0.168 C 
ATOM     13  C   UNL A   1      30.304  25.424  24.888  1.00  0.00     0.041 C 
BRANCH  12  14
ATOM     14  N   UNL A   1      31.354  26.118  27.017  1.00  0.00    -0.344 N 
ATOM     15  C   UNL A   1      31.673  27.442  27.033  1.00  0.00     0.226 C 
ATOM     16  H   UNL A   1      31.065  25.778  27.893  1.00  0.00     0.164 HD
ATOM     17  O   UNL A   1      31.127  28.088  27.936  1.00  0.00    -0.275 OA
BRANCH  15  18
ATOM     18  C   UNL A   1      32.706  28.113  26.100  1.00  0.00     0.041 C 
ATOM     19  C   UNL A   1      33.887  27.170  25.860  1.00  0.00     0.021 C 
ATOM     20  C   UNL A   1      32.110  28.599  24.776  1.00  0.00     0.021 C 
ATOM     21  C   UNL A   1      33.306  29.346  26.822  1.00  0.00     0.021 C 
ENDBRANCH  15  18
ENDBRANCH  12  14
ENDBRANCH   9  12
ENDBRANCH   6   8
ENDBRANCH   4   6
ENDBRANCH   3   4
ENDBRANCH   2   3
ENDBRANCH   1   2
BRANCH   1  22
ATOM     22  O   UNL A   1      37.943  21.483  25.342  1.00  0.00    -0.374 OA
BRANCH  22  23
ATOM     23  C   UNL A   1      37.903  20.095  25.018  1.00  0.00     0.202 C 
BRANCH  23  24
ATOM     24  C   UNL A   1      39.117  19.265  25.442  1.00  0.00     0.261 C 
BRANCH  24  25
ATOM     25  O   UNL A   1      39.975  19.983  26.340  1.00  0.00    -0.460 OA
BRANCH  25  26
ATOM     26  C   UNL A   1      41.280  19.641  26.224  1.00  0.00     0.338 C 
ATOM     27  O   UNL A   1      41.731  18.556  25.901  1.00  0.00    -0.246 OA
BRANCH  26  28
ATOM     28  C   UNL A   1      42.150  20.812  26.428  1.00  0.00     0.060 A 
ATOM     29  C   UNL A   1      42.281  21.273  27.742  1.00  0.00     0.016 A 
ATOM     30  C   UNL A   1      42.715  21.521  25.365  1.00  0.00     0.016 A 
ATOM     31  C   UNL A   1      42.904  22.489  27.994  1.00  0.00     0.010 A 
ATOM     32  C   UNL A   1      43.344  22.746  25.619  1.00  0.00     0.010 A 
ATOM     33  C   UNL A   1      43.396  23.257  26.928  1.00  0.00    -0.014 A 
BRANCH  33  34
ATOM     34  C   UNL A   1      43.823  24.652  27.191  1.00  0.00     0.031 A 
ATOM     35  C   UNL A   1      42.803  25.664  27.635  1.00  0.00     0.074 A 
ATOM     36  C   UNL A   1      45.118  24.996  27.099  1.00  0.00     0.049 A 
ATOM     37  N   UNL A   1      42.963  26.927  27.941  1.00  0.00    -0.248 NA
ATOM     38  C   UNL A   1      41.416  25.187  27.751  1.00  0.00     0.031 C 
ATOM     39  C   UNL A   1      46.201  24.097  26.713  1.00  0.00     0.029 A 
ATOM     40  N   UNL A   1      45.737  26.199  27.326  1.00  0.00    -0.354 N 
ATOM     41  C   UNL A   1      41.700  27.394  28.282  1.00  0.00     0.074 A 
ATOM     42  C   UNL A   1      40.779  26.291  28.110  1.00  0.00     0.031 C 
ATOM     43  C   UNL A   1      47.356  24.782  26.719  1.00  0.00     0.029 A 
ATOM     44  C   UNL A   1      47.086  26.173  27.081  1.00  0.00     0.049 A 
ATOM     45  H   UNL A   1      45.260  27.003  27.634  1.00  0.00     0.167 HD
ATOM     46  C   UNL A   1      41.342  28.629  28.713  1.00  0.00     0.037 A 
ATOM     47  C   UNL A   1      47.997  27.164  27.124  1.00  0.00     0.037 A 
ATOM     48  C   UNL A   1      42.260  29.727  28.878  1.00  0.00     0.049 A 
ATOM     49  C   UNL A   1      47.569  28.545  27.543  1.00  0.00     0.074 A 
ATOM     50  C   UNL A   1      42.002  31.010  29.328  1.00  0.00     0.029 A 
ATOM     51  N   UNL A   1      43.616  29.673  28.586  1.00  0.00    -0.354 N 
ATOM     52  N   UNL A   1      46.381  28.973  27.894  1.00  0.00    -0.248 NA
ATOM     53  C   UNL A   1      48.612  29.579  27.579  1.00  0.00     0.031 C 
ATOM     54  C   UNL A   1      43.189  31.746  29.257  1.00  0.00     0.029 A 
ATOM     55  C   UNL A   1      44.201  30.908  28.817  1.00  0.00     0.049 A 
ATOM     56  H   UNL A   1      44.091  28.874  28.263  1.00  0.00     0.167 HD
ATOM     57  C   UNL A   1      46.533  30.317  28.210  1.00  0.00     0.074 A 
ATOM     58  C   UNL A   1      47.935  30.630  28.023  1.00  0.00     0.031 C 
ATOM     59  C   UNL A   1      45.597  31.209  28.619  1.00  0.00     0.037 A 
BRANCH  46  60
ATOM     60  C   UNL A   1      39.887  28.862  29.002  1.00  0.00     0.064 A 
ATOM     61  C   UNL A   1      39.349  28.679  30.285  1.00  0.00     0.173 A 
ATOM     62  C   UNL A   1      39.018  29.277  27.981  1.00  0.00     0.173 A 
ATOM     63  F   UNL A   1      40.133  28.272  31.295  1.00  0.00    -0.203 F 
ATOM     64  C   UNL A   1      37.991  28.867  30.527  1.00  0.00     0.198 A 
ATOM     65  C   UNL A   1      37.666  29.493  28.233  1.00  0.00     0.198 A 
ATOM     66  F   UNL A   1      39.481  29.472  26.737  1.00  0.00    -0.203 F 
ATOM     67  F   UNL A   1      37.488  28.629  31.747  1.00  0.00    -0.200 F 
ATOM     68  C   UNL A   1      37.151  29.277  29.502  1.00  0.00     0.200 A 
ATOM     69  F   UNL A   1      36.859  29.902  27.244  1.00  0.00    -0.200 F 
ATOM     70  F   UNL A   1      35.843  29.456  29.735  1.00  0.00    -0.200 F 
ENDBRANCH  46  60
BRANCH  47  71
ATOM     71  C   UNL A   1      49.402  26.876  26.743  1.00  0.00     0.064 A 
ATOM     72  C   UNL A   1      50.343  26.460  27.693  1.00  0.00     0.173 A 
ATOM     73  C   UNL A   1      49.823  26.986  25.409  1.00  0.00     0.173 A 
ATOM     74  F   UNL A   1      49.993  26.361  28.984  1.00  0.00    -0.203 F 
ATOM     75  C   UNL A   1      51.654  26.168  27.324  1.00  0.00     0.198 A 
ATOM     76  C   UNL A   1      51.126  26.669  25.037  1.00  0.00     0.198 A 
ATOM     77  F   UNL A   1      48.959  27.381  24.462  1.00  0.00    -0.203 F 
ATOM     78  F   UNL A   1      52.544  25.799  28.255  1.00  0.00    -0.200 F 
ATOM     79  C   UNL A   1      52.043  26.263  25.996  1.00  0.00     0.200 A 
ATOM     80  F   UNL A   1      51.493  26.748  23.750  1.00  0.00    -0.200 F 
ATOM     81  F   UNL A   1      53.300  25.968  25.639  1.00  0.00    -0.200 F 
ENDBRANCH  47  71
BRANCH  59  82
ATOM     82  C   UNL A   1      46.059  32.607  28.913  1.00  0.00     0.064 A 
ATOM     83  C   UNL A   1      46.042  33.611  27.932  1.00  0.00     0.173 A 
ATOM     84  C   UNL A   1      46.488  32.959  30.202  1.00  0.00     0.173 A 
ATOM     85  F   UNL A   1      45.655  33.324  26.680  1.00  0.00    -0.203 F 
ATOM     86  C   UNL A   1      46.458  34.907  28.226  1.00  0.00     0.198 A 
ATOM     87  C   UNL A   1      46.875  34.262  30.500  1.00  0.00     0.198 A 
ATOM     88  F   UNL A   1      46.517  32.040  31.179  1.00  0.00    -0.203 F 
ATOM     89  F   UNL A   1      46.477  35.838  27.261  1.00  0.00    -0.200 F 
ATOM     90  C   UNL A   1      46.867  35.233  29.511  1.00  0.00     0.200 A 
ATOM     91  F   UNL A   1      47.256  34.580  31.745  1.00  0.00    -0.200 F 
ATOM     92  F   UNL A   1      47.261  36.483  29.792  1.00  0.00    -0.200 F 
ENDBRANCH  59  82
ENDBRANCH  33  34
ENDBRANCH  26  28
ENDBRANCH  25  26
ENDBRANCH  24  25
ENDBRANCH  23  24
ENDBRANCH  22  23
ENDBRANCH   1  22
TORSDOF 18
ENDMDL
MODEL 3
REMARK VINA RESULT:     -10.3      4.616      8.271
REMARK SMILES C[C@@H](NC(=O)C(C)(C)C)C(=O)N[C@H](C)C(=O)OCCOCCOC(=O)c1ccc(-c2c3nc(c(-c4c(F)c(F)c(F)c(F)c4F)c4ccc([nH]4)c(-c4c(F)c(F)c(F)c(F)c4F)c4nc(c(-c5c(F)c(F)c(F)c(F)c5F)c5ccc2[nH]5)C=C4)C=C3)cc1
REMARK SMILES IDX 19 1 18 2 17 3 15 4 16 5 13 6 14 7 12 8 10 9 11 10 2 12 1 13
REMARK SMILES IDX 3 14 4 15 5 17 6 18 7 19 8 20 9 21 20 22 21 23 22 24 23 25
REMARK SMILES IDX 24 26 25 27 26 28 27 29 88 30 28 31 87 32 29 33 30 34 31 35
REMARK SMILES IDX 81 36 32 37 86 38 80 39 82 40 33 41 85 42 79 43 78 44 34 46
REMARK SMILES IDX 66 47 46 48 65 49 47 50 50 51 64 52 83 53 48 54 49 55 63 57
REMARK SMILES IDX 84 58 51 59 35 60 36 61 44 62 37 63 38 64 42 65 45 66 39 67
REMARK SMILES IDX 40 68 43 69 41 70 67 71 68 72 76 73 69 74 70 75 74 76 77 77
REMARK SMILES IDX 71 78 72 79 75 80 73 81 52 82 53 83 61 84 54 85 55 86 59 87
REMARK SMILES IDX 62 88 56 89 57 90 60 91 58 92
REMARK H PARENT 12 11 3 16 82 45 50 56
REMARK Flexibility Score: inf
ROOT
ATOM      1  C   UNL A   1      36.425  21.986  25.109  1.00  0.00     0.202 C 
ENDROOT
BRANCH   1   2
ATOM      2  C   UNL A   1      35.210  21.280  25.726  1.00  0.00     0.261 C 
BRANCH   2   3
ATOM      3  O   UNL A   1      34.352  20.831  24.660  1.00  0.00    -0.462 OA
BRANCH   3   4
ATOM      4  C   UNL A   1      33.012  20.915  24.847  1.00  0.00     0.328 C 
ATOM      5  O   UNL A   1      32.282  19.957  25.073  1.00  0.00    -0.250 OA
BRANCH   4   6
ATOM      6  C   UNL A   1      32.480  22.354  24.633  1.00  0.00     0.189 C 
ATOM      7  C   UNL A   1      32.032  22.647  23.212  1.00  0.00     0.043 C 
BRANCH   6   8
ATOM      8  N   UNL A   1      31.579  22.636  25.757  1.00  0.00    -0.341 N 
ATOM      9  C   UNL A   1      30.896  23.684  26.270  1.00  0.00     0.242 C 
ATOM     10  O   UNL A   1      30.153  23.413  27.223  1.00  0.00    -0.273 OA
ATOM     11  H   UNL A   1      31.429  21.825  26.295  1.00  0.00     0.164 HD
BRANCH   9  12
ATOM     12  C   UNL A   1      31.112  25.163  25.900  1.00  0.00     0.168 C 
ATOM     13  C   UNL A   1      30.033  25.523  24.865  1.00  0.00     0.041 C 
BRANCH  12  14
ATOM     14  N   UNL A   1      31.185  26.184  26.950  1.00  0.00    -0.344 N 
ATOM     15  C   UNL A   1      31.763  27.416  27.021  1.00  0.00     0.226 C 
ATOM     16  H   UNL A   1      30.718  25.926  27.776  1.00  0.00     0.164 HD
ATOM     17  O   UNL A   1      31.243  28.176  27.848  1.00  0.00    -0.275 OA
BRANCH  15  18
ATOM     18  C   UNL A   1      33.026  27.845  26.243  1.00  0.00     0.041 C 
ATOM     19  C   UNL A   1      33.919  28.714  27.130  1.00  0.00     0.021 C 
ATOM     20  C   UNL A   1      33.811  26.669  25.655  1.00  0.00     0.021 C 
ATOM     21  C   UNL A   1      32.602  28.759  25.066  1.00  0.00     0.021 C 
ENDBRANCH  15  18
ENDBRANCH  12  14
ENDBRANCH   9  12
ENDBRANCH   6   8
ENDBRANCH   4   6
ENDBRANCH   3   4
ENDBRANCH   2   3
ENDBRANCH   1   2
BRANCH   1  22
ATOM     22  O   UNL A   1      37.682  21.347  25.377  1.00  0.00    -0.374 OA
BRANCH  22  23
ATOM     23  C   UNL A   1      37.791  19.986  24.969  1.00  0.00     0.202 C 
BRANCH  23  24
ATOM     24  C   UNL A   1      39.085  19.265  25.354  1.00  0.00     0.261 C 
BRANCH  24  25
ATOM     25  O   UNL A   1      39.912  20.063  26.214  1.00  0.00    -0.460 OA
BRANCH  25  26
ATOM     26  C   UNL A   1      41.215  19.694  26.197  1.00  0.00     0.338 C 
ATOM     27  O   UNL A   1      41.669  18.608  25.883  1.00  0.00    -0.246 OA
BRANCH  26  28
ATOM     28  C   UNL A   1      42.089  20.839  26.504  1.00  0.00     0.060 A 
ATOM     29  C   UNL A   1      42.122  21.260  27.838  1.00  0.00     0.016 A 
ATOM     30  C   UNL A   1      42.752  21.565  25.512  1.00  0.00     0.016 A 
ATOM     31  C   UNL A   1      42.748  22.455  28.175  1.00  0.00     0.010 A 
ATOM     32  C   UNL A   1      43.383  22.768  25.852  1.00  0.00     0.010 A 
ATOM     33  C   UNL A   1      43.339  23.241  27.176  1.00  0.00    -0.014 A 
BRANCH  33  34
ATOM     34  C   UNL A   1      43.771  24.618  27.513  1.00  0.00     0.031 A 
ATOM     35  C   UNL A   1      42.737  25.644  27.887  1.00  0.00     0.074 A 
ATOM     36  C   UNL A   1      45.076  24.932  27.550  1.00  0.00     0.049 A 
ATOM     37  N   UNL A   1      42.896  26.895  28.239  1.00  0.00    -0.248 NA
ATOM     38  C   UNL A   1      41.335  25.199  27.862  1.00  0.00     0.031 C 
ATOM     39  C   UNL A   1      46.170  24.015  27.242  1.00  0.00     0.029 A 
ATOM     40  N   UNL A   1      45.699  26.114  27.864  1.00  0.00    -0.354 N 
ATOM     41  C   UNL A   1      41.618  27.386  28.475  1.00  0.00     0.074 A 
ATOM     42  C   UNL A   1      40.693  26.310  28.189  1.00  0.00     0.031 C 
ATOM     43  C   UNL A   1      47.335  24.671  27.372  1.00  0.00     0.029 A 
ATOM     44  C   UNL A   1      47.064  26.059  27.744  1.00  0.00     0.049 A 
ATOM     45  H   UNL A   1      45.213  26.921  28.147  1.00  0.00     0.167 HD
ATOM     46  C   UNL A   1      41.250  28.618  28.903  1.00  0.00     0.037 A 
ATOM     47  C   UNL A   1      47.989  27.027  27.897  1.00  0.00     0.037 A 
ATOM     48  C   UNL A   1      42.173  29.688  29.180  1.00  0.00     0.049 A 
ATOM     49  C   UNL A   1      47.556  28.407  28.310  1.00  0.00     0.074 A 
ATOM     50  C   UNL A   1      41.903  30.966  29.638  1.00  0.00     0.029 A 
ATOM     51  N   UNL A   1      43.549  29.608  29.013  1.00  0.00    -0.354 N 
ATOM     52  N   UNL A   1      46.350  28.856  28.562  1.00  0.00    -0.248 NA
ATOM     53  C   UNL A   1      48.614  29.414  28.470  1.00  0.00     0.031 C 
ATOM     54  C   UNL A   1      43.109  31.675  29.696  1.00  0.00     0.029 A 
ATOM     55  C   UNL A   1      44.137  30.822  29.329  1.00  0.00     0.049 A 
ATOM     56  H   UNL A   1      44.034  28.805  28.715  1.00  0.00     0.167 HD
ATOM     57  C   UNL A   1      46.502  30.188  28.924  1.00  0.00     0.074 A 
ATOM     58  C   UNL A   1      47.922  30.470  28.877  1.00  0.00     0.031 C 
ATOM     59  C   UNL A   1      45.553  31.092  29.269  1.00  0.00     0.037 A 
BRANCH  46  60
ATOM     60  C   UNL A   1      39.780  28.880  29.062  1.00  0.00     0.064 A 
ATOM     61  C   UNL A   1      38.997  29.369  28.006  1.00  0.00     0.173 A 
ATOM     62  C   UNL A   1      39.145  28.635  30.289  1.00  0.00     0.173 A 
ATOM     63  F   UNL A   1      39.556  29.631  26.816  1.00  0.00    -0.203 F 
ATOM     64  C   UNL A   1      37.642  29.638  28.183  1.00  0.00     0.198 A 
ATOM     65  C   UNL A   1      37.783  28.876  30.454  1.00  0.00     0.198 A 
ATOM     66  F   UNL A   1      39.845  28.161  31.331  1.00  0.00    -0.203 F 
ATOM     67  F   UNL A   1      36.926  30.161  27.177  1.00  0.00    -0.200 F 
ATOM     68  C   UNL A   1      37.036  29.388  29.405  1.00  0.00     0.200 A 
ATOM     69  F   UNL A   1      37.197  28.621  31.632  1.00  0.00    -0.200 F 
ATOM     70  F   UNL A   1      35.732  29.649  29.575  1.00  0.00    -0.200 F 
ENDBRANCH  46  60
BRANCH  47  71
ATOM     71  C   UNL A   1      49.416  26.712  27.639  1.00  0.00     0.064 A 
ATOM     72  C   UNL A   1      49.959  26.798  26.351  1.00  0.00     0.173 A 
ATOM     73  C   UNL A   1      50.273  26.346  28.688  1.00  0.00     0.173 A 
ATOM     74  F   UNL A   1      49.175  27.122  25.313  1.00  0.00    -0.203 F 
ATOM     75  C   UNL A   1      51.306  26.524  26.121  1.00  0.00     0.198 A 
ATOM     76  C   UNL A   1      51.624  26.098  28.461  1.00  0.00     0.198 A 
ATOM     77  F   UNL A   1      49.800  26.251  29.939  1.00  0.00    -0.203 F 
ATOM     78  F   UNL A   1      51.796  26.584  24.875  1.00  0.00    -0.200 F 
ATOM     79  C   UNL A   1      52.139  26.184  27.176  1.00  0.00     0.200 A 
ATOM     80  F   UNL A   1      52.428  25.785  29.486  1.00  0.00    -0.200 F 
ATOM     81  F   UNL A   1      53.438  25.936  26.956  1.00  0.00    -0.200 F 
ENDBRANCH  47  71
BRANCH  59  82
ATOM     82  C   UNL A   1      46.017  32.472  29.641  1.00  0.00     0.064 A 
ATOM     83  C   UNL A   1      46.395  32.794  30.953  1.00  0.00     0.173 A 
ATOM     84  C   UNL A   1      46.124  33.474  28.664  1.00  0.00     0.173 A 
ATOM     85  F   UNL A   1      46.299  31.876  31.927  1.00  0.00    -0.203 F 
ATOM     86  C   UNL A   1      46.839  34.073  31.278  1.00  0.00     0.198 A 
ATOM     87  C   UNL A   1      46.596  34.743  28.985  1.00  0.00     0.198 A 
ATOM     88  F   UNL A   1      45.782  33.218  27.392  1.00  0.00    -0.203 F 
ATOM     89  F   UNL A   1      47.151  34.371  32.547  1.00  0.00    -0.200 F 
ATOM     90  C   UNL A   1      46.946  35.044  30.293  1.00  0.00     0.200 A 
ATOM     91  F   UNL A   1      46.712  35.676  28.031  1.00  0.00    -0.200 F 
ATOM     92  F   UNL A   1      47.380  36.273  30.606  1.00  0.00    -0.200 F 
ENDBRANCH  59  82
ENDBRANCH  33  34
ENDBRANCH  26  28
ENDBRANCH  25  26
ENDBRANCH  24  25
ENDBRANCH  23  24
ENDBRANCH  22  23
ENDBRANCH   1  22
TORSDOF 18
ENDMDL
