MODEL 1
REMARK VINA RESULT:     -11.6      0.000      0.000
REMARK SMILES CC1(C)C(NC(=O)c2cc(F)c(F)cc2C(=O)OCCOCCOC(=O)c2ccc(-c3c4nc(c(-c5c(F)c(F)c(F)c(F)c5F)c5ccc([nH]5)c(-c5c(F)c(F)c(F)c(F)c5F)c5nc(c(-c6c(F)c(F)c(F)c(F)c6F)c6ccc3[nH]6)C=C5)C=C4)cc2)C1(C)C
REMARK SMILES IDX 21 1 20 2 19 3 18 4 16 5 17 6 15 7 8 8 9 9 10 10 14 11 11 12
REMARK SMILES IDX 12 13 13 14 6 15 5 16 7 18 4 19 1 20 2 21 3 22 90 23 91 24
REMARK SMILES IDX 92 25 22 26 23 27 24 28 25 29 26 30 27 31 28 32 89 33 29 34
REMARK SMILES IDX 88 35 30 36 31 37 32 38 82 39 33 40 87 41 81 42 83 43 34 44
REMARK SMILES IDX 86 45 80 46 79 47 35 49 67 50 47 51 66 52 48 53 51 54 65 55
REMARK SMILES IDX 84 56 49 57 50 58 64 60 85 61 52 62 36 63 37 64 45 65 38 66
REMARK SMILES IDX 39 67 43 68 46 69 40 70 41 71 44 72 42 73 68 74 69 75 77 76
REMARK SMILES IDX 70 77 71 78 75 79 78 80 72 81 73 82 76 83 74 84 53 85 54 86
REMARK SMILES IDX 62 87 55 88 56 89 60 90 63 91 57 92 58 93 61 94 59 95
REMARK H PARENT 5 17 83 48 51 59
REMARK Flexibility Score: inf
ROOT
ATOM      1  O   UNL A   1      38.782  22.246  26.133  1.00  0.00    -0.374 OA
ENDROOT
BRANCH   1   2
ATOM      2  C   UNL A   1      38.149  23.518  26.000  1.00  0.00     0.202 C 
BRANCH   2   3
ATOM      3  C   UNL A   1      36.624  23.525  26.093  1.00  0.00     0.261 C 
BRANCH   3   4
ATOM      4  O   UNL A   1      36.032  24.035  24.886  1.00  0.00    -0.460 OA
BRANCH   4   5
ATOM      5  C   UNL A   1      34.750  24.436  25.029  1.00  0.00     0.339 C 
ATOM      6  O   UNL A   1      34.355  25.439  25.604  1.00  0.00    -0.246 OA
BRANCH   5   7
ATOM      7  C   UNL A   1      33.825  23.636  24.205  1.00  0.00     0.075 A 
ATOM      8  C   UNL A   1      33.230  24.075  23.012  1.00  0.00     0.057 A 
ATOM      9  C   UNL A   1      32.631  23.124  22.170  1.00  0.00     0.057 A 
ATOM     10  C   UNL A   1      32.458  21.814  22.602  1.00  0.00     0.159 A 
ATOM     11  C   UNL A   1      33.645  22.307  24.633  1.00  0.00     0.059 A 
ATOM     12  F   UNL A   1      31.805  20.947  21.818  1.00  0.00    -0.204 F 
ATOM     13  C   UNL A   1      32.930  21.417  23.844  1.00  0.00     0.159 A 
ATOM     14  F   UNL A   1      32.721  20.169  24.280  1.00  0.00    -0.204 F 
BRANCH   8  15
ATOM     15  C   UNL A   1      33.205  25.509  22.634  1.00  0.00     0.252 C 
ATOM     16  N   UNL A   1      32.229  26.344  23.160  1.00  0.00    -0.348 N 
ATOM     17  H   UNL A   1      32.355  27.305  22.988  1.00  0.00     0.164 HD
ATOM     18  O   UNL A   1      34.067  25.954  21.882  1.00  0.00    -0.269 OA
BRANCH  16  19
ATOM     19  C   UNL A   1      31.061  26.001  23.921  1.00  0.00     0.094 C 
ATOM     20  C   UNL A   1      29.909  25.477  26.180  1.00  0.00     0.014 C 
ATOM     21  C   UNL A   1      30.692  26.454  25.318  1.00  0.00    -0.007 C 
ATOM     22  C   UNL A   1      31.689  27.236  26.135  1.00  0.00     0.014 C 
ATOM     23  C   UNL A   1      29.986  27.073  24.101  1.00  0.00    -0.007 C 
ATOM     24  C   UNL A   1      28.574  26.682  23.722  1.00  0.00     0.014 C 
ATOM     25  C   UNL A   1      30.273  28.522  23.755  1.00  0.00     0.014 C 
ENDBRANCH  16  19
ENDBRANCH   8  15
ENDBRANCH   5   7
ENDBRANCH   4   5
ENDBRANCH   3   4
ENDBRANCH   2   3
ENDBRANCH   1   2
BRANCH   1  26
ATOM     26  C   UNL A   1      38.272  21.165  25.353  1.00  0.00     0.202 C 
BRANCH  26  27
ATOM     27  C   UNL A   1      39.087  19.865  25.359  1.00  0.00     0.261 C 
BRANCH  27  28
ATOM     28  O   UNL A   1      39.956  19.747  26.500  1.00  0.00    -0.460 OA
BRANCH  28  29
ATOM     29  C   UNL A   1      41.264  19.565  26.203  1.00  0.00     0.338 C 
ATOM     30  O   UNL A   1      41.782  18.573  25.706  1.00  0.00    -0.246 OA
BRANCH  29  31
ATOM     31  C   UNL A   1      42.021  20.810  26.417  1.00  0.00     0.060 A 
ATOM     32  C   UNL A   1      42.324  21.176  27.734  1.00  0.00     0.016 A 
ATOM     33  C   UNL A   1      42.334  21.662  25.356  1.00  0.00     0.016 A 
ATOM     34  C   UNL A   1      42.904  22.415  27.999  1.00  0.00     0.010 A 
ATOM     35  C   UNL A   1      42.909  22.909  25.623  1.00  0.00     0.010 A 
ATOM     36  C   UNL A   1      43.165  23.304  26.948  1.00  0.00    -0.014 A 
BRANCH  36  37
ATOM     37  C   UNL A   1      43.584  24.695  27.251  1.00  0.00     0.031 A 
ATOM     38  C   UNL A   1      42.575  25.661  27.806  1.00  0.00     0.074 A 
ATOM     39  C   UNL A   1      44.857  25.083  27.060  1.00  0.00     0.049 A 
ATOM     40  N   UNL A   1      42.717  26.926  28.108  1.00  0.00    -0.248 NA
ATOM     41  C   UNL A   1      41.223  25.131  28.054  1.00  0.00     0.031 C 
ATOM     42  C   UNL A   1      45.932  24.229  26.562  1.00  0.00     0.029 A 
ATOM     43  N   UNL A   1      45.457  26.302  27.260  1.00  0.00    -0.354 N 
ATOM     44  C   UNL A   1      41.477  27.344  28.575  1.00  0.00     0.074 A 
ATOM     45  C   UNL A   1      40.587  26.208  28.495  1.00  0.00     0.031 C 
ATOM     46  C   UNL A   1      47.062  24.953  26.486  1.00  0.00     0.029 A 
ATOM     47  C   UNL A   1      46.782  26.327  26.902  1.00  0.00     0.049 A 
ATOM     48  H   UNL A   1      44.982  27.083  27.625  1.00  0.00     0.167 HD
ATOM     49  C   UNL A   1      41.121  28.565  29.037  1.00  0.00     0.037 A 
ATOM     50  C   UNL A   1      47.663  27.347  26.891  1.00  0.00     0.037 A 
ATOM     51  C   UNL A   1      42.012  29.691  29.133  1.00  0.00     0.049 A 
ATOM     52  C   UNL A   1      47.225  28.710  27.360  1.00  0.00     0.074 A 
ATOM     53  C   UNL A   1      41.747  30.959  29.620  1.00  0.00     0.029 A 
ATOM     54  N   UNL A   1      43.339  29.684  28.731  1.00  0.00    -0.354 N 
ATOM     55  N   UNL A   1      46.059  29.091  27.819  1.00  0.00    -0.248 NA
ATOM     56  C   UNL A   1      48.227  29.786  27.311  1.00  0.00     0.031 C 
ATOM     57  C   UNL A   1      42.900  31.733  29.471  1.00  0.00     0.029 A 
ATOM     58  C   UNL A   1      43.898  30.935  28.935  1.00  0.00     0.049 A 
ATOM     59  H   UNL A   1      43.813  28.907  28.357  1.00  0.00     0.167 HD
ATOM     60  C   UNL A   1      46.188  30.438  28.129  1.00  0.00     0.074 A 
ATOM     61  C   UNL A   1      47.553  30.809  27.818  1.00  0.00     0.031 C 
ATOM     62  C   UNL A   1      45.259  31.290  28.625  1.00  0.00     0.037 A 
BRANCH  49  63
ATOM     63  C   UNL A   1      39.701  28.766  29.470  1.00  0.00     0.064 A 
ATOM     64  C   UNL A   1      38.747  29.256  28.565  1.00  0.00     0.173 A 
ATOM     65  C   UNL A   1      39.304  28.560  30.799  1.00  0.00     0.173 A 
ATOM     66  F   UNL A   1      39.080  29.473  27.284  1.00  0.00    -0.203 F 
ATOM     67  C   UNL A   1      37.451  29.550  28.980  1.00  0.00     0.198 A 
ATOM     68  C   UNL A   1      38.001  28.835  31.205  1.00  0.00     0.198 A 
ATOM     69  F   UNL A   1      40.177  28.083  31.699  1.00  0.00    -0.203 F 
ATOM     70  F   UNL A   1      36.566  30.048  28.106  1.00  0.00    -0.200 F 
ATOM     71  C   UNL A   1      37.079  29.339  30.299  1.00  0.00     0.200 A 
ATOM     72  F   UNL A   1      37.635  28.612  32.476  1.00  0.00    -0.200 F 
ATOM     73  F   UNL A   1      35.831  29.621  30.697  1.00  0.00    -0.200 F 
ENDBRANCH  49  63
BRANCH  50  74
ATOM     74  C   UNL A   1      49.047  27.115  26.406  1.00  0.00     0.064 A 
ATOM     75  C   UNL A   1      50.076  26.765  27.294  1.00  0.00     0.173 A 
ATOM     76  C   UNL A   1      49.372  27.249  25.051  1.00  0.00     0.173 A 
ATOM     77  F   UNL A   1      49.814  26.619  28.601  1.00  0.00    -0.203 F 
ATOM     78  C   UNL A   1      51.381  26.576  26.845  1.00  0.00     0.198 A 
ATOM     79  C   UNL A   1      50.673  27.035  24.598  1.00  0.00     0.198 A 
ATOM     80  F   UNL A   1      48.417  27.555  24.160  1.00  0.00    -0.203 F 
ATOM     81  F   UNL A   1      52.350  26.269  27.718  1.00  0.00    -0.200 F 
ATOM     82  C   UNL A   1      51.677  26.707  25.497  1.00  0.00     0.200 A 
ATOM     83  F   UNL A   1      50.950  27.136  23.291  1.00  0.00    -0.200 F 
ATOM     84  F   UNL A   1      52.930  26.511  25.062  1.00  0.00    -0.200 F 
ENDBRANCH  50  74
BRANCH  62  85
ATOM     85  C   UNL A   1      45.674  32.709  28.881  1.00  0.00     0.064 A 
ATOM     86  C   UNL A   1      46.189  33.085  30.131  1.00  0.00     0.173 A 
ATOM     87  C   UNL A   1      45.473  33.712  27.922  1.00  0.00     0.173 A 
ATOM     88  F   UNL A   1      46.389  32.164  31.085  1.00  0.00    -0.203 F 
ATOM     89  C   UNL A   1      46.470  34.418  30.417  1.00  0.00     0.198 A 
ATOM     90  C   UNL A   1      45.778  35.041  28.204  1.00  0.00     0.198 A 
ATOM     91  F   UNL A   1      44.992  33.399  26.709  1.00  0.00    -0.203 F 
ATOM     92  F   UNL A   1      46.925  34.760  31.631  1.00  0.00    -0.200 F 
ATOM     93  C   UNL A   1      46.267  35.394  29.454  1.00  0.00     0.200 A 
ATOM     94  F   UNL A   1      45.600  35.981  27.265  1.00  0.00    -0.200 F 
ATOM     95  F   UNL A   1      46.540  36.677  29.729  1.00  0.00    -0.200 F 
ENDBRANCH  62  85
ENDBRANCH  36  37
ENDBRANCH  29  31
ENDBRANCH  28  29
ENDBRANCH  27  28
ENDBRANCH  26  27
ENDBRANCH   1  26
TORSDOF 16
ENDMDL
MODEL 2
REMARK VINA RESULT:     -11.6      5.051      9.080
REMARK SMILES CC1(C)C(NC(=O)c2cc(F)c(F)cc2C(=O)OCCOCCOC(=O)c2ccc(-c3c4nc(c(-c5c(F)c(F)c(F)c(F)c5F)c5ccc([nH]5)c(-c5c(F)c(F)c(F)c(F)c5F)c5nc(c(-c6c(F)c(F)c(F)c(F)c6F)c6ccc3[nH]6)C=C5)C=C4)cc2)C1(C)C
REMARK SMILES IDX 21 1 20 2 19 3 18 4 16 5 17 6 15 7 8 8 9 9 10 10 14 11 11 12
REMARK SMILES IDX 12 13 13 14 6 15 5 16 7 18 4 19 1 20 2 21 3 22 90 23 91 24
REMARK SMILES IDX 92 25 22 26 23 27 24 28 25 29 26 30 27 31 28 32 89 33 29 34
REMARK SMILES IDX 88 35 30 36 31 37 32 38 82 39 33 40 87 41 81 42 83 43 34 44
REMARK SMILES IDX 86 45 80 46 79 47 35 49 67 50 47 51 66 52 48 53 51 54 65 55
REMARK SMILES IDX 84 56 49 57 50 58 64 60 85 61 52 62 36 63 37 64 45 65 38 66
REMARK SMILES IDX 39 67 43 68 46 69 40 70 41 71 44 72 42 73 68 74 69 75 77 76
REMARK SMILES IDX 70 77 71 78 75 79 78 80 72 81 73 82 76 83 74 84 53 85 54 86
REMARK SMILES IDX 62 87 55 88 56 89 60 90 63 91 57 92 58 93 61 94 59 95
REMARK H PARENT 5 17 83 48 51 59
REMARK Flexibility Score: inf
ROOT
ATOM      1  O   UNL A   1      32.905  31.031  27.019  1.00  0.00    -0.374 OA
ENDROOT
BRANCH   1   2
ATOM      2  C   UNL A   1      32.897  29.878  26.176  1.00  0.00     0.202 C 
BRANCH   2   3
ATOM      3  C   UNL A   1      33.780  28.714  26.621  1.00  0.00     0.261 C 
BRANCH   3   4
ATOM      4  O   UNL A   1      33.068  27.466  26.555  1.00  0.00    -0.460 OA
BRANCH   4   5
ATOM      5  C   UNL A   1      33.053  26.906  25.326  1.00  0.00     0.339 C 
ATOM      6  O   UNL A   1      34.015  26.489  24.697  1.00  0.00    -0.246 OA
BRANCH   5   7
ATOM      7  C   UNL A   1      31.681  26.622  24.865  1.00  0.00     0.075 A 
ATOM      8  C   UNL A   1      30.892  25.549  25.308  1.00  0.00     0.057 A 
ATOM      9  C   UNL A   1      29.514  25.570  25.036  1.00  0.00     0.057 A 
ATOM     10  C   UNL A   1      28.983  26.528  24.180  1.00  0.00     0.159 A 
ATOM     11  C   UNL A   1      31.133  27.587  23.999  1.00  0.00     0.059 A 
ATOM     12  F   UNL A   1      27.683  26.476  23.865  1.00  0.00    -0.204 F 
ATOM     13  C   UNL A   1      29.797  27.509  23.634  1.00  0.00     0.159 A 
ATOM     14  F   UNL A   1      29.295  28.402  22.772  1.00  0.00    -0.204 F 
BRANCH   8  15
ATOM     15  C   UNL A   1      31.479  24.397  26.036  1.00  0.00     0.252 C 
ATOM     16  N   UNL A   1      32.131  23.396  25.329  1.00  0.00    -0.348 N 
ATOM     17  H   UNL A   1      32.621  22.741  25.877  1.00  0.00     0.164 HD
ATOM     18  O   UNL A   1      31.409  24.353  27.260  1.00  0.00    -0.269 OA
BRANCH  16  19
ATOM     19  C   UNL A   1      32.190  23.182  23.911  1.00  0.00     0.094 C 
ATOM     20  C   UNL A   1      33.274  23.626  21.602  1.00  0.00     0.014 C 
ATOM     21  C   UNL A   1      33.418  23.119  23.028  1.00  0.00    -0.007 C 
ATOM     22  C   UNL A   1      34.768  23.465  23.604  1.00  0.00     0.014 C 
ATOM     23  C   UNL A   1      32.687  21.824  23.414  1.00  0.00    -0.007 C 
ATOM     24  C   UNL A   1      31.792  21.098  22.432  1.00  0.00     0.014 C 
ATOM     25  C   UNL A   1      33.372  20.857  24.360  1.00  0.00     0.014 C 
ENDBRANCH  16  19
ENDBRANCH   8  15
ENDBRANCH   5   7
ENDBRANCH   4   5
ENDBRANCH   3   4
ENDBRANCH   2   3
ENDBRANCH   1   2
BRANCH   1  26
ATOM     26  C   UNL A   1      31.820  31.950  26.899  1.00  0.00     0.202 C 
BRANCH  26  27
ATOM     27  C   UNL A   1      32.169  33.443  26.965  1.00  0.00     0.261 C 
BRANCH  27  28
ATOM     28  O   UNL A   1      32.361  33.920  28.309  1.00  0.00    -0.460 OA
BRANCH  28  29
ATOM     29  C   UNL A   1      33.484  34.653  28.496  1.00  0.00     0.338 C 
ATOM     30  O   UNL A   1      33.579  35.874  28.523  1.00  0.00    -0.246 OA
BRANCH  29  31
ATOM     31  C   UNL A   1      34.623  33.780  28.828  1.00  0.00     0.060 A 
ATOM     32  C   UNL A   1      34.360  32.595  29.525  1.00  0.00     0.016 A 
ATOM     33  C   UNL A   1      35.938  34.168  28.561  1.00  0.00     0.016 A 
ATOM     34  C   UNL A   1      35.413  31.812  29.995  1.00  0.00     0.010 A 
ATOM     35  C   UNL A   1      36.994  33.386  29.039  1.00  0.00     0.010 A 
ATOM     36  C   UNL A   1      36.737  32.223  29.787  1.00  0.00    -0.014 A 
BRANCH  36  37
ATOM     37  C   UNL A   1      37.843  31.503  30.465  1.00  0.00     0.031 A 
ATOM     38  C   UNL A   1      38.156  31.823  31.900  1.00  0.00     0.074 A 
ATOM     39  C   UNL A   1      38.543  30.556  29.816  1.00  0.00     0.049 A 
ATOM     40  N   UNL A   1      39.097  31.342  32.671  1.00  0.00    -0.248 NA
ATOM     41  C   UNL A   1      37.292  32.820  32.556  1.00  0.00     0.031 C 
ATOM     42  C   UNL A   1      38.309  30.134  28.437  1.00  0.00     0.029 A 
ATOM     43  N   UNL A   1      39.596  29.782  30.235  1.00  0.00    -0.354 N 
ATOM     44  C   UNL A   1      38.944  31.978  33.896  1.00  0.00     0.074 A 
ATOM     45  C   UNL A   1      37.836  32.897  33.763  1.00  0.00     0.031 C 
ATOM     46  C   UNL A   1      39.201  29.180  28.119  1.00  0.00     0.029 A 
ATOM     47  C   UNL A   1      40.085  28.947  29.260  1.00  0.00     0.049 A 
ATOM     48  H   UNL A   1      39.965  29.821  31.146  1.00  0.00     0.167 HD
ATOM     49  C   UNL A   1      39.659  31.800  35.031  1.00  0.00     0.037 A 
ATOM     50  C   UNL A   1      41.138  28.106  29.281  1.00  0.00     0.037 A 
ATOM     51  C   UNL A   1      40.750  30.871  35.168  1.00  0.00     0.049 A 
ATOM     52  C   UNL A   1      41.951  27.967  30.542  1.00  0.00     0.074 A 
ATOM     53  C   UNL A   1      41.512  30.599  36.291  1.00  0.00     0.029 A 
ATOM     54  N   UNL A   1      41.235  30.066  34.149  1.00  0.00    -0.354 N 
ATOM     55  N   UNL A   1      41.787  28.556  31.701  1.00  0.00    -0.248 NA
ATOM     56  C   UNL A   1      43.097  27.045  30.499  1.00  0.00     0.031 C 
ATOM     57  C   UNL A   1      42.488  29.663  35.940  1.00  0.00     0.029 A 
ATOM     58  C   UNL A   1      42.304  29.316  34.611  1.00  0.00     0.049 A 
ATOM     59  H   UNL A   1      40.873  30.032  33.234  1.00  0.00     0.167 HD
ATOM     60  C   UNL A   1      42.790  28.067  32.526  1.00  0.00     0.074 A 
ATOM     61  C   UNL A   1      43.554  27.121  31.741  1.00  0.00     0.031 C 
ATOM     62  C   UNL A   1      43.054  28.376  33.819  1.00  0.00     0.037 A 
BRANCH  49  63
ATOM     63  C   UNL A   1      39.301  32.631  36.225  1.00  0.00     0.064 A 
ATOM     64  C   UNL A   1      39.926  33.868  36.439  1.00  0.00     0.173 A 
ATOM     65  C   UNL A   1      38.410  32.164  37.202  1.00  0.00     0.173 A 
ATOM     66  F   UNL A   1      40.790  34.355  35.535  1.00  0.00    -0.203 F 
ATOM     67  C   UNL A   1      39.684  34.601  37.598  1.00  0.00     0.198 A 
ATOM     68  C   UNL A   1      38.154  32.910  38.349  1.00  0.00     0.198 A 
ATOM     69  F   UNL A   1      37.780  30.991  37.036  1.00  0.00    -0.203 F 
ATOM     70  F   UNL A   1      40.318  35.766  37.797  1.00  0.00    -0.200 F 
ATOM     71  C   UNL A   1      38.798  34.122  38.552  1.00  0.00     0.200 A 
ATOM     72  F   UNL A   1      37.283  32.457  39.262  1.00  0.00    -0.200 F 
ATOM     73  F   UNL A   1      38.566  34.829  39.666  1.00  0.00    -0.200 F 
ENDBRANCH  49  63
BRANCH  50  74
ATOM     74  C   UNL A   1      41.488  27.339  28.059  1.00  0.00     0.064 A 
ATOM     75  C   UNL A   1      42.368  27.864  27.101  1.00  0.00     0.173 A 
ATOM     76  C   UNL A   1      40.942  26.072  27.819  1.00  0.00     0.173 A 
ATOM     77  F   UNL A   1      42.922  29.071  27.288  1.00  0.00    -0.203 F 
ATOM     78  C   UNL A   1      42.674  27.158  25.940  1.00  0.00     0.198 A 
ATOM     79  C   UNL A   1      41.268  25.355  26.669  1.00  0.00     0.198 A 
ATOM     80  F   UNL A   1      40.117  25.516  28.719  1.00  0.00    -0.203 F 
ATOM     81  F   UNL A   1      43.497  27.694  25.029  1.00  0.00    -0.200 F 
ATOM     82  C   UNL A   1      42.127  25.902  25.727  1.00  0.00     0.200 A 
ATOM     83  F   UNL A   1      40.759  24.130  26.479  1.00  0.00    -0.200 F 
ATOM     84  F   UNL A   1      42.433  25.215  24.617  1.00  0.00    -0.200 F 
ENDBRANCH  50  74
BRANCH  62  85
ATOM     85  C   UNL A   1      44.206  27.683  34.484  1.00  0.00     0.064 A 
ATOM     86  C   UNL A   1      45.493  28.243  34.443  1.00  0.00     0.173 A 
ATOM     87  C   UNL A   1      44.056  26.422  35.077  1.00  0.00     0.173 A 
ATOM     88  F   UNL A   1      45.691  29.443  33.876  1.00  0.00    -0.203 F 
ATOM     89  C   UNL A   1      46.589  27.555  34.956  1.00  0.00     0.198 A 
ATOM     90  C   UNL A   1      45.151  25.748  35.612  1.00  0.00     0.198 A 
ATOM     91  F   UNL A   1      42.844  25.850  35.149  1.00  0.00    -0.203 F 
ATOM     92  F   UNL A   1      47.815  28.092  34.872  1.00  0.00    -0.200 F 
ATOM     93  C   UNL A   1      46.418  26.311  35.542  1.00  0.00     0.200 A 
ATOM     94  F   UNL A   1      44.981  24.553  36.195  1.00  0.00    -0.200 F 
ATOM     95  F   UNL A   1      47.473  25.651  36.038  1.00  0.00    -0.200 F 
ENDBRANCH  62  85
ENDBRANCH  36  37
ENDBRANCH  29  31
ENDBRANCH  28  29
ENDBRANCH  27  28
ENDBRANCH  26  27
ENDBRANCH   1  26
TORSDOF 16
ENDMDL
MODEL 3
REMARK VINA RESULT:     -11.6      1.424      7.226
REMARK SMILES CC1(C)C(NC(=O)c2cc(F)c(F)cc2C(=O)OCCOCCOC(=O)c2ccc(-c3c4nc(c(-c5c(F)c(F)c(F)c(F)c5F)c5ccc([nH]5)c(-c5c(F)c(F)c(F)c(F)c5F)c5nc(c(-c6c(F)c(F)c(F)c(F)c6F)c6ccc3[nH]6)C=C5)C=C4)cc2)C1(C)C
REMARK SMILES IDX 21 1 20 2 19 3 18 4 16 5 17 6 15 7 8 8 9 9 10 10 14 11 11 12
REMARK SMILES IDX 12 13 13 14 6 15 5 16 7 18 4 19 1 20 2 21 3 22 90 23 91 24
REMARK SMILES IDX 92 25 22 26 23 27 24 28 25 29 26 30 27 31 28 32 89 33 29 34
REMARK SMILES IDX 88 35 30 36 31 37 32 38 82 39 33 40 87 41 81 42 83 43 34 44
REMARK SMILES IDX 86 45 80 46 79 47 35 49 67 50 47 51 66 52 48 53 51 54 65 55
REMARK SMILES IDX 84 56 49 57 50 58 64 60 85 61 52 62 36 63 37 64 45 65 38 66
REMARK SMILES IDX 39 67 43 68 46 69 40 70 41 71 44 72 42 73 68 74 69 75 77 76
REMARK SMILES IDX 70 77 71 78 75 79 78 80 72 81 73 82 76 83 74 84 53 85 54 86
REMARK SMILES IDX 62 87 55 88 56 89 60 90 63 91 57 92 58 93 61 94 59 95
REMARK H PARENT 5 17 83 48 51 59
REMARK Flexibility Score: inf
ROOT
ATOM      1  O   UNL A   1      38.120  21.601  24.990  1.00  0.00    -0.374 OA
ENDROOT
BRANCH   1   2
ATOM      2  C   UNL A   1      36.964  22.371  25.318  1.00  0.00     0.202 C 
BRANCH   2   3
ATOM      3  C   UNL A   1      36.323  23.146  24.168  1.00  0.00     0.261 C 
BRANCH   3   4
ATOM      4  O   UNL A   1      35.536  24.246  24.656  1.00  0.00    -0.460 OA
BRANCH   4   5
ATOM      5  C   UNL A   1      34.358  23.878  25.205  1.00  0.00     0.339 C 
ATOM      6  O   UNL A   1      33.920  24.213  26.296  1.00  0.00    -0.246 OA
BRANCH   5   7
ATOM      7  C   UNL A   1      33.495  23.171  24.241  1.00  0.00     0.075 A 
ATOM      8  C   UNL A   1      33.073  23.695  23.009  1.00  0.00     0.057 A 
ATOM      9  C   UNL A   1      32.526  22.819  22.057  1.00  0.00     0.057 A 
ATOM     10  C   UNL A   1      32.228  21.505  22.403  1.00  0.00     0.159 A 
ATOM     11  C   UNL A   1      33.189  21.840  24.580  1.00  0.00     0.059 A 
ATOM     12  F   UNL A   1      31.626  20.714  21.507  1.00  0.00    -0.204 F 
ATOM     13  C   UNL A   1      32.524  21.030  23.671  1.00  0.00     0.159 A 
ATOM     14  F   UNL A   1      32.193  19.780  24.019  1.00  0.00    -0.204 F 
BRANCH   8  15
ATOM     15  C   UNL A   1      33.176  25.143  22.700  1.00  0.00     0.252 C 
ATOM     16  N   UNL A   1      32.275  26.034  23.267  1.00  0.00    -0.348 N 
ATOM     17  H   UNL A   1      32.486  26.987  23.141  1.00  0.00     0.164 HD
ATOM     18  O   UNL A   1      34.075  25.545  21.969  1.00  0.00    -0.269 OA
BRANCH  16  19
ATOM     19  C   UNL A   1      31.080  25.759  24.013  1.00  0.00     0.094 C 
ATOM     20  C   UNL A   1      29.872  25.291  26.255  1.00  0.00     0.014 C 
ATOM     21  C   UNL A   1      30.724  26.224  25.409  1.00  0.00    -0.007 C 
ATOM     22  C   UNL A   1      31.760  26.935  26.244  1.00  0.00     0.014 C 
ATOM     23  C   UNL A   1      30.072  26.895  24.191  1.00  0.00    -0.007 C 
ATOM     24  C   UNL A   1      28.643  26.596  23.793  1.00  0.00     0.014 C 
ATOM     25  C   UNL A   1      30.453  28.326  23.859  1.00  0.00     0.014 C 
ENDBRANCH  16  19
ENDBRANCH   8  15
ENDBRANCH   5   7
ENDBRANCH   4   5
ENDBRANCH   3   4
ENDBRANCH   2   3
ENDBRANCH   1   2
BRANCH   1  26
ATOM     26  C   UNL A   1      38.054  20.188  25.179  1.00  0.00     0.202 C 
BRANCH  26  27
ATOM     27  C   UNL A   1      39.305  19.508  25.749  1.00  0.00     0.261 C 
BRANCH  27  28
ATOM     28  O   UNL A   1      40.402  20.418  25.947  1.00  0.00    -0.460 OA
BRANCH  28  29
ATOM     29  C   UNL A   1      40.855  20.495  27.220  1.00  0.00     0.338 C 
ATOM     30  O   UNL A   1      41.188  19.567  27.948  1.00  0.00    -0.246 OA
BRANCH  29  31
ATOM     31  C   UNL A   1      41.056  21.899  27.616  1.00  0.00     0.060 A 
ATOM     32  C   UNL A   1      40.396  22.889  26.878  1.00  0.00     0.016 A 
ATOM     33  C   UNL A   1      41.961  22.250  28.620  1.00  0.00     0.016 A 
ATOM     34  C   UNL A   1      40.669  24.235  27.114  1.00  0.00     0.010 A 
ATOM     35  C   UNL A   1      42.241  23.600  28.851  1.00  0.00     0.010 A 
ATOM     36  C   UNL A   1      41.622  24.597  28.076  1.00  0.00    -0.014 A 
BRANCH  36  37
ATOM     37  C   UNL A   1      42.061  26.011  28.177  1.00  0.00     0.031 A 
ATOM     38  C   UNL A   1      43.388  26.410  27.594  1.00  0.00     0.074 A 
ATOM     39  C   UNL A   1      41.274  26.933  28.758  1.00  0.00     0.049 A 
ATOM     40  N   UNL A   1      43.980  27.576  27.601  1.00  0.00    -0.248 NA
ATOM     41  C   UNL A   1      44.153  25.352  26.911  1.00  0.00     0.031 C 
ATOM     42  C   UNL A   1      39.953  26.674  29.326  1.00  0.00     0.029 A 
ATOM     43  N   UNL A   1      41.477  28.274  28.967  1.00  0.00    -0.354 N 
ATOM     44  C   UNL A   1      45.183  27.394  26.932  1.00  0.00     0.074 A 
ATOM     45  C   UNL A   1      45.252  26.001  26.552  1.00  0.00     0.031 C 
ATOM     46  C   UNL A   1      39.466  27.821  29.829  1.00  0.00     0.029 A 
ATOM     47  C   UNL A   1      40.451  28.886  29.645  1.00  0.00     0.049 A 
ATOM     48  H   UNL A   1      42.281  28.752  28.660  1.00  0.00     0.167 HD
ATOM     49  C   UNL A   1      46.138  28.312  26.653  1.00  0.00     0.037 A 
ATOM     50  C   UNL A   1      40.331  30.154  30.084  1.00  0.00     0.037 A 
ATOM     51  C   UNL A   1      46.060  29.703  27.015  1.00  0.00     0.049 A 
ATOM     52  C   UNL A   1      41.433  31.143  29.806  1.00  0.00     0.074 A 
ATOM     53  C   UNL A   1      46.966  30.713  26.744  1.00  0.00     0.029 A 
ATOM     54  N   UNL A   1      45.019  30.276  27.728  1.00  0.00    -0.354 N 
ATOM     55  N   UNL A   1      42.557  30.967  29.155  1.00  0.00    -0.248 NA
ATOM     56  C   UNL A   1      41.251  32.508  30.324  1.00  0.00     0.031 C 
ATOM     57  C   UNL A   1      46.495  31.890  27.333  1.00  0.00     0.029 A 
ATOM     58  C   UNL A   1      45.273  31.623  27.929  1.00  0.00     0.049 A 
ATOM     59  H   UNL A   1      44.218  29.798  28.043  1.00  0.00     0.167 HD
ATOM     60  C   UNL A   1      43.205  32.194  29.168  1.00  0.00     0.074 A 
ATOM     61  C   UNL A   1      42.344  33.115  29.881  1.00  0.00     0.031 C 
ATOM     62  C   UNL A   1      44.406  32.528  28.638  1.00  0.00     0.037 A 
BRANCH  49  63
ATOM     63  C   UNL A   1      47.364  27.852  25.925  1.00  0.00     0.064 A 
ATOM     64  C   UNL A   1      47.367  27.768  24.525  1.00  0.00     0.173 A 
ATOM     65  C   UNL A   1      48.502  27.408  26.615  1.00  0.00     0.173 A 
ATOM     66  F   UNL A   1      46.300  28.177  23.821  1.00  0.00    -0.203 F 
ATOM     67  C   UNL A   1      48.459  27.241  23.842  1.00  0.00     0.198 A 
ATOM     68  C   UNL A   1      49.601  26.902  25.926  1.00  0.00     0.198 A 
ATOM     69  F   UNL A   1      48.550  27.477  27.953  1.00  0.00    -0.203 F 
ATOM     70  F   UNL A   1      48.427  27.141  22.505  1.00  0.00    -0.200 F 
ATOM     71  C   UNL A   1      49.575  26.808  24.542  1.00  0.00     0.200 A 
ATOM     72  F   UNL A   1      50.688  26.501  26.602  1.00  0.00    -0.200 F 
ATOM     73  F   UNL A   1      50.626  26.302  23.883  1.00  0.00    -0.200 F 
ENDBRANCH  49  63
BRANCH  50  74
ATOM     74  C   UNL A   1      39.120  30.555  30.844  1.00  0.00     0.064 A 
ATOM     75  C   UNL A   1      39.060  30.414  32.239  1.00  0.00     0.173 A 
ATOM     76  C   UNL A   1      37.995  31.076  30.192  1.00  0.00     0.173 A 
ATOM     77  F   UNL A   1      40.113  29.924  32.910  1.00  0.00    -0.203 F 
ATOM     78  C   UNL A   1      37.914  30.761  32.949  1.00  0.00     0.198 A 
ATOM     79  C   UNL A   1      36.857  31.448  30.906  1.00  0.00     0.198 A 
ATOM     80  F   UNL A   1      38.015  31.256  28.862  1.00  0.00    -0.203 F 
ATOM     81  F   UNL A   1      37.874  30.591  34.277  1.00  0.00    -0.200 F 
ATOM     82  C   UNL A   1      36.815  31.282  32.282  1.00  0.00     0.200 A 
ATOM     83  F   UNL A   1      35.808  31.976  30.262  1.00  0.00    -0.200 F 
ATOM     84  F   UNL A   1      35.717  31.631  32.968  1.00  0.00    -0.200 F 
ENDBRANCH  50  74
BRANCH  62  85
ATOM     85  C   UNL A   1      44.869  33.947  28.788  1.00  0.00     0.064 A 
ATOM     86  C   UNL A   1      45.607  34.339  29.916  1.00  0.00     0.173 A 
ATOM     87  C   UNL A   1      44.502  34.936  27.865  1.00  0.00     0.173 A 
ATOM     88  F   UNL A   1      45.973  33.431  30.834  1.00  0.00    -0.203 F 
ATOM     89  C   UNL A   1      45.943  35.674  30.122  1.00  0.00     0.198 A 
ATOM     90  C   UNL A   1      44.861  36.267  28.063  1.00  0.00     0.198 A 
ATOM     91  F   UNL A   1      43.805  34.608  26.767  1.00  0.00    -0.203 F 
ATOM     92  F   UNL A   1      46.615  36.032  31.226  1.00  0.00    -0.200 F 
ATOM     93  C   UNL A   1      45.573  36.636  29.196  1.00  0.00     0.200 A 
ATOM     94  F   UNL A   1      44.520  37.193  27.156  1.00  0.00    -0.200 F 
ATOM     95  F   UNL A   1      45.900  37.920  29.393  1.00  0.00    -0.200 F 
ENDBRANCH  62  85
ENDBRANCH  36  37
ENDBRANCH  29  31
ENDBRANCH  28  29
ENDBRANCH  27  28
ENDBRANCH  26  27
ENDBRANCH   1  26
TORSDOF 16
ENDMDL
