MODEL 1
REMARK VINA RESULT:      -9.0      0.000      0.000
REMARK SMILES CSCC[NH2+]CC(C)(C)C(=O)OCCOCCOC(=O)c1ccc(-c2c3nc(c(-c4c(F)c(F)c(F)c(F)c4F)c4ccc([nH]4)c(-c4c(F)c(F)c(F)c(F)c4F)c4nc(c(-c5c(F)c(F)c(F)c(F)c5F)c5ccc2[nH]5)C=C4)C=C3)cc1
REMARK SMILES IDX 13 1 12 2 10 3 11 4 7 5 8 6 9 7 6 8 5 9 4 12 3 13 2 14 1 15
REMARK SMILES IDX 14 16 15 17 16 18 17 19 18 20 19 21 20 22 21 23 22 24 83 25
REMARK SMILES IDX 23 26 82 27 24 28 25 29 26 30 76 31 27 32 81 33 75 34 77 35
REMARK SMILES IDX 28 36 80 37 74 38 73 39 29 41 61 42 41 43 60 44 42 45 45 46
REMARK SMILES IDX 59 47 78 48 43 49 44 50 58 52 79 53 46 54 30 55 31 56 39 57
REMARK SMILES IDX 32 58 33 59 37 60 40 61 34 62 35 63 38 64 36 65 62 66 63 67
REMARK SMILES IDX 71 68 64 69 65 70 69 71 72 72 66 73 67 74 70 75 68 76 47 77
REMARK SMILES IDX 48 78 56 79 49 80 50 81 54 82 57 83 51 84 52 85 55 86 53 87
REMARK H PARENT 5 10 5 11 77 40 45 51
REMARK Flexibility Score: inf
ROOT
ATOM      1  C   UNL A   1      35.529  24.012  25.238  1.00  0.00     0.261 C 
ENDROOT
BRANCH   1   2
ATOM      2  O   UNL A   1      34.169  23.589  25.398  1.00  0.00    -0.463 OA
BRANCH   2   3
ATOM      3  C   UNL A   1      33.305  24.254  24.581  1.00  0.00     0.317 C 
ATOM      4  O   UNL A   1      33.188  25.470  24.634  1.00  0.00    -0.251 OA
BRANCH   3   5
ATOM      5  C   UNL A   1      32.472  23.338  23.659  1.00  0.00     0.111 C 
ATOM      6  C   UNL A   1      33.134  23.394  22.278  1.00  0.00     0.029 C 
ATOM      7  C   UNL A   1      31.025  23.873  23.503  1.00  0.00     0.029 C 
BRANCH   5   8
ATOM      8  C   UNL A   1      32.355  21.864  24.186  1.00  0.00     0.278 C 
BRANCH   8   9
ATOM      9  N   UNL A   1      33.331  20.810  23.847  1.00  0.00    -0.345 N 
ATOM     10  H   UNL A   1      33.132  20.476  22.903  1.00  0.00     0.346 HD
ATOM     11  H   UNL A   1      34.260  21.225  23.920  1.00  0.00     0.346 HD
BRANCH   9  12
ATOM     12  C   UNL A   1      33.293  19.665  24.764  1.00  0.00     0.271 C 
BRANCH  12  13
ATOM     13  C   UNL A   1      34.280  18.523  24.486  1.00  0.00     0.130 C 
BRANCH  13  14
ATOM     14  S   UNL A   1      33.596  17.157  23.464  1.00  0.00    -0.160 SA
ATOM     15  C   UNL A   1      32.393  18.061  22.467  1.00  0.00     0.085 C 
ENDBRANCH  13  14
ENDBRANCH  12  13
ENDBRANCH   9  12
ENDBRANCH   8   9
ENDBRANCH   5   8
ENDBRANCH   3   5
ENDBRANCH   2   3
ENDBRANCH   1   2
BRANCH   1  16
ATOM     16  C   UNL A   1      36.261  23.349  24.059  1.00  0.00     0.202 C 
BRANCH  16  17
ATOM     17  O   UNL A   1      36.400  21.936  24.016  1.00  0.00    -0.374 OA
BRANCH  17  18
ATOM     18  C   UNL A   1      36.660  21.215  25.216  1.00  0.00     0.202 C 
BRANCH  18  19
ATOM     19  C   UNL A   1      37.930  20.367  25.356  1.00  0.00     0.261 C 
BRANCH  19  20
ATOM     20  O   UNL A   1      39.126  21.161  25.413  1.00  0.00    -0.460 OA
BRANCH  20  21
ATOM     21  C   UNL A   1      39.860  20.983  26.537  1.00  0.00     0.338 C 
ATOM     22  O   UNL A   1      40.298  19.939  26.983  1.00  0.00    -0.246 OA
BRANCH  21  23
ATOM     23  C   UNL A   1      40.266  22.293  27.072  1.00  0.00     0.060 A 
ATOM     24  C   UNL A   1      39.715  23.434  26.474  1.00  0.00     0.016 A 
ATOM     25  C   UNL A   1      41.235  22.401  28.069  1.00  0.00     0.016 A 
ATOM     26  C   UNL A   1      40.164  24.696  26.841  1.00  0.00     0.010 A 
ATOM     27  C   UNL A   1      41.703  23.669  28.421  1.00  0.00     0.010 A 
ATOM     28  C   UNL A   1      41.195  24.816  27.779  1.00  0.00    -0.014 A 
BRANCH  28  29
ATOM     29  C   UNL A   1      41.869  26.122  27.934  1.00  0.00     0.031 A 
ATOM     30  C   UNL A   1      41.148  27.218  28.665  1.00  0.00     0.074 A 
ATOM     31  C   UNL A   1      43.119  26.308  27.477  1.00  0.00     0.049 A 
ATOM     32  N   UNL A   1      41.518  28.453  28.889  1.00  0.00    -0.248 NA
ATOM     33  C   UNL A   1      39.827  26.875  29.218  1.00  0.00     0.031 C 
ATOM     34  C   UNL A   1      43.931  25.294  26.808  1.00  0.00     0.029 A 
ATOM     35  N   UNL A   1      43.919  27.420  27.507  1.00  0.00    -0.354 N 
ATOM     36  C   UNL A   1      40.476  29.033  29.600  1.00  0.00     0.074 A 
ATOM     37  C   UNL A   1      39.445  28.029  29.743  1.00  0.00     0.031 C 
ATOM     38  C   UNL A   1      45.113  25.837  26.473  1.00  0.00     0.029 A 
ATOM     39  C   UNL A   1      45.123  27.244  26.873  1.00  0.00     0.049 A 
ATOM     40  H   UNL A   1      43.656  28.264  27.941  1.00  0.00     0.167 HD
ATOM     41  C   UNL A   1      40.396  30.290  30.097  1.00  0.00     0.037 A 
ATOM     42  C   UNL A   1      46.105  28.130  26.622  1.00  0.00     0.037 A 
ATOM     43  C   UNL A   1      41.428  31.281  29.947  1.00  0.00     0.049 A 
ATOM     44  C   UNL A   1      45.955  29.547  27.113  1.00  0.00     0.074 A 
ATOM     45  C   UNL A   1      41.452  32.582  30.417  1.00  0.00     0.029 A 
ATOM     46  N   UNL A   1      42.621  31.079  29.267  1.00  0.00    -0.354 N 
ATOM     47  N   UNL A   1      44.975  30.089  27.796  1.00  0.00    -0.248 NA
ATOM     48  C   UNL A   1      47.052  30.474  26.803  1.00  0.00     0.031 C 
ATOM     49  C   UNL A   1      42.632  33.185  29.969  1.00  0.00     0.029 A 
ATOM     50  C   UNL A   1      43.375  32.241  29.278  1.00  0.00     0.049 A 
ATOM     51  H   UNL A   1      42.890  30.235  28.839  1.00  0.00     0.167 HD
ATOM     52  C   UNL A   1      45.349  31.407  28.022  1.00  0.00     0.074 A 
ATOM     53  C   UNL A   1      46.653  31.579  27.417  1.00  0.00     0.031 C 
ATOM     54  C   UNL A   1      44.676  32.388  28.675  1.00  0.00     0.037 A 
BRANCH  41  55
ATOM     55  C   UNL A   1      39.133  30.671  30.818  1.00  0.00     0.064 A 
ATOM     56  C   UNL A   1      39.004  30.535  32.208  1.00  0.00     0.173 A 
ATOM     57  C   UNL A   1      38.046  31.204  30.107  1.00  0.00     0.173 A 
ATOM     58  F   UNL A   1      40.007  30.017  32.933  1.00  0.00    -0.203 F 
ATOM     59  C   UNL A   1      37.823  30.892  32.857  1.00  0.00     0.198 A 
ATOM     60  C   UNL A   1      36.880  31.589  30.763  1.00  0.00     0.198 A 
ATOM     61  F   UNL A   1      38.117  31.356  28.777  1.00  0.00    -0.203 F 
ATOM     62  F   UNL A   1      37.703  30.703  34.178  1.00  0.00    -0.200 F 
ATOM     63  C   UNL A   1      36.766  31.426  32.135  1.00  0.00     0.200 A 
ATOM     64  F   UNL A   1      35.865  32.117  30.065  1.00  0.00    -0.200 F 
ATOM     65  F   UNL A   1      35.634  31.774  32.761  1.00  0.00    -0.200 F 
ENDBRANCH  41  55
BRANCH  42  66
ATOM     66  C   UNL A   1      47.305  27.708  25.852  1.00  0.00     0.064 A 
ATOM     67  C   UNL A   1      48.471  27.280  26.499  1.00  0.00     0.173 A 
ATOM     68  C   UNL A   1      47.312  27.739  24.448  1.00  0.00     0.173 A 
ATOM     69  F   UNL A   1      48.521  27.256  27.840  1.00  0.00    -0.203 F 
ATOM     70  C   UNL A   1      49.605  26.920  25.775  1.00  0.00     0.198 A 
ATOM     71  C   UNL A   1      48.436  27.347  23.725  1.00  0.00     0.198 A 
ATOM     72  F   UNL A   1      46.222  28.142  23.778  1.00  0.00    -0.203 F 
ATOM     73  F   UNL A   1      50.723  26.562  26.422  1.00  0.00    -0.200 F 
ATOM     74  C   UNL A   1      49.585  26.946  24.389  1.00  0.00     0.200 A 
ATOM     75  F   UNL A   1      48.406  27.361  22.385  1.00  0.00    -0.200 F 
ATOM     76  F   UNL A   1      50.675  26.594  23.693  1.00  0.00    -0.200 F 
ENDBRANCH  42  66
BRANCH  54  77
ATOM     77  C   UNL A   1      45.354  33.723  28.803  1.00  0.00     0.064 A 
ATOM     78  C   UNL A   1      46.225  34.011  29.865  1.00  0.00     0.173 A 
ATOM     79  C   UNL A   1      45.162  34.712  27.825  1.00  0.00     0.173 A 
ATOM     80  F   UNL A   1      46.433  33.106  30.832  1.00  0.00    -0.203 F 
ATOM     81  C   UNL A   1      46.853  35.251  29.957  1.00  0.00     0.198 A 
ATOM     82  C   UNL A   1      45.819  35.935  27.902  1.00  0.00     0.198 A 
ATOM     83  F   UNL A   1      44.347  34.483  26.784  1.00  0.00    -0.203 F 
ATOM     84  F   UNL A   1      47.639  35.524  31.008  1.00  0.00    -0.200 F 
ATOM     85  C   UNL A   1      46.657  36.208  28.974  1.00  0.00     0.200 A 
ATOM     86  F   UNL A   1      45.642  36.852  26.941  1.00  0.00    -0.200 F 
ATOM     87  F   UNL A   1      47.270  37.396  29.060  1.00  0.00    -0.200 F 
ENDBRANCH  54  77
ENDBRANCH  28  29
ENDBRANCH  21  23
ENDBRANCH  20  21
ENDBRANCH  19  20
ENDBRANCH  18  19
ENDBRANCH  17  18
ENDBRANCH  16  17
ENDBRANCH   1  16
TORSDOF 19
ENDMDL
MODEL 2
REMARK VINA RESULT:      -9.0      0.883      7.841
REMARK SMILES CSCC[NH2+]CC(C)(C)C(=O)OCCOCCOC(=O)c1ccc(-c2c3nc(c(-c4c(F)c(F)c(F)c(F)c4F)c4ccc([nH]4)c(-c4c(F)c(F)c(F)c(F)c4F)c4nc(c(-c5c(F)c(F)c(F)c(F)c5F)c5ccc2[nH]5)C=C4)C=C3)cc1
REMARK SMILES IDX 13 1 12 2 10 3 11 4 7 5 8 6 9 7 6 8 5 9 4 12 3 13 2 14 1 15
REMARK SMILES IDX 14 16 15 17 16 18 17 19 18 20 19 21 20 22 21 23 22 24 83 25
REMARK SMILES IDX 23 26 82 27 24 28 25 29 26 30 76 31 27 32 81 33 75 34 77 35
REMARK SMILES IDX 28 36 80 37 74 38 73 39 29 41 61 42 41 43 60 44 42 45 45 46
REMARK SMILES IDX 59 47 78 48 43 49 44 50 58 52 79 53 46 54 30 55 31 56 39 57
REMARK SMILES IDX 32 58 33 59 37 60 40 61 34 62 35 63 38 64 36 65 62 66 63 67
REMARK SMILES IDX 71 68 64 69 65 70 69 71 72 72 66 73 67 74 70 75 68 76 47 77
REMARK SMILES IDX 48 78 56 79 49 80 50 81 54 82 57 83 51 84 52 85 55 86 53 87
REMARK H PARENT 5 10 5 11 77 40 45 51
REMARK Flexibility Score: inf
ROOT
ATOM      1  C   UNL A   1      35.172  23.543  23.578  1.00  0.00     0.261 C 
ENDROOT
BRANCH   1   2
ATOM      2  O   UNL A   1      33.979  22.826  23.920  1.00  0.00    -0.463 OA
BRANCH   2   3
ATOM      3  C   UNL A   1      33.286  23.402  24.941  1.00  0.00     0.317 C 
ATOM      4  O   UNL A   1      33.085  24.609  24.973  1.00  0.00    -0.251 OA
BRANCH   3   5
ATOM      5  C   UNL A   1      32.852  22.417  26.048  1.00  0.00     0.111 C 
ATOM      6  C   UNL A   1      31.322  22.489  26.117  1.00  0.00     0.029 C 
ATOM      7  C   UNL A   1      33.402  22.856  27.430  1.00  0.00     0.029 C 
BRANCH   5   8
ATOM      8  C   UNL A   1      33.352  20.949  25.806  1.00  0.00     0.278 C 
BRANCH   8   9
ATOM      9  N   UNL A   1      32.612  19.974  24.983  1.00  0.00    -0.345 N 
ATOM     10  H   UNL A   1      31.613  20.154  25.088  1.00  0.00     0.346 HD
ATOM     11  H   UNL A   1      32.926  20.093  24.020  1.00  0.00     0.346 HD
BRANCH   9  12
ATOM     12  C   UNL A   1      32.875  18.579  25.356  1.00  0.00     0.271 C 
BRANCH  12  13
ATOM     13  C   UNL A   1      32.547  17.508  24.307  1.00  0.00     0.130 C 
BRANCH  13  14
ATOM     14  S   UNL A   1      34.014  16.637  23.624  1.00  0.00    -0.160 SA
ATOM     15  C   UNL A   1      34.737  15.971  25.138  1.00  0.00     0.085 C 
ENDBRANCH  13  14
ENDBRANCH  12  13
ENDBRANCH   9  12
ENDBRANCH   8   9
ENDBRANCH   5   8
ENDBRANCH   3   5
ENDBRANCH   2   3
ENDBRANCH   1   2
BRANCH   1  16
ATOM     16  C   UNL A   1      36.432  22.665  23.490  1.00  0.00     0.202 C 
BRANCH  16  17
ATOM     17  O   UNL A   1      36.997  22.115  24.672  1.00  0.00    -0.374 OA
BRANCH  17  18
ATOM     18  C   UNL A   1      37.157  20.705  24.788  1.00  0.00     0.202 C 
BRANCH  18  19
ATOM     19  C   UNL A   1      38.528  20.100  25.111  1.00  0.00     0.261 C 
BRANCH  19  20
ATOM     20  O   UNL A   1      38.980  20.423  26.436  1.00  0.00    -0.460 OA
BRANCH  20  21
ATOM     21  C   UNL A   1      40.315  20.636  26.533  1.00  0.00     0.338 C 
ATOM     22  O   UNL A   1      41.213  19.952  26.080  1.00  0.00    -0.246 OA
BRANCH  21  23
ATOM     23  C   UNL A   1      40.560  21.972  27.100  1.00  0.00     0.060 A 
ATOM     24  C   UNL A   1      39.843  23.046  26.555  1.00  0.00     0.016 A 
ATOM     25  C   UNL A   1      41.537  22.181  28.072  1.00  0.00     0.016 A 
ATOM     26  C   UNL A   1      40.132  24.346  26.950  1.00  0.00     0.010 A 
ATOM     27  C   UNL A   1      41.842  23.489  28.453  1.00  0.00     0.010 A 
ATOM     28  C   UNL A   1      41.167  24.575  27.862  1.00  0.00    -0.014 A 
BRANCH  28  29
ATOM     29  C   UNL A   1      41.665  25.955  28.042  1.00  0.00     0.031 A 
ATOM     30  C   UNL A   1      43.023  26.304  27.501  1.00  0.00     0.074 A 
ATOM     31  C   UNL A   1      40.900  26.890  28.630  1.00  0.00     0.049 A 
ATOM     32  N   UNL A   1      43.684  27.430  27.573  1.00  0.00    -0.248 NA
ATOM     33  C   UNL A   1      43.732  25.234  26.780  1.00  0.00     0.031 C 
ATOM     34  C   UNL A   1      39.546  26.674  29.136  1.00  0.00     0.029 A 
ATOM     35  N   UNL A   1      41.159  28.208  28.902  1.00  0.00    -0.354 N 
ATOM     36  C   UNL A   1      44.885  27.202  26.916  1.00  0.00     0.074 A 
ATOM     37  C   UNL A   1      44.879  25.823  26.481  1.00  0.00     0.031 C 
ATOM     38  C   UNL A   1      39.098  27.820  29.675  1.00  0.00     0.029 A 
ATOM     39  C   UNL A   1      40.146  28.835  29.582  1.00  0.00     0.049 A 
ATOM     40  H   UNL A   1      41.992  28.661  28.635  1.00  0.00     0.167 HD
ATOM     41  C   UNL A   1      45.898  28.073  26.691  1.00  0.00     0.037 A 
ATOM     42  C   UNL A   1      40.091  30.079  30.095  1.00  0.00     0.037 A 
ATOM     43  C   UNL A   1      45.893  29.442  27.131  1.00  0.00     0.049 A 
ATOM     44  C   UNL A   1      41.265  31.003  29.902  1.00  0.00     0.074 A 
ATOM     45  C   UNL A   1      46.863  30.411  26.950  1.00  0.00     0.029 A 
ATOM     46  N   UNL A   1      44.864  30.035  27.851  1.00  0.00    -0.354 N 
ATOM     47  N   UNL A   1      42.395  30.789  29.270  1.00  0.00    -0.248 NA
ATOM     48  C   UNL A   1      41.155  32.345  30.491  1.00  0.00     0.031 C 
ATOM     49  C   UNL A   1      46.448  31.572  27.610  1.00  0.00     0.029 A 
ATOM     50  C   UNL A   1      45.189  31.348  28.146  1.00  0.00     0.049 A 
ATOM     51  H   UNL A   1      44.028  29.587  28.112  1.00  0.00     0.167 HD
ATOM     52  C   UNL A   1      43.114  31.974  29.358  1.00  0.00     0.074 A 
ATOM     53  C   UNL A   1      42.286  32.908  30.092  1.00  0.00     0.031 C 
ATOM     54  C   UNL A   1      44.347  32.264  28.874  1.00  0.00     0.037 A 
BRANCH  41  55
ATOM     55  C   UNL A   1      47.107  27.556  25.964  1.00  0.00     0.064 A 
ATOM     56  C   UNL A   1      47.220  27.627  24.568  1.00  0.00     0.173 A 
ATOM     57  C   UNL A   1      48.180  27.003  26.681  1.00  0.00     0.173 A 
ATOM     58  F   UNL A   1      46.217  28.132  23.834  1.00  0.00    -0.203 F 
ATOM     59  C   UNL A   1      48.349  27.140  23.913  1.00  0.00     0.198 A 
ATOM     60  C   UNL A   1      49.321  26.546  26.025  1.00  0.00     0.198 A 
ATOM     61  F   UNL A   1      48.125  26.912  28.017  1.00  0.00    -0.203 F 
ATOM     62  F   UNL A   1      48.411  27.170  22.574  1.00  0.00    -0.200 F 
ATOM     63  C   UNL A   1      49.401  26.607  24.643  1.00  0.00     0.200 A 
ATOM     64  F   UNL A   1      50.342  26.044  26.734  1.00  0.00    -0.200 F 
ATOM     65  F   UNL A   1      50.489  26.144  24.012  1.00  0.00    -0.200 F 
ENDBRANCH  41  55
BRANCH  42  66
ATOM     66  C   UNL A   1      38.889  30.513  30.856  1.00  0.00     0.064 A 
ATOM     67  C   UNL A   1      37.779  31.069  30.207  1.00  0.00     0.173 A 
ATOM     68  C   UNL A   1      38.835  30.394  32.254  1.00  0.00     0.173 A 
ATOM     69  F   UNL A   1      37.794  31.227  28.875  1.00  0.00    -0.203 F 
ATOM     70  C   UNL A   1      36.670  31.508  30.926  1.00  0.00     0.198 A 
ATOM     71  C   UNL A   1      37.712  30.802  32.969  1.00  0.00     0.198 A 
ATOM     72  F   UNL A   1      39.871  29.869  32.925  1.00  0.00    -0.203 F 
ATOM     73  F   UNL A   1      35.643  32.082  30.284  1.00  0.00    -0.200 F 
ATOM     74  C   UNL A   1      36.634  31.368  32.306  1.00  0.00     0.200 A 
ATOM     75  F   UNL A   1      37.676  30.652  34.300  1.00  0.00    -0.200 F 
ATOM     76  F   UNL A   1      35.564  31.786  32.997  1.00  0.00    -0.200 F 
ENDBRANCH  42  66
BRANCH  54  77
ATOM     77  C   UNL A   1      44.860  33.661  29.086  1.00  0.00     0.064 A 
ATOM     78  C   UNL A   1      44.608  34.690  28.166  1.00  0.00     0.173 A 
ATOM     79  C   UNL A   1      45.579  33.982  30.249  1.00  0.00     0.173 A 
ATOM     80  F   UNL A   1      43.937  34.434  27.033  1.00  0.00    -0.203 F 
ATOM     81  C   UNL A   1      45.082  35.980  28.389  1.00  0.00     0.198 A 
ATOM     82  C   UNL A   1      46.020  35.280  30.485  1.00  0.00     0.198 A 
ATOM     83  F   UNL A   1      45.839  33.036  31.165  1.00  0.00    -0.203 F 
ATOM     84  F   UNL A   1      44.875  36.935  27.472  1.00  0.00    -0.200 F 
ATOM     85  C   UNL A   1      45.780  36.276  29.550  1.00  0.00     0.200 A 
ATOM     86  F   UNL A   1      46.678  35.567  31.616  1.00  0.00    -0.200 F 
ATOM     87  F   UNL A   1      46.227  37.521  29.767  1.00  0.00    -0.200 F 
ENDBRANCH  54  77
ENDBRANCH  28  29
ENDBRANCH  21  23
ENDBRANCH  20  21
ENDBRANCH  19  20
ENDBRANCH  18  19
ENDBRANCH  17  18
ENDBRANCH  16  17
ENDBRANCH   1  16
TORSDOF 19
ENDMDL
MODEL 3
REMARK VINA RESULT:      -9.0      5.718      9.304
REMARK SMILES CSCC[NH2+]CC(C)(C)C(=O)OCCOCCOC(=O)c1ccc(-c2c3nc(c(-c4c(F)c(F)c(F)c(F)c4F)c4ccc([nH]4)c(-c4c(F)c(F)c(F)c(F)c4F)c4nc(c(-c5c(F)c(F)c(F)c(F)c5F)c5ccc2[nH]5)C=C4)C=C3)cc1
REMARK SMILES IDX 13 1 12 2 10 3 11 4 7 5 8 6 9 7 6 8 5 9 4 12 3 13 2 14 1 15
REMARK SMILES IDX 14 16 15 17 16 18 17 19 18 20 19 21 20 22 21 23 22 24 83 25
REMARK SMILES IDX 23 26 82 27 24 28 25 29 26 30 76 31 27 32 81 33 75 34 77 35
REMARK SMILES IDX 28 36 80 37 74 38 73 39 29 41 61 42 41 43 60 44 42 45 45 46
REMARK SMILES IDX 59 47 78 48 43 49 44 50 58 52 79 53 46 54 30 55 31 56 39 57
REMARK SMILES IDX 32 58 33 59 37 60 40 61 34 62 35 63 38 64 36 65 62 66 63 67
REMARK SMILES IDX 71 68 64 69 65 70 69 71 72 72 66 73 67 74 70 75 68 76 47 77
REMARK SMILES IDX 48 78 56 79 49 80 50 81 54 82 57 83 51 84 52 85 55 86 53 87
REMARK H PARENT 5 10 5 11 77 40 45 51
REMARK Flexibility Score: inf
ROOT
ATOM      1  C   UNL A   1      33.230  29.486  25.751  1.00  0.00     0.261 C 
ENDROOT
BRANCH   1   2
ATOM      2  O   UNL A   1      32.860  28.128  25.482  1.00  0.00    -0.463 OA
BRANCH   2   3
ATOM      3  C   UNL A   1      33.178  27.729  24.219  1.00  0.00     0.317 C 
ATOM      4  O   UNL A   1      33.762  28.475  23.444  1.00  0.00    -0.251 OA
BRANCH   3   5
ATOM      5  C   UNL A   1      32.687  26.311  23.859  1.00  0.00     0.111 C 
ATOM      6  C   UNL A   1      32.000  25.758  25.113  1.00  0.00     0.029 C 
ATOM      7  C   UNL A   1      33.880  25.375  23.532  1.00  0.00     0.029 C 
BRANCH   5   8
ATOM      8  C   UNL A   1      31.731  26.280  22.614  1.00  0.00     0.278 C 
BRANCH   8   9
ATOM      9  N   UNL A   1      31.085  27.488  22.068  1.00  0.00    -0.345 N 
ATOM     10  H   UNL A   1      31.738  28.268  22.144  1.00  0.00     0.346 HD
ATOM     11  H   UNL A   1      30.838  27.286  21.099  1.00  0.00     0.346 HD
BRANCH   9  12
ATOM     12  C   UNL A   1      29.845  27.851  22.766  1.00  0.00     0.271 C 
BRANCH  12  13
ATOM     13  C   UNL A   1      29.590  29.346  22.991  1.00  0.00     0.130 C 
BRANCH  13  14
ATOM     14  S   UNL A   1      27.892  29.903  22.562  1.00  0.00    -0.160 SA
ATOM     15  C   UNL A   1      27.760  31.382  23.588  1.00  0.00     0.085 C 
ENDBRANCH  13  14
ENDBRANCH  12  13
ENDBRANCH   9  12
ENDBRANCH   8   9
ENDBRANCH   5   8
ENDBRANCH   3   5
ENDBRANCH   2   3
ENDBRANCH   1   2
BRANCH   1  16
ATOM     16  C   UNL A   1      34.238  29.648  26.901  1.00  0.00     0.202 C 
BRANCH  16  17
ATOM     17  O   UNL A   1      34.546  30.943  27.397  1.00  0.00    -0.374 OA
BRANCH  17  18
ATOM     18  C   UNL A   1      33.507  31.764  27.919  1.00  0.00     0.202 C 
BRANCH  18  19
ATOM     19  C   UNL A   1      33.337  33.209  27.433  1.00  0.00     0.261 C 
BRANCH  19  20
ATOM     20  O   UNL A   1      32.460  33.978  28.270  1.00  0.00    -0.460 OA
BRANCH  20  21
ATOM     21  C   UNL A   1      33.041  35.060  28.843  1.00  0.00     0.338 C 
ATOM     22  O   UNL A   1      32.634  36.206  28.853  1.00  0.00    -0.246 OA
BRANCH  21  23
ATOM     23  C   UNL A   1      34.176  34.626  29.674  1.00  0.00     0.060 A 
ATOM     24  C   UNL A   1      35.460  34.742  29.124  1.00  0.00     0.016 A 
ATOM     25  C   UNL A   1      33.979  34.033  30.920  1.00  0.00     0.016 A 
ATOM     26  C   UNL A   1      36.555  34.222  29.803  1.00  0.00     0.010 A 
ATOM     27  C   UNL A   1      35.077  33.491  31.591  1.00  0.00     0.010 A 
ATOM     28  C   UNL A   1      36.361  33.550  31.014  1.00  0.00    -0.014 A 
BRANCH  28  29
ATOM     29  C   UNL A   1      37.470  32.745  31.568  1.00  0.00     0.031 A 
ATOM     30  C   UNL A   1      37.995  33.090  32.932  1.00  0.00     0.074 A 
ATOM     31  C   UNL A   1      37.962  31.696  30.888  1.00  0.00     0.049 A 
ATOM     32  N   UNL A   1      38.982  32.556  33.604  1.00  0.00    -0.248 NA
ATOM     33  C   UNL A   1      37.313  34.190  33.635  1.00  0.00     0.031 C 
ATOM     34  C   UNL A   1      37.485  31.238  29.585  1.00  0.00     0.029 A 
ATOM     35  N   UNL A   1      38.976  30.829  31.204  1.00  0.00    -0.354 N 
ATOM     36  C   UNL A   1      39.043  33.258  34.800  1.00  0.00     0.074 A 
ATOM     37  C   UNL A   1      38.018  34.277  34.751  1.00  0.00     0.031 C 
ATOM     38  C   UNL A   1      38.220  30.180  29.202  1.00  0.00     0.029 A 
ATOM     39  C   UNL A   1      39.239  29.914  30.217  1.00  0.00     0.049 A 
ATOM     40  H   UNL A   1      39.468  30.861  32.056  1.00  0.00     0.167 HD
ATOM     41  C   UNL A   1      39.878  33.059  35.849  1.00  0.00     0.037 A 
ATOM     42  C   UNL A   1      40.212  28.986  30.136  1.00  0.00     0.037 A 
ATOM     43  C   UNL A   1      40.894  32.043  35.885  1.00  0.00     0.049 A 
ATOM     44  C   UNL A   1      41.180  28.840  31.281  1.00  0.00     0.074 A 
ATOM     45  C   UNL A   1      41.789  31.751  36.899  1.00  0.00     0.029 A 
ATOM     46  N   UNL A   1      41.158  31.155  34.851  1.00  0.00    -0.354 N 
ATOM     47  N   UNL A   1      41.229  29.496  32.416  1.00  0.00    -0.248 NA
ATOM     48  C   UNL A   1      42.228  27.820  31.136  1.00  0.00     0.031 C 
ATOM     49  C   UNL A   1      42.631  30.726  36.456  1.00  0.00     0.029 A 
ATOM     50  C   UNL A   1      42.220  30.333  35.192  1.00  0.00     0.049 A 
ATOM     51  H   UNL A   1      40.663  31.115  34.002  1.00  0.00     0.167 HD
ATOM     52  C   UNL A   1      42.287  28.950  33.130  1.00  0.00     0.074 A 
ATOM     53  C   UNL A   1      42.846  27.898  32.306  1.00  0.00     0.031 C 
ATOM     54  C   UNL A   1      42.755  29.286  34.358  1.00  0.00     0.037 A 
BRANCH  41  55
ATOM     55  C   UNL A   1      39.743  33.984  37.026  1.00  0.00     0.064 A 
ATOM     56  C   UNL A   1      40.418  35.213  37.084  1.00  0.00     0.173 A 
ATOM     57  C   UNL A   1      38.907  33.643  38.100  1.00  0.00     0.173 A 
ATOM     58  F   UNL A   1      41.242  35.579  36.091  1.00  0.00    -0.203 F 
ATOM     59  C   UNL A   1      40.281  36.054  38.186  1.00  0.00     0.198 A 
ATOM     60  C   UNL A   1      38.748  34.502  39.185  1.00  0.00     0.198 A 
ATOM     61  F   UNL A   1      38.238  32.481  38.095  1.00  0.00    -0.203 F 
ATOM     62  F   UNL A   1      40.977  37.199  38.244  1.00  0.00    -0.200 F 
ATOM     63  C   UNL A   1      39.441  35.702  39.232  1.00  0.00     0.200 A 
ATOM     64  F   UNL A   1      37.925  34.164  40.188  1.00  0.00    -0.200 F 
ATOM     65  F   UNL A   1      39.306  36.515  40.288  1.00  0.00    -0.200 F 
ENDBRANCH  41  55
BRANCH  42  66
ATOM     66  C   UNL A   1      40.330  28.140  28.919  1.00  0.00     0.064 A 
ATOM     67  C   UNL A   1      41.085  28.555  27.815  1.00  0.00     0.173 A 
ATOM     68  C   UNL A   1      39.673  26.903  28.831  1.00  0.00     0.173 A 
ATOM     69  F   UNL A   1      41.711  29.742  27.841  1.00  0.00    -0.203 F 
ATOM     70  C   UNL A   1      41.164  27.776  26.662  1.00  0.00     0.198 A 
ATOM     71  C   UNL A   1      39.779  26.109  27.692  1.00  0.00     0.198 A 
ATOM     72  F   UNL A   1      38.935  26.458  29.860  1.00  0.00    -0.203 F 
ATOM     73  F   UNL A   1      41.853  28.221  25.603  1.00  0.00    -0.200 F 
ATOM     74  C   UNL A   1      40.517  26.551  26.604  1.00  0.00     0.200 A 
ATOM     75  F   UNL A   1      39.164  24.920  27.646  1.00  0.00    -0.200 F 
ATOM     76  F   UNL A   1      40.597  25.800  25.497  1.00  0.00    -0.200 F 
ENDBRANCH  42  66
BRANCH  54  77
ATOM     77  C   UNL A   1      43.902  28.483  34.903  1.00  0.00     0.064 A 
ATOM     78  C   UNL A   1      45.236  28.880  34.724  1.00  0.00     0.173 A 
ATOM     79  C   UNL A   1      43.659  27.321  35.653  1.00  0.00     0.173 A 
ATOM     80  F   UNL A   1      45.523  29.976  34.005  1.00  0.00    -0.203 F 
ATOM     81  C   UNL A   1      46.283  28.127  35.249  1.00  0.00     0.198 A 
ATOM     82  C   UNL A   1      44.706  26.591  36.206  1.00  0.00     0.198 A 
ATOM     83  F   UNL A   1      42.402  26.902  35.862  1.00  0.00    -0.203 F 
ATOM     84  F   UNL A   1      47.551  28.496  35.020  1.00  0.00    -0.200 F 
ATOM     85  C   UNL A   1      46.018  26.989  35.995  1.00  0.00     0.200 A 
ATOM     86  F   UNL A   1      44.447  25.502  36.942  1.00  0.00    -0.200 F 
ATOM     87  F   UNL A   1      47.027  26.272  36.508  1.00  0.00    -0.200 F 
ENDBRANCH  54  77
ENDBRANCH  28  29
ENDBRANCH  21  23
ENDBRANCH  20  21
ENDBRANCH  19  20
ENDBRANCH  18  19
ENDBRANCH  17  18
ENDBRANCH  16  17
ENDBRANCH   1  16
TORSDOF 19
ENDMDL
