MODEL 1
REMARK VINA RESULT:     -12.5      0.000      0.000
REMARK SMILES CC1(C)Oc2ccc(NC(=O)[C@H]3CC=CC[C@@H]3C(=O)OCCOCCOC(=O)c3ccc(-c4c5nc(c(-c6c(F)c(F)c(F)c(F)c6F)c6ccc([nH]6)c(-c6c(F)c(F)c(F)c(F)c6F)c6nc(c(-c7c(F)c(F)c(F)c(F)c7F)c7ccc4[nH]7)C=C6)C=C5)cc3)cc2NC1=O
REMARK SMILES IDX 23 1 22 2 21 3 20 4 18 5 19 6 17 7 12 8 13 9 14 10 16 11
REMARK SMILES IDX 15 12 10 13 9 14 11 16 8 17 1 18 2 19 3 20 4 21 95 22 5 23
REMARK SMILES IDX 94 24 96 25 6 26 93 27 7 29 92 30 24 31 25 32 26 33 27 34
REMARK SMILES IDX 28 35 29 36 30 37 91 38 31 39 90 40 32 41 33 42 34 43 84 44
REMARK SMILES IDX 35 45 89 46 83 47 85 48 36 49 88 50 82 51 81 52 37 54 69 55
REMARK SMILES IDX 49 56 68 57 50 58 53 59 67 60 86 61 51 62 52 63 66 65 87 66
REMARK SMILES IDX 54 67 38 68 39 69 47 70 40 71 41 72 45 73 48 74 42 75 43 76
REMARK SMILES IDX 46 77 44 78 70 79 71 80 79 81 72 82 73 83 77 84 80 85 74 86
REMARK SMILES IDX 75 87 78 88 76 89 55 90 56 91 64 92 57 93 58 94 62 95 65 96
REMARK SMILES IDX 59 97 60 98 63 99 61 100
REMARK H PARENT 9 15 94 28 85 53 53 64
REMARK Flexibility Score: inf
ROOT
ATOM      1  O   UNL A   1      37.420  21.622  24.295  1.00  0.00    -0.374 OA
ENDROOT
BRANCH   1   2
ATOM      2  C   UNL A   1      36.475  22.641  24.599  1.00  0.00     0.202 C 
BRANCH   2   3
ATOM      3  C   UNL A   1      35.337  22.926  23.611  1.00  0.00     0.261 C 
BRANCH   3   4
ATOM      4  O   UNL A   1      35.291  24.283  23.126  1.00  0.00    -0.463 OA
BRANCH   4   5
ATOM      5  C   UNL A   1      34.027  24.798  23.045  1.00  0.00     0.310 C 
ATOM      6  O   UNL A   1      33.541  25.226  22.008  1.00  0.00    -0.252 OA
BRANCH   5   7
ATOM      7  C   UNL A   1      33.333  24.836  24.408  1.00  0.00     0.116 C 
ATOM      8  C   UNL A   1      31.809  25.097  24.357  1.00  0.00     0.097 C 
ATOM      9  C   UNL A   1      31.426  26.568  24.065  1.00  0.00     0.041 C 
ATOM     10  C   UNL A   1      32.477  27.588  24.367  1.00  0.00    -0.030 C 
ATOM     11  C   UNL A   1      34.058  25.886  25.275  1.00  0.00     0.043 C 
ATOM     12  C   UNL A   1      33.653  27.290  24.933  1.00  0.00    -0.030 C 
BRANCH   8  13
ATOM     13  C   UNL A   1      31.194  24.680  25.692  1.00  0.00     0.228 C 
ATOM     14  N   UNL A   1      31.359  23.458  26.265  1.00  0.00    -0.326 N 
ATOM     15  H   UNL A   1      30.833  23.365  27.092  1.00  0.00     0.169 HD
ATOM     16  O   UNL A   1      30.473  25.464  26.321  1.00  0.00    -0.274 OA
BRANCH  14  17
ATOM     17  C   UNL A   1      32.091  22.297  25.975  1.00  0.00     0.043 A 
ATOM     18  C   UNL A   1      34.472  16.941  23.514  1.00  0.00     0.067 C 
ATOM     19  C   UNL A   1      33.440  17.882  24.141  1.00  0.00     0.182 C 
ATOM     20  C   UNL A   1      32.576  17.088  25.135  1.00  0.00     0.067 C 
ATOM     21  O   UNL A   1      34.183  18.857  24.887  1.00  0.00    -0.476 OA
ATOM     22  C   UNL A   1      32.528  18.467  23.034  1.00  0.00     0.268 C 
ATOM     23  C   UNL A   1      33.449  19.964  25.213  1.00  0.00     0.144 A 
ATOM     24  N   UNL A   1      31.967  19.685  23.335  1.00  0.00    -0.319 N 
ATOM     25  O   UNL A   1      32.227  17.874  22.001  1.00  0.00    -0.270 OA
ATOM     26  C   UNL A   1      33.828  20.655  26.351  1.00  0.00     0.051 A 
ATOM     27  C   UNL A   1      32.365  20.409  24.461  1.00  0.00     0.086 A 
ATOM     28  H   UNL A   1      31.271  20.055  22.745  1.00  0.00     0.170 HD
ATOM     29  C   UNL A   1      33.139  21.802  26.744  1.00  0.00     0.030 A 
ATOM     30  C   UNL A   1      31.693  21.575  24.833  1.00  0.00     0.056 A 
ENDBRANCH  14  17
ENDBRANCH   8  13
ENDBRANCH   5   7
ENDBRANCH   4   5
ENDBRANCH   3   4
ENDBRANCH   2   3
ENDBRANCH   1   2
BRANCH   1  31
ATOM     31  C   UNL A   1      37.313  20.392  25.001  1.00  0.00     0.202 C 
BRANCH  31  32
ATOM     32  C   UNL A   1      38.591  19.751  25.556  1.00  0.00     0.261 C 
BRANCH  32  33
ATOM     33  O   UNL A   1      39.689  20.671  25.641  1.00  0.00    -0.460 OA
BRANCH  33  34
ATOM     34  C   UNL A   1      40.329  20.674  26.840  1.00  0.00     0.338 C 
ATOM     35  O   UNL A   1      40.692  19.710  27.492  1.00  0.00    -0.246 OA
BRANCH  34  36
ATOM     36  C   UNL A   1      40.723  22.057  27.165  1.00  0.00     0.060 A 
ATOM     37  C   UNL A   1      41.667  22.329  28.151  1.00  0.00     0.016 A 
ATOM     38  C   UNL A   1      40.116  23.101  26.454  1.00  0.00     0.016 A 
ATOM     39  C   UNL A   1      41.999  23.655  28.437  1.00  0.00     0.010 A 
ATOM     40  C   UNL A   1      40.466  24.423  26.721  1.00  0.00     0.010 A 
ATOM     41  C   UNL A   1      41.422  24.711  27.705  1.00  0.00    -0.014 A 
BRANCH  41  42
ATOM     42  C   UNL A   1      41.944  26.092  27.855  1.00  0.00     0.031 A 
ATOM     43  C   UNL A   1      43.292  26.496  27.338  1.00  0.00     0.074 A 
ATOM     44  C   UNL A   1      41.186  26.979  28.528  1.00  0.00     0.049 A 
ATOM     45  N   UNL A   1      43.871  27.670  27.385  1.00  0.00    -0.248 NA
ATOM     46  C   UNL A   1      44.101  25.450  26.701  1.00  0.00     0.031 C 
ATOM     47  C   UNL A   1      39.884  26.677  29.125  1.00  0.00     0.029 A 
ATOM     48  N   UNL A   1      41.394  28.301  28.826  1.00  0.00    -0.354 N 
ATOM     49  C   UNL A   1      45.111  27.507  26.782  1.00  0.00     0.074 A 
ATOM     50  C   UNL A   1      45.217  26.110  26.415  1.00  0.00     0.031 C 
ATOM     51  C   UNL A   1      39.394  27.789  29.690  1.00  0.00     0.029 A 
ATOM     52  C   UNL A   1      40.364  28.868  29.536  1.00  0.00     0.049 A 
ATOM     53  H   UNL A   1      42.202  28.794  28.558  1.00  0.00     0.167 HD
ATOM     54  C   UNL A   1      46.062  28.445  26.550  1.00  0.00     0.037 A 
ATOM     55  C   UNL A   1      40.217  30.115  30.019  1.00  0.00     0.037 A 
ATOM     56  C   UNL A   1      45.944  29.832  26.929  1.00  0.00     0.049 A 
ATOM     57  C   UNL A   1      41.292  31.131  29.764  1.00  0.00     0.074 A 
ATOM     58  C   UNL A   1      46.822  30.872  26.675  1.00  0.00     0.029 A 
ATOM     59  N   UNL A   1      44.894  30.372  27.661  1.00  0.00    -0.354 N 
ATOM     60  N   UNL A   1      42.419  30.990  29.110  1.00  0.00    -0.248 NA
ATOM     61  C   UNL A   1      41.074  32.478  30.307  1.00  0.00     0.031 C 
ATOM     62  C   UNL A   1      46.340  32.021  27.311  1.00  0.00     0.029 A 
ATOM     63  C   UNL A   1      45.126  31.717  27.904  1.00  0.00     0.049 A 
ATOM     64  H   UNL A   1      44.101  29.871  27.963  1.00  0.00     0.167 HD
ATOM     65  C   UNL A   1      43.043  32.228  29.154  1.00  0.00     0.074 A 
ATOM     66  C   UNL A   1      42.155  33.115  29.877  1.00  0.00     0.031 C 
ATOM     67  C   UNL A   1      44.245  32.592  28.642  1.00  0.00     0.037 A 
BRANCH  54  68
ATOM     68  C   UNL A   1      47.324  28.011  25.858  1.00  0.00     0.064 A 
ATOM     69  C   UNL A   1      48.475  27.654  26.577  1.00  0.00     0.173 A 
ATOM     70  C   UNL A   1      47.363  27.883  24.460  1.00  0.00     0.173 A 
ATOM     71  F   UNL A   1      48.495  27.760  27.915  1.00  0.00    -0.203 F 
ATOM     72  C   UNL A   1      49.623  27.212  25.924  1.00  0.00     0.198 A 
ATOM     73  C   UNL A   1      48.501  27.410  23.811  1.00  0.00     0.198 A 
ATOM     74  F   UNL A   1      46.289  28.199  23.722  1.00  0.00    -0.203 F 
ATOM     75  F   UNL A   1      50.723  26.919  26.631  1.00  0.00    -0.200 F 
ATOM     76  C   UNL A   1      49.633  27.082  24.543  1.00  0.00     0.200 A 
ATOM     77  F   UNL A   1      48.502  27.268  22.479  1.00  0.00    -0.200 F 
ATOM     78  F   UNL A   1      50.734  26.645  23.917  1.00  0.00    -0.200 F 
ENDBRANCH  54  68
BRANCH  55  79
ATOM     79  C   UNL A   1      38.978  30.454  30.764  1.00  0.00     0.064 A 
ATOM     80  C   UNL A   1      38.933  30.369  32.162  1.00  0.00     0.173 A 
ATOM     81  C   UNL A   1      37.844  30.947  30.101  1.00  0.00     0.173 A 
ATOM     82  F   UNL A   1      39.988  29.890  32.837  1.00  0.00    -0.203 F 
ATOM     83  C   UNL A   1      37.801  30.770  32.869  1.00  0.00     0.198 A 
ATOM     84  C   UNL A   1      36.725  31.375  30.811  1.00  0.00     0.198 A 
ATOM     85  F   UNL A   1      37.843  31.057  28.764  1.00  0.00    -0.203 F 
ATOM     86  F   UNL A   1      37.777  30.664  34.204  1.00  0.00    -0.200 F 
ATOM     87  C   UNL A   1      36.704  31.285  32.195  1.00  0.00     0.200 A 
ATOM     88  F   UNL A   1      35.676  31.893  30.157  1.00  0.00    -0.200 F 
ATOM     89  F   UNL A   1      35.629  31.697  32.878  1.00  0.00    -0.200 F 
ENDBRANCH  55  79
BRANCH  67  90
ATOM     90  C   UNL A   1      44.684  34.014  28.847  1.00  0.00     0.064 A 
ATOM     91  C   UNL A   1      44.306  35.032  27.959  1.00  0.00     0.173 A 
ATOM     92  C   UNL A   1      45.433  34.375  29.977  1.00  0.00     0.173 A 
ATOM     93  F   UNL A   1      43.602  34.739  26.855  1.00  0.00    -0.203 F 
ATOM     94  C   UNL A   1      44.675  36.356  28.187  1.00  0.00     0.198 A 
ATOM     95  C   UNL A   1      45.771  35.703  30.221  1.00  0.00     0.198 A 
ATOM     96  F   UNL A   1      45.816  33.442  30.861  1.00  0.00    -0.203 F 
ATOM     97  F   UNL A   1      44.336  37.306  27.305  1.00  0.00    -0.200 F 
ATOM     98  C   UNL A   1      45.396  36.692  29.324  1.00  0.00     0.200 A 
ATOM     99  F   UNL A   1      46.453  36.029  31.329  1.00  0.00    -0.200 F 
ATOM    100  F   UNL A   1      45.733  37.969  29.552  1.00  0.00    -0.200 F 
ENDBRANCH  67  90
ENDBRANCH  41  42
ENDBRANCH  34  36
ENDBRANCH  33  34
ENDBRANCH  32  33
ENDBRANCH  31  32
ENDBRANCH   1  31
TORSDOF 16
ENDMDL
MODEL 2
REMARK VINA RESULT:     -12.5      0.980      7.202
REMARK SMILES CC1(C)Oc2ccc(NC(=O)[C@H]3CC=CC[C@@H]3C(=O)OCCOCCOC(=O)c3ccc(-c4c5nc(c(-c6c(F)c(F)c(F)c(F)c6F)c6ccc([nH]6)c(-c6c(F)c(F)c(F)c(F)c6F)c6nc(c(-c7c(F)c(F)c(F)c(F)c7F)c7ccc4[nH]7)C=C6)C=C5)cc3)cc2NC1=O
REMARK SMILES IDX 23 1 22 2 21 3 20 4 18 5 19 6 17 7 12 8 13 9 14 10 16 11
REMARK SMILES IDX 15 12 10 13 9 14 11 16 8 17 1 18 2 19 3 20 4 21 95 22 5 23
REMARK SMILES IDX 94 24 96 25 6 26 93 27 7 29 92 30 24 31 25 32 26 33 27 34
REMARK SMILES IDX 28 35 29 36 30 37 91 38 31 39 90 40 32 41 33 42 34 43 84 44
REMARK SMILES IDX 35 45 89 46 83 47 85 48 36 49 88 50 82 51 81 52 37 54 69 55
REMARK SMILES IDX 49 56 68 57 50 58 53 59 67 60 86 61 51 62 52 63 66 65 87 66
REMARK SMILES IDX 54 67 38 68 39 69 47 70 40 71 41 72 45 73 48 74 42 75 43 76
REMARK SMILES IDX 46 77 44 78 70 79 71 80 79 81 72 82 73 83 77 84 80 85 74 86
REMARK SMILES IDX 75 87 78 88 76 89 55 90 56 91 64 92 57 93 58 94 62 95 65 96
REMARK SMILES IDX 59 97 60 98 63 99 61 100
REMARK H PARENT 9 15 94 28 85 53 53 64
REMARK Flexibility Score: inf
ROOT
ATOM      1  O   UNL A   1      36.471  23.496  24.346  1.00  0.00    -0.374 OA
ENDROOT
BRANCH   1   2
ATOM      2  C   UNL A   1      35.164  24.057  24.363  1.00  0.00     0.202 C 
BRANCH   2   3
ATOM      3  C   UNL A   1      34.261  23.892  23.135  1.00  0.00     0.261 C 
BRANCH   3   4
ATOM      4  O   UNL A   1      34.013  25.111  22.406  1.00  0.00    -0.463 OA
BRANCH   4   5
ATOM      5  C   UNL A   1      32.735  25.578  22.529  1.00  0.00     0.310 C 
ATOM      6  O   UNL A   1      32.012  25.820  21.573  1.00  0.00    -0.252 OA
BRANCH   5   7
ATOM      7  C   UNL A   1      32.351  25.825  23.989  1.00  0.00     0.116 C 
ATOM      8  C   UNL A   1      30.933  25.344  24.382  1.00  0.00     0.097 C 
ATOM      9  C   UNL A   1      29.791  26.257  23.876  1.00  0.00     0.041 C 
ATOM     10  C   UNL A   1      30.176  27.664  23.548  1.00  0.00    -0.030 C 
ATOM     11  C   UNL A   1      32.538  27.329  24.277  1.00  0.00     0.043 C 
ATOM     12  C   UNL A   1      31.404  28.158  23.749  1.00  0.00    -0.030 C 
BRANCH   8  13
ATOM     13  C   UNL A   1      30.852  25.246  25.904  1.00  0.00     0.228 C 
ATOM     14  N   UNL A   1      31.356  24.216  26.636  1.00  0.00    -0.326 N 
ATOM     15  H   UNL A   1      31.147  24.307  27.594  1.00  0.00     0.169 HD
ATOM     16  O   UNL A   1      30.279  26.125  26.558  1.00  0.00    -0.274 OA
BRANCH  14  17
ATOM     17  C   UNL A   1      32.100  23.057  26.368  1.00  0.00     0.043 A 
ATOM     18  C   UNL A   1      34.508  17.654  24.039  1.00  0.00     0.067 C 
ATOM     19  C   UNL A   1      33.476  18.601  24.657  1.00  0.00     0.182 C 
ATOM     20  C   UNL A   1      32.649  17.829  25.698  1.00  0.00     0.067 C 
ATOM     21  O   UNL A   1      34.221  19.613  25.351  1.00  0.00    -0.476 OA
ATOM     22  C   UNL A   1      32.529  19.133  23.553  1.00  0.00     0.268 C 
ATOM     23  C   UNL A   1      33.477  20.719  25.656  1.00  0.00     0.144 A 
ATOM     24  N   UNL A   1      31.956  20.353  23.825  1.00  0.00    -0.319 N 
ATOM     25  O   UNL A   1      32.214  18.500  22.549  1.00  0.00    -0.270 OA
ATOM     26  C   UNL A   1      33.872  21.456  26.760  1.00  0.00     0.051 A 
ATOM     27  C   UNL A   1      32.369  21.121  24.915  1.00  0.00     0.086 A 
ATOM     28  H   UNL A   1      31.241  20.690  23.239  1.00  0.00     0.170 HD
ATOM     29  C   UNL A   1      33.174  22.605  27.129  1.00  0.00     0.030 A 
ATOM     30  C   UNL A   1      31.687  22.289  25.262  1.00  0.00     0.056 A 
ENDBRANCH  14  17
ENDBRANCH   8  13
ENDBRANCH   5   7
ENDBRANCH   4   5
ENDBRANCH   3   4
ENDBRANCH   2   3
ENDBRANCH   1   2
BRANCH   1  31
ATOM     31  C   UNL A   1      36.628  22.204  23.774  1.00  0.00     0.202 C 
BRANCH  31  32
ATOM     32  C   UNL A   1      37.258  21.096  24.626  1.00  0.00     0.261 C 
BRANCH  32  33
ATOM     33  O   UNL A   1      37.712  21.561  25.906  1.00  0.00    -0.460 OA
BRANCH  33  34
ATOM     34  C   UNL A   1      39.035  21.364  26.139  1.00  0.00     0.338 C 
ATOM     35  O   UNL A   1      39.705  20.386  25.851  1.00  0.00    -0.246 OA
BRANCH  34  36
ATOM     36  C   UNL A   1      39.625  22.624  26.628  1.00  0.00     0.060 A 
ATOM     37  C   UNL A   1      40.660  22.626  27.558  1.00  0.00     0.016 A 
ATOM     38  C   UNL A   1      39.111  23.829  26.131  1.00  0.00     0.016 A 
ATOM     39  C   UNL A   1      41.179  23.844  28.004  1.00  0.00     0.010 A 
ATOM     40  C   UNL A   1      39.646  25.044  26.557  1.00  0.00     0.010 A 
ATOM     41  C   UNL A   1      40.695  25.060  27.487  1.00  0.00    -0.014 A 
BRANCH  41  42
ATOM     42  C   UNL A   1      41.399  26.331  27.790  1.00  0.00     0.031 A 
ATOM     43  C   UNL A   1      40.737  27.450  28.536  1.00  0.00     0.074 A 
ATOM     44  C   UNL A   1      42.653  26.480  27.323  1.00  0.00     0.049 A 
ATOM     45  N   UNL A   1      41.234  28.612  28.886  1.00  0.00    -0.248 NA
ATOM     46  C   UNL A   1      39.336  27.252  28.930  1.00  0.00     0.031 C 
ATOM     47  C   UNL A   1      43.372  25.480  26.535  1.00  0.00     0.029 A 
ATOM     48  N   UNL A   1      43.540  27.520  27.436  1.00  0.00    -0.354 N 
ATOM     49  C   UNL A   1      40.211  29.282  29.541  1.00  0.00     0.074 A 
ATOM     50  C   UNL A   1      39.051  28.414  29.505  1.00  0.00     0.031 C 
ATOM     51  C   UNL A   1      44.602  25.938  26.262  1.00  0.00     0.029 A 
ATOM     52  C   UNL A   1      44.742  27.281  26.816  1.00  0.00     0.049 A 
ATOM     53  H   UNL A   1      43.336  28.355  27.915  1.00  0.00     0.167 HD
ATOM     54  C   UNL A   1      40.247  30.504  30.127  1.00  0.00     0.037 A 
ATOM     55  C   UNL A   1      45.834  28.057  26.694  1.00  0.00     0.037 A 
ATOM     56  C   UNL A   1      41.408  31.360  30.148  1.00  0.00     0.049 A 
ATOM     57  C   UNL A   1      45.843  29.413  27.337  1.00  0.00     0.074 A 
ATOM     58  C   UNL A   1      41.565  32.584  30.777  1.00  0.00     0.029 A 
ATOM     59  N   UNL A   1      42.605  31.095  29.496  1.00  0.00    -0.354 N 
ATOM     60  N   UNL A   1      44.902  29.999  28.036  1.00  0.00    -0.248 NA
ATOM     61  C   UNL A   1      47.065  30.213  27.181  1.00  0.00     0.031 C 
ATOM     62  C   UNL A   1      42.826  33.090  30.448  1.00  0.00     0.029 A 
ATOM     63  C   UNL A   1      43.486  32.152  29.671  1.00  0.00     0.049 A 
ATOM     64  H   UNL A   1      42.799  30.276  28.984  1.00  0.00     0.167 HD
ATOM     65  C   UNL A   1      45.417  31.232  28.411  1.00  0.00     0.074 A 
ATOM     66  C   UNL A   1      46.764  31.298  27.882  1.00  0.00     0.031 C 
ATOM     67  C   UNL A   1      44.822  32.219  29.126  1.00  0.00     0.037 A 
BRANCH  54  68
ATOM     68  C   UNL A   1      38.995  31.002  30.793  1.00  0.00     0.064 A 
ATOM     69  C   UNL A   1      37.972  31.631  30.066  1.00  0.00     0.173 A 
ATOM     70  C   UNL A   1      38.782  30.787  32.164  1.00  0.00     0.173 A 
ATOM     71  F   UNL A   1      38.123  31.866  28.753  1.00  0.00    -0.203 F 
ATOM     72  C   UNL A   1      36.799  32.049  30.689  1.00  0.00     0.198 A 
ATOM     73  C   UNL A   1      37.594  31.177  32.778  1.00  0.00     0.198 A 
ATOM     74  F   UNL A   1      39.719  30.181  32.907  1.00  0.00    -0.203 F 
ATOM     75  F   UNL A   1      35.856  32.687  29.981  1.00  0.00    -0.200 F 
ATOM     76  C   UNL A   1      36.606  31.814  32.042  1.00  0.00     0.200 A 
ATOM     77  F   UNL A   1      37.403  30.932  34.082  1.00  0.00    -0.200 F 
ATOM     78  F   UNL A   1      35.472  32.205  32.638  1.00  0.00    -0.200 F 
ENDBRANCH  54  68
BRANCH  55  79
ATOM     79  C   UNL A   1      47.009  27.532  25.954  1.00  0.00     0.064 A 
ATOM     80  C   UNL A   1      47.103  27.671  24.563  1.00  0.00     0.173 A 
ATOM     81  C   UNL A   1      48.095  26.955  26.630  1.00  0.00     0.173 A 
ATOM     82  F   UNL A   1      46.083  28.203  23.873  1.00  0.00    -0.203 F 
ATOM     83  C   UNL A   1      48.242  27.257  23.876  1.00  0.00     0.198 A 
ATOM     84  C   UNL A   1      49.246  26.570  25.946  1.00  0.00     0.198 A 
ATOM     85  F   UNL A   1      48.056  26.811  27.963  1.00  0.00    -0.203 F 
ATOM     86  F   UNL A   1      48.301  27.387  22.544  1.00  0.00    -0.200 F 
ATOM     87  C   UNL A   1      49.317  26.721  24.569  1.00  0.00     0.200 A 
ATOM     88  F   UNL A   1      50.290  26.073  26.621  1.00  0.00    -0.200 F 
ATOM     89  F   UNL A   1      50.424  26.352  23.910  1.00  0.00    -0.200 F 
ENDBRANCH  55  79
BRANCH  67  90
ATOM     90  C   UNL A   1      45.618  33.467  29.380  1.00  0.00     0.064 A 
ATOM     91  C   UNL A   1      45.539  34.573  28.521  1.00  0.00     0.173 A 
ATOM     92  C   UNL A   1      46.414  33.585  30.529  1.00  0.00     0.173 A 
ATOM     93  F   UNL A   1      44.804  34.508  27.400  1.00  0.00    -0.203 F 
ATOM     94  C   UNL A   1      46.242  35.745  28.795  1.00  0.00     0.198 A 
ATOM     95  C   UNL A   1      47.087  34.770  30.818  1.00  0.00     0.198 A 
ATOM     96  F   UNL A   1      46.519  32.560  31.388  1.00  0.00    -0.203 F 
ATOM     97  F   UNL A   1      46.182  36.775  27.940  1.00  0.00    -0.200 F 
ATOM     98  C   UNL A   1      47.004  35.846  29.949  1.00  0.00     0.200 A 
ATOM     99  F   UNL A   1      47.810  34.872  31.943  1.00  0.00    -0.200 F 
ATOM    100  F   UNL A   1      47.663  36.982  30.221  1.00  0.00    -0.200 F 
ENDBRANCH  67  90
ENDBRANCH  41  42
ENDBRANCH  34  36
ENDBRANCH  33  34
ENDBRANCH  32  33
ENDBRANCH  31  32
ENDBRANCH   1  31
TORSDOF 16
ENDMDL
MODEL 3
REMARK VINA RESULT:     -12.1      1.370      7.165
REMARK SMILES CC1(C)Oc2ccc(NC(=O)[C@H]3CC=CC[C@@H]3C(=O)OCCOCCOC(=O)c3ccc(-c4c5nc(c(-c6c(F)c(F)c(F)c(F)c6F)c6ccc([nH]6)c(-c6c(F)c(F)c(F)c(F)c6F)c6nc(c(-c7c(F)c(F)c(F)c(F)c7F)c7ccc4[nH]7)C=C6)C=C5)cc3)cc2NC1=O
REMARK SMILES IDX 23 1 22 2 21 3 20 4 18 5 19 6 17 7 12 8 13 9 14 10 16 11
REMARK SMILES IDX 15 12 10 13 9 14 11 16 8 17 1 18 2 19 3 20 4 21 95 22 5 23
REMARK SMILES IDX 94 24 96 25 6 26 93 27 7 29 92 30 24 31 25 32 26 33 27 34
REMARK SMILES IDX 28 35 29 36 30 37 91 38 31 39 90 40 32 41 33 42 34 43 84 44
REMARK SMILES IDX 35 45 89 46 83 47 85 48 36 49 88 50 82 51 81 52 37 54 69 55
REMARK SMILES IDX 49 56 68 57 50 58 53 59 67 60 86 61 51 62 52 63 66 65 87 66
REMARK SMILES IDX 54 67 38 68 39 69 47 70 40 71 41 72 45 73 48 74 42 75 43 76
REMARK SMILES IDX 46 77 44 78 70 79 71 80 79 81 72 82 73 83 77 84 80 85 74 86
REMARK SMILES IDX 75 87 78 88 76 89 55 90 56 91 64 92 57 93 58 94 62 95 65 96
REMARK SMILES IDX 59 97 60 98 63 99 61 100
REMARK H PARENT 9 15 94 28 85 53 53 64
REMARK Flexibility Score: inf
ROOT
ATOM      1  O   UNL A   1      37.090  21.612  25.219  1.00  0.00    -0.374 OA
ENDROOT
BRANCH   1   2
ATOM      2  C   UNL A   1      36.764  22.695  24.356  1.00  0.00     0.202 C 
BRANCH   2   3
ATOM      3  C   UNL A   1      35.317  22.862  23.878  1.00  0.00     0.261 C 
BRANCH   3   4
ATOM      4  O   UNL A   1      35.157  23.752  22.754  1.00  0.00    -0.463 OA
BRANCH   4   5
ATOM      5  C   UNL A   1      34.070  24.575  22.852  1.00  0.00     0.310 C 
ATOM      6  O   UNL A   1      33.638  25.232  21.916  1.00  0.00    -0.252 OA
BRANCH   5   7
ATOM      7  C   UNL A   1      33.512  24.625  24.275  1.00  0.00     0.116 C 
ATOM      8  C   UNL A   1      31.974  24.760  24.369  1.00  0.00     0.097 C 
ATOM      9  C   UNL A   1      31.441  26.179  24.059  1.00  0.00     0.041 C 
ATOM     10  C   UNL A   1      32.427  27.294  24.210  1.00  0.00    -0.030 C 
ATOM     11  C   UNL A   1      34.227  25.771  25.020  1.00  0.00     0.043 C 
ATOM     12  C   UNL A   1      33.673  27.119  24.665  1.00  0.00    -0.030 C 
BRANCH   8  13
ATOM     13  C   UNL A   1      31.530  24.362  25.776  1.00  0.00     0.228 C 
ATOM     14  N   UNL A   1      31.745  23.139  26.333  1.00  0.00    -0.326 N 
ATOM     15  H   UNL A   1      31.330  23.060  27.221  1.00  0.00     0.169 HD
ATOM     16  O   UNL A   1      30.912  25.162  26.488  1.00  0.00    -0.274 OA
BRANCH  14  17
ATOM     17  C   UNL A   1      32.412  21.963  25.958  1.00  0.00     0.043 A 
ATOM     18  C   UNL A   1      34.432  16.621  23.166  1.00  0.00     0.067 C 
ATOM     19  C   UNL A   1      33.475  17.576  23.884  1.00  0.00     0.182 C 
ATOM     20  C   UNL A   1      32.633  16.777  24.893  1.00  0.00     0.067 C 
ATOM     21  O   UNL A   1      34.297  18.489  24.625  1.00  0.00    -0.476 OA
ATOM     22  C   UNL A   1      32.530  18.241  22.853  1.00  0.00     0.268 C 
ATOM     23  C   UNL A   1      33.628  19.610  25.033  1.00  0.00     0.144 A 
ATOM     24  N   UNL A   1      32.038  19.468  23.231  1.00  0.00    -0.319 N 
ATOM     25  O   UNL A   1      32.150  17.704  21.816  1.00  0.00    -0.270 OA
ATOM     26  C   UNL A   1      34.097  20.239  26.175  1.00  0.00     0.051 A 
ATOM     27  C   UNL A   1      32.526  20.129  24.360  1.00  0.00     0.086 A 
ATOM     28  H   UNL A   1      31.328  19.888  22.694  1.00  0.00     0.170 HD
ATOM     29  C   UNL A   1      33.478  21.396  26.648  1.00  0.00     0.030 A 
ATOM     30  C   UNL A   1      31.924  21.304  24.813  1.00  0.00     0.056 A 
ENDBRANCH  14  17
ENDBRANCH   8  13
ENDBRANCH   5   7
ENDBRANCH   4   5
ENDBRANCH   3   4
ENDBRANCH   2   3
ENDBRANCH   1   2
BRANCH   1  31
ATOM     31  C   UNL A   1      38.457  21.438  25.573  1.00  0.00     0.202 C 
BRANCH  31  32
ATOM     32  C   UNL A   1      39.095  20.057  25.377  1.00  0.00     0.261 C 
BRANCH  32  33
ATOM     33  O   UNL A   1      39.889  19.641  26.498  1.00  0.00    -0.460 OA
BRANCH  33  34
ATOM     34  C   UNL A   1      41.223  19.577  26.250  1.00  0.00     0.338 C 
ATOM     35  O   UNL A   1      41.843  18.654  25.749  1.00  0.00    -0.246 OA
BRANCH  34  36
ATOM     36  C   UNL A   1      41.815  20.905  26.491  1.00  0.00     0.060 A 
ATOM     37  C   UNL A   1      42.173  21.741  25.437  1.00  0.00     0.016 A 
ATOM     38  C   UNL A   1      42.014  21.308  27.818  1.00  0.00     0.016 A 
ATOM     39  C   UNL A   1      42.745  22.985  25.712  1.00  0.00     0.010 A 
ATOM     40  C   UNL A   1      42.562  22.560  28.093  1.00  0.00     0.010 A 
ATOM     41  C   UNL A   1      42.918  23.416  27.041  1.00  0.00    -0.014 A 
BRANCH  41  42
ATOM     42  C   UNL A   1      43.311  24.818  27.324  1.00  0.00     0.031 A 
ATOM     43  C   UNL A   1      42.333  25.833  27.833  1.00  0.00     0.074 A 
ATOM     44  C   UNL A   1      44.580  25.180  27.055  1.00  0.00     0.049 A 
ATOM     45  N   UNL A   1      42.537  27.091  28.138  1.00  0.00    -0.248 NA
ATOM     46  C   UNL A   1      40.944  25.389  28.011  1.00  0.00     0.031 C 
ATOM     47  C   UNL A   1      45.600  24.290  26.501  1.00  0.00     0.029 A 
ATOM     48  N   UNL A   1      45.227  26.380  27.204  1.00  0.00    -0.354 N 
ATOM     49  C   UNL A   1      41.308  27.589  28.546  1.00  0.00     0.074 A 
ATOM     50  C   UNL A   1      40.353  26.509  28.410  1.00  0.00     0.031 C 
ATOM     51  C   UNL A   1      46.754  24.963  26.387  1.00  0.00     0.029 A 
ATOM     52  C   UNL A   1      46.544  26.341  26.816  1.00  0.00     0.049 A 
ATOM     53  H   UNL A   1      44.791  27.189  27.555  1.00  0.00     0.167 HD
ATOM     54  C   UNL A   1      41.014  28.832  29.002  1.00  0.00     0.037 A 
ATOM     55  C   UNL A   1      47.479  27.308  26.795  1.00  0.00     0.037 A 
ATOM     56  C   UNL A   1      41.976  29.900  29.125  1.00  0.00     0.049 A 
ATOM     57  C   UNL A   1      47.125  28.680  27.289  1.00  0.00     0.074 A 
ATOM     58  C   UNL A   1      41.791  31.171  29.642  1.00  0.00     0.029 A 
ATOM     59  N   UNL A   1      43.299  29.833  28.707  1.00  0.00    -0.354 N 
ATOM     60  N   UNL A   1      45.982  29.115  27.762  1.00  0.00    -0.248 NA
ATOM     61  C   UNL A   1      48.187  29.693  27.253  1.00  0.00     0.031 C 
ATOM     62  C   UNL A   1      42.977  31.893  29.473  1.00  0.00     0.029 A 
ATOM     63  C   UNL A   1      43.926  31.053  28.914  1.00  0.00     0.049 A 
ATOM     64  H   UNL A   1      43.729  29.036  28.320  1.00  0.00     0.167 HD
ATOM     65  C   UNL A   1      46.187  30.448  28.087  1.00  0.00     0.074 A 
ATOM     66  C   UNL A   1      47.572  30.743  27.781  1.00  0.00     0.031 C 
ATOM     67  C   UNL A   1      45.302  31.345  28.590  1.00  0.00     0.037 A 
BRANCH  54  68
ATOM     68  C   UNL A   1      39.593  29.117  29.400  1.00  0.00     0.064 A 
ATOM     69  C   UNL A   1      38.627  29.507  28.460  1.00  0.00     0.173 A 
ATOM     70  C   UNL A   1      39.173  28.932  30.727  1.00  0.00     0.173 A 
ATOM     71  F   UNL A   1      38.973  29.703  27.178  1.00  0.00    -0.203 F 
ATOM     72  C   UNL A   1      37.304  29.727  28.836  1.00  0.00     0.198 A 
ATOM     73  C   UNL A   1      37.842  29.120  31.094  1.00  0.00     0.198 A 
ATOM     74  F   UNL A   1      40.050  28.550  31.667  1.00  0.00    -0.203 F 
ATOM     75  F   UNL A   1      36.410  30.141  27.927  1.00  0.00    -0.200 F 
ATOM     76  C   UNL A   1      36.910  29.525  30.150  1.00  0.00     0.200 A 
ATOM     77  F   UNL A   1      37.462  28.907  32.361  1.00  0.00    -0.200 F 
ATOM     78  F   UNL A   1      35.635  29.724  30.508  1.00  0.00    -0.200 F 
ENDBRANCH  54  68
BRANCH  55  79
ATOM     79  C   UNL A   1      48.844  26.976  26.314  1.00  0.00     0.064 A 
ATOM     80  C   UNL A   1      49.807  26.454  27.187  1.00  0.00     0.173 A 
ATOM     81  C   UNL A   1      49.186  27.097  24.958  1.00  0.00     0.173 A 
ATOM     82  F   UNL A   1      49.531  26.333  28.494  1.00  0.00    -0.203 F 
ATOM     83  C   UNL A   1      51.060  26.059  26.721  1.00  0.00     0.198 A 
ATOM     84  C   UNL A   1      50.427  26.675  24.489  1.00  0.00     0.198 A 
ATOM     85  F   UNL A   1      48.293  27.582  24.082  1.00  0.00    -0.203 F 
ATOM     86  F   UNL A   1      51.968  25.578  27.579  1.00  0.00    -0.200 F 
ATOM     87  C   UNL A   1      51.363  26.157  25.371  1.00  0.00     0.200 A 
ATOM     88  F   UNL A   1      50.708  26.750  23.181  1.00  0.00    -0.200 F 
ATOM     89  F   UNL A   1      52.557  25.750  24.921  1.00  0.00    -0.200 F 
ENDBRANCH  55  79
BRANCH  67  90
ATOM     90  C   UNL A   1      45.798  32.741  28.842  1.00  0.00     0.064 A 
ATOM     91  C   UNL A   1      45.649  33.754  27.884  1.00  0.00     0.173 A 
ATOM     92  C   UNL A   1      46.365  33.086  30.078  1.00  0.00     0.173 A 
ATOM     93  F   UNL A   1      45.126  33.476  26.680  1.00  0.00    -0.203 F 
ATOM     94  C   UNL A   1      46.064  35.058  28.149  1.00  0.00     0.198 A 
ATOM     95  C   UNL A   1      46.748  34.396  30.352  1.00  0.00     0.198 A 
ATOM     96  F   UNL A   1      46.525  32.156  31.032  1.00  0.00    -0.203 F 
ATOM     97  F   UNL A   1      45.948  36.001  27.204  1.00  0.00    -0.200 F 
ATOM     98  C   UNL A   1      46.602  35.379  29.387  1.00  0.00     0.200 A 
ATOM     99  F   UNL A   1      47.251  34.709  31.555  1.00  0.00    -0.200 F 
ATOM    100  F   UNL A   1      46.983  36.638  29.646  1.00  0.00    -0.200 F 
ENDBRANCH  67  90
ENDBRANCH  41  42
ENDBRANCH  34  36
ENDBRANCH  33  34
ENDBRANCH  32  33
ENDBRANCH  31  32
ENDBRANCH   1  31
TORSDOF 16
ENDMDL
