MODEL 1
REMARK VINA RESULT:     -10.8      0.000      0.000
REMARK SMILES C[C@H](COc1ccccc1C(=O)OCCOCCOC(=O)c1ccc(-c2c3nc(c(-c4c(F)c(F)c(F)c(F)c4F)c4ccc([nH]4)c(-c4c(F)c(F)c(F)c(F)c4F)c4nc(c(-c5c(F)c(F)c(F)c(F)c5F)c5ccc2[nH]5)C=C4)C=C3)cc1)C(N)=O
REMARK SMILES IDX 15 1 14 2 13 3 11 4 12 5 10 6 5 7 6 8 7 9 9 10 8 11 4 12
REMARK SMILES IDX 3 13 2 14 1 15 85 16 86 17 87 18 16 21 17 22 18 23 19 24
REMARK SMILES IDX 20 25 21 26 22 27 23 28 84 29 24 30 83 31 25 32 26 33 27 34
REMARK SMILES IDX 77 35 28 36 82 37 76 38 78 39 29 40 81 41 75 42 74 43 30 45
REMARK SMILES IDX 62 46 42 47 61 48 43 49 46 50 60 51 79 52 44 53 45 54 59 56
REMARK SMILES IDX 80 57 47 58 31 59 32 60 40 61 33 62 34 63 38 64 41 65 35 66
REMARK SMILES IDX 36 67 39 68 37 69 63 70 64 71 72 72 65 73 66 74 70 75 73 76
REMARK SMILES IDX 67 77 68 78 71 79 69 80 48 81 49 82 57 83 50 84 51 85 55 86
REMARK SMILES IDX 58 87 52 88 53 89 56 90 54 91
REMARK H PARENT 86 19 86 20 78 44 46 55
REMARK Flexibility Score: inf
ROOT
ATOM      1  C   UNL A   1      33.484  29.354  26.792  1.00  0.00     0.202 C 
ENDROOT
BRANCH   1   2
ATOM      2  C   UNL A   1      33.387  28.258  25.721  1.00  0.00     0.261 C 
BRANCH   2   3
ATOM      3  O   UNL A   1      32.938  27.016  26.283  1.00  0.00    -0.460 OA
BRANCH   3   4
ATOM      4  C   UNL A   1      31.714  26.601  25.886  1.00  0.00     0.342 C 
ATOM      5  O   UNL A   1      30.711  26.505  26.574  1.00  0.00    -0.246 OA
BRANCH   4   6
ATOM      6  C   UNL A   1      31.709  26.402  24.424  1.00  0.00     0.102 A 
ATOM      7  C   UNL A   1      30.949  27.199  23.554  1.00  0.00     0.133 A 
ATOM      8  C   UNL A   1      31.090  27.011  22.174  1.00  0.00     0.047 A 
ATOM      9  C   UNL A   1      31.891  25.980  21.676  1.00  0.00     0.004 A 
ATOM     10  C   UNL A   1      32.529  25.382  23.921  1.00  0.00     0.019 A 
ATOM     11  C   UNL A   1      32.598  25.156  22.547  1.00  0.00     0.001 A 
BRANCH   7  12
ATOM     12  O   UNL A   1      30.120  28.139  24.098  1.00  0.00    -0.492 OA
BRANCH  12  13
ATOM     13  C   UNL A   1      30.112  29.448  23.511  1.00  0.00     0.242 C 
BRANCH  13  14
ATOM     14  C   UNL A   1      28.805  29.848  22.813  1.00  0.00     0.113 C 
ATOM     15  C   UNL A   1      27.679  28.811  22.911  1.00  0.00     0.022 C 
BRANCH  14  16
ATOM     16  C   UNL A   1      28.316  31.163  23.357  1.00  0.00     0.223 C 
ATOM     17  N   UNL A   1      29.161  32.224  23.304  1.00  0.00    -0.369 N 
ATOM     18  O   UNL A   1      27.187  31.304  23.799  1.00  0.00    -0.275 OA
ATOM     19  H   UNL A   1      30.072  32.111  22.948  1.00  0.00     0.159 HD
ATOM     20  H   UNL A   1      28.863  33.107  23.621  1.00  0.00     0.159 HD
ENDBRANCH  14  16
ENDBRANCH  13  14
ENDBRANCH  12  13
ENDBRANCH   7  12
ENDBRANCH   4   6
ENDBRANCH   3   4
ENDBRANCH   2   3
ENDBRANCH   1   2
BRANCH   1  21
ATOM     21  O   UNL A   1      33.155  30.657  26.303  1.00  0.00    -0.374 OA
BRANCH  21  22
ATOM     22  C   UNL A   1      31.789  31.048  26.484  1.00  0.00     0.202 C 
BRANCH  22  23
ATOM     23  C   UNL A   1      31.628  32.399  27.210  1.00  0.00     0.261 C 
BRANCH  23  24
ATOM     24  O   UNL A   1      32.776  33.260  27.053  1.00  0.00    -0.460 OA
BRANCH  24  25
ATOM     25  C   UNL A   1      33.352  33.759  28.162  1.00  0.00     0.338 C 
ATOM     26  O   UNL A   1      32.890  34.599  28.915  1.00  0.00    -0.246 OA
BRANCH  25  27
ATOM     27  C   UNL A   1      34.634  33.060  28.453  1.00  0.00     0.060 A 
ATOM     28  C   UNL A   1      34.555  31.826  29.110  1.00  0.00     0.016 A 
ATOM     29  C   UNL A   1      35.891  33.608  28.172  1.00  0.00     0.016 A 
ATOM     30  C   UNL A   1      35.716  31.162  29.523  1.00  0.00     0.010 A 
ATOM     31  C   UNL A   1      37.061  32.938  28.590  1.00  0.00     0.010 A 
ATOM     32  C   UNL A   1      36.981  31.724  29.299  1.00  0.00    -0.014 A 
BRANCH  32  33
ATOM     33  C   UNL A   1      38.173  31.105  29.953  1.00  0.00     0.031 A 
ATOM     34  C   UNL A   1      38.485  31.447  31.388  1.00  0.00     0.074 A 
ATOM     35  C   UNL A   1      38.929  30.180  29.331  1.00  0.00     0.049 A 
ATOM     36  N   UNL A   1      39.391  30.938  32.189  1.00  0.00    -0.248 NA
ATOM     37  C   UNL A   1      37.662  32.498  32.005  1.00  0.00     0.031 C 
ATOM     38  C   UNL A   1      38.741  29.717  27.959  1.00  0.00     0.029 A 
ATOM     39  N   UNL A   1      40.007  29.452  29.784  1.00  0.00    -0.354 N 
ATOM     40  C   UNL A   1      39.229  31.588  33.406  1.00  0.00     0.074 A 
ATOM     41  C   UNL A   1      38.174  32.563  33.225  1.00  0.00     0.031 C 
ATOM     42  C   UNL A   1      39.671  28.784  27.680  1.00  0.00     0.029 A 
ATOM     43  C   UNL A   1      40.526  28.585  28.852  1.00  0.00     0.049 A 
ATOM     44  H   UNL A   1      40.374  29.545  30.693  1.00  0.00     0.167 HD
ATOM     45  C   UNL A   1      39.880  31.382  34.577  1.00  0.00     0.037 A 
ATOM     46  C   UNL A   1      41.564  27.726  28.931  1.00  0.00     0.037 A 
ATOM     47  C   UNL A   1      40.938  30.429  34.779  1.00  0.00     0.049 A 
ATOM     48  C   UNL A   1      42.332  27.577  30.223  1.00  0.00     0.074 A 
ATOM     49  C   UNL A   1      41.631  30.143  35.944  1.00  0.00     0.029 A 
ATOM     50  N   UNL A   1      41.468  29.613  33.792  1.00  0.00    -0.354 N 
ATOM     51  N   UNL A   1      42.121  28.148  31.383  1.00  0.00    -0.248 NA
ATOM     52  C   UNL A   1      43.479  26.655  30.214  1.00  0.00     0.031 C 
ATOM     53  C   UNL A   1      42.617  29.196  35.649  1.00  0.00     0.029 A 
ATOM     54  C   UNL A   1      42.504  28.853  34.313  1.00  0.00     0.049 A 
ATOM     55  H   UNL A   1      41.156  29.580  32.859  1.00  0.00     0.167 HD
ATOM     56  C   UNL A   1      43.083  27.630  32.245  1.00  0.00     0.074 A 
ATOM     57  C   UNL A   1      43.874  26.693  31.480  1.00  0.00     0.031 C 
ATOM     58  C   UNL A   1      43.285  27.909  33.557  1.00  0.00     0.037 A 
BRANCH  45  59
ATOM     59  C   UNL A   1      39.468  32.226  35.748  1.00  0.00     0.064 A 
ATOM     60  C   UNL A   1      40.038  33.488  35.975  1.00  0.00     0.173 A 
ATOM     61  C   UNL A   1      38.468  31.786  36.626  1.00  0.00     0.173 A 
ATOM     62  F   UNL A   1      41.002  33.949  35.166  1.00  0.00    -0.203 F 
ATOM     63  C   UNL A   1      39.638  34.268  37.058  1.00  0.00     0.198 A 
ATOM     64  C   UNL A   1      38.053  32.578  37.693  1.00  0.00     0.198 A 
ATOM     65  F   UNL A   1      37.887  30.590  36.445  1.00  0.00    -0.203 F 
ATOM     66  F   UNL A   1      40.224  35.451  37.281  1.00  0.00    -0.200 F 
ATOM     67  C   UNL A   1      38.643  33.814  37.912  1.00  0.00     0.200 A 
ATOM     68  F   UNL A   1      37.082  32.146  38.509  1.00  0.00    -0.200 F 
ATOM     69  F   UNL A   1      38.257  34.567  38.951  1.00  0.00    -0.200 F 
ENDBRANCH  45  59
BRANCH  46  70
ATOM     70  C   UNL A   1      41.957  26.919  27.743  1.00  0.00     0.064 A 
ATOM     71  C   UNL A   1      41.405  25.651  27.509  1.00  0.00     0.173 A 
ATOM     72  C   UNL A   1      42.936  27.378  26.850  1.00  0.00     0.173 A 
ATOM     73  F   UNL A   1      40.490  25.154  28.354  1.00  0.00    -0.203 F 
ATOM     74  C   UNL A   1      41.832  24.866  26.440  1.00  0.00     0.198 A 
ATOM     75  C   UNL A   1      43.343  26.603  25.766  1.00  0.00     0.198 A 
ATOM     76  F   UNL A   1      43.501  28.581  27.033  1.00  0.00    -0.203 F 
ATOM     77  F   UNL A   1      41.328  23.637  26.271  1.00  0.00    -0.200 F 
ATOM     78  C   UNL A   1      42.798  25.344  25.567  1.00  0.00     0.200 A 
ATOM     79  F   UNL A   1      44.272  27.073  24.922  1.00  0.00    -0.200 F 
ATOM     80  F   UNL A   1      43.213  24.587  24.543  1.00  0.00    -0.200 F 
ENDBRANCH  46  70
BRANCH  58  81
ATOM     81  C   UNL A   1      44.384  27.176  34.273  1.00  0.00     0.064 A 
ATOM     82  C   UNL A   1      44.164  25.935  34.889  1.00  0.00     0.173 A 
ATOM     83  C   UNL A   1      45.691  27.690  34.284  1.00  0.00     0.173 A 
ATOM     84  F   UNL A   1      42.932  25.406  34.918  1.00  0.00    -0.203 F 
ATOM     85  C   UNL A   1      45.206  25.243  35.500  1.00  0.00     0.198 A 
ATOM     86  C   UNL A   1      46.736  26.983  34.874  1.00  0.00     0.198 A 
ATOM     87  F   UNL A   1      45.958  28.869  33.705  1.00  0.00    -0.203 F 
ATOM     88  F   UNL A   1      44.965  24.075  36.111  1.00  0.00    -0.200 F 
ATOM     89  C   UNL A   1      46.493  25.763  35.485  1.00  0.00     0.200 A 
ATOM     90  F   UNL A   1      47.980  27.480  34.846  1.00  0.00    -0.200 F 
ATOM     91  F   UNL A   1      47.497  25.088  36.062  1.00  0.00    -0.200 F 
ENDBRANCH  58  81
ENDBRANCH  32  33
ENDBRANCH  25  27
ENDBRANCH  24  25
ENDBRANCH  23  24
ENDBRANCH  22  23
ENDBRANCH  21  22
ENDBRANCH   1  21
TORSDOF 18
ENDMDL
MODEL 2
REMARK VINA RESULT:     -10.7      0.655      1.348
REMARK SMILES C[C@H](COc1ccccc1C(=O)OCCOCCOC(=O)c1ccc(-c2c3nc(c(-c4c(F)c(F)c(F)c(F)c4F)c4ccc([nH]4)c(-c4c(F)c(F)c(F)c(F)c4F)c4nc(c(-c5c(F)c(F)c(F)c(F)c5F)c5ccc2[nH]5)C=C4)C=C3)cc1)C(N)=O
REMARK SMILES IDX 15 1 14 2 13 3 11 4 12 5 10 6 5 7 6 8 7 9 9 10 8 11 4 12
REMARK SMILES IDX 3 13 2 14 1 15 85 16 86 17 87 18 16 21 17 22 18 23 19 24
REMARK SMILES IDX 20 25 21 26 22 27 23 28 84 29 24 30 83 31 25 32 26 33 27 34
REMARK SMILES IDX 77 35 28 36 82 37 76 38 78 39 29 40 81 41 75 42 74 43 30 45
REMARK SMILES IDX 62 46 42 47 61 48 43 49 46 50 60 51 79 52 44 53 45 54 59 56
REMARK SMILES IDX 80 57 47 58 31 59 32 60 40 61 33 62 34 63 38 64 41 65 35 66
REMARK SMILES IDX 36 67 39 68 37 69 63 70 64 71 72 72 65 73 66 74 70 75 73 76
REMARK SMILES IDX 67 77 68 78 71 79 69 80 48 81 49 82 57 83 50 84 51 85 55 86
REMARK SMILES IDX 58 87 52 88 53 89 56 90 54 91
REMARK H PARENT 86 19 86 20 78 44 46 55
REMARK Flexibility Score: inf
ROOT
ATOM      1  C   UNL A   1      33.450  29.709  26.276  1.00  0.00     0.202 C 
ENDROOT
BRANCH   1   2
ATOM      2  C   UNL A   1      33.877  28.335  26.814  1.00  0.00     0.261 C 
BRANCH   2   3
ATOM      3  O   UNL A   1      33.885  27.346  25.774  1.00  0.00    -0.460 OA
BRANCH   3   4
ATOM      4  C   UNL A   1      32.735  26.652  25.615  1.00  0.00     0.342 C 
ATOM      5  O   UNL A   1      31.882  26.440  26.459  1.00  0.00    -0.246 OA
BRANCH   4   6
ATOM      6  C   UNL A   1      32.570  26.289  24.194  1.00  0.00     0.102 A 
ATOM      7  C   UNL A   1      31.495  26.744  23.416  1.00  0.00     0.133 A 
ATOM      8  C   UNL A   1      31.476  26.439  22.050  1.00  0.00     0.047 A 
ATOM      9  C   UNL A   1      32.454  25.610  21.495  1.00  0.00     0.004 A 
ATOM     10  C   UNL A   1      33.562  25.474  23.630  1.00  0.00     0.019 A 
ATOM     11  C   UNL A   1      33.487  25.115  22.285  1.00  0.00     0.001 A 
BRANCH   7  12
ATOM     12  O   UNL A   1      30.523  27.485  24.028  1.00  0.00    -0.492 OA
BRANCH  12  13
ATOM     13  C   UNL A   1      29.414  27.926  23.233  1.00  0.00     0.242 C 
BRANCH  13  14
ATOM     14  C   UNL A   1      29.319  29.443  23.020  1.00  0.00     0.113 C 
ATOM     15  C   UNL A   1      30.290  30.008  21.975  1.00  0.00     0.022 C 
BRANCH  14  16
ATOM     16  C   UNL A   1      27.912  29.819  22.642  1.00  0.00     0.223 C 
ATOM     17  N   UNL A   1      27.655  30.076  21.333  1.00  0.00    -0.369 N 
ATOM     18  O   UNL A   1      27.007  29.858  23.460  1.00  0.00    -0.275 OA
ATOM     19  H   UNL A   1      28.384  30.044  20.672  1.00  0.00     0.159 HD
ATOM     20  H   UNL A   1      26.739  30.293  21.045  1.00  0.00     0.159 HD
ENDBRANCH  14  16
ENDBRANCH  13  14
ENDBRANCH  12  13
ENDBRANCH   7  12
ENDBRANCH   4   6
ENDBRANCH   3   4
ENDBRANCH   2   3
ENDBRANCH   1   2
BRANCH   1  21
ATOM     21  O   UNL A   1      32.308  30.250  26.946  1.00  0.00    -0.374 OA
BRANCH  21  22
ATOM     22  C   UNL A   1      31.531  31.173  26.172  1.00  0.00     0.202 C 
BRANCH  22  23
ATOM     23  C   UNL A   1      31.749  32.646  26.573  1.00  0.00     0.261 C 
BRANCH  23  24
ATOM     24  O   UNL A   1      32.358  32.789  27.874  1.00  0.00    -0.460 OA
BRANCH  24  25
ATOM     25  C   UNL A   1      33.350  33.687  28.015  1.00  0.00     0.338 C 
ATOM     26  O   UNL A   1      33.251  34.902  27.990  1.00  0.00    -0.246 OA
BRANCH  25  27
ATOM     27  C   UNL A   1      34.636  33.007  28.334  1.00  0.00     0.060 A 
ATOM     28  C   UNL A   1      34.560  31.729  28.901  1.00  0.00     0.016 A 
ATOM     29  C   UNL A   1      35.888  33.610  28.166  1.00  0.00     0.016 A 
ATOM     30  C   UNL A   1      35.718  31.073  29.337  1.00  0.00     0.010 A 
ATOM     31  C   UNL A   1      37.054  32.948  28.607  1.00  0.00     0.010 A 
ATOM     32  C   UNL A   1      36.974  31.686  29.227  1.00  0.00    -0.014 A 
BRANCH  32  33
ATOM     33  C   UNL A   1      38.146  31.058  29.908  1.00  0.00     0.031 A 
ATOM     34  C   UNL A   1      38.427  31.397  31.351  1.00  0.00     0.074 A 
ATOM     35  C   UNL A   1      38.911  30.129  29.303  1.00  0.00     0.049 A 
ATOM     36  N   UNL A   1      39.310  30.882  32.172  1.00  0.00    -0.248 NA
ATOM     37  C   UNL A   1      37.596  32.453  31.949  1.00  0.00     0.031 C 
ATOM     38  C   UNL A   1      38.752  29.669  27.927  1.00  0.00     0.029 A 
ATOM     39  N   UNL A   1      39.973  29.394  29.780  1.00  0.00    -0.354 N 
ATOM     40  C   UNL A   1      39.124  31.531  33.385  1.00  0.00     0.074 A 
ATOM     41  C   UNL A   1      38.080  32.513  33.181  1.00  0.00     0.031 C 
ATOM     42  C   UNL A   1      39.681  28.730  27.668  1.00  0.00     0.029 A 
ATOM     43  C   UNL A   1      40.507  28.524  28.859  1.00  0.00     0.049 A 
ATOM     44  H   UNL A   1      40.319  29.484  30.697  1.00  0.00     0.167 HD
ATOM     45  C   UNL A   1      39.746  31.320  34.571  1.00  0.00     0.037 A 
ATOM     46  C   UNL A   1      41.538  27.658  28.961  1.00  0.00     0.037 A 
ATOM     47  C   UNL A   1      40.794  30.360  34.797  1.00  0.00     0.049 A 
ATOM     48  C   UNL A   1      42.275  27.504  30.271  1.00  0.00     0.074 A 
ATOM     49  C   UNL A   1      41.457  30.069  35.977  1.00  0.00     0.029 A 
ATOM     50  N   UNL A   1      41.341  29.542  33.821  1.00  0.00    -0.354 N 
ATOM     51  N   UNL A   1      42.041  28.075  31.426  1.00  0.00    -0.248 NA
ATOM     52  C   UNL A   1      43.416  26.574  30.288  1.00  0.00     0.031 C 
ATOM     53  C   UNL A   1      42.444  29.115  35.704  1.00  0.00     0.029 A 
ATOM     54  C   UNL A   1      42.360  28.774  34.366  1.00  0.00     0.049 A 
ATOM     55  H   UNL A   1      41.050  29.512  32.881  1.00  0.00     0.167 HD
ATOM     56  C   UNL A   1      42.979  27.550  32.310  1.00  0.00     0.074 A 
ATOM     57  C   UNL A   1      43.781  26.609  31.563  1.00  0.00     0.031 C 
ATOM     58  C   UNL A   1      43.152  27.826  33.626  1.00  0.00     0.037 A 
BRANCH  45  59
ATOM     59  C   UNL A   1      39.313  32.166  35.732  1.00  0.00     0.064 A 
ATOM     60  C   UNL A   1      39.845  33.447  35.942  1.00  0.00     0.173 A 
ATOM     61  C   UNL A   1      38.329  31.706  36.619  1.00  0.00     0.173 A 
ATOM     62  F   UNL A   1      40.792  33.927  35.124  1.00  0.00    -0.203 F 
ATOM     63  C   UNL A   1      39.425  34.227  37.017  1.00  0.00     0.198 A 
ATOM     64  C   UNL A   1      37.893  32.499  37.678  1.00  0.00     0.198 A 
ATOM     65  F   UNL A   1      37.784  30.491  36.455  1.00  0.00    -0.203 F 
ATOM     66  F   UNL A   1      39.976  35.430  37.224  1.00  0.00    -0.200 F 
ATOM     67  C   UNL A   1      38.447  33.755  37.880  1.00  0.00     0.200 A 
ATOM     68  F   UNL A   1      36.939  32.047  38.503  1.00  0.00    -0.200 F 
ATOM     69  F   UNL A   1      38.041  34.508  38.911  1.00  0.00    -0.200 F 
ENDBRANCH  45  59
BRANCH  46  70
ATOM     70  C   UNL A   1      41.954  26.850  27.782  1.00  0.00     0.064 A 
ATOM     71  C   UNL A   1      41.412  25.579  27.543  1.00  0.00     0.173 A 
ATOM     72  C   UNL A   1      42.944  27.312  26.903  1.00  0.00     0.173 A 
ATOM     73  F   UNL A   1      40.485  25.080  28.375  1.00  0.00    -0.203 F 
ATOM     74  C   UNL A   1      41.859  24.793  26.483  1.00  0.00     0.198 A 
ATOM     75  C   UNL A   1      43.372  26.535  25.828  1.00  0.00     0.198 A 
ATOM     76  F   UNL A   1      43.500  28.518  27.092  1.00  0.00    -0.203 F 
ATOM     77  F   UNL A   1      41.363  23.561  26.310  1.00  0.00    -0.200 F 
ATOM     78  C   UNL A   1      42.836  25.274  25.624  1.00  0.00     0.200 A 
ATOM     79  F   UNL A   1      44.311  27.007  24.997  1.00  0.00    -0.200 F 
ATOM     80  F   UNL A   1      43.270  24.515  24.609  1.00  0.00    -0.200 F 
ENDBRANCH  46  70
BRANCH  58  81
ATOM     81  C   UNL A   1      44.230  27.085  34.367  1.00  0.00     0.064 A 
ATOM     82  C   UNL A   1      45.510  27.630  34.546  1.00  0.00     0.173 A 
ATOM     83  C   UNL A   1      43.957  25.844  34.964  1.00  0.00     0.173 A 
ATOM     84  F   UNL A   1      45.826  28.807  33.985  1.00  0.00    -0.203 F 
ATOM     85  C   UNL A   1      46.480  26.956  35.282  1.00  0.00     0.198 A 
ATOM     86  C   UNL A   1      44.922  25.184  35.722  1.00  0.00     0.198 A 
ATOM     87  F   UNL A   1      42.748  25.280  34.830  1.00  0.00    -0.203 F 
ATOM     88  F   UNL A   1      47.706  27.481  35.411  1.00  0.00    -0.200 F 
ATOM     89  C   UNL A   1      46.183  25.737  35.877  1.00  0.00     0.200 A 
ATOM     90  F   UNL A   1      44.628  24.014  36.307  1.00  0.00    -0.200 F 
ATOM     91  F   UNL A   1      47.114  25.097  36.597  1.00  0.00    -0.200 F 
ENDBRANCH  58  81
ENDBRANCH  32  33
ENDBRANCH  25  27
ENDBRANCH  24  25
ENDBRANCH  23  24
ENDBRANCH  22  23
ENDBRANCH  21  22
ENDBRANCH   1  21
TORSDOF 18
ENDMDL
MODEL 3
REMARK VINA RESULT:     -10.5      1.599      2.850
REMARK SMILES C[C@H](COc1ccccc1C(=O)OCCOCCOC(=O)c1ccc(-c2c3nc(c(-c4c(F)c(F)c(F)c(F)c4F)c4ccc([nH]4)c(-c4c(F)c(F)c(F)c(F)c4F)c4nc(c(-c5c(F)c(F)c(F)c(F)c5F)c5ccc2[nH]5)C=C4)C=C3)cc1)C(N)=O
REMARK SMILES IDX 15 1 14 2 13 3 11 4 12 5 10 6 5 7 6 8 7 9 9 10 8 11 4 12
REMARK SMILES IDX 3 13 2 14 1 15 85 16 86 17 87 18 16 21 17 22 18 23 19 24
REMARK SMILES IDX 20 25 21 26 22 27 23 28 84 29 24 30 83 31 25 32 26 33 27 34
REMARK SMILES IDX 77 35 28 36 82 37 76 38 78 39 29 40 81 41 75 42 74 43 30 45
REMARK SMILES IDX 62 46 42 47 61 48 43 49 46 50 60 51 79 52 44 53 45 54 59 56
REMARK SMILES IDX 80 57 47 58 31 59 32 60 40 61 33 62 34 63 38 64 41 65 35 66
REMARK SMILES IDX 36 67 39 68 37 69 63 70 64 71 72 72 65 73 66 74 70 75 73 76
REMARK SMILES IDX 67 77 68 78 71 79 69 80 48 81 49 82 57 83 50 84 51 85 55 86
REMARK SMILES IDX 58 87 52 88 53 89 56 90 54 91
REMARK H PARENT 86 19 86 20 78 44 46 55
REMARK Flexibility Score: inf
ROOT
ATOM      1  C   UNL A   1      34.716  29.903  27.438  1.00  0.00     0.202 C 
ENDROOT
BRANCH   1   2
ATOM      2  C   UNL A   1      33.677  29.410  26.420  1.00  0.00     0.261 C 
BRANCH   2   3
ATOM      3  O   UNL A   1      33.772  27.991  26.222  1.00  0.00    -0.460 OA
BRANCH   3   4
ATOM      4  C   UNL A   1      32.617  27.364  25.907  1.00  0.00     0.342 C 
ATOM      5  O   UNL A   1      31.576  27.376  26.543  1.00  0.00    -0.246 OA
BRANCH   4   6
ATOM      6  C   UNL A   1      32.736  26.750  24.571  1.00  0.00     0.102 A 
ATOM      7  C   UNL A   1      31.970  27.172  23.473  1.00  0.00     0.133 A 
ATOM      8  C   UNL A   1      32.227  26.608  22.218  1.00  0.00     0.047 A 
ATOM      9  C   UNL A   1      33.153  25.572  22.081  1.00  0.00     0.004 A 
ATOM     10  C   UNL A   1      33.680  25.724  24.427  1.00  0.00     0.019 A 
ATOM     11  C   UNL A   1      33.868  25.119  23.185  1.00  0.00     0.001 A 
BRANCH   7  12
ATOM     12  O   UNL A   1      31.021  28.133  23.679  1.00  0.00    -0.492 OA
BRANCH  12  13
ATOM     13  C   UNL A   1      29.649  27.781  23.457  1.00  0.00     0.242 C 
BRANCH  13  14
ATOM     14  C   UNL A   1      28.850  28.761  22.587  1.00  0.00     0.113 C 
ATOM     15  C   UNL A   1      27.435  29.067  23.095  1.00  0.00     0.022 C 
BRANCH  14  16
ATOM     16  C   UNL A   1      29.611  30.050  22.436  1.00  0.00     0.223 C 
ATOM     17  N   UNL A   1      30.630  30.082  21.539  1.00  0.00    -0.369 N 
ATOM     18  O   UNL A   1      29.315  31.056  23.059  1.00  0.00    -0.275 OA
ATOM     19  H   UNL A   1      30.869  29.270  21.036  1.00  0.00     0.159 HD
ATOM     20  H   UNL A   1      31.129  30.918  21.391  1.00  0.00     0.159 HD
ENDBRANCH  14  16
ENDBRANCH  13  14
ENDBRANCH  12  13
ENDBRANCH   7  12
ENDBRANCH   4   6
ENDBRANCH   3   4
ENDBRANCH   2   3
ENDBRANCH   1   2
BRANCH   1  21
ATOM     21  O   UNL A   1      34.431  31.205  27.954  1.00  0.00    -0.374 OA
BRANCH  21  22
ATOM     22  C   UNL A   1      33.106  31.686  27.694  1.00  0.00     0.202 C 
BRANCH  22  23
ATOM     23  C   UNL A   1      33.060  33.177  27.303  1.00  0.00     0.261 C 
BRANCH  23  24
ATOM     24  O   UNL A   1      32.322  33.981  28.247  1.00  0.00    -0.460 OA
BRANCH  24  25
ATOM     25  C   UNL A   1      32.949  35.028  28.815  1.00  0.00     0.338 C 
ATOM     26  O   UNL A   1      32.577  36.189  28.827  1.00  0.00    -0.246 OA
BRANCH  25  27
ATOM     27  C   UNL A   1      34.154  34.578  29.564  1.00  0.00     0.060 A 
ATOM     28  C   UNL A   1      35.388  34.675  28.909  1.00  0.00     0.016 A 
ATOM     29  C   UNL A   1      34.098  34.001  30.838  1.00  0.00     0.016 A 
ATOM     30  C   UNL A   1      36.551  34.165  29.499  1.00  0.00     0.010 A 
ATOM     31  C   UNL A   1      35.271  33.486  31.431  1.00  0.00     0.010 A 
ATOM     32  C   UNL A   1      36.502  33.535  30.751  1.00  0.00    -0.014 A 
BRANCH  32  33
ATOM     33  C   UNL A   1      37.711  32.804  31.238  1.00  0.00     0.031 A 
ATOM     34  C   UNL A   1      38.354  33.229  32.534  1.00  0.00     0.074 A 
ATOM     35  C   UNL A   1      38.194  31.719  30.603  1.00  0.00     0.049 A 
ATOM     36  N   UNL A   1      39.330  32.666  33.206  1.00  0.00    -0.248 NA
ATOM     37  C   UNL A   1      37.821  34.448  33.161  1.00  0.00     0.031 C 
ATOM     38  C   UNL A   1      37.669  31.162  29.361  1.00  0.00     0.029 A 
ATOM     39  N   UNL A   1      39.237  30.880  30.930  1.00  0.00    -0.354 N 
ATOM     40  C   UNL A   1      39.509  33.445  34.341  1.00  0.00     0.074 A 
ATOM     41  C   UNL A   1      38.578  34.549  34.244  1.00  0.00     0.031 C 
ATOM     42  C   UNL A   1      38.390  30.075  29.028  1.00  0.00     0.029 A 
ATOM     43  C   UNL A   1      39.433  29.859  30.031  1.00  0.00     0.049 A 
ATOM     44  H   UNL A   1      39.792  31.002  31.734  1.00  0.00     0.167 HD
ATOM     45  C   UNL A   1      40.354  33.254  35.383  1.00  0.00     0.037 A 
ATOM     46  C   UNL A   1      40.343  28.862  30.017  1.00  0.00     0.037 A 
ATOM     47  C   UNL A   1      41.297  32.173  35.498  1.00  0.00     0.049 A 
ATOM     48  C   UNL A   1      41.335  28.721  31.148  1.00  0.00     0.074 A 
ATOM     49  C   UNL A   1      42.171  31.896  36.535  1.00  0.00     0.029 A 
ATOM     50  N   UNL A   1      41.500  31.195  34.537  1.00  0.00    -0.354 N 
ATOM     51  N   UNL A   1      41.444  29.425  32.247  1.00  0.00    -0.248 NA
ATOM     52  C   UNL A   1      42.324  27.636  31.036  1.00  0.00     0.031 C 
ATOM     53  C   UNL A   1      42.941  30.785  36.179  1.00  0.00     0.029 A 
ATOM     54  C   UNL A   1      42.511  30.338  34.941  1.00  0.00     0.049 A 
ATOM     55  H   UNL A   1      41.000  31.122  33.691  1.00  0.00     0.167 HD
ATOM     56  C   UNL A   1      42.486  28.849  32.969  1.00  0.00     0.074 A 
ATOM     57  C   UNL A   1      42.972  27.734  32.190  1.00  0.00     0.031 C 
ATOM     58  C   UNL A   1      42.988  29.217  34.173  1.00  0.00     0.037 A 
BRANCH  45  59
ATOM     59  C   UNL A   1      40.308  34.259  36.497  1.00  0.00     0.064 A 
ATOM     60  C   UNL A   1      39.446  34.097  37.592  1.00  0.00     0.173 A 
ATOM     61  C   UNL A   1      41.161  35.372  36.487  1.00  0.00     0.173 A 
ATOM     62  F   UNL A   1      38.608  33.052  37.642  1.00  0.00    -0.203 F 
ATOM     63  C   UNL A   1      39.422  35.030  38.626  1.00  0.00     0.198 A 
ATOM     64  C   UNL A   1      41.151  36.289  37.535  1.00  0.00     0.198 A 
ATOM     65  F   UNL A   1      42.009  35.566  35.466  1.00  0.00    -0.203 F 
ATOM     66  F   UNL A   1      38.562  34.879  39.641  1.00  0.00    -0.200 F 
ATOM     67  C   UNL A   1      40.277  36.121  38.599  1.00  0.00     0.200 A 
ATOM     68  F   UNL A   1      41.987  37.337  37.514  1.00  0.00    -0.200 F 
ATOM     69  F   UNL A   1      40.255  37.016  39.596  1.00  0.00    -0.200 F 
ENDBRANCH  45  59
BRANCH  46  70
ATOM     70  C   UNL A   1      40.374  27.895  28.886  1.00  0.00     0.064 A 
ATOM     71  C   UNL A   1      41.089  28.172  27.712  1.00  0.00     0.173 A 
ATOM     72  C   UNL A   1      39.642  26.700  28.936  1.00  0.00     0.173 A 
ATOM     73  F   UNL A   1      41.779  29.318  27.602  1.00  0.00    -0.203 F 
ATOM     74  C   UNL A   1      41.054  27.301  26.624  1.00  0.00     0.198 A 
ATOM     75  C   UNL A   1      39.629  25.818  27.858  1.00  0.00     0.198 A 
ATOM     76  F   UNL A   1      38.935  26.392  30.034  1.00  0.00    -0.203 F 
ATOM     77  F   UNL A   1      41.702  27.615  25.495  1.00  0.00    -0.200 F 
ATOM     78  C   UNL A   1      40.326  26.122  26.700  1.00  0.00     0.200 A 
ATOM     79  F   UNL A   1      38.929  24.677  27.939  1.00  0.00    -0.200 F 
ATOM     80  F   UNL A   1      40.287  25.288  25.653  1.00  0.00    -0.200 F 
ENDBRANCH  46  70
BRANCH  58  81
ATOM     81  C   UNL A   1      44.105  28.395  34.753  1.00  0.00     0.064 A 
ATOM     82  C   UNL A   1      45.451  28.736  34.554  1.00  0.00     0.173 A 
ATOM     83  C   UNL A   1      43.823  27.291  35.574  1.00  0.00     0.173 A 
ATOM     84  F   UNL A   1      45.775  29.774  33.768  1.00  0.00    -0.203 F 
ATOM     85  C   UNL A   1      46.473  27.997  35.144  1.00  0.00     0.198 A 
ATOM     86  C   UNL A   1      44.847  26.569  36.183  1.00  0.00     0.198 A 
ATOM     87  F   UNL A   1      42.554  26.925  35.801  1.00  0.00    -0.203 F 
ATOM     88  F   UNL A   1      47.752  28.321  34.913  1.00  0.00    -0.200 F 
ATOM     89  C   UNL A   1      46.171  26.919  35.965  1.00  0.00     0.200 A 
ATOM     90  F   UNL A   1      44.552  25.538  36.987  1.00  0.00    -0.200 F 
ATOM     91  F   UNL A   1      47.155  26.217  36.542  1.00  0.00    -0.200 F 
ENDBRANCH  58  81
ENDBRANCH  32  33
ENDBRANCH  25  27
ENDBRANCH  24  25
ENDBRANCH  23  24
ENDBRANCH  22  23
ENDBRANCH  21  22
ENDBRANCH   1  21
TORSDOF 18
ENDMDL
