MODEL 1
REMARK VINA RESULT:     -11.6      0.000      0.000
REMARK SMILES CC(C)(C)[NH2+]CC(=O)N1Cc2nc[nH]c2C[C@@H]1C(=O)OCCOCCOC(=O)c1ccc(-c2c3nc(c(-c4c(F)c(F)c(F)c(F)c4F)c4ccc([nH]4)c(-c4c(F)c(F)c(F)c(F)c4F)c4nc(c(-c5c(F)c(F)c(F)c(F)c5F)c5ccc2[nH]5)C=C4)C=C3)cc1
REMARK SMILES IDX 22 1 21 2 20 3 18 4 19 5 17 6 9 7 10 8 11 9 16 10 12 11
REMARK SMILES IDX 15 12 13 13 14 14 7 16 8 17 6 18 5 19 2 22 1 23 3 24 4 25
REMARK SMILES IDX 23 26 24 27 25 28 26 29 27 30 28 31 29 32 30 33 91 34 31 35
REMARK SMILES IDX 90 36 32 37 33 38 34 39 84 40 35 41 89 42 83 43 85 44 36 45
REMARK SMILES IDX 88 46 82 47 81 48 37 50 69 51 49 52 68 53 50 54 53 55 67 56
REMARK SMILES IDX 86 57 51 58 52 59 66 61 87 62 54 63 38 64 39 65 47 66 40 67
REMARK SMILES IDX 41 68 45 69 48 70 42 71 43 72 46 73 44 74 70 75 71 76 79 77
REMARK SMILES IDX 72 78 73 79 77 80 80 81 74 82 75 83 78 84 76 85 55 86 56 87
REMARK SMILES IDX 64 88 57 89 58 90 62 91 65 92 59 93 60 94 63 95 61 96
REMARK H PARENT 14 15 5 20 5 21 85 49 53 60
REMARK Flexibility Score: inf
ROOT
ATOM      1  C   UNL A   1      39.298  22.058  26.130  1.00  0.00     0.202 C 
ENDROOT
BRANCH   1   2
ATOM      2  C   UNL A   1      37.903  21.649  25.540  1.00  0.00     0.261 C 
BRANCH   2   3
ATOM      3  O   UNL A   1      37.151  22.565  24.722  1.00  0.00    -0.462 OA
BRANCH   3   4
ATOM      4  C   UNL A   1      35.935  22.739  25.255  1.00  0.00     0.329 C 
ATOM      5  O   UNL A   1      35.780  23.584  26.131  1.00  0.00    -0.250 OA
BRANCH   4   6
ATOM      6  C   UNL A   1      34.760  21.897  24.757  1.00  0.00     0.201 C 
ATOM      7  N   UNL A   1      33.626  22.496  24.010  1.00  0.00    -0.318 N 
ATOM      8  C   UNL A   1      32.608  21.550  23.461  1.00  0.00     0.178 C 
ATOM      9  C   UNL A   1      32.683  20.198  24.102  1.00  0.00     0.081 A 
ATOM     10  C   UNL A   1      34.328  20.903  25.861  1.00  0.00     0.093 C 
ATOM     11  N   UNL A   1      32.184  19.038  23.568  1.00  0.00    -0.240 NA
ATOM     12  C   UNL A   1      33.456  19.911  25.200  1.00  0.00     0.042 A 
ATOM     13  C   UNL A   1      32.649  18.072  24.334  1.00  0.00     0.197 A 
ATOM     14  N   UNL A   1      33.428  18.558  25.352  1.00  0.00    -0.348 N 
ATOM     15  H   UNL A   1      33.876  18.033  26.053  1.00  0.00     0.167 HD
BRANCH   7  16
ATOM     16  C   UNL A   1      33.824  23.575  23.144  1.00  0.00     0.278 C 
ATOM     17  O   UNL A   1      34.421  23.385  22.077  1.00  0.00    -0.268 OA
BRANCH  16  18
ATOM     18  C   UNL A   1      33.595  25.035  23.653  1.00  0.00     0.362 C 
BRANCH  18  19
ATOM     19  N   UNL A   1      32.297  25.243  24.254  1.00  0.00    -0.334 N 
ATOM     20  H   UNL A   1      31.889  26.015  23.726  1.00  0.00     0.347 HD
ATOM     21  H   UNL A   1      31.959  24.281  24.228  1.00  0.00     0.347 HD
BRANCH  19  22
ATOM     22  C   UNL A   1      31.990  25.548  25.656  1.00  0.00     0.088 C 
ATOM     23  C   UNL A   1      32.138  24.357  26.593  1.00  0.00     0.078 C 
ATOM     24  C   UNL A   1      30.550  26.098  25.863  1.00  0.00     0.078 C 
ATOM     25  C   UNL A   1      32.954  26.681  26.085  1.00  0.00     0.078 C 
ENDBRANCH  19  22
ENDBRANCH  18  19
ENDBRANCH  16  18
ENDBRANCH   7  16
ENDBRANCH   4   6
ENDBRANCH   3   4
ENDBRANCH   2   3
ENDBRANCH   1   2
BRANCH   1  26
ATOM     26  O   UNL A   1      40.017  21.502  27.228  1.00  0.00    -0.374 OA
BRANCH  26  27
ATOM     27  C   UNL A   1      40.931  20.413  27.267  1.00  0.00     0.202 C 
BRANCH  27  28
ATOM     28  C   UNL A   1      41.994  20.178  26.200  1.00  0.00     0.261 C 
BRANCH  28  29
ATOM     29  O   UNL A   1      43.087  21.038  26.378  1.00  0.00    -0.460 OA
BRANCH  29  30
ATOM     30  C   UNL A   1      43.958  20.902  25.353  1.00  0.00     0.338 C 
ATOM     31  O   UNL A   1      44.261  19.878  24.773  1.00  0.00    -0.246 OA
BRANCH  30  32
ATOM     32  C   UNL A   1      44.573  22.210  25.096  1.00  0.00     0.060 A 
ATOM     33  C   UNL A   1      45.415  22.560  26.136  1.00  0.00     0.016 A 
ATOM     34  C   UNL A   1      43.867  23.149  24.325  1.00  0.00     0.016 A 
ATOM     35  C   UNL A   1      45.104  23.737  26.740  1.00  0.00     0.010 A 
ATOM     36  C   UNL A   1      43.622  24.363  24.881  1.00  0.00     0.010 A 
ATOM     37  C   UNL A   1      44.124  24.554  26.153  1.00  0.00    -0.014 A 
BRANCH  37  38
ATOM     38  C   UNL A   1      43.748  25.722  26.885  1.00  0.00     0.031 A 
ATOM     39  C   UNL A   1      44.741  26.770  26.643  1.00  0.00     0.074 A 
ATOM     40  C   UNL A   1      42.659  25.782  27.661  1.00  0.00     0.049 A 
ATOM     41  N   UNL A   1      45.731  27.071  27.410  1.00  0.00    -0.248 NA
ATOM     42  C   UNL A   1      44.840  27.293  25.272  1.00  0.00     0.031 C 
ATOM     43  C   UNL A   1      41.512  24.873  27.720  1.00  0.00     0.029 A 
ATOM     44  N   UNL A   1      42.334  26.763  28.536  1.00  0.00    -0.354 N 
ATOM     45  C   UNL A   1      46.441  28.025  26.701  1.00  0.00     0.074 A 
ATOM     46  C   UNL A   1      46.015  27.924  25.331  1.00  0.00     0.031 C 
ATOM     47  C   UNL A   1      40.516  25.470  28.414  1.00  0.00     0.029 A 
ATOM     48  C   UNL A   1      41.021  26.713  28.972  1.00  0.00     0.049 A 
ATOM     49  H   UNL A   1      42.973  27.450  28.835  1.00  0.00     0.167 HD
ATOM     50  C   UNL A   1      47.001  29.059  27.378  1.00  0.00     0.037 A 
ATOM     51  C   UNL A   1      40.417  27.707  29.660  1.00  0.00     0.037 A 
ATOM     52  C   UNL A   1      47.112  28.752  28.784  1.00  0.00     0.049 A 
ATOM     53  C   UNL A   1      41.491  28.498  30.320  1.00  0.00     0.074 A 
ATOM     54  C   UNL A   1      47.941  27.989  29.577  1.00  0.00     0.029 A 
ATOM     55  N   UNL A   1      45.957  28.967  29.492  1.00  0.00    -0.354 N 
ATOM     56  N   UNL A   1      42.269  28.006  31.248  1.00  0.00    -0.248 NA
ATOM     57  C   UNL A   1      41.979  29.722  29.689  1.00  0.00     0.031 C 
ATOM     58  C   UNL A   1      47.181  27.636  30.734  1.00  0.00     0.029 A 
ATOM     59  C   UNL A   1      45.914  28.206  30.630  1.00  0.00     0.049 A 
ATOM     60  H   UNL A   1      45.246  29.591  29.217  1.00  0.00     0.167 HD
ATOM     61  C   UNL A   1      43.494  28.616  31.041  1.00  0.00     0.074 A 
ATOM     62  C   UNL A   1      43.215  29.768  30.195  1.00  0.00     0.031 C 
ATOM     63  C   UNL A   1      44.658  27.953  31.303  1.00  0.00     0.037 A 
BRANCH  50  64
ATOM     64  C   UNL A   1      46.903  30.486  26.893  1.00  0.00     0.064 A 
ATOM     65  C   UNL A   1      48.055  31.288  26.951  1.00  0.00     0.173 A 
ATOM     66  C   UNL A   1      45.687  31.177  26.684  1.00  0.00     0.173 A 
ATOM     67  F   UNL A   1      49.259  30.738  27.170  1.00  0.00    -0.203 F 
ATOM     68  C   UNL A   1      47.981  32.681  26.874  1.00  0.00     0.198 A 
ATOM     69  C   UNL A   1      45.625  32.559  26.553  1.00  0.00     0.198 A 
ATOM     70  F   UNL A   1      44.493  30.576  26.719  1.00  0.00    -0.203 F 
ATOM     71  F   UNL A   1      49.087  33.414  27.055  1.00  0.00    -0.200 F 
ATOM     72  C   UNL A   1      46.767  33.315  26.680  1.00  0.00     0.200 A 
ATOM     73  F   UNL A   1      44.432  33.151  26.392  1.00  0.00    -0.200 F 
ATOM     74  F   UNL A   1      46.687  34.651  26.666  1.00  0.00    -0.200 F 
ENDBRANCH  50  64
BRANCH  51  75
ATOM     75  C   UNL A   1      39.046  28.221  29.449  1.00  0.00     0.064 A 
ATOM     76  C   UNL A   1      38.182  28.430  30.532  1.00  0.00     0.173 A 
ATOM     77  C   UNL A   1      38.658  28.780  28.214  1.00  0.00     0.173 A 
ATOM     78  F   UNL A   1      38.505  27.964  31.748  1.00  0.00    -0.203 F 
ATOM     79  C   UNL A   1      37.012  29.183  30.398  1.00  0.00     0.198 A 
ATOM     80  C   UNL A   1      37.489  29.527  28.080  1.00  0.00     0.198 A 
ATOM     81  F   UNL A   1      39.455  28.694  27.139  1.00  0.00    -0.203 F 
ATOM     82  F   UNL A   1      36.242  29.416  31.469  1.00  0.00    -0.200 F 
ATOM     83  C   UNL A   1      36.673  29.740  29.175  1.00  0.00     0.200 A 
ATOM     84  F   UNL A   1      37.194  30.092  26.901  1.00  0.00    -0.200 F 
ATOM     85  F   UNL A   1      35.586  30.516  29.062  1.00  0.00    -0.200 F 
ENDBRANCH  51  75
BRANCH  63  86
ATOM     86  C   UNL A   1      44.579  26.780  32.228  1.00  0.00     0.064 A 
ATOM     87  C   UNL A   1      44.444  25.449  31.803  1.00  0.00     0.173 A 
ATOM     88  C   UNL A   1      44.724  27.011  33.601  1.00  0.00     0.173 A 
ATOM     89  F   UNL A   1      44.373  25.149  30.500  1.00  0.00    -0.203 F 
ATOM     90  C   UNL A   1      44.420  24.399  32.720  1.00  0.00     0.198 A 
ATOM     91  C   UNL A   1      44.733  25.961  34.513  1.00  0.00     0.198 A 
ATOM     92  F   UNL A   1      44.898  28.263  34.054  1.00  0.00    -0.203 F 
ATOM     93  F   UNL A   1      44.275  23.135  32.294  1.00  0.00    -0.200 F 
ATOM     94  C   UNL A   1      44.573  24.656  34.074  1.00  0.00     0.200 A 
ATOM     95  F   UNL A   1      44.920  26.212  35.815  1.00  0.00    -0.200 F 
ATOM     96  F   UNL A   1      44.584  23.646  34.954  1.00  0.00    -0.200 F 
ENDBRANCH  63  86
ENDBRANCH  37  38
ENDBRANCH  30  32
ENDBRANCH  29  30
ENDBRANCH  28  29
ENDBRANCH  27  28
ENDBRANCH  26  27
ENDBRANCH   1  26
TORSDOF 18
ENDMDL
MODEL 2
REMARK VINA RESULT:     -11.6      0.752      2.793
REMARK SMILES CC(C)(C)[NH2+]CC(=O)N1Cc2nc[nH]c2C[C@@H]1C(=O)OCCOCCOC(=O)c1ccc(-c2c3nc(c(-c4c(F)c(F)c(F)c(F)c4F)c4ccc([nH]4)c(-c4c(F)c(F)c(F)c(F)c4F)c4nc(c(-c5c(F)c(F)c(F)c(F)c5F)c5ccc2[nH]5)C=C4)C=C3)cc1
REMARK SMILES IDX 22 1 21 2 20 3 18 4 19 5 17 6 9 7 10 8 11 9 16 10 12 11
REMARK SMILES IDX 15 12 13 13 14 14 7 16 8 17 6 18 5 19 2 22 1 23 3 24 4 25
REMARK SMILES IDX 23 26 24 27 25 28 26 29 27 30 28 31 29 32 30 33 91 34 31 35
REMARK SMILES IDX 90 36 32 37 33 38 34 39 84 40 35 41 89 42 83 43 85 44 36 45
REMARK SMILES IDX 88 46 82 47 81 48 37 50 69 51 49 52 68 53 50 54 53 55 67 56
REMARK SMILES IDX 86 57 51 58 52 59 66 61 87 62 54 63 38 64 39 65 47 66 40 67
REMARK SMILES IDX 41 68 45 69 48 70 42 71 43 72 46 73 44 74 70 75 71 76 79 77
REMARK SMILES IDX 72 78 73 79 77 80 80 81 74 82 75 83 78 84 76 85 55 86 56 87
REMARK SMILES IDX 64 88 57 89 58 90 62 91 65 92 59 93 60 94 63 95 61 96
REMARK H PARENT 14 15 5 20 5 21 85 49 53 60
REMARK Flexibility Score: inf
ROOT
ATOM      1  C   UNL A   1      38.754  22.310  26.194  1.00  0.00     0.202 C 
ENDROOT
BRANCH   1   2
ATOM      2  C   UNL A   1      37.687  22.475  25.055  1.00  0.00     0.261 C 
BRANCH   2   3
ATOM      3  O   UNL A   1      37.067  23.750  24.804  1.00  0.00    -0.462 OA
BRANCH   3   4
ATOM      4  C   UNL A   1      35.915  23.562  24.147  1.00  0.00     0.329 C 
ATOM      5  O   UNL A   1      35.942  23.114  23.005  1.00  0.00    -0.250 OA
BRANCH   4   6
ATOM      6  C   UNL A   1      34.589  23.891  24.833  1.00  0.00     0.201 C 
ATOM      7  N   UNL A   1      33.658  22.830  25.292  1.00  0.00    -0.318 N 
ATOM      8  C   UNL A   1      32.460  23.277  26.067  1.00  0.00     0.178 C 
ATOM      9  C   UNL A   1      32.186  24.740  25.898  1.00  0.00     0.081 A 
ATOM     10  C   UNL A   1      33.894  25.055  24.087  1.00  0.00     0.093 C 
ATOM     11  N   UNL A   1      31.440  25.510  26.753  1.00  0.00    -0.240 NA
ATOM     12  C   UNL A   1      32.831  25.543  24.990  1.00  0.00     0.042 A 
ATOM     13  C   UNL A   1      31.633  26.754  26.361  1.00  0.00     0.197 A 
ATOM     14  N   UNL A   1      32.472  26.824  25.280  1.00  0.00    -0.348 N 
ATOM     15  H   UNL A   1      32.758  27.638  24.807  1.00  0.00     0.167 HD
BRANCH   7  16
ATOM     16  C   UNL A   1      34.138  21.609  25.774  1.00  0.00     0.278 C 
ATOM     17  O   UNL A   1      34.683  21.577  26.884  1.00  0.00    -0.268 OA
BRANCH  16  18
ATOM     18  C   UNL A   1      34.283  20.393  24.804  1.00  0.00     0.362 C 
BRANCH  18  19
ATOM     19  N   UNL A   1      33.728  19.165  25.327  1.00  0.00    -0.334 N 
ATOM     20  H   UNL A   1      34.386  18.870  26.049  1.00  0.00     0.347 HD
ATOM     21  H   UNL A   1      32.778  19.489  25.507  1.00  0.00     0.347 HD
BRANCH  19  22
ATOM     22  C   UNL A   1      33.407  17.935  24.595  1.00  0.00     0.088 C 
ATOM     23  C   UNL A   1      32.612  18.168  23.316  1.00  0.00     0.078 C 
ATOM     24  C   UNL A   1      32.598  16.910  25.439  1.00  0.00     0.078 C 
ATOM     25  C   UNL A   1      34.757  17.254  24.260  1.00  0.00     0.078 C 
ENDBRANCH  19  22
ENDBRANCH  18  19
ENDBRANCH  16  18
ENDBRANCH   7  16
ENDBRANCH   4   6
ENDBRANCH   3   4
ENDBRANCH   2   3
ENDBRANCH   1   2
BRANCH   1  26
ATOM     26  O   UNL A   1      40.119  21.909  26.107  1.00  0.00    -0.374 OA
BRANCH  26  27
ATOM     27  C   UNL A   1      40.853  20.980  26.896  1.00  0.00     0.202 C 
BRANCH  27  28
ATOM     28  C   UNL A   1      42.112  20.279  26.401  1.00  0.00     0.261 C 
BRANCH  28  29
ATOM     29  O   UNL A   1      42.683  20.967  25.322  1.00  0.00    -0.460 OA
BRANCH  29  30
ATOM     30  C   UNL A   1      44.026  20.812  25.329  1.00  0.00     0.338 C 
ATOM     31  O   UNL A   1      44.651  19.802  25.582  1.00  0.00    -0.246 OA
BRANCH  30  32
ATOM     32  C   UNL A   1      44.640  22.120  25.065  1.00  0.00     0.060 A 
ATOM     33  C   UNL A   1      45.488  22.472  26.100  1.00  0.00     0.016 A 
ATOM     34  C   UNL A   1      43.930  23.056  24.295  1.00  0.00     0.016 A 
ATOM     35  C   UNL A   1      45.181  23.651  26.701  1.00  0.00     0.010 A 
ATOM     36  C   UNL A   1      43.688  24.272  24.849  1.00  0.00     0.010 A 
ATOM     37  C   UNL A   1      44.198  24.467  26.117  1.00  0.00    -0.014 A 
BRANCH  37  38
ATOM     38  C   UNL A   1      43.826  25.637  26.848  1.00  0.00     0.031 A 
ATOM     39  C   UNL A   1      44.825  26.679  26.609  1.00  0.00     0.074 A 
ATOM     40  C   UNL A   1      42.734  25.703  27.620  1.00  0.00     0.049 A 
ATOM     41  N   UNL A   1      45.814  26.975  27.380  1.00  0.00    -0.248 NA
ATOM     42  C   UNL A   1      44.933  27.202  25.239  1.00  0.00     0.031 C 
ATOM     43  C   UNL A   1      41.581  24.802  27.675  1.00  0.00     0.029 A 
ATOM     44  N   UNL A   1      42.411  26.687  28.494  1.00  0.00    -0.354 N 
ATOM     45  C   UNL A   1      46.532  27.925  26.673  1.00  0.00     0.074 A 
ATOM     46  C   UNL A   1      46.110  27.826  25.302  1.00  0.00     0.031 C 
ATOM     47  C   UNL A   1      40.586  25.405  28.366  1.00  0.00     0.029 A 
ATOM     48  C   UNL A   1      41.097  26.644  28.925  1.00  0.00     0.049 A 
ATOM     49  H   UNL A   1      43.054  27.370  28.795  1.00  0.00     0.167 HD
ATOM     50  C   UNL A   1      47.096  28.955  27.352  1.00  0.00     0.037 A 
ATOM     51  C   UNL A   1      40.496  27.642  29.610  1.00  0.00     0.037 A 
ATOM     52  C   UNL A   1      47.200  28.648  28.759  1.00  0.00     0.049 A 
ATOM     53  C   UNL A   1      41.572  28.427  30.274  1.00  0.00     0.074 A 
ATOM     54  C   UNL A   1      48.022  27.880  29.554  1.00  0.00     0.029 A 
ATOM     55  N   UNL A   1      46.043  28.870  29.463  1.00  0.00    -0.354 N 
ATOM     56  N   UNL A   1      42.344  27.930  31.205  1.00  0.00    -0.248 NA
ATOM     57  C   UNL A   1      42.070  29.648  29.645  1.00  0.00     0.031 C 
ATOM     58  C   UNL A   1      47.255  27.532  30.709  1.00  0.00     0.029 A 
ATOM     59  C   UNL A   1      45.992  28.109  30.601  1.00  0.00     0.049 A 
ATOM     60  H   UNL A   1      45.338  29.497  29.185  1.00  0.00     0.167 HD
ATOM     61  C   UNL A   1      43.574  28.533  31.002  1.00  0.00     0.074 A 
ATOM     62  C   UNL A   1      43.304  29.687  30.156  1.00  0.00     0.031 C 
ATOM     63  C   UNL A   1      44.732  27.864  31.269  1.00  0.00     0.037 A 
BRANCH  50  64
ATOM     64  C   UNL A   1      47.009  30.382  26.866  1.00  0.00     0.064 A 
ATOM     65  C   UNL A   1      48.162  31.182  26.939  1.00  0.00     0.173 A 
ATOM     66  C   UNL A   1      45.797  31.077  26.643  1.00  0.00     0.173 A 
ATOM     67  F   UNL A   1      49.361  30.627  27.173  1.00  0.00    -0.203 F 
ATOM     68  C   UNL A   1      48.093  32.575  26.862  1.00  0.00     0.198 A 
ATOM     69  C   UNL A   1      45.740  32.460  26.512  1.00  0.00     0.198 A 
ATOM     70  F   UNL A   1      44.601  30.480  26.664  1.00  0.00    -0.203 F 
ATOM     71  F   UNL A   1      49.199  33.305  27.057  1.00  0.00    -0.200 F 
ATOM     72  C   UNL A   1      46.883  33.212  26.653  1.00  0.00     0.200 A 
ATOM     73  F   UNL A   1      44.551  33.055  26.337  1.00  0.00    -0.200 F 
ATOM     74  F   UNL A   1      46.807  34.549  26.639  1.00  0.00    -0.200 F 
ENDBRANCH  50  64
BRANCH  51  75
ATOM     75  C   UNL A   1      39.129  28.164  29.394  1.00  0.00     0.064 A 
ATOM     76  C   UNL A   1      38.254  28.354  30.472  1.00  0.00     0.173 A 
ATOM     77  C   UNL A   1      38.757  28.749  28.167  1.00  0.00     0.173 A 
ATOM     78  F   UNL A   1      38.561  27.862  31.682  1.00  0.00    -0.203 F 
ATOM     79  C   UNL A   1      37.087  29.112  30.340  1.00  0.00     0.198 A 
ATOM     80  C   UNL A   1      37.591  29.502  28.035  1.00  0.00     0.198 A 
ATOM     81  F   UNL A   1      39.565  28.683  27.100  1.00  0.00    -0.203 F 
ATOM     82  F   UNL A   1      36.305  29.325  31.407  1.00  0.00    -0.200 F 
ATOM     83  C   UNL A   1      36.763  29.695  29.125  1.00  0.00     0.200 A 
ATOM     84  F   UNL A   1      37.310  30.092  26.865  1.00  0.00    -0.200 F 
ATOM     85  F   UNL A   1      35.680  30.476  29.015  1.00  0.00    -0.200 F 
ENDBRANCH  51  75
BRANCH  63  86
ATOM     86  C   UNL A   1      44.643  26.691  32.194  1.00  0.00     0.064 A 
ATOM     87  C   UNL A   1      44.501  25.361  31.768  1.00  0.00     0.173 A 
ATOM     88  C   UNL A   1      44.786  26.921  33.567  1.00  0.00     0.173 A 
ATOM     89  F   UNL A   1      44.432  25.062  30.465  1.00  0.00    -0.203 F 
ATOM     90  C   UNL A   1      44.468  24.311  32.685  1.00  0.00     0.198 A 
ATOM     91  C   UNL A   1      44.786  25.871  34.479  1.00  0.00     0.198 A 
ATOM     92  F   UNL A   1      44.967  28.172  34.021  1.00  0.00    -0.203 F 
ATOM     93  F   UNL A   1      44.317  23.048  32.259  1.00  0.00    -0.200 F 
ATOM     94  C   UNL A   1      44.618  24.568  34.039  1.00  0.00     0.200 A 
ATOM     95  F   UNL A   1      44.970  26.122  35.782  1.00  0.00    -0.200 F 
ATOM     96  F   UNL A   1      44.620  23.557  34.920  1.00  0.00    -0.200 F 
ENDBRANCH  63  86
ENDBRANCH  37  38
ENDBRANCH  30  32
ENDBRANCH  29  30
ENDBRANCH  28  29
ENDBRANCH  27  28
ENDBRANCH  26  27
ENDBRANCH   1  26
TORSDOF 18
ENDMDL
MODEL 3
REMARK VINA RESULT:     -11.3      4.192      9.591
REMARK SMILES CC(C)(C)[NH2+]CC(=O)N1Cc2nc[nH]c2C[C@@H]1C(=O)OCCOCCOC(=O)c1ccc(-c2c3nc(c(-c4c(F)c(F)c(F)c(F)c4F)c4ccc([nH]4)c(-c4c(F)c(F)c(F)c(F)c4F)c4nc(c(-c5c(F)c(F)c(F)c(F)c5F)c5ccc2[nH]5)C=C4)C=C3)cc1
REMARK SMILES IDX 22 1 21 2 20 3 18 4 19 5 17 6 9 7 10 8 11 9 16 10 12 11
REMARK SMILES IDX 15 12 13 13 14 14 7 16 8 17 6 18 5 19 2 22 1 23 3 24 4 25
REMARK SMILES IDX 23 26 24 27 25 28 26 29 27 30 28 31 29 32 30 33 91 34 31 35
REMARK SMILES IDX 90 36 32 37 33 38 34 39 84 40 35 41 89 42 83 43 85 44 36 45
REMARK SMILES IDX 88 46 82 47 81 48 37 50 69 51 49 52 68 53 50 54 53 55 67 56
REMARK SMILES IDX 86 57 51 58 52 59 66 61 87 62 54 63 38 64 39 65 47 66 40 67
REMARK SMILES IDX 41 68 45 69 48 70 42 71 43 72 46 73 44 74 70 75 71 76 79 77
REMARK SMILES IDX 72 78 73 79 77 80 80 81 74 82 75 83 78 84 76 85 55 86 56 87
REMARK SMILES IDX 64 88 57 89 58 90 62 91 65 92 59 93 60 94 63 95 61 96
REMARK H PARENT 14 15 5 20 5 21 85 49 53 60
REMARK Flexibility Score: inf
ROOT
ATOM      1  C   UNL A   1      34.146  30.924  27.694  1.00  0.00     0.202 C 
ENDROOT
BRANCH   1   2
ATOM      2  C   UNL A   1      33.245  30.152  26.668  1.00  0.00     0.261 C 
BRANCH   2   3
ATOM      3  O   UNL A   1      32.901  28.770  26.882  1.00  0.00    -0.462 OA
BRANCH   3   4
ATOM      4  C   UNL A   1      33.066  28.090  25.740  1.00  0.00     0.329 C 
ATOM      5  O   UNL A   1      34.122  27.496  25.542  1.00  0.00    -0.250 OA
BRANCH   4   6
ATOM      6  C   UNL A   1      31.937  28.052  24.710  1.00  0.00     0.201 C 
ATOM      7  N   UNL A   1      31.149  26.820  24.454  1.00  0.00    -0.318 N 
ATOM      8  C   UNL A   1      29.986  26.946  23.523  1.00  0.00     0.178 C 
ATOM      9  C   UNL A   1      30.056  28.190  22.692  1.00  0.00     0.081 A 
ATOM     10  C   UNL A   1      32.379  28.791  23.425  1.00  0.00     0.093 C 
ATOM     11  N   UNL A   1      28.993  28.782  22.059  1.00  0.00    -0.240 NA
ATOM     12  C   UNL A   1      31.149  29.020  22.640  1.00  0.00     0.042 A 
ATOM     13  C   UNL A   1      29.442  29.946  21.635  1.00  0.00     0.197 A 
ATOM     14  N   UNL A   1      30.760  30.134  21.960  1.00  0.00    -0.348 N 
ATOM     15  H   UNL A   1      31.315  30.917  21.744  1.00  0.00     0.167 HD
BRANCH   7  16
ATOM     16  C   UNL A   1      30.869  25.917  25.483  1.00  0.00     0.278 C 
ATOM     17  O   UNL A   1      30.339  26.336  26.519  1.00  0.00    -0.268 OA
BRANCH  16  18
ATOM     18  C   UNL A   1      31.507  24.490  25.462  1.00  0.00     0.362 C 
BRANCH  18  19
ATOM     19  N   UNL A   1      32.945  24.495  25.609  1.00  0.00    -0.334 N 
ATOM     20  H   UNL A   1      33.182  25.469  25.804  1.00  0.00     0.347 HD
ATOM     21  H   UNL A   1      33.034  23.732  26.280  1.00  0.00     0.347 HD
BRANCH  19  22
ATOM     22  C   UNL A   1      33.953  24.056  24.638  1.00  0.00     0.088 C 
ATOM     23  C   UNL A   1      33.918  24.824  23.323  1.00  0.00     0.078 C 
ATOM     24  C   UNL A   1      33.838  22.548  24.273  1.00  0.00     0.078 C 
ATOM     25  C   UNL A   1      35.332  24.235  25.318  1.00  0.00     0.078 C 
ENDBRANCH  19  22
ENDBRANCH  18  19
ENDBRANCH  16  18
ENDBRANCH   7  16
ENDBRANCH   4   6
ENDBRANCH   3   4
ENDBRANCH   2   3
ENDBRANCH   1   2
BRANCH   1  26
ATOM     26  O   UNL A   1      34.986  32.058  27.492  1.00  0.00    -0.374 OA
BRANCH  26  27
ATOM     27  C   UNL A   1      34.917  33.361  28.056  1.00  0.00     0.202 C 
BRANCH  27  28
ATOM     28  C   UNL A   1      34.140  33.678  29.329  1.00  0.00     0.261 C 
BRANCH  28  29
ATOM     29  O   UNL A   1      34.896  34.479  30.196  1.00  0.00    -0.460 OA
BRANCH  29  30
ATOM     30  C   UNL A   1      34.265  34.601  31.386  1.00  0.00     0.338 C 
ATOM     31  O   UNL A   1      33.208  35.157  31.607  1.00  0.00    -0.246 OA
BRANCH  30  32
ATOM     32  C   UNL A   1      35.126  34.019  32.423  1.00  0.00     0.060 A 
ATOM     33  C   UNL A   1      36.352  34.659  32.449  1.00  0.00     0.016 A 
ATOM     34  C   UNL A   1      34.954  32.666  32.763  1.00  0.00     0.016 A 
ATOM     35  C   UNL A   1      37.418  33.839  32.255  1.00  0.00     0.010 A 
ATOM     36  C   UNL A   1      36.033  31.849  32.658  1.00  0.00     0.010 A 
ATOM     37  C   UNL A   1      37.206  32.451  32.247  1.00  0.00    -0.014 A 
BRANCH  37  38
ATOM     38  C   UNL A   1      38.334  31.637  31.923  1.00  0.00     0.031 A 
ATOM     39  C   UNL A   1      39.106  31.395  33.142  1.00  0.00     0.074 A 
ATOM     40  C   UNL A   1      38.595  31.206  30.683  1.00  0.00     0.049 A 
ATOM     41  N   UNL A   1      40.158  32.039  33.515  1.00  0.00    -0.248 NA
ATOM     42  C   UNL A   1      38.458  30.605  34.199  1.00  0.00     0.031 C 
ATOM     43  C   UNL A   1      37.725  31.191  29.504  1.00  0.00     0.029 A 
ATOM     44  N   UNL A   1      39.729  30.606  30.250  1.00  0.00    -0.354 N 
ATOM     45  C   UNL A   1      40.446  31.534  34.772  1.00  0.00     0.074 A 
ATOM     46  C   UNL A   1      39.253  30.877  35.236  1.00  0.00     0.031 C 
ATOM     47  C   UNL A   1      38.284  30.401  28.558  1.00  0.00     0.029 A 
ATOM     48  C   UNL A   1      39.606  30.003  29.010  1.00  0.00     0.049 A 
ATOM     49  H   UNL A   1      40.566  30.599  30.769  1.00  0.00     0.167 HD
ATOM     50  C   UNL A   1      41.744  31.360  35.124  1.00  0.00     0.037 A 
ATOM     51  C   UNL A   1      40.525  29.160  28.487  1.00  0.00     0.037 A 
ATOM     52  C   UNL A   1      42.616  32.133  34.272  1.00  0.00     0.049 A 
ATOM     53  C   UNL A   1      41.823  29.465  29.147  1.00  0.00     0.074 A 
ATOM     54  C   UNL A   1      42.986  33.456  34.161  1.00  0.00     0.029 A 
ATOM     55  N   UNL A   1      42.902  31.528  33.074  1.00  0.00    -0.354 N 
ATOM     56  N   UNL A   1      42.442  30.608  29.007  1.00  0.00    -0.248 NA
ATOM     57  C   UNL A   1      42.263  28.659  30.283  1.00  0.00     0.031 C 
ATOM     58  C   UNL A   1      43.376  33.652  32.800  1.00  0.00     0.029 A 
ATOM     59  C   UNL A   1      43.253  32.443  32.118  1.00  0.00     0.049 A 
ATOM     60  H   UNL A   1      42.860  30.556  32.921  1.00  0.00     0.167 HD
ATOM     61  C   UNL A   1      43.046  30.835  30.232  1.00  0.00     0.074 A 
ATOM     62  C   UNL A   1      43.046  29.545  30.908  1.00  0.00     0.031 C 
ATOM     63  C   UNL A   1      43.196  32.102  30.713  1.00  0.00     0.037 A 
BRANCH  50  64
ATOM     64  C   UNL A   1      42.231  30.106  35.811  1.00  0.00     0.064 A 
ATOM     65  C   UNL A   1      43.188  30.235  36.831  1.00  0.00     0.173 A 
ATOM     66  C   UNL A   1      42.048  28.797  35.307  1.00  0.00     0.173 A 
ATOM     67  F   UNL A   1      43.459  31.437  37.363  1.00  0.00    -0.203 F 
ATOM     68  C   UNL A   1      43.950  29.146  37.262  1.00  0.00     0.198 A 
ATOM     69  C   UNL A   1      42.769  27.707  35.778  1.00  0.00     0.198 A 
ATOM     70  F   UNL A   1      41.262  28.524  34.260  1.00  0.00    -0.203 F 
ATOM     71  F   UNL A   1      44.935  29.336  38.149  1.00  0.00    -0.200 F 
ATOM     72  C   UNL A   1      43.743  27.885  36.732  1.00  0.00     0.200 A 
ATOM     73  F   UNL A   1      42.568  26.499  35.228  1.00  0.00    -0.200 F 
ATOM     74  F   UNL A   1      44.513  26.853  37.100  1.00  0.00    -0.200 F 
ENDBRANCH  50  64
BRANCH  51  75
ATOM     75  C   UNL A   1      40.256  27.893  27.774  1.00  0.00     0.064 A 
ATOM     76  C   UNL A   1      40.947  27.569  26.598  1.00  0.00     0.173 A 
ATOM     77  C   UNL A   1      39.524  26.854  28.383  1.00  0.00     0.173 A 
ATOM     78  F   UNL A   1      41.699  28.496  25.985  1.00  0.00    -0.203 F 
ATOM     79  C   UNL A   1      40.934  26.272  26.077  1.00  0.00     0.198 A 
ATOM     80  C   UNL A   1      39.509  25.561  27.861  1.00  0.00     0.198 A 
ATOM     81  F   UNL A   1      38.892  27.049  29.549  1.00  0.00    -0.203 F 
ATOM     82  F   UNL A   1      41.657  25.984  24.987  1.00  0.00    -0.200 F 
ATOM     83  C   UNL A   1      40.224  25.268  26.716  1.00  0.00     0.200 A 
ATOM     84  F   UNL A   1      38.851  24.591  28.510  1.00  0.00    -0.200 F 
ATOM     85  F   UNL A   1      40.266  24.010  26.254  1.00  0.00    -0.200 F 
ENDBRANCH  51  75
BRANCH  63  86
ATOM     86  C   UNL A   1      43.129  33.219  29.720  1.00  0.00     0.064 A 
ATOM     87  C   UNL A   1      44.157  33.533  28.816  1.00  0.00     0.173 A 
ATOM     88  C   UNL A   1      41.940  33.953  29.629  1.00  0.00     0.173 A 
ATOM     89  F   UNL A   1      45.293  32.824  28.798  1.00  0.00    -0.203 F 
ATOM     90  C   UNL A   1      44.010  34.562  27.887  1.00  0.00     0.198 A 
ATOM     91  C   UNL A   1      41.782  34.957  28.681  1.00  0.00     0.198 A 
ATOM     92  F   UNL A   1      40.913  33.664  30.443  1.00  0.00    -0.203 F 
ATOM     93  F   UNL A   1      45.010  34.855  27.042  1.00  0.00    -0.200 F 
ATOM     94  C   UNL A   1      42.819  35.267  27.816  1.00  0.00     0.200 A 
ATOM     95  F   UNL A   1      40.615  35.610  28.592  1.00  0.00    -0.200 F 
ATOM     96  F   UNL A   1      42.663  36.234  26.901  1.00  0.00    -0.200 F 
ENDBRANCH  63  86
ENDBRANCH  37  38
ENDBRANCH  30  32
ENDBRANCH  29  30
ENDBRANCH  28  29
ENDBRANCH  27  28
ENDBRANCH  26  27
ENDBRANCH   1  26
TORSDOF 18
ENDMDL
