MODEL 1
REMARK VINA RESULT:     -12.0      0.000      0.000
REMARK SMILES C[NH2+][C@@]1(C(=O)OCCOCCOC(=O)c2ccc(-c3c4nc(c(-c5c(F)c(F)c(F)c(F)c5F)c5ccc([nH]5)c(-c5c(F)c(F)c(F)c(F)c5F)c5nc(c(-c6c(F)c(F)c(F)c(F)c6F)c6ccc3[nH]6)C=C5)C=C4)cc2)CCC[C@H]1CCSc1nccc(=O)[nH]1
REMARK SMILES IDX 8 1 7 2 6 3 4 4 5 5 3 6 78 7 81 8 79 9 80 10 2 11 1 12 82 15
REMARK SMILES IDX 83 16 84 17 85 18 86 19 91 20 87 21 89 22 88 24 90 25 9 26
REMARK SMILES IDX 10 27 11 28 12 29 13 30 14 31 15 32 16 33 77 34 17 35 76 36
REMARK SMILES IDX 18 37 19 38 20 39 70 40 21 41 75 42 69 43 71 44 22 45 74 46
REMARK SMILES IDX 68 47 67 48 23 50 55 51 35 52 54 53 36 54 39 55 53 56 72 57
REMARK SMILES IDX 37 58 38 59 52 61 73 62 40 63 24 64 25 65 33 66 26 67 27 68
REMARK SMILES IDX 31 69 34 70 28 71 29 72 32 73 30 74 56 75 57 76 65 77 58 78
REMARK SMILES IDX 59 79 63 80 66 81 60 82 61 83 64 84 62 85 41 86 42 87 50 88
REMARK SMILES IDX 43 89 44 90 48 91 51 92 45 93 46 94 49 95 47 96
REMARK H PARENT 2 13 2 14 91 23 71 49 39 60
REMARK Flexibility Score: inf
ROOT
ATOM      1  C   UNL A   1      32.860  29.481  24.928  1.00  0.00     0.202 C 
ENDROOT
BRANCH   1   2
ATOM      2  C   UNL A   1      33.163  28.963  23.476  1.00  0.00     0.261 C 
BRANCH   2   3
ATOM      3  O   UNL A   1      32.388  27.786  23.122  1.00  0.00    -0.459 OA
BRANCH   3   4
ATOM      4  C   UNL A   1      33.090  26.787  22.541  1.00  0.00     0.368 C 
ATOM      5  O   UNL A   1      33.876  27.001  21.614  1.00  0.00    -0.245 OA
BRANCH   4   6
ATOM      6  C   UNL A   1      32.840  25.326  23.109  1.00  0.00     0.197 C 
ATOM      7  C   UNL A   1      32.631  25.529  24.629  1.00  0.00     0.081 C 
ATOM      8  C   UNL A   1      33.980  24.236  23.144  1.00  0.00     0.063 C 
ATOM      9  C   UNL A   1      34.028  25.516  25.223  1.00  0.00     0.008 C 
ATOM     10  C   UNL A   1      34.733  24.400  24.489  1.00  0.00     0.011 C 
BRANCH   6  11
ATOM     11  N   UNL A   1      31.555  24.792  22.555  1.00  0.00    -0.334 N 
ATOM     12  C   UNL A   1      30.398  24.802  23.453  1.00  0.00     0.331 C 
ATOM     13  H   UNL A   1      31.315  25.352  21.735  1.00  0.00     0.347 HD
ATOM     14  H   UNL A   1      31.735  23.808  22.359  1.00  0.00     0.347 HD
ENDBRANCH   6  11
BRANCH   8  15
ATOM     15  C   UNL A   1      33.567  22.738  22.958  1.00  0.00     0.022 C 
BRANCH  15  16
ATOM     16  C   UNL A   1      33.477  21.744  24.140  1.00  0.00     0.079 C 
BRANCH  16  17
ATOM     17  S   UNL A   1      34.839  20.651  24.642  1.00  0.00    -0.088 SA
BRANCH  17  18
ATOM     18  C   UNL A   1      34.103  19.130  25.007  1.00  0.00     0.168 A 
ATOM     19  N   UNL A   1      32.660  18.830  24.981  1.00  0.00    -0.233 NA
ATOM     20  N   UNL A   1      35.252  17.821  25.080  1.00  0.00    -0.301 N 
ATOM     21  C   UNL A   1      31.963  17.197  24.974  1.00  0.00     0.120 A 
ATOM     22  C   UNL A   1      34.829  16.108  25.123  1.00  0.00     0.251 A 
ATOM     23  H   UNL A   1      36.209  18.054  25.098  1.00  0.00     0.172 HD
ATOM     24  C   UNL A   1      32.894  15.884  25.108  1.00  0.00     0.091 A 
ATOM     25  O   UNL A   1      35.638  15.196  25.058  1.00  0.00    -0.269 OA
ENDBRANCH  17  18
ENDBRANCH  16  17
ENDBRANCH  15  16
ENDBRANCH   8  15
ENDBRANCH   4   6
ENDBRANCH   3   4
ENDBRANCH   2   3
ENDBRANCH   1   2
BRANCH   1  26
ATOM     26  O   UNL A   1      33.726  28.862  25.928  1.00  0.00    -0.374 OA
BRANCH  26  27
ATOM     27  C   UNL A   1      34.447  29.675  27.171  1.00  0.00     0.202 C 
BRANCH  27  28
ATOM     28  C   UNL A   1      34.506  31.829  27.640  1.00  0.00     0.261 C 
BRANCH  28  29
ATOM     29  O   UNL A   1      33.249  32.854  27.872  1.00  0.00    -0.460 OA
BRANCH  29  30
ATOM     30  C   UNL A   1      33.374  34.060  28.460  1.00  0.00     0.338 C 
ATOM     31  O   UNL A   1      32.615  35.009  28.382  1.00  0.00    -0.246 OA
BRANCH  30  32
ATOM     32  C   UNL A   1      34.422  33.962  29.489  1.00  0.00     0.060 A 
ATOM     33  C   UNL A   1      35.742  34.357  29.195  1.00  0.00     0.016 A 
ATOM     34  C   UNL A   1      34.114  33.259  30.644  1.00  0.00     0.016 A 
ATOM     35  C   UNL A   1      36.785  33.855  29.961  1.00  0.00     0.010 A 
ATOM     36  C   UNL A   1      35.155  32.760  31.405  1.00  0.00     0.010 A 
ATOM     37  C   UNL A   1      36.483  32.977  31.005  1.00  0.00    -0.014 A 
BRANCH  37  38
ATOM     38  C   UNL A   1      37.526  32.139  31.614  1.00  0.00     0.031 A 
ATOM     39  C   UNL A   1      38.058  32.520  32.966  1.00  0.00     0.074 A 
ATOM     40  C   UNL A   1      38.030  31.121  30.906  1.00  0.00     0.049 A 
ATOM     41  N   UNL A   1      39.101  32.063  33.604  1.00  0.00    -0.248 NA
ATOM     42  C   UNL A   1      37.331  33.583  33.685  1.00  0.00     0.031 C 
ATOM     43  C   UNL A   1      37.543  30.694  29.596  1.00  0.00     0.029 A 
ATOM     44  N   UNL A   1      39.084  30.294  31.169  1.00  0.00    -0.354 N 
ATOM     45  C   UNL A   1      39.171  32.794  34.784  1.00  0.00     0.074 A 
ATOM     46  C   UNL A   1      38.086  33.748  34.761  1.00  0.00     0.031 C 
ATOM     47  C   UNL A   1      38.315  29.690  29.154  1.00  0.00     0.029 A 
ATOM     48  C   UNL A   1      39.376  29.453  30.127  1.00  0.00     0.049 A 
ATOM     49  H   UNL A   1      39.583  30.302  32.018  1.00  0.00     0.167 HD
ATOM     50  C   UNL A   1      40.070  32.665  35.789  1.00  0.00     0.037 A 
ATOM     51  C   UNL A   1      40.417  28.620  29.969  1.00  0.00     0.037 A 
ATOM     52  C   UNL A   1      41.146  31.707  35.760  1.00  0.00     0.049 A 
ATOM     53  C   UNL A   1      41.434  28.538  31.073  1.00  0.00     0.074 A 
ATOM     54  C   UNL A   1      42.106  31.454  36.721  1.00  0.00     0.029 A 
ATOM     55  N   UNL A   1      41.409  30.854  34.694  1.00  0.00    -0.354 N 
ATOM     56  N   UNL A   1      41.482  29.199  32.206  1.00  0.00    -0.248 NA
ATOM     57  C   UNL A   1      42.535  27.590  30.881  1.00  0.00     0.031 C 
ATOM     58  C   UNL A   1      42.992  30.503  36.206  1.00  0.00     0.029 A 
ATOM     59  C   UNL A   1      42.536  30.096  34.960  1.00  0.00     0.049 A 
ATOM     60  H   UNL A   1      40.871  30.795  33.871  1.00  0.00     0.167 HD
ATOM     61  C   UNL A   1      42.596  28.724  32.880  1.00  0.00     0.074 A 
ATOM     62  C   UNL A   1      43.184  27.704  32.031  1.00  0.00     0.031 C 
ATOM     63  C   UNL A   1      43.092  29.088  34.089  1.00  0.00     0.037 A 
BRANCH  50  64
ATOM     64  C   UNL A   1      39.952  33.591  36.969  1.00  0.00     0.064 A 
ATOM     65  C   UNL A   1      40.649  34.807  37.034  1.00  0.00     0.173 A 
ATOM     66  C   UNL A   1      39.101  33.273  38.039  1.00  0.00     0.173 A 
ATOM     67  F   UNL A   1      41.482  35.162  36.044  1.00  0.00    -0.203 F 
ATOM     68  C   UNL A   1      40.525  35.651  38.136  1.00  0.00     0.198 A 
ATOM     69  C   UNL A   1      38.949  34.136  39.122  1.00  0.00     0.198 A 
ATOM     70  F   UNL A   1      38.404  32.126  38.034  1.00  0.00    -0.203 F 
ATOM     71  F   UNL A   1      41.244  36.780  38.198  1.00  0.00    -0.200 F 
ATOM     72  C   UNL A   1      39.669  35.319  39.175  1.00  0.00     0.200 A 
ATOM     73  F   UNL A   1      38.107  33.821  40.116  1.00  0.00    -0.200 F 
ATOM     74  F   UNL A   1      39.543  36.137  40.230  1.00  0.00    -0.200 F 
ENDBRANCH  50  64
BRANCH  51  75
ATOM     75  C   UNL A   1      40.533  27.812  28.729  1.00  0.00     0.064 A 
ATOM     76  C   UNL A   1      39.872  26.583  28.613  1.00  0.00     0.173 A 
ATOM     77  C   UNL A   1      41.282  28.258  27.630  1.00  0.00     0.173 A 
ATOM     78  F   UNL A   1      39.145  26.115  29.638  1.00  0.00    -0.203 F 
ATOM     79  C   UNL A   1      39.981  25.815  27.456  1.00  0.00     0.198 A 
ATOM     80  C   UNL A   1      41.358  27.508  26.459  1.00  0.00     0.198 A 
ATOM     81  F   UNL A   1      41.918  29.438  27.681  1.00  0.00    -0.203 F 
ATOM     82  F   UNL A   1      39.381  24.619  27.393  1.00  0.00    -0.200 F 
ATOM     83  C   UNL A   1      40.719  26.281  26.379  1.00  0.00     0.200 A 
ATOM     84  F   UNL A   1      42.049  27.975  25.410  1.00  0.00    -0.200 F 
ATOM     85  F   UNL A   1      40.818  25.544  25.264  1.00  0.00    -0.200 F 
ENDBRANCH  51  75
BRANCH  63  86
ATOM     86  C   UNL A   1      44.299  28.342  34.581  1.00  0.00     0.064 A 
ATOM     87  C   UNL A   1      44.187  27.144  35.302  1.00  0.00     0.173 A 
ATOM     88  C   UNL A   1      45.587  28.822  34.298  1.00  0.00     0.173 A 
ATOM     89  F   UNL A   1      42.979  26.650  35.611  1.00  0.00    -0.203 F 
ATOM     90  C   UNL A   1      45.320  26.476  35.757  1.00  0.00     0.198 A 
ATOM     91  C   UNL A   1      46.718  28.127  34.715  1.00  0.00     0.198 A 
ATOM     92  F   UNL A   1      45.750  29.958  33.605  1.00  0.00    -0.203 F 
ATOM     93  F   UNL A   1      45.190  25.373  36.506  1.00  0.00    -0.200 F 
ATOM     94  C   UNL A   1      46.584  26.963  35.454  1.00  0.00     0.200 A 
ATOM     95  F   UNL A   1      47.937  28.587  34.400  1.00  0.00    -0.200 F 
ATOM     96  F   UNL A   1      47.674  26.314  35.885  1.00  0.00    -0.200 F 
ENDBRANCH  63  86
ENDBRANCH  37  38
ENDBRANCH  30  32
ENDBRANCH  29  30
ENDBRANCH  28  29
ENDBRANCH  27  28
ENDBRANCH  26  27
ENDBRANCH   1  26
TORSDOF 19
ENDMDL
MODEL 2
REMARK VINA RESULT:     -11.9      1.095      7.570
REMARK SMILES C[NH2+][C@@]1(C(=O)OCCOCCOC(=O)c2ccc(-c3c4nc(c(-c5c(F)c(F)c(F)c(F)c5F)c5ccc([nH]5)c(-c5c(F)c(F)c(F)c(F)c5F)c5nc(c(-c6c(F)c(F)c(F)c(F)c6F)c6ccc3[nH]6)C=C5)C=C4)cc2)CCC[C@H]1CCSc1nccc(=O)[nH]1
REMARK SMILES IDX 8 1 7 2 6 3 4 4 5 5 3 6 78 7 81 8 79 9 80 10 2 11 1 12 82 15
REMARK SMILES IDX 83 16 84 17 85 18 86 19 91 20 87 21 89 22 88 24 90 25 9 26
REMARK SMILES IDX 10 27 11 28 12 29 13 30 14 31 15 32 16 33 77 34 17 35 76 36
REMARK SMILES IDX 18 37 19 38 20 39 70 40 21 41 75 42 69 43 71 44 22 45 74 46
REMARK SMILES IDX 68 47 67 48 23 50 55 51 35 52 54 53 36 54 39 55 53 56 72 57
REMARK SMILES IDX 37 58 38 59 52 61 73 62 40 63 24 64 25 65 33 66 26 67 27 68
REMARK SMILES IDX 31 69 34 70 28 71 29 72 32 73 30 74 56 75 57 76 65 77 58 78
REMARK SMILES IDX 59 79 63 80 66 81 60 82 61 83 64 84 62 85 41 86 42 87 50 88
REMARK SMILES IDX 43 89 44 90 48 91 51 92 45 93 46 94 49 95 47 96
REMARK H PARENT 2 13 2 14 91 23 71 49 39 60
REMARK Flexibility Score: inf
ROOT
ATOM      1  C   UNL A   1      31.919  28.986  23.651  1.00  0.00     0.202 C 
ENDROOT
BRANCH   1   2
ATOM      2  C   UNL A   1      32.063  28.181  22.310  1.00  0.00     0.261 C 
BRANCH   2   3
ATOM      3  O   UNL A   1      31.854  26.753  22.482  1.00  0.00    -0.459 OA
BRANCH   3   4
ATOM      4  C   UNL A   1      32.981  26.020  22.631  1.00  0.00     0.368 C 
ATOM      5  O   UNL A   1      33.952  26.165  21.886  1.00  0.00    -0.245 OA
BRANCH   4   6
ATOM      6  C   UNL A   1      32.979  24.958  23.812  1.00  0.00     0.197 C 
ATOM      7  C   UNL A   1      31.487  24.800  24.193  1.00  0.00     0.081 C 
ATOM      8  C   UNL A   1      33.579  25.287  25.233  1.00  0.00     0.063 C 
ATOM      9  C   UNL A   1      31.218  25.908  25.196  1.00  0.00     0.008 C 
ATOM     10  C   UNL A   1      32.442  25.913  26.080  1.00  0.00     0.011 C 
BRANCH   6  11
ATOM     11  N   UNL A   1      33.442  23.634  23.287  1.00  0.00    -0.334 N 
ATOM     12  C   UNL A   1      33.089  23.315  21.902  1.00  0.00     0.331 C 
ATOM     13  H   UNL A   1      34.461  23.611  23.360  1.00  0.00     0.347 HD
ATOM     14  H   UNL A   1      32.960  22.936  23.855  1.00  0.00     0.347 HD
ENDBRANCH   6  11
BRANCH   8  15
ATOM     15  C   UNL A   1      34.244  24.119  26.036  1.00  0.00     0.022 C 
BRANCH  15  16
ATOM     16  C   UNL A   1      33.439  23.186  26.972  1.00  0.00     0.079 C 
BRANCH  16  17
ATOM     17  S   UNL A   1      33.903  21.463  27.317  1.00  0.00    -0.088 SA
BRANCH  17  18
ATOM     18  C   UNL A   1      33.148  20.522  26.080  1.00  0.00     0.168 A 
ATOM     19  N   UNL A   1      32.898  20.946  24.691  1.00  0.00    -0.233 NA
ATOM     20  N   UNL A   1      33.002  18.837  26.504  1.00  0.00    -0.301 N 
ATOM     21  C   UNL A   1      32.487  19.853  23.354  1.00  0.00     0.120 A 
ATOM     22  C   UNL A   1      32.570  17.547  25.378  1.00  0.00     0.251 A 
ATOM     23  H   UNL A   1      33.174  18.586  27.440  1.00  0.00     0.172 HD
ATOM     24  C   UNL A   1      32.249  18.274  23.600  1.00  0.00     0.091 A 
ATOM     25  O   UNL A   1      32.582  16.358  25.655  1.00  0.00    -0.269 OA
ENDBRANCH  17  18
ENDBRANCH  16  17
ENDBRANCH  15  16
ENDBRANCH   8  15
ENDBRANCH   4   6
ENDBRANCH   3   4
ENDBRANCH   2   3
ENDBRANCH   1   2
BRANCH   1  26
ATOM     26  O   UNL A   1      33.214  29.354  24.216  1.00  0.00    -0.374 OA
BRANCH  26  27
ATOM     27  C   UNL A   1      33.587  29.281  25.823  1.00  0.00     0.202 C 
BRANCH  27  28
ATOM     28  C   UNL A   1      34.049  30.881  27.268  1.00  0.00     0.261 C 
BRANCH  28  29
ATOM     29  O   UNL A   1      33.017  31.934  27.984  1.00  0.00    -0.460 OA
BRANCH  29  30
ATOM     30  C   UNL A   1      33.240  33.260  28.052  1.00  0.00     0.338 C 
ATOM     31  O   UNL A   1      32.533  34.158  27.633  1.00  0.00    -0.246 OA
BRANCH  30  32
ATOM     32  C   UNL A   1      34.335  33.492  29.010  1.00  0.00     0.060 A 
ATOM     33  C   UNL A   1      35.525  34.117  28.587  1.00  0.00     0.016 A 
ATOM     34  C   UNL A   1      34.240  32.869  30.245  1.00  0.00     0.016 A 
ATOM     35  C   UNL A   1      36.687  33.926  29.321  1.00  0.00     0.010 A 
ATOM     36  C   UNL A   1      35.400  32.680  30.975  1.00  0.00     0.010 A 
ATOM     37  C   UNL A   1      36.630  33.123  30.463  1.00  0.00    -0.014 A 
BRANCH  37  38
ATOM     38  C   UNL A   1      37.856  32.588  31.074  1.00  0.00     0.031 A 
ATOM     39  C   UNL A   1      38.574  31.464  30.382  1.00  0.00     0.074 A 
ATOM     40  C   UNL A   1      38.239  33.056  32.268  1.00  0.00     0.049 A 
ATOM     41  N   UNL A   1      39.542  30.706  30.822  1.00  0.00    -0.248 NA
ATOM     42  C   UNL A   1      38.120  31.132  29.020  1.00  0.00     0.031 C 
ATOM     43  C   UNL A   1      37.591  34.156  32.980  1.00  0.00     0.029 A 
ATOM     44  N   UNL A   1      39.232  32.640  33.107  1.00  0.00    -0.354 N 
ATOM     45  C   UNL A   1      39.797  29.794  29.805  1.00  0.00     0.074 A 
ATOM     46  C   UNL A   1      38.861  30.070  28.738  1.00  0.00     0.031 C 
ATOM     47  C   UNL A   1      38.192  34.317  34.167  1.00  0.00     0.029 A 
ATOM     48  C   UNL A   1      39.223  33.294  34.311  1.00  0.00     0.049 A 
ATOM     49  H   UNL A   1      39.886  31.943  32.872  1.00  0.00     0.167 HD
ATOM     50  C   UNL A   1      40.736  28.818  29.780  1.00  0.00     0.037 A 
ATOM     51  C   UNL A   1      39.943  33.053  35.419  1.00  0.00     0.037 A 
ATOM     52  C   UNL A   1      41.638  28.572  30.876  1.00  0.00     0.049 A 
ATOM     53  C   UNL A   1      40.937  31.926  35.387  1.00  0.00     0.074 A 
ATOM     54  C   UNL A   1      42.651  27.636  30.969  1.00  0.00     0.029 A 
ATOM     55  N   UNL A   1      41.617  29.263  32.082  1.00  0.00    -0.354 N 
ATOM     56  N   UNL A   1      41.207  31.087  34.414  1.00  0.00    -0.248 NA
ATOM     57  C   UNL A   1      41.731  31.717  36.601  1.00  0.00     0.031 C 
ATOM     58  C   UNL A   1      43.191  27.712  32.257  1.00  0.00     0.029 A 
ATOM     59  C   UNL A   1      42.577  28.753  32.938  1.00  0.00     0.049 A 
ATOM     60  H   UNL A   1      41.008  30.007  32.295  1.00  0.00     0.167 HD
ATOM     61  C   UNL A   1      42.226  30.273  34.883  1.00  0.00     0.074 A 
ATOM     62  C   UNL A   1      42.535  30.734  36.224  1.00  0.00     0.031 C 
ATOM     63  C   UNL A   1      42.856  29.240  34.268  1.00  0.00     0.037 A 
BRANCH  50  64
ATOM     64  C   UNL A   1      40.809  27.936  28.563  1.00  0.00     0.064 A 
ATOM     65  C   UNL A   1      40.097  26.731  28.473  1.00  0.00     0.173 A 
ATOM     66  C   UNL A   1      41.580  28.318  27.454  1.00  0.00     0.173 A 
ATOM     67  F   UNL A   1      39.348  26.310  29.505  1.00  0.00    -0.203 F 
ATOM     68  C   UNL A   1      40.178  25.928  27.337  1.00  0.00     0.198 A 
ATOM     69  C   UNL A   1      41.630  27.533  26.304  1.00  0.00     0.198 A 
ATOM     70  F   UNL A   1      42.282  29.462  27.477  1.00  0.00    -0.203 F 
ATOM     71  F   UNL A   1      39.531  24.755  27.299  1.00  0.00    -0.200 F 
ATOM     72  C   UNL A   1      40.938  26.333  26.251  1.00  0.00     0.200 A 
ATOM     73  F   UNL A   1      42.351  27.937  25.249  1.00  0.00    -0.200 F 
ATOM     74  F   UNL A   1      41.007  25.565  25.154  1.00  0.00    -0.200 F 
ENDBRANCH  50  64
BRANCH  51  75
ATOM     75  C   UNL A   1      39.744  33.894  36.625  1.00  0.00     0.064 A 
ATOM     76  C   UNL A   1      40.380  35.136  36.743  1.00  0.00     0.173 A 
ATOM     77  C   UNL A   1      38.899  33.491  37.670  1.00  0.00     0.173 A 
ATOM     78  F   UNL A   1      41.198  35.564  35.770  1.00  0.00    -0.203 F 
ATOM     79  C   UNL A   1      40.205  35.929  37.875  1.00  0.00     0.198 A 
ATOM     80  C   UNL A   1      38.694  34.301  38.783  1.00  0.00     0.198 A 
ATOM     81  F   UNL A   1      38.249  32.319  37.597  1.00  0.00    -0.203 F 
ATOM     82  F   UNL A   1      40.867  37.088  37.984  1.00  0.00    -0.200 F 
ATOM     83  C   UNL A   1      39.357  35.513  38.891  1.00  0.00     0.200 A 
ATOM     84  F   UNL A   1      37.852  33.909  39.749  1.00  0.00    -0.200 F 
ATOM     85  F   UNL A   1      39.184  36.280  39.976  1.00  0.00    -0.200 F 
ENDBRANCH  51  75
BRANCH  63  86
ATOM     86  C   UNL A   1      43.973  28.579  35.024  1.00  0.00     0.064 A 
ATOM     87  C   UNL A   1      45.296  29.035  34.942  1.00  0.00     0.173 A 
ATOM     88  C   UNL A   1      43.704  27.488  35.865  1.00  0.00     0.173 A 
ATOM     89  F   UNL A   1      45.609  30.065  34.141  1.00  0.00    -0.203 F 
ATOM     90  C   UNL A   1      46.316  28.399  35.643  1.00  0.00     0.198 A 
ATOM     91  C   UNL A   1      44.718  26.883  36.600  1.00  0.00     0.198 A 
ATOM     92  F   UNL A   1      42.454  27.017  35.986  1.00  0.00    -0.203 F 
ATOM     93  F   UNL A   1      47.584  28.806  35.494  1.00  0.00    -0.200 F 
ATOM     94  C   UNL A   1      46.024  27.330  36.479  1.00  0.00     0.200 A 
ATOM     95  F   UNL A   1      44.430  25.867  37.425  1.00  0.00    -0.200 F 
ATOM     96  F   UNL A   1      47.006  26.725  37.161  1.00  0.00    -0.200 F 
ENDBRANCH  63  86
ENDBRANCH  37  38
ENDBRANCH  30  32
ENDBRANCH  29  30
ENDBRANCH  28  29
ENDBRANCH  27  28
ENDBRANCH  26  27
ENDBRANCH   1  26
TORSDOF 19
ENDMDL
MODEL 3
REMARK VINA RESULT:     -11.9      0.711      2.087
REMARK SMILES C[NH2+][C@@]1(C(=O)OCCOCCOC(=O)c2ccc(-c3c4nc(c(-c5c(F)c(F)c(F)c(F)c5F)c5ccc([nH]5)c(-c5c(F)c(F)c(F)c(F)c5F)c5nc(c(-c6c(F)c(F)c(F)c(F)c6F)c6ccc3[nH]6)C=C5)C=C4)cc2)CCC[C@H]1CCSc1nccc(=O)[nH]1
REMARK SMILES IDX 8 1 7 2 6 3 4 4 5 5 3 6 78 7 81 8 79 9 80 10 2 11 1 12 82 15
REMARK SMILES IDX 83 16 84 17 85 18 86 19 91 20 87 21 89 22 88 24 90 25 9 26
REMARK SMILES IDX 10 27 11 28 12 29 13 30 14 31 15 32 16 33 77 34 17 35 76 36
REMARK SMILES IDX 18 37 19 38 20 39 70 40 21 41 75 42 69 43 71 44 22 45 74 46
REMARK SMILES IDX 68 47 67 48 23 50 55 51 35 52 54 53 36 54 39 55 53 56 72 57
REMARK SMILES IDX 37 58 38 59 52 61 73 62 40 63 24 64 25 65 33 66 26 67 27 68
REMARK SMILES IDX 31 69 34 70 28 71 29 72 32 73 30 74 56 75 57 76 65 77 58 78
REMARK SMILES IDX 59 79 63 80 66 81 60 82 61 83 64 84 62 85 41 86 42 87 50 88
REMARK SMILES IDX 43 89 44 90 48 91 51 92 45 93 46 94 49 95 47 96
REMARK H PARENT 2 13 2 14 91 23 71 49 39 60
REMARK Flexibility Score: inf
ROOT
ATOM      1  C   UNL A   1      32.894  29.506  24.923  1.00  0.00     0.202 C 
ENDROOT
BRANCH   1   2
ATOM      2  C   UNL A   1      33.154  28.965  23.471  1.00  0.00     0.261 C 
BRANCH   2   3
ATOM      3  O   UNL A   1      32.341  27.805  23.145  1.00  0.00    -0.459 OA
BRANCH   3   4
ATOM      4  C   UNL A   1      33.032  26.676  22.869  1.00  0.00     0.368 C 
ATOM      5  O   UNL A   1      33.925  26.653  22.019  1.00  0.00    -0.245 OA
BRANCH   4   6
ATOM      6  C   UNL A   1      32.624  25.381  23.693  1.00  0.00     0.197 C 
ATOM      7  C   UNL A   1      32.727  25.813  25.176  1.00  0.00     0.081 C 
ATOM      8  C   UNL A   1      33.535  24.094  23.732  1.00  0.00     0.063 C 
ATOM      9  C   UNL A   1      34.181  25.588  25.551  1.00  0.00     0.008 C 
ATOM     10  C   UNL A   1      34.530  24.268  24.907  1.00  0.00     0.011 C 
BRANCH   6  11
ATOM     11  N   UNL A   1      31.186  25.058  23.428  1.00  0.00    -0.334 N 
ATOM     12  C   UNL A   1      30.227  25.422  24.473  1.00  0.00     0.331 C 
ATOM     13  H   UNL A   1      30.912  25.545  22.573  1.00  0.00     0.347 HD
ATOM     14  H   UNL A   1      31.145  24.041  23.369  1.00  0.00     0.347 HD
ENDBRANCH   6  11
BRANCH   8  15
ATOM     15  C   UNL A   1      32.829  22.701  23.849  1.00  0.00     0.022 C 
BRANCH  15  16
ATOM     16  C   UNL A   1      32.358  22.116  25.201  1.00  0.00     0.079 C 
BRANCH  16  17
ATOM     17  S   UNL A   1      33.289  20.867  26.137  1.00  0.00    -0.088 SA
BRANCH  17  18
ATOM     18  C   UNL A   1      33.129  19.399  25.239  1.00  0.00     0.168 A 
ATOM     19  N   UNL A   1      33.655  19.141  23.887  1.00  0.00    -0.233 NA
ATOM     20  N   UNL A   1      32.575  18.064  26.215  1.00  0.00    -0.301 N 
ATOM     21  C   UNL A   1      33.821  17.534  23.152  1.00  0.00     0.120 A 
ATOM     22  C   UNL A   1      32.591  16.372  25.713  1.00  0.00     0.251 A 
ATOM     23  H   UNL A   1      32.227  18.270  27.113  1.00  0.00     0.172 HD
ATOM     24  C   UNL A   1      33.288  16.206  23.902  1.00  0.00     0.091 A 
ATOM     25  O   UNL A   1      32.309  15.434  26.442  1.00  0.00    -0.269 OA
ENDBRANCH  17  18
ENDBRANCH  16  17
ENDBRANCH  15  16
ENDBRANCH   8  15
ENDBRANCH   4   6
ENDBRANCH   3   4
ENDBRANCH   2   3
ENDBRANCH   1   2
BRANCH   1  26
ATOM     26  O   UNL A   1      33.854  28.979  25.889  1.00  0.00    -0.374 OA
BRANCH  26  27
ATOM     27  C   UNL A   1      34.339  29.775  27.252  1.00  0.00     0.202 C 
BRANCH  27  28
ATOM     28  C   UNL A   1      34.438  31.932  27.701  1.00  0.00     0.261 C 
BRANCH  28  29
ATOM     29  O   UNL A   1      33.209  33.013  27.774  1.00  0.00    -0.460 OA
BRANCH  29  30
ATOM     30  C   UNL A   1      33.309  34.210  28.384  1.00  0.00     0.338 C 
ATOM     31  O   UNL A   1      32.528  35.142  28.331  1.00  0.00    -0.246 OA
BRANCH  30  32
ATOM     32  C   UNL A   1      34.367  34.117  29.405  1.00  0.00     0.060 A 
ATOM     33  C   UNL A   1      35.701  34.421  29.071  1.00  0.00     0.016 A 
ATOM     34  C   UNL A   1      34.039  33.504  30.604  1.00  0.00     0.016 A 
ATOM     35  C   UNL A   1      36.728  33.910  29.853  1.00  0.00     0.010 A 
ATOM     36  C   UNL A   1      35.064  32.995  31.382  1.00  0.00     0.010 A 
ATOM     37  C   UNL A   1      36.395  33.114  30.953  1.00  0.00    -0.014 A 
BRANCH  37  38
ATOM     38  C   UNL A   1      37.401  32.258  31.600  1.00  0.00     0.031 A 
ATOM     39  C   UNL A   1      37.897  32.636  32.966  1.00  0.00     0.074 A 
ATOM     40  C   UNL A   1      37.907  31.227  30.913  1.00  0.00     0.049 A 
ATOM     41  N   UNL A   1      38.909  32.161  33.639  1.00  0.00    -0.248 NA
ATOM     42  C   UNL A   1      37.168  33.717  33.656  1.00  0.00     0.031 C 
ATOM     43  C   UNL A   1      37.455  30.803  29.590  1.00  0.00     0.029 A 
ATOM     44  N   UNL A   1      38.935  30.381  31.213  1.00  0.00    -0.354 N 
ATOM     45  C   UNL A   1      38.956  32.897  34.817  1.00  0.00     0.074 A 
ATOM     46  C   UNL A   1      37.891  33.873  34.755  1.00  0.00     0.031 C 
ATOM     47  C   UNL A   1      38.220  29.782  29.177  1.00  0.00     0.029 A 
ATOM     48  C   UNL A   1      39.244  29.529  30.185  1.00  0.00     0.049 A 
ATOM     49  H   UNL A   1      39.406  30.383  32.078  1.00  0.00     0.167 HD
ATOM     50  C   UNL A   1      39.819  32.756  35.852  1.00  0.00     0.037 A 
ATOM     51  C   UNL A   1      40.272  28.674  30.064  1.00  0.00     0.037 A 
ATOM     52  C   UNL A   1      40.875  31.776  35.862  1.00  0.00     0.049 A 
ATOM     53  C   UNL A   1      41.251  28.578  31.201  1.00  0.00     0.074 A 
ATOM     54  C   UNL A   1      41.799  31.509  36.855  1.00  0.00     0.029 A 
ATOM     55  N   UNL A   1      41.156  30.912  34.810  1.00  0.00    -0.354 N 
ATOM     56  N   UNL A   1      41.276  29.244  32.332  1.00  0.00    -0.248 NA
ATOM     57  C   UNL A   1      42.339  27.608  31.050  1.00  0.00     0.031 C 
ATOM     58  C   UNL A   1      42.682  30.538  36.374  1.00  0.00     0.029 A 
ATOM     59  C   UNL A   1      42.258  30.134  35.115  1.00  0.00     0.049 A 
ATOM     60  H   UNL A   1      40.643  30.861  33.970  1.00  0.00     0.167 HD
ATOM     61  C   UNL A   1      42.358  28.750  33.044  1.00  0.00     0.074 A 
ATOM     62  C   UNL A   1      42.952  27.715  32.219  1.00  0.00     0.031 C 
ATOM     63  C   UNL A   1      42.822  29.111  34.267  1.00  0.00     0.037 A 
BRANCH  50  64
ATOM     64  C   UNL A   1      39.681  33.690  37.023  1.00  0.00     0.064 A 
ATOM     65  C   UNL A   1      38.891  33.374  38.139  1.00  0.00     0.173 A 
ATOM     66  C   UNL A   1      40.376  34.909  37.046  1.00  0.00     0.173 A 
ATOM     67  F   UNL A   1      38.197  32.225  38.172  1.00  0.00    -0.203 F 
ATOM     68  C   UNL A   1      38.776  34.253  39.214  1.00  0.00     0.198 A 
ATOM     69  C   UNL A   1      40.291  35.769  38.138  1.00  0.00     0.198 A 
ATOM     70  F   UNL A   1      41.151  35.267  36.010  1.00  0.00    -0.203 F 
ATOM     71  F   UNL A   1      37.972  33.951  40.243  1.00  0.00    -0.200 F 
ATOM     72  C   UNL A   1      39.483  35.446  39.216  1.00  0.00     0.200 A 
ATOM     73  F   UNL A   1      40.990  36.913  38.145  1.00  0.00    -0.200 F 
ATOM     74  F   UNL A   1      39.381  36.286  40.256  1.00  0.00    -0.200 F 
ENDBRANCH  50  64
BRANCH  51  75
ATOM     75  C   UNL A   1      40.412  27.858  28.833  1.00  0.00     0.064 A 
ATOM     76  C   UNL A   1      41.199  28.305  27.765  1.00  0.00     0.173 A 
ATOM     77  C   UNL A   1      39.788  26.607  28.706  1.00  0.00     0.173 A 
ATOM     78  F   UNL A   1      41.814  29.494  27.839  1.00  0.00    -0.203 F 
ATOM     79  C   UNL A   1      41.330  27.549  26.603  1.00  0.00     0.198 A 
ATOM     80  C   UNL A   1      39.952  25.834  27.560  1.00  0.00     0.198 A 
ATOM     81  F   UNL A   1      39.041  26.122  29.710  1.00  0.00    -0.203 F 
ATOM     82  F   UNL A   1      42.046  28.026  25.576  1.00  0.00    -0.200 F 
ATOM     83  C   UNL A   1      40.711  26.312  26.504  1.00  0.00     0.200 A 
ATOM     84  F   UNL A   1      39.376  24.627  27.481  1.00  0.00    -0.200 F 
ATOM     85  F   UNL A   1      40.844  25.582  25.388  1.00  0.00    -0.200 F 
ENDBRANCH  51  75
BRANCH  63  86
ATOM     86  C   UNL A   1      43.997  28.343  34.801  1.00  0.00     0.064 A 
ATOM     87  C   UNL A   1      45.316  28.778  34.611  1.00  0.00     0.173 A 
ATOM     88  C   UNL A   1      43.792  27.167  35.540  1.00  0.00     0.173 A 
ATOM     89  F   UNL A   1      45.567  29.888  33.900  1.00  0.00    -0.203 F 
ATOM     90  C   UNL A   1      46.389  28.043  35.107  1.00  0.00     0.198 A 
ATOM     91  C   UNL A   1      44.864  26.460  36.072  1.00  0.00     0.198 A 
ATOM     92  F   UNL A   1      42.549  26.711  35.758  1.00  0.00    -0.203 F 
ATOM     93  F   UNL A   1      47.644  28.438  34.852  1.00  0.00    -0.200 F 
ATOM     94  C   UNL A   1      46.161  26.890  35.845  1.00  0.00     0.200 A 
ATOM     95  F   UNL A   1      44.641  25.360  36.806  1.00  0.00    -0.200 F 
ATOM     96  F   UNL A   1      47.195  26.188  36.329  1.00  0.00    -0.200 F 
ENDBRANCH  63  86
ENDBRANCH  37  38
ENDBRANCH  30  32
ENDBRANCH  29  30
ENDBRANCH  28  29
ENDBRANCH  27  28
ENDBRANCH  26  27
ENDBRANCH   1  26
TORSDOF 19
ENDMDL
