MODEL 1
REMARK VINA RESULT:     -11.6      0.000      0.000
REMARK SMILES CC(C)[C@H](C)n1c(SCC(=O)OCCOCCOC(=O)c2ccc(-c3c4nc(c(-c5c(F)c(F)c(F)c(F)c5F)c5ccc([nH]5)c(-c5c(F)c(F)c(F)c(F)c5F)c5nc(c(-c6c(F)c(F)c(F)c(F)c6F)c6ccc3[nH]6)C=C5)C=C4)cc2)nc2cc(Br)cnc21
REMARK SMILES IDX 14 1 13 2 12 3 10 4 11 5 9 6 8 7 7 8 6 9 91 10 84 11 85 12
REMARK SMILES IDX 90 13 86 14 89 15 87 16 88 17 4 18 5 19 2 20 1 21 3 22 15 23
REMARK SMILES IDX 16 24 17 25 18 26 19 27 20 28 21 29 22 30 83 31 23 32 82 33
REMARK SMILES IDX 24 34 25 35 26 36 76 37 27 38 81 39 75 40 77 41 28 42 80 43
REMARK SMILES IDX 74 44 73 45 29 47 61 48 41 49 60 50 42 51 45 52 59 53 78 54
REMARK SMILES IDX 43 55 44 56 58 58 79 59 46 60 30 61 31 62 39 63 32 64 33 65
REMARK SMILES IDX 37 66 40 67 34 68 35 69 38 70 36 71 62 72 63 73 71 74 64 75
REMARK SMILES IDX 65 76 69 77 72 78 66 79 67 80 70 81 68 82 47 83 48 84 56 85
REMARK SMILES IDX 49 86 50 87 54 88 57 89 51 90 52 91 55 92 53 93
REMARK H PARENT 77 46 45 57
REMARK Flexibility Score: inf
ROOT
ATOM      1  C   UNL A   1      40.659  20.259  26.532  1.00  0.00     0.202 C 
ENDROOT
BRANCH   1   2
ATOM      2  C   UNL A   1      40.005  21.460  25.774  1.00  0.00     0.261 C 
BRANCH   2   3
ATOM      3  O   UNL A   1      39.120  22.263  26.666  1.00  0.00    -0.463 OA
BRANCH   3   4
ATOM      4  C   UNL A   1      38.097  22.910  26.036  1.00  0.00     0.316 C 
ATOM      5  O   UNL A   1      37.877  24.102  26.274  1.00  0.00    -0.251 OA
BRANCH   4   6
ATOM      6  C   UNL A   1      37.198  22.197  25.005  1.00  0.00     0.200 C 
BRANCH   6   7
ATOM      7  S   UNL A   1      36.400  22.725  23.491  1.00  0.00    -0.076 SA
BRANCH   7   8
ATOM      8  C   UNL A   1      34.720  23.175  23.237  1.00  0.00     0.171 A 
ATOM      9  N   UNL A   1      33.468  22.549  23.342  1.00  0.00    -0.301 N 
ATOM     10  C   UNL A   1      32.517  23.572  23.238  1.00  0.00     0.161 A 
ATOM     11  N   UNL A   1      34.551  24.444  22.869  1.00  0.00    -0.221 NA
ATOM     12  C   UNL A   1      33.217  24.721  22.945  1.00  0.00     0.110 A 
ATOM     13  N   UNL A   1      31.191  23.470  23.499  1.00  0.00    -0.235 NA
ATOM     14  C   UNL A   1      32.503  25.925  22.858  1.00  0.00     0.049 A 
ATOM     15  C   UNL A   1      30.550  24.661  23.480  1.00  0.00     0.129 A 
ATOM     16  C   UNL A   1      31.140  25.878  23.166  1.00  0.00     0.038 A 
ATOM     17  Br  UNL A   1      30.113  27.461  23.207  1.00  0.00    -0.049 Br
BRANCH   9  18
ATOM     18  C   UNL A   1      32.979  21.271  23.868  1.00  0.00     0.091 C 
ATOM     19  C   UNL A   1      32.300  20.354  22.867  1.00  0.00     0.032 C 
BRANCH  18  20
ATOM     20  C   UNL A   1      33.849  20.603  24.918  1.00  0.00     0.006 C 
ATOM     21  C   UNL A   1      33.634  21.074  26.344  1.00  0.00     0.009 C 
ATOM     22  C   UNL A   1      33.822  19.128  24.654  1.00  0.00     0.009 C 
ENDBRANCH  18  20
ENDBRANCH   9  18
ENDBRANCH   7   8
ENDBRANCH   6   7
ENDBRANCH   4   6
ENDBRANCH   3   4
ENDBRANCH   2   3
ENDBRANCH   1   2
BRANCH   1  23
ATOM     23  O   UNL A   1      41.529  19.351  25.828  1.00  0.00    -0.374 OA
BRANCH  23  24
ATOM     24  C   UNL A   1      42.764  18.801  26.310  1.00  0.00     0.202 C 
BRANCH  24  25
ATOM     25  C   UNL A   1      44.002  18.547  25.427  1.00  0.00     0.261 C 
BRANCH  25  26
ATOM     26  O   UNL A   1      44.945  19.596  25.422  1.00  0.00    -0.460 OA
BRANCH  26  27
ATOM     27  C   UNL A   1      44.849  20.338  24.293  1.00  0.00     0.338 C 
ATOM     28  O   UNL A   1      44.918  19.949  23.153  1.00  0.00    -0.246 OA
BRANCH  27  29
ATOM     29  C   UNL A   1      44.837  21.747  24.695  1.00  0.00     0.060 A 
ATOM     30  C   UNL A   1      45.398  21.978  25.946  1.00  0.00     0.016 A 
ATOM     31  C   UNL A   1      44.096  22.725  24.006  1.00  0.00     0.016 A 
ATOM     32  C   UNL A   1      45.020  23.110  26.615  1.00  0.00     0.010 A 
ATOM     33  C   UNL A   1      43.740  23.878  24.671  1.00  0.00     0.010 A 
ATOM     34  C   UNL A   1      44.143  24.014  25.995  1.00  0.00    -0.014 A 
BRANCH  34  35
ATOM     35  C   UNL A   1      43.866  25.220  26.744  1.00  0.00     0.031 A 
ATOM     36  C   UNL A   1      44.936  26.211  26.514  1.00  0.00     0.074 A 
ATOM     37  C   UNL A   1      42.807  25.372  27.559  1.00  0.00     0.049 A 
ATOM     38  N   UNL A   1      45.883  26.509  27.339  1.00  0.00    -0.248 NA
ATOM     39  C   UNL A   1      45.148  26.717  25.147  1.00  0.00     0.031 C 
ATOM     40  C   UNL A   1      41.624  24.516  27.662  1.00  0.00     0.029 A 
ATOM     41  N   UNL A   1      42.532  26.389  28.427  1.00  0.00    -0.354 N 
ATOM     42  C   UNL A   1      46.667  27.439  26.673  1.00  0.00     0.074 A 
ATOM     43  C   UNL A   1      46.308  27.366  25.283  1.00  0.00     0.031 C 
ATOM     44  C   UNL A   1      40.661  25.171  28.352  1.00  0.00     0.029 A 
ATOM     45  C   UNL A   1      41.208  26.418  28.857  1.00  0.00     0.049 A 
ATOM     46  H   UNL A   1      43.208  27.042  28.722  1.00  0.00     0.167 HD
ATOM     47  C   UNL A   1      47.254  28.434  27.388  1.00  0.00     0.037 A 
ATOM     48  C   UNL A   1      40.618  27.451  29.510  1.00  0.00     0.037 A 
ATOM     49  C   UNL A   1      47.311  28.093  28.786  1.00  0.00     0.049 A 
ATOM     50  C   UNL A   1      41.701  28.216  30.173  1.00  0.00     0.074 A 
ATOM     51  C   UNL A   1      48.059  27.253  29.582  1.00  0.00     0.029 A 
ATOM     52  N   UNL A   1      46.147  28.361  29.454  1.00  0.00    -0.354 N 
ATOM     53  N   UNL A   1      42.401  27.747  31.170  1.00  0.00    -0.248 NA
ATOM     54  C   UNL A   1      42.273  29.378  29.498  1.00  0.00     0.031 C 
ATOM     55  C   UNL A   1      47.241  26.937  30.710  1.00  0.00     0.029 A 
ATOM     56  C   UNL A   1      46.038  27.631  30.603  1.00  0.00     0.049 A 
ATOM     57  H   UNL A   1      45.468  29.002  29.143  1.00  0.00     0.167 HD
ATOM     58  C   UNL A   1      43.666  28.262  30.967  1.00  0.00     0.074 A 
ATOM     59  C   UNL A   1      43.490  29.380  30.048  1.00  0.00     0.031 C 
ATOM     60  C   UNL A   1      44.769  27.528  31.288  1.00  0.00     0.037 A 
BRANCH  47  61
ATOM     61  C   UNL A   1      47.215  29.876  26.942  1.00  0.00     0.064 A 
ATOM     62  C   UNL A   1      48.366  30.672  27.086  1.00  0.00     0.173 A 
ATOM     63  C   UNL A   1      46.016  30.582  26.683  1.00  0.00     0.173 A 
ATOM     64  F   UNL A   1      49.543  30.113  27.403  1.00  0.00    -0.203 F 
ATOM     65  C   UNL A   1      48.312  32.066  26.995  1.00  0.00     0.198 A 
ATOM     66  C   UNL A   1      45.977  31.964  26.535  1.00  0.00     0.198 A 
ATOM     67  F   UNL A   1      44.819  29.986  26.693  1.00  0.00    -0.203 F 
ATOM     68  F   UNL A   1      49.410  32.793  27.245  1.00  0.00    -0.200 F 
ATOM     69  C   UNL A   1      47.120  32.710  26.711  1.00  0.00     0.200 A 
ATOM     70  F   UNL A   1      44.802  32.566  26.304  1.00  0.00    -0.200 F 
ATOM     71  F   UNL A   1      47.058  34.047  26.663  1.00  0.00    -0.200 F 
ENDBRANCH  47  61
BRANCH  48  72
ATOM     72  C   UNL A   1      39.259  28.021  29.319  1.00  0.00     0.064 A 
ATOM     73  C   UNL A   1      38.404  28.213  30.420  1.00  0.00     0.173 A 
ATOM     74  C   UNL A   1      38.894  28.677  28.128  1.00  0.00     0.173 A 
ATOM     75  F   UNL A   1      38.687  27.646  31.603  1.00  0.00    -0.203 F 
ATOM     76  C   UNL A   1      37.295  29.062  30.353  1.00  0.00     0.198 A 
ATOM     77  C   UNL A   1      37.782  29.519  28.061  1.00  0.00     0.198 A 
ATOM     78  F   UNL A   1      39.661  28.597  27.033  1.00  0.00    -0.203 F 
ATOM     79  F   UNL A   1      36.556  29.287  31.449  1.00  0.00    -0.200 F 
ATOM     80  C   UNL A   1      36.997  29.730  29.177  1.00  0.00     0.200 A 
ATOM     81  F   UNL A   1      37.522  30.183  26.925  1.00  0.00    -0.200 F 
ATOM     82  F   UNL A   1      35.984  30.606  29.134  1.00  0.00    -0.200 F 
ENDBRANCH  48  72
BRANCH  60  83
ATOM     83  C   UNL A   1      44.618  26.454  32.315  1.00  0.00     0.064 A 
ATOM     84  C   UNL A   1      44.346  25.107  32.031  1.00  0.00     0.173 A 
ATOM     85  C   UNL A   1      44.873  26.803  33.648  1.00  0.00     0.173 A 
ATOM     86  F   UNL A   1      44.160  24.691  30.770  1.00  0.00    -0.203 F 
ATOM     87  C   UNL A   1      44.314  24.156  33.051  1.00  0.00     0.198 A 
ATOM     88  C   UNL A   1      44.878  25.847  34.656  1.00  0.00     0.198 A 
ATOM     89  F   UNL A   1      45.169  28.074  33.964  1.00  0.00    -0.203 F 
ATOM     90  F   UNL A   1      44.046  22.873  32.767  1.00  0.00    -0.200 F 
ATOM     91  C   UNL A   1      44.592  24.526  34.359  1.00  0.00     0.200 A 
ATOM     92  F   UNL A   1      45.189  26.205  35.909  1.00  0.00    -0.200 F 
ATOM     93  F   UNL A   1      44.607  23.603  35.332  1.00  0.00    -0.200 F 
ENDBRANCH  60  83
ENDBRANCH  34  35
ENDBRANCH  27  29
ENDBRANCH  26  27
ENDBRANCH  25  26
ENDBRANCH  24  25
ENDBRANCH  23  24
ENDBRANCH   1  23
TORSDOF 18
ENDMDL
MODEL 2
REMARK VINA RESULT:     -11.1      4.833     10.393
REMARK SMILES CC(C)[C@H](C)n1c(SCC(=O)OCCOCCOC(=O)c2ccc(-c3c4nc(c(-c5c(F)c(F)c(F)c(F)c5F)c5ccc([nH]5)c(-c5c(F)c(F)c(F)c(F)c5F)c5nc(c(-c6c(F)c(F)c(F)c(F)c6F)c6ccc3[nH]6)C=C5)C=C4)cc2)nc2cc(Br)cnc21
REMARK SMILES IDX 14 1 13 2 12 3 10 4 11 5 9 6 8 7 7 8 6 9 91 10 84 11 85 12
REMARK SMILES IDX 90 13 86 14 89 15 87 16 88 17 4 18 5 19 2 20 1 21 3 22 15 23
REMARK SMILES IDX 16 24 17 25 18 26 19 27 20 28 21 29 22 30 83 31 23 32 82 33
REMARK SMILES IDX 24 34 25 35 26 36 76 37 27 38 81 39 75 40 77 41 28 42 80 43
REMARK SMILES IDX 74 44 73 45 29 47 61 48 41 49 60 50 42 51 45 52 59 53 78 54
REMARK SMILES IDX 43 55 44 56 58 58 79 59 46 60 30 61 31 62 39 63 32 64 33 65
REMARK SMILES IDX 37 66 40 67 34 68 35 69 38 70 36 71 62 72 63 73 71 74 64 75
REMARK SMILES IDX 65 76 69 77 72 78 66 79 67 80 70 81 68 82 47 83 48 84 56 85
REMARK SMILES IDX 49 86 50 87 54 88 57 89 51 90 52 91 55 92 53 93
REMARK H PARENT 77 46 45 57
REMARK Flexibility Score: inf
ROOT
ATOM      1  C   UNL A   1      33.989  34.129  28.047  1.00  0.00     0.202 C 
ENDROOT
BRANCH   1   2
ATOM      2  C   UNL A   1      34.320  32.741  28.687  1.00  0.00     0.261 C 
BRANCH   2   3
ATOM      3  O   UNL A   1      35.027  31.843  27.730  1.00  0.00    -0.463 OA
BRANCH   3   4
ATOM      4  C   UNL A   1      34.456  30.616  27.558  1.00  0.00     0.316 C 
ATOM      5  O   UNL A   1      35.136  29.592  27.682  1.00  0.00    -0.251 OA
BRANCH   4   6
ATOM      6  C   UNL A   1      32.959  30.456  27.223  1.00  0.00     0.200 C 
BRANCH   6   7
ATOM      7  S   UNL A   1      31.869  29.041  27.087  1.00  0.00    -0.076 SA
BRANCH   7   8
ATOM      8  C   UNL A   1      31.927  27.722  25.928  1.00  0.00     0.171 A 
ATOM      9  N   UNL A   1      31.368  27.441  24.671  1.00  0.00    -0.301 N 
ATOM     10  C   UNL A   1      32.043  26.310  24.194  1.00  0.00     0.161 A 
ATOM     11  N   UNL A   1      32.719  26.716  26.295  1.00  0.00    -0.221 NA
ATOM     12  C   UNL A   1      32.862  25.890  25.218  1.00  0.00     0.110 A 
ATOM     13  N   UNL A   1      31.990  25.811  22.936  1.00  0.00    -0.235 NA
ATOM     14  C   UNL A   1      33.715  24.802  24.977  1.00  0.00     0.049 A 
ATOM     15  C   UNL A   1      32.879  24.815  22.719  1.00  0.00     0.129 A 
ATOM     16  C   UNL A   1      33.731  24.284  23.679  1.00  0.00     0.038 A 
ATOM     17  Br  UNL A   1      34.935  22.908  23.212  1.00  0.00    -0.049 Br
BRANCH   9  18
ATOM     18  C   UNL A   1      30.600  28.195  23.677  1.00  0.00     0.091 C 
ATOM     19  C   UNL A   1      31.410  28.887  22.595  1.00  0.00     0.032 C 
BRANCH  18  20
ATOM     20  C   UNL A   1      29.278  27.585  23.248  1.00  0.00     0.006 C 
ATOM     21  C   UNL A   1      28.736  26.493  24.150  1.00  0.00     0.009 C 
ATOM     22  C   UNL A   1      28.359  28.711  22.882  1.00  0.00     0.009 C 
ENDBRANCH  18  20
ENDBRANCH   9  18
ENDBRANCH   7   8
ENDBRANCH   6   7
ENDBRANCH   4   6
ENDBRANCH   3   4
ENDBRANCH   2   3
ENDBRANCH   1   2
BRANCH   1  23
ATOM     23  O   UNL A   1      32.846  34.879  28.504  1.00  0.00    -0.374 OA
BRANCH  23  24
ATOM     24  C   UNL A   1      32.869  36.128  29.211  1.00  0.00     0.202 C 
BRANCH  24  25
ATOM     25  C   UNL A   1      32.906  36.252  30.747  1.00  0.00     0.261 C 
BRANCH  25  26
ATOM     26  O   UNL A   1      33.227  35.057  31.424  1.00  0.00    -0.460 OA
BRANCH  26  27
ATOM     27  C   UNL A   1      33.815  35.311  32.617  1.00  0.00     0.338 C 
ATOM     28  O   UNL A   1      33.619  36.253  33.345  1.00  0.00    -0.246 OA
BRANCH  27  29
ATOM     29  C   UNL A   1      34.889  34.330  32.793  1.00  0.00     0.060 A 
ATOM     30  C   UNL A   1      36.164  34.880  32.740  1.00  0.00     0.016 A 
ATOM     31  C   UNL A   1      34.661  32.942  32.752  1.00  0.00     0.016 A 
ATOM     32  C   UNL A   1      37.202  34.052  32.408  1.00  0.00     0.010 A 
ATOM     33  C   UNL A   1      35.713  32.106  32.447  1.00  0.00     0.010 A 
ATOM     34  C   UNL A   1      36.953  32.686  32.201  1.00  0.00    -0.014 A 
BRANCH  34  35
ATOM     35  C   UNL A   1      38.122  31.877  31.937  1.00  0.00     0.031 A 
ATOM     36  C   UNL A   1      38.873  31.654  33.189  1.00  0.00     0.074 A 
ATOM     37  C   UNL A   1      38.475  31.443  30.714  1.00  0.00     0.049 A 
ATOM     38  N   UNL A   1      39.969  32.244  33.530  1.00  0.00    -0.248 NA
ATOM     39  C   UNL A   1      38.213  30.928  34.289  1.00  0.00     0.031 C 
ATOM     40  C   UNL A   1      37.672  31.457  29.491  1.00  0.00     0.029 A 
ATOM     41  N   UNL A   1      39.624  30.818  30.325  1.00  0.00    -0.354 N 
ATOM     42  C   UNL A   1      40.266  31.758  34.795  1.00  0.00     0.074 A 
ATOM     43  C   UNL A   1      39.068  31.138  35.293  1.00  0.00     0.031 C 
ATOM     44  C   UNL A   1      38.255  30.656  28.568  1.00  0.00     0.029 A 
ATOM     45  C   UNL A   1      39.533  30.196  29.082  1.00  0.00     0.049 A 
ATOM     46  H   UNL A   1      40.443  30.806  30.873  1.00  0.00     0.167 HD
ATOM     47  C   UNL A   1      41.567  31.582  35.141  1.00  0.00     0.037 A 
ATOM     48  C   UNL A   1      40.428  29.308  28.582  1.00  0.00     0.037 A 
ATOM     49  C   UNL A   1      42.433  32.347  34.281  1.00  0.00     0.049 A 
ATOM     50  C   UNL A   1      41.719  29.567  29.263  1.00  0.00     0.074 A 
ATOM     51  C   UNL A   1      42.783  33.671  34.134  1.00  0.00     0.029 A 
ATOM     52  N   UNL A   1      42.709  31.716  33.098  1.00  0.00    -0.354 N 
ATOM     53  N   UNL A   1      42.419  30.653  29.081  1.00  0.00    -0.248 NA
ATOM     54  C   UNL A   1      42.074  28.784  30.444  1.00  0.00     0.031 C 
ATOM     55  C   UNL A   1      43.177  33.832  32.771  1.00  0.00     0.029 A 
ATOM     56  C   UNL A   1      43.109  32.595  32.132  1.00  0.00     0.049 A 
ATOM     57  H   UNL A   1      42.628  30.746  32.958  1.00  0.00     0.167 HD
ATOM     58  C   UNL A   1      42.977  30.909  30.317  1.00  0.00     0.074 A 
ATOM     59  C   UNL A   1      42.881  29.655  31.055  1.00  0.00     0.031 C 
ATOM     60  C   UNL A   1      43.149  32.192  30.745  1.00  0.00     0.037 A 
BRANCH  47  61
ATOM     61  C   UNL A   1      42.058  30.322  35.814  1.00  0.00     0.064 A 
ATOM     62  C   UNL A   1      43.062  30.412  36.795  1.00  0.00     0.173 A 
ATOM     63  C   UNL A   1      41.813  29.022  35.312  1.00  0.00     0.173 A 
ATOM     64  F   UNL A   1      43.425  31.606  37.288  1.00  0.00    -0.203 F 
ATOM     65  C   UNL A   1      43.776  29.288  37.221  1.00  0.00     0.198 A 
ATOM     66  C   UNL A   1      42.484  27.898  35.781  1.00  0.00     0.198 A 
ATOM     67  F   UNL A   1      41.016  28.800  34.261  1.00  0.00    -0.203 F 
ATOM     68  F   UNL A   1      44.797  29.433  38.077  1.00  0.00    -0.200 F 
ATOM     69  C   UNL A   1      43.480  28.032  36.721  1.00  0.00     0.200 A 
ATOM     70  F   UNL A   1      42.209  26.700  35.248  1.00  0.00    -0.200 F 
ATOM     71  F   UNL A   1      44.189  26.960  37.099  1.00  0.00    -0.200 F 
ENDBRANCH  47  61
BRANCH  48  72
ATOM     72  C   UNL A   1      40.175  28.049  27.834  1.00  0.00     0.064 A 
ATOM     73  C   UNL A   1      40.874  27.771  26.645  1.00  0.00     0.173 A 
ATOM     74  C   UNL A   1      39.496  26.965  28.423  1.00  0.00     0.173 A 
ATOM     75  F   UNL A   1      41.570  28.739  26.028  1.00  0.00    -0.203 F 
ATOM     76  C   UNL A   1      40.947  26.478  26.118  1.00  0.00     0.198 A 
ATOM     77  C   UNL A   1      39.565  25.676  27.891  1.00  0.00     0.198 A 
ATOM     78  F   UNL A   1      38.837  27.109  29.580  1.00  0.00    -0.203 F 
ATOM     79  F   UNL A   1      41.695  26.239  25.031  1.00  0.00    -0.200 F 
ATOM     80  C   UNL A   1      40.308  25.427  26.753  1.00  0.00     0.200 A 
ATOM     81  F   UNL A   1      38.966  24.662  28.532  1.00  0.00    -0.200 F 
ATOM     82  F   UNL A   1      40.443  24.175  26.295  1.00  0.00    -0.200 F 
ENDBRANCH  48  72
BRANCH  60  83
ATOM     83  C   UNL A   1      43.244  33.265  29.710  1.00  0.00     0.064 A 
ATOM     84  C   UNL A   1      42.193  34.116  29.340  1.00  0.00     0.173 A 
ATOM     85  C   UNL A   1      44.507  33.504  29.150  1.00  0.00     0.173 A 
ATOM     86  F   UNL A   1      40.975  33.989  29.888  1.00  0.00    -0.203 F 
ATOM     87  C   UNL A   1      42.400  35.152  28.429  1.00  0.00     0.198 A 
ATOM     88  C   UNL A   1      44.720  34.559  28.273  1.00  0.00     0.198 A 
ATOM     89  F   UNL A   1      45.551  32.735  29.499  1.00  0.00    -0.203 F 
ATOM     90  F   UNL A   1      41.385  35.954  28.079  1.00  0.00    -0.200 F 
ATOM     91  C   UNL A   1      43.665  35.379  27.907  1.00  0.00     0.200 A 
ATOM     92  F   UNL A   1      45.953  34.796  27.806  1.00  0.00    -0.200 F 
ATOM     93  F   UNL A   1      43.876  36.403  27.068  1.00  0.00    -0.200 F 
ENDBRANCH  60  83
ENDBRANCH  34  35
ENDBRANCH  27  29
ENDBRANCH  26  27
ENDBRANCH  25  26
ENDBRANCH  24  25
ENDBRANCH  23  24
ENDBRANCH   1  23
TORSDOF 18
ENDMDL
MODEL 3
REMARK VINA RESULT:     -10.9      5.373     10.473
REMARK SMILES CC(C)[C@H](C)n1c(SCC(=O)OCCOCCOC(=O)c2ccc(-c3c4nc(c(-c5c(F)c(F)c(F)c(F)c5F)c5ccc([nH]5)c(-c5c(F)c(F)c(F)c(F)c5F)c5nc(c(-c6c(F)c(F)c(F)c(F)c6F)c6ccc3[nH]6)C=C5)C=C4)cc2)nc2cc(Br)cnc21
REMARK SMILES IDX 14 1 13 2 12 3 10 4 11 5 9 6 8 7 7 8 6 9 91 10 84 11 85 12
REMARK SMILES IDX 90 13 86 14 89 15 87 16 88 17 4 18 5 19 2 20 1 21 3 22 15 23
REMARK SMILES IDX 16 24 17 25 18 26 19 27 20 28 21 29 22 30 83 31 23 32 82 33
REMARK SMILES IDX 24 34 25 35 26 36 76 37 27 38 81 39 75 40 77 41 28 42 80 43
REMARK SMILES IDX 74 44 73 45 29 47 61 48 41 49 60 50 42 51 45 52 59 53 78 54
REMARK SMILES IDX 43 55 44 56 58 58 79 59 46 60 30 61 31 62 39 63 32 64 33 65
REMARK SMILES IDX 37 66 40 67 34 68 35 69 38 70 36 71 62 72 63 73 71 74 64 75
REMARK SMILES IDX 65 76 69 77 72 78 66 79 67 80 70 81 68 82 47 83 48 84 56 85
REMARK SMILES IDX 49 86 50 87 54 88 57 89 51 90 52 91 55 92 53 93
REMARK H PARENT 77 46 45 57
REMARK Flexibility Score: inf
ROOT
ATOM      1  C   UNL A   1      34.159  34.007  28.028  1.00  0.00     0.202 C 
ENDROOT
BRANCH   1   2
ATOM      2  C   UNL A   1      34.470  32.644  28.727  1.00  0.00     0.261 C 
BRANCH   2   3
ATOM      3  O   UNL A   1      35.012  31.638  27.768  1.00  0.00    -0.463 OA
BRANCH   3   4
ATOM      4  C   UNL A   1      34.126  30.678  27.375  1.00  0.00     0.316 C 
ATOM      5  O   UNL A   1      32.922  30.940  27.292  1.00  0.00    -0.251 OA
BRANCH   4   6
ATOM      6  C   UNL A   1      34.585  29.252  27.007  1.00  0.00     0.200 C 
BRANCH   6   7
ATOM      7  S   UNL A   1      33.765  27.847  26.257  1.00  0.00    -0.076 SA
BRANCH   7   8
ATOM      8  C   UNL A   1      32.407  27.838  25.143  1.00  0.00     0.171 A 
ATOM      9  N   UNL A   1      31.466  26.901  24.686  1.00  0.00    -0.301 N 
ATOM     10  C   UNL A   1      30.496  27.637  23.992  1.00  0.00     0.161 A 
ATOM     11  N   UNL A   1      32.161  29.021  24.583  1.00  0.00    -0.221 NA
ATOM     12  C   UNL A   1      30.957  28.934  23.945  1.00  0.00     0.110 A 
ATOM     13  N   UNL A   1      29.293  27.184  23.567  1.00  0.00    -0.235 NA
ATOM     14  C   UNL A   1      30.132  29.906  23.361  1.00  0.00     0.049 A 
ATOM     15  C   UNL A   1      28.496  28.161  23.079  1.00  0.00     0.129 A 
ATOM     16  C   UNL A   1      28.861  29.495  22.950  1.00  0.00     0.038 A 
ATOM     17  Br  UNL A   1      27.623  30.748  22.271  1.00  0.00    -0.049 Br
BRANCH   9  18
ATOM     18  C   UNL A   1      31.090  25.533  25.055  1.00  0.00     0.091 C 
ATOM     19  C   UNL A   1      29.958  25.401  26.057  1.00  0.00     0.032 C 
BRANCH  18  20
ATOM     20  C   UNL A   1      31.133  24.504  23.940  1.00  0.00     0.006 C 
ATOM     21  C   UNL A   1      32.159  24.759  22.852  1.00  0.00     0.009 C 
ATOM     22  C   UNL A   1      31.109  23.148  24.577  1.00  0.00     0.009 C 
ENDBRANCH  18  20
ENDBRANCH   9  18
ENDBRANCH   7   8
ENDBRANCH   6   7
ENDBRANCH   4   6
ENDBRANCH   3   4
ENDBRANCH   2   3
ENDBRANCH   1   2
BRANCH   1  23
ATOM     23  O   UNL A   1      32.971  34.743  28.380  1.00  0.00    -0.374 OA
BRANCH  23  24
ATOM     24  C   UNL A   1      32.916  36.027  29.017  1.00  0.00     0.202 C 
BRANCH  24  25
ATOM     25  C   UNL A   1      32.745  36.233  30.535  1.00  0.00     0.261 C 
BRANCH  25  26
ATOM     26  O   UNL A   1      32.971  35.079  31.313  1.00  0.00    -0.460 OA
BRANCH  26  27
ATOM     27  C   UNL A   1      33.457  35.397  32.536  1.00  0.00     0.338 C 
ATOM     28  O   UNL A   1      33.131  36.325  33.236  1.00  0.00    -0.246 OA
BRANCH  27  29
ATOM     29  C   UNL A   1      34.601  34.519  32.795  1.00  0.00     0.060 A 
ATOM     30  C   UNL A   1      35.807  35.196  32.932  1.00  0.00     0.016 A 
ATOM     31  C   UNL A   1      34.531  33.121  32.652  1.00  0.00     0.016 A 
ATOM     32  C   UNL A   1      36.960  34.500  32.691  1.00  0.00     0.010 A 
ATOM     33  C   UNL A   1      35.695  32.417  32.439  1.00  0.00     0.010 A 
ATOM     34  C   UNL A   1      36.886  33.132  32.383  1.00  0.00    -0.014 A 
BRANCH  34  35
ATOM     35  C   UNL A   1      38.159  32.463  32.226  1.00  0.00     0.031 A 
ATOM     36  C   UNL A   1      38.919  32.528  33.490  1.00  0.00     0.074 A 
ATOM     37  C   UNL A   1      38.582  31.913  31.074  1.00  0.00     0.049 A 
ATOM     38  N   UNL A   1      39.920  33.306  33.734  1.00  0.00    -0.248 NA
ATOM     39  C   UNL A   1      38.354  31.881  34.688  1.00  0.00     0.031 C 
ATOM     40  C   UNL A   1      37.798  31.641  29.869  1.00  0.00     0.029 A 
ATOM     41  N   UNL A   1      39.810  31.404  30.768  1.00  0.00    -0.354 N 
ATOM     42  C   UNL A   1      40.267  33.051  35.052  1.00  0.00     0.074 A 
ATOM     43  C   UNL A   1      39.161  32.349  35.644  1.00  0.00     0.031 C 
ATOM     44  C   UNL A   1      38.495  30.805  29.064  1.00  0.00     0.029 A 
ATOM     45  C   UNL A   1      39.819  30.605  29.628  1.00  0.00     0.049 A 
ATOM     46  H   UNL A   1      40.617  31.584  31.305  1.00  0.00     0.167 HD
ATOM     47  C   UNL A   1      41.576  33.108  35.408  1.00  0.00     0.037 A 
ATOM     48  C   UNL A   1      40.834  29.787  29.251  1.00  0.00     0.037 A 
ATOM     49  C   UNL A   1      42.337  33.855  34.440  1.00  0.00     0.049 A 
ATOM     50  C   UNL A   1      42.070  30.317  29.877  1.00  0.00     0.074 A 
ATOM     51  C   UNL A   1      42.502  35.180  34.102  1.00  0.00     0.029 A 
ATOM     52  N   UNL A   1      42.710  33.107  33.356  1.00  0.00    -0.354 N 
ATOM     53  N   UNL A   1      42.614  31.452  29.534  1.00  0.00    -0.248 NA
ATOM     54  C   UNL A   1      42.517  29.767  31.154  1.00  0.00     0.031 C 
ATOM     55  C   UNL A   1      42.885  35.198  32.727  1.00  0.00     0.029 A 
ATOM     56  C   UNL A   1      42.996  33.886  32.272  1.00  0.00     0.049 A 
ATOM     57  H   UNL A   1      42.766  32.124  33.357  1.00  0.00     0.167 HD
ATOM     58  C   UNL A   1      43.118  31.956  30.717  1.00  0.00     0.074 A 
ATOM     59  C   UNL A   1      43.189  30.820  31.627  1.00  0.00     0.031 C 
ATOM     60  C   UNL A   1      43.106  33.298  30.956  1.00  0.00     0.037 A 
BRANCH  47  61
ATOM     61  C   UNL A   1      42.229  32.037  36.250  1.00  0.00     0.064 A 
ATOM     62  C   UNL A   1      43.042  32.414  37.333  1.00  0.00     0.173 A 
ATOM     63  C   UNL A   1      42.345  30.687  35.843  1.00  0.00     0.173 A 
ATOM     64  F   UNL A   1      43.064  33.687  37.756  1.00  0.00    -0.203 F 
ATOM     65  C   UNL A   1      43.915  31.511  37.946  1.00  0.00     0.198 A 
ATOM     66  C   UNL A   1      43.172  29.777  36.493  1.00  0.00     0.198 A 
ATOM     67  F   UNL A   1      41.771  30.225  34.727  1.00  0.00    -0.203 F 
ATOM     68  F   UNL A   1      44.750  31.937  38.905  1.00  0.00    -0.200 F 
ATOM     69  C   UNL A   1      43.973  30.191  37.531  1.00  0.00     0.200 A 
ATOM     70  F   UNL A   1      43.241  28.516  36.043  1.00  0.00    -0.200 F 
ATOM     71  F   UNL A   1      44.837  29.335  38.090  1.00  0.00    -0.200 F 
ENDBRANCH  47  61
BRANCH  48  72
ATOM     72  C   UNL A   1      40.765  28.411  28.693  1.00  0.00     0.064 A 
ATOM     73  C   UNL A   1      40.015  27.414  29.344  1.00  0.00     0.173 A 
ATOM     74  C   UNL A   1      41.155  28.131  27.369  1.00  0.00     0.173 A 
ATOM     75  F   UNL A   1      39.581  27.605  30.599  1.00  0.00    -0.203 F 
ATOM     76  C   UNL A   1      39.623  26.242  28.689  1.00  0.00     0.198 A 
ATOM     77  C   UNL A   1      40.767  26.958  26.720  1.00  0.00     0.198 A 
ATOM     78  F   UNL A   1      41.832  29.031  26.644  1.00  0.00    -0.203 F 
ATOM     79  F   UNL A   1      38.836  25.356  29.316  1.00  0.00    -0.200 F 
ATOM     80  C   UNL A   1      39.983  26.024  27.370  1.00  0.00     0.200 A 
ATOM     81  F   UNL A   1      41.098  26.773  25.433  1.00  0.00    -0.200 F 
ATOM     82  F   UNL A   1      39.540  24.942  26.716  1.00  0.00    -0.200 F 
ENDBRANCH  48  72
BRANCH  60  83
ATOM     83  C   UNL A   1      43.063  34.216  29.778  1.00  0.00     0.064 A 
ATOM     84  C   UNL A   1      41.889  34.683  29.169  1.00  0.00     0.173 A 
ATOM     85  C   UNL A   1      44.285  34.728  29.320  1.00  0.00     0.173 A 
ATOM     86  F   UNL A   1      40.683  34.288  29.601  1.00  0.00    -0.203 F 
ATOM     87  C   UNL A   1      41.946  35.612  28.130  1.00  0.00     0.198 A 
ATOM     88  C   UNL A   1      44.337  35.681  28.312  1.00  0.00     0.198 A 
ATOM     89  F   UNL A   1      45.434  34.334  29.894  1.00  0.00    -0.203 F 
ATOM     90  F   UNL A   1      40.816  36.046  27.552  1.00  0.00    -0.200 F 
ATOM     91  C   UNL A   1      43.168  36.118  27.712  1.00  0.00     0.200 A 
ATOM     92  F   UNL A   1      45.518  36.195  27.944  1.00  0.00    -0.200 F 
ATOM     93  F   UNL A   1      43.219  37.046  26.746  1.00  0.00    -0.200 F 
ENDBRANCH  60  83
ENDBRANCH  34  35
ENDBRANCH  27  29
ENDBRANCH  26  27
ENDBRANCH  25  26
ENDBRANCH  24  25
ENDBRANCH  23  24
ENDBRANCH   1  23
TORSDOF 18
ENDMDL
