MODEL 1
REMARK VINA RESULT:     -10.9      0.000      0.000
REMARK SMILES Cn1ccnc(N[C@H]2C=C[C@H](C(=O)OCCOCCOC(=O)c3ccc(-c4c5nc(c(-c6c(F)c(F)c(F)c(F)c6F)c6ccc([nH]6)c(-c6c(F)c(F)c(F)c(F)c6F)c6nc(c(-c7c(F)c(F)c(F)c(F)c7F)c7ccc4[nH]7)C=C6)C=C5)cc3)C2)c1=O
REMARK SMILES IDX 17 1 16 2 15 3 14 4 12 5 13 6 11 7 8 8 9 9 86 10 10 11 7 12
REMARK SMILES IDX 6 14 1 15 2 16 3 17 87 18 4 19 88 20 5 21 18 22 19 23 20 24
REMARK SMILES IDX 21 25 22 26 23 27 24 28 85 29 25 30 84 31 26 32 27 33 28 34
REMARK SMILES IDX 78 35 29 36 83 37 77 38 79 39 30 40 82 41 76 42 75 43 31 45
REMARK SMILES IDX 63 46 43 47 62 48 44 49 47 50 61 51 80 52 45 53 46 54 60 56
REMARK SMILES IDX 81 57 48 58 32 59 33 60 41 61 34 62 35 63 39 64 42 65 36 66
REMARK SMILES IDX 37 67 40 68 38 69 64 70 65 71 73 72 66 73 67 74 71 75 74 76
REMARK SMILES IDX 68 77 69 78 72 79 70 80 49 81 50 82 58 83 51 84 52 85 56 86
REMARK SMILES IDX 59 87 53 88 54 89 57 90 55 91
REMARK H PARENT 7 13 79 44 47 55
REMARK Flexibility Score: inf
ROOT
ATOM      1  O   UNL A   1      35.018  34.340  28.999  1.00  0.00    -0.374 OA
ENDROOT
BRANCH   1   2
ATOM      2  C   UNL A   1      35.325  33.114  28.335  1.00  0.00     0.202 C 
BRANCH   2   3
ATOM      3  C   UNL A   1      34.490  31.898  28.745  1.00  0.00     0.261 C 
BRANCH   3   4
ATOM      4  O   UNL A   1      33.512  31.612  27.737  1.00  0.00    -0.463 OA
BRANCH   4   5
ATOM      5  C   UNL A   1      33.507  30.332  27.270  1.00  0.00     0.312 C 
ATOM      6  O   UNL A   1      34.498  29.634  27.100  1.00  0.00    -0.252 OA
BRANCH   5   7
ATOM      7  C   UNL A   1      32.077  29.864  27.065  1.00  0.00     0.124 C 
ATOM      8  C   UNL A   1      31.895  27.540  26.372  1.00  0.00     0.105 C 
ATOM      9  C   UNL A   1      31.654  28.466  25.229  1.00  0.00    -0.006 C 
ATOM     10  C   UNL A   1      31.918  28.432  27.612  1.00  0.00     0.048 C 
ATOM     11  C   UNL A   1      31.770  29.744  25.605  1.00  0.00    -0.014 C 
BRANCH   8  12
ATOM     12  N   UNL A   1      30.926  26.485  26.419  1.00  0.00    -0.359 N 
ATOM     13  H   UNL A   1      30.056  26.769  26.781  1.00  0.00     0.162 HD
BRANCH  12  14
ATOM     14  C   UNL A   1      30.963  25.157  26.060  1.00  0.00     0.193 A 
ATOM     15  C   UNL A   1      31.696  22.646  23.247  1.00  0.00     0.153 C 
ATOM     16  N   UNL A   1      31.345  23.230  24.524  1.00  0.00    -0.314 N 
ATOM     17  C   UNL A   1      30.991  22.442  25.590  1.00  0.00     0.109 A 
ATOM     18  C   UNL A   1      31.350  24.620  24.640  1.00  0.00     0.293 A 
ATOM     19  C   UNL A   1      30.655  22.988  26.761  1.00  0.00     0.131 A 
ATOM     20  O   UNL A   1      31.610  25.364  23.705  1.00  0.00    -0.265 OA
ATOM     21  N   UNL A   1      30.633  24.329  27.027  1.00  0.00    -0.233 NA
ENDBRANCH  12  14
ENDBRANCH   8  12
ENDBRANCH   5   7
ENDBRANCH   4   5
ENDBRANCH   3   4
ENDBRANCH   2   3
ENDBRANCH   1   2
BRANCH   1  22
ATOM     22  C   UNL A   1      34.080  35.220  28.375  1.00  0.00     0.202 C 
BRANCH  22  23
ATOM     23  C   UNL A   1      32.991  35.821  29.272  1.00  0.00     0.261 C 
BRANCH  23  24
ATOM     24  O   UNL A   1      32.667  34.962  30.380  1.00  0.00    -0.460 OA
BRANCH  24  25
ATOM     25  C   UNL A   1      32.795  35.540  31.599  1.00  0.00     0.338 C 
ATOM     26  O   UNL A   1      32.048  36.348  32.121  1.00  0.00    -0.246 OA
BRANCH  25  27
ATOM     27  C   UNL A   1      33.910  34.917  32.336  1.00  0.00     0.060 A 
ATOM     28  C   UNL A   1      35.140  35.588  32.332  1.00  0.00     0.016 A 
ATOM     29  C   UNL A   1      33.788  33.656  32.925  1.00  0.00     0.016 A 
ATOM     30  C   UNL A   1      36.272  34.973  32.859  1.00  0.00     0.010 A 
ATOM     31  C   UNL A   1      34.928  33.035  33.444  1.00  0.00     0.010 A 
ATOM     32  C   UNL A   1      36.180  33.672  33.370  1.00  0.00    -0.014 A 
BRANCH  32  33
ATOM     33  C   UNL A   1      37.426  32.916  33.643  1.00  0.00     0.031 A 
ATOM     34  C   UNL A   1      38.163  33.179  34.928  1.00  0.00     0.074 A 
ATOM     35  C   UNL A   1      37.870  31.979  32.788  1.00  0.00     0.049 A 
ATOM     36  N   UNL A   1      39.281  32.661  35.369  1.00  0.00    -0.248 NA
ATOM     37  C   UNL A   1      37.555  34.164  35.839  1.00  0.00     0.031 C 
ATOM     38  C   UNL A   1      37.218  31.603  31.536  1.00  0.00     0.029 A 
ATOM     39  N   UNL A   1      38.981  31.176  32.846  1.00  0.00    -0.354 N 
ATOM     40  C   UNL A   1      39.513  33.262  36.600  1.00  0.00     0.074 A 
ATOM     41  C   UNL A   1      38.440  34.205  36.823  1.00  0.00     0.031 C 
ATOM     42  C   UNL A   1      37.947  30.645  30.936  1.00  0.00     0.029 A 
ATOM     43  C   UNL A   1      39.131  30.367  31.748  1.00  0.00     0.049 A 
ATOM     44  H   UNL A   1      39.611  31.181  33.601  1.00  0.00     0.167 HD
ATOM     45  C   UNL A   1      40.526  33.039  37.471  1.00  0.00     0.037 A 
ATOM     46  C   UNL A   1      40.124  29.513  31.429  1.00  0.00     0.037 A 
ATOM     47  C   UNL A   1      41.590  32.094  37.248  1.00  0.00     0.049 A 
ATOM     48  C   UNL A   1      41.274  29.330  32.385  1.00  0.00     0.074 A 
ATOM     49  C   UNL A   1      42.655  31.783  38.073  1.00  0.00     0.029 A 
ATOM     50  N   UNL A   1      41.722  31.311  36.111  1.00  0.00    -0.354 N 
ATOM     51  N   UNL A   1      41.478  29.885  33.555  1.00  0.00    -0.248 NA
ATOM     52  C   UNL A   1      42.331  28.393  31.976  1.00  0.00     0.031 C 
ATOM     53  C   UNL A   1      43.460  30.848  37.415  1.00  0.00     0.029 A 
ATOM     54  C   UNL A   1      42.865  30.534  36.203  1.00  0.00     0.049 A 
ATOM     55  H   UNL A   1      41.097  31.308  35.350  1.00  0.00     0.167 HD
ATOM     56  C   UNL A   1      42.663  29.342  34.036  1.00  0.00     0.074 A 
ATOM     57  C   UNL A   1      43.129  28.406  33.035  1.00  0.00     0.031 C 
ATOM     58  C   UNL A   1      43.306  29.595  35.203  1.00  0.00     0.037 A 
BRANCH  45  59
ATOM     59  C   UNL A   1      40.547  33.850  38.733  1.00  0.00     0.064 A 
ATOM     60  C   UNL A   1      39.834  33.456  39.876  1.00  0.00     0.173 A 
ATOM     61  C   UNL A   1      41.312  35.023  38.809  1.00  0.00     0.173 A 
ATOM     62  F   UNL A   1      39.075  32.351  39.851  1.00  0.00    -0.203 F 
ATOM     63  C   UNL A   1      39.868  34.222  41.039  1.00  0.00     0.198 A 
ATOM     64  C   UNL A   1      41.367  35.770  39.983  1.00  0.00     0.198 A 
ATOM     65  F   UNL A   1      42.015  35.442  37.746  1.00  0.00    -0.203 F 
ATOM     66  F   UNL A   1      39.141  33.853  42.103  1.00  0.00    -0.200 F 
ATOM     67  C   UNL A   1      40.638  35.374  41.094  1.00  0.00     0.200 A 
ATOM     68  F   UNL A   1      42.122  36.875  40.037  1.00  0.00    -0.200 F 
ATOM     69  F   UNL A   1      40.674  36.105  42.215  1.00  0.00    -0.200 F 
ENDBRANCH  45  59
BRANCH  46  70
ATOM     70  C   UNL A   1      40.080  28.770  30.142  1.00  0.00     0.064 A 
ATOM     71  C   UNL A   1      39.473  27.510  30.054  1.00  0.00     0.173 A 
ATOM     72  C   UNL A   1      40.661  29.297  28.980  1.00  0.00     0.173 A 
ATOM     73  F   UNL A   1      38.926  26.953  31.144  1.00  0.00    -0.203 F 
ATOM     74  C   UNL A   1      39.468  26.795  28.857  1.00  0.00     0.198 A 
ATOM     75  C   UNL A   1      40.630  28.596  27.777  1.00  0.00     0.198 A 
ATOM     76  F   UNL A   1      41.257  30.499  29.011  1.00  0.00    -0.203 F 
ATOM     77  F   UNL A   1      38.925  25.572  28.812  1.00  0.00    -0.200 F 
ATOM     78  C   UNL A   1      40.042  27.342  27.718  1.00  0.00     0.200 A 
ATOM     79  F   UNL A   1      41.175  29.132  26.676  1.00  0.00    -0.200 F 
ATOM     80  F   UNL A   1      40.035  26.656  26.567  1.00  0.00    -0.200 F 
ENDBRANCH  46  70
BRANCH  58  81
ATOM     81  C   UNL A   1      44.558  28.814  35.486  1.00  0.00     0.064 A 
ATOM     82  C   UNL A   1      44.524  27.575  36.143  1.00  0.00     0.173 A 
ATOM     83  C   UNL A   1      45.803  29.292  35.050  1.00  0.00     0.173 A 
ATOM     84  F   UNL A   1      43.361  27.080  36.591  1.00  0.00    -0.203 F 
ATOM     85  C   UNL A   1      45.695  26.859  36.378  1.00  0.00     0.198 A 
ATOM     86  C   UNL A   1      46.967  28.558  35.259  1.00  0.00     0.198 A 
ATOM     87  F   UNL A   1      45.889  30.468  34.408  1.00  0.00    -0.203 F 
ATOM     88  F   UNL A   1      45.645  25.700  37.051  1.00  0.00    -0.200 F 
ATOM     89  C   UNL A   1      46.913  27.347  35.930  1.00  0.00     0.200 A 
ATOM     90  F   UNL A   1      48.141  29.025  34.811  1.00  0.00    -0.200 F 
ATOM     91  F   UNL A   1      48.037  26.651  36.150  1.00  0.00    -0.200 F 
ENDBRANCH  58  81
ENDBRANCH  32  33
ENDBRANCH  25  27
ENDBRANCH  24  25
ENDBRANCH  23  24
ENDBRANCH  22  23
ENDBRANCH   1  22
TORSDOF 16
ENDMDL
MODEL 2
REMARK VINA RESULT:     -10.8      5.478     11.366
REMARK SMILES Cn1ccnc(N[C@H]2C=C[C@H](C(=O)OCCOCCOC(=O)c3ccc(-c4c5nc(c(-c6c(F)c(F)c(F)c(F)c6F)c6ccc([nH]6)c(-c6c(F)c(F)c(F)c(F)c6F)c6nc(c(-c7c(F)c(F)c(F)c(F)c7F)c7ccc4[nH]7)C=C6)C=C5)cc3)C2)c1=O
REMARK SMILES IDX 17 1 16 2 15 3 14 4 12 5 13 6 11 7 8 8 9 9 86 10 10 11 7 12
REMARK SMILES IDX 6 14 1 15 2 16 3 17 87 18 4 19 88 20 5 21 18 22 19 23 20 24
REMARK SMILES IDX 21 25 22 26 23 27 24 28 85 29 25 30 84 31 26 32 27 33 28 34
REMARK SMILES IDX 78 35 29 36 83 37 77 38 79 39 30 40 82 41 76 42 75 43 31 45
REMARK SMILES IDX 63 46 43 47 62 48 44 49 47 50 61 51 80 52 45 53 46 54 60 56
REMARK SMILES IDX 81 57 48 58 32 59 33 60 41 61 34 62 35 63 39 64 42 65 36 66
REMARK SMILES IDX 37 67 40 68 38 69 64 70 65 71 73 72 66 73 67 74 71 75 74 76
REMARK SMILES IDX 68 77 69 78 72 79 70 80 49 81 50 82 58 83 51 84 52 85 56 86
REMARK SMILES IDX 59 87 53 88 54 89 57 90 55 91
REMARK H PARENT 7 13 79 44 47 55
REMARK Flexibility Score: inf
ROOT
ATOM      1  O   UNL A   1      37.512  21.266  25.196  1.00  0.00    -0.374 OA
ENDROOT
BRANCH   1   2
ATOM      2  C   UNL A   1      36.204  21.539  25.701  1.00  0.00     0.202 C 
BRANCH   2   3
ATOM      3  C   UNL A   1      35.094  21.683  24.657  1.00  0.00     0.261 C 
BRANCH   3   4
ATOM      4  O   UNL A   1      34.069  20.709  24.893  1.00  0.00    -0.463 OA
BRANCH   4   5
ATOM      5  C   UNL A   1      32.791  21.173  24.822  1.00  0.00     0.312 C 
ATOM      6  O   UNL A   1      31.781  20.505  25.001  1.00  0.00    -0.252 OA
BRANCH   5   7
ATOM      7  C   UNL A   1      32.799  22.671  24.567  1.00  0.00     0.124 C 
ATOM      8  C   UNL A   1      30.653  23.745  24.957  1.00  0.00     0.105 C 
ATOM      9  C   UNL A   1      30.924  23.592  23.500  1.00  0.00    -0.006 C 
ATOM     10  C   UNL A   1      31.966  23.385  25.649  1.00  0.00     0.048 C 
ATOM     11  C   UNL A   1      32.097  22.986  23.283  1.00  0.00    -0.014 C 
BRANCH   8  12
ATOM     12  N   UNL A   1      30.156  25.051  25.275  1.00  0.00    -0.359 N 
ATOM     13  H   UNL A   1      29.510  25.054  26.017  1.00  0.00     0.162 HD
BRANCH  12  14
ATOM     14  C   UNL A   1      30.397  26.302  24.754  1.00  0.00     0.193 A 
ATOM     15  C   UNL A   1      32.766  29.327  24.724  1.00  0.00     0.153 C 
ATOM     16  N   UNL A   1      31.668  28.426  24.445  1.00  0.00    -0.314 N 
ATOM     17  C   UNL A   1      30.683  28.766  23.552  1.00  0.00     0.109 A 
ATOM     18  C   UNL A   1      31.618  27.211  25.127  1.00  0.00     0.293 A 
ATOM     19  C   UNL A   1      29.665  27.935  23.309  1.00  0.00     0.131 A 
ATOM     20  O   UNL A   1      32.445  26.886  25.968  1.00  0.00    -0.265 OA
ATOM     21  N   UNL A   1      29.497  26.708  23.886  1.00  0.00    -0.233 NA
ENDBRANCH  12  14
ENDBRANCH   8  12
ENDBRANCH   5   7
ENDBRANCH   4   5
ENDBRANCH   3   4
ENDBRANCH   2   3
ENDBRANCH   1   2
BRANCH   1  22
ATOM     22  C   UNL A   1      37.880  19.899  25.002  1.00  0.00     0.202 C 
BRANCH  22  23
ATOM     23  C   UNL A   1      39.211  19.446  25.613  1.00  0.00     0.261 C 
BRANCH  23  24
ATOM     24  O   UNL A   1      40.130  20.542  25.782  1.00  0.00    -0.460 OA
BRANCH  24  25
ATOM     25  C   UNL A   1      40.826  20.521  26.944  1.00  0.00     0.338 C 
ATOM     26  O   UNL A   1      41.394  19.571  27.453  1.00  0.00    -0.246 OA
BRANCH  25  27
ATOM     27  C   UNL A   1      40.974  21.892  27.466  1.00  0.00     0.060 A 
ATOM     28  C   UNL A   1      40.213  22.898  26.856  1.00  0.00     0.016 A 
ATOM     29  C   UNL A   1      41.911  22.206  28.452  1.00  0.00     0.016 A 
ATOM     30  C   UNL A   1      40.433  24.233  27.183  1.00  0.00     0.010 A 
ATOM     31  C   UNL A   1      42.138  23.548  28.772  1.00  0.00     0.010 A 
ATOM     32  C   UNL A   1      41.434  24.567  28.105  1.00  0.00    -0.014 A 
BRANCH  32  33
ATOM     33  C   UNL A   1      41.868  25.980  28.218  1.00  0.00     0.031 A 
ATOM     34  C   UNL A   1      43.192  26.377  27.624  1.00  0.00     0.074 A 
ATOM     35  C   UNL A   1      41.081  26.903  28.796  1.00  0.00     0.049 A 
ATOM     36  N   UNL A   1      43.790  27.542  27.622  1.00  0.00    -0.248 NA
ATOM     37  C   UNL A   1      43.946  25.313  26.939  1.00  0.00     0.031 C 
ATOM     38  C   UNL A   1      39.760  26.648  29.364  1.00  0.00     0.029 A 
ATOM     39  N   UNL A   1      41.286  28.244  29.001  1.00  0.00    -0.354 N 
ATOM     40  C   UNL A   1      44.988  27.348  26.947  1.00  0.00     0.074 A 
ATOM     41  C   UNL A   1      45.050  25.950  26.581  1.00  0.00     0.031 C 
ATOM     42  C   UNL A   1      39.273  27.798  29.865  1.00  0.00     0.029 A 
ATOM     43  C   UNL A   1      40.263  28.858  29.679  1.00  0.00     0.049 A 
ATOM     44  H   UNL A   1      42.090  28.720  28.694  1.00  0.00     0.167 HD
ATOM     45  C   UNL A   1      45.947  28.258  26.651  1.00  0.00     0.037 A 
ATOM     46  C   UNL A   1      40.150  30.128  30.115  1.00  0.00     0.037 A 
ATOM     47  C   UNL A   1      45.878  29.650  27.011  1.00  0.00     0.049 A 
ATOM     48  C   UNL A   1      41.260  31.107  29.828  1.00  0.00     0.074 A 
ATOM     49  C   UNL A   1      46.790  30.656  26.746  1.00  0.00     0.029 A 
ATOM     50  N   UNL A   1      44.838  30.229  27.721  1.00  0.00    -0.354 N 
ATOM     51  N   UNL A   1      42.381  30.923  29.173  1.00  0.00    -0.248 NA
ATOM     52  C   UNL A   1      41.084  32.474  30.339  1.00  0.00     0.031 C 
ATOM     53  C   UNL A   1      46.324  31.835  27.338  1.00  0.00     0.029 A 
ATOM     54  C   UNL A   1      45.095  31.575  27.923  1.00  0.00     0.049 A 
ATOM     55  H   UNL A   1      44.034  29.755  28.035  1.00  0.00     0.167 HD
ATOM     56  C   UNL A   1      43.025  32.154  29.163  1.00  0.00     0.074 A 
ATOM     57  C   UNL A   1      42.166  33.080  29.870  1.00  0.00     0.031 C 
ATOM     58  C   UNL A   1      44.221  32.487  28.616  1.00  0.00     0.037 A 
BRANCH  45  59
ATOM     59  C   UNL A   1      47.164  27.769  25.923  1.00  0.00     0.064 A 
ATOM     60  C   UNL A   1      48.291  27.287  26.607  1.00  0.00     0.173 A 
ATOM     61  C   UNL A   1      47.194  27.756  24.520  1.00  0.00     0.173 A 
ATOM     62  F   UNL A   1      48.319  27.292  27.947  1.00  0.00    -0.203 F 
ATOM     63  C   UNL A   1      49.411  26.836  25.913  1.00  0.00     0.198 A 
ATOM     64  C   UNL A   1      48.304  27.277  23.830  1.00  0.00     0.198 A 
ATOM     65  F   UNL A   1      46.142  28.203  23.818  1.00  0.00    -0.203 F 
ATOM     66  F   UNL A   1      50.494  26.426  26.588  1.00  0.00    -0.200 F 
ATOM     67  C   UNL A   1      49.414  26.825  24.526  1.00  0.00     0.200 A 
ATOM     68  F   UNL A   1      48.300  27.255  22.490  1.00  0.00    -0.200 F 
ATOM     69  F   UNL A   1      50.490  26.384  23.860  1.00  0.00    -0.200 F 
ENDBRANCH  45  59
BRANCH  46  70
ATOM     70  C   UNL A   1      38.944  30.548  30.875  1.00  0.00     0.064 A 
ATOM     71  C   UNL A   1      37.812  31.051  30.218  1.00  0.00     0.173 A 
ATOM     72  C   UNL A   1      38.907  30.474  32.275  1.00  0.00     0.173 A 
ATOM     73  F   UNL A   1      37.810  31.166  28.882  1.00  0.00    -0.203 F 
ATOM     74  C   UNL A   1      36.697  31.484  30.934  1.00  0.00     0.198 A 
ATOM     75  C   UNL A   1      37.781  30.879  32.988  1.00  0.00     0.198 A 
ATOM     76  F   UNL A   1      39.964  30.003  32.952  1.00  0.00    -0.203 F 
ATOM     77  F   UNL A   1      35.649  32.006  30.285  1.00  0.00    -0.200 F 
ATOM     78  C   UNL A   1      36.681  31.392  32.318  1.00  0.00     0.200 A 
ATOM     79  F   UNL A   1      37.764  30.778  34.324  1.00  0.00    -0.200 F 
ATOM     80  F   UNL A   1      35.608  31.805  33.006  1.00  0.00    -0.200 F 
ENDBRANCH  46  70
BRANCH  58  81
ATOM     81  C   UNL A   1      44.650  33.923  28.715  1.00  0.00     0.064 A 
ATOM     82  C   UNL A   1      45.474  34.379  29.754  1.00  0.00     0.173 A 
ATOM     83  C   UNL A   1      44.266  34.845  27.728  1.00  0.00     0.173 A 
ATOM     84  F   UNL A   1      45.858  33.541  30.728  1.00  0.00    -0.203 F 
ATOM     85  C   UNL A   1      45.875  35.712  29.816  1.00  0.00     0.198 A 
ATOM     86  C   UNL A   1      44.695  36.168  27.777  1.00  0.00     0.198 A 
ATOM     87  F   UNL A   1      43.485  34.458  26.708  1.00  0.00    -0.203 F 
ATOM     88  F   UNL A   1      46.623  36.136  30.844  1.00  0.00    -0.200 F 
ATOM     89  C   UNL A   1      45.492  36.602  28.824  1.00  0.00     0.200 A 
ATOM     90  F   UNL A   1      44.336  37.023  26.809  1.00  0.00    -0.200 F 
ATOM     91  F   UNL A   1      45.886  37.881  28.882  1.00  0.00    -0.200 F 
ENDBRANCH  58  81
ENDBRANCH  32  33
ENDBRANCH  25  27
ENDBRANCH  24  25
ENDBRANCH  23  24
ENDBRANCH  22  23
ENDBRANCH   1  22
TORSDOF 16
ENDMDL
MODEL 3
REMARK VINA RESULT:     -10.8      2.319      3.961
REMARK SMILES Cn1ccnc(N[C@H]2C=C[C@H](C(=O)OCCOCCOC(=O)c3ccc(-c4c5nc(c(-c6c(F)c(F)c(F)c(F)c6F)c6ccc([nH]6)c(-c6c(F)c(F)c(F)c(F)c6F)c6nc(c(-c7c(F)c(F)c(F)c(F)c7F)c7ccc4[nH]7)C=C6)C=C5)cc3)C2)c1=O
REMARK SMILES IDX 17 1 16 2 15 3 14 4 12 5 13 6 11 7 8 8 9 9 86 10 10 11 7 12
REMARK SMILES IDX 6 14 1 15 2 16 3 17 87 18 4 19 88 20 5 21 18 22 19 23 20 24
REMARK SMILES IDX 21 25 22 26 23 27 24 28 85 29 25 30 84 31 26 32 27 33 28 34
REMARK SMILES IDX 78 35 29 36 83 37 77 38 79 39 30 40 82 41 76 42 75 43 31 45
REMARK SMILES IDX 63 46 43 47 62 48 44 49 47 50 61 51 80 52 45 53 46 54 60 56
REMARK SMILES IDX 81 57 48 58 32 59 33 60 41 61 34 62 35 63 39 64 42 65 36 66
REMARK SMILES IDX 37 67 40 68 38 69 64 70 65 71 73 72 66 73 67 74 71 75 74 76
REMARK SMILES IDX 68 77 69 78 72 79 70 80 49 81 50 82 58 83 51 84 52 85 56 86
REMARK SMILES IDX 59 87 53 88 54 89 57 90 55 91
REMARK H PARENT 7 13 79 44 47 55
REMARK Flexibility Score: inf
ROOT
ATOM      1  O   UNL A   1      34.000  30.940  27.239  1.00  0.00    -0.374 OA
ENDROOT
BRANCH   1   2
ATOM      2  C   UNL A   1      34.425  29.636  27.636  1.00  0.00     0.202 C 
BRANCH   2   3
ATOM      3  C   UNL A   1      34.800  28.675  26.505  1.00  0.00     0.261 C 
BRANCH   3   4
ATOM      4  O   UNL A   1      33.725  27.760  26.262  1.00  0.00    -0.463 OA
BRANCH   4   5
ATOM      5  C   UNL A   1      33.495  27.457  24.954  1.00  0.00     0.312 C 
ATOM      6  O   UNL A   1      33.796  26.406  24.404  1.00  0.00    -0.252 OA
BRANCH   5   7
ATOM      7  C   UNL A   1      32.732  28.591  24.289  1.00  0.00     0.124 C 
ATOM      8  C   UNL A   1      30.496  27.972  23.561  1.00  0.00     0.105 C 
ATOM      9  C   UNL A   1      31.436  28.057  22.408  1.00  0.00    -0.006 C 
ATOM     10  C   UNL A   1      31.261  28.561  24.745  1.00  0.00     0.048 C 
ATOM     11  C   UNL A   1      32.670  28.380  22.808  1.00  0.00    -0.014 C 
BRANCH   8  12
ATOM     12  N   UNL A   1      29.248  28.620  23.282  1.00  0.00    -0.359 N 
ATOM     13  H   UNL A   1      28.464  28.092  23.555  1.00  0.00     0.162 HD
BRANCH  12  14
ATOM     14  C   UNL A   1      28.922  29.829  22.712  1.00  0.00     0.193 A 
ATOM     15  C   UNL A   1      28.958  33.649  23.126  1.00  0.00     0.153 C 
ATOM     16  N   UNL A   1      28.772  32.316  22.592  1.00  0.00    -0.314 N 
ATOM     17  C   UNL A   1      28.209  32.120  21.356  1.00  0.00     0.109 A 
ATOM     18  C   UNL A   1      29.156  31.229  23.377  1.00  0.00     0.293 A 
ATOM     19  C   UNL A   1      28.029  30.887  20.875  1.00  0.00     0.131 A 
ATOM     20  O   UNL A   1      29.615  31.351  24.503  1.00  0.00    -0.265 OA
ATOM     21  N   UNL A   1      28.373  29.733  21.521  1.00  0.00    -0.233 NA
ENDBRANCH  12  14
ENDBRANCH   8  12
ENDBRANCH   5   7
ENDBRANCH   4   5
ENDBRANCH   3   4
ENDBRANCH   2   3
ENDBRANCH   1   2
BRANCH   1  22
ATOM     22  C   UNL A   1      32.596  31.182  27.139  1.00  0.00     0.202 C 
BRANCH  22  23
ATOM     23  C   UNL A   1      32.133  32.639  27.252  1.00  0.00     0.261 C 
BRANCH  23  24
ATOM     24  O   UNL A   1      33.240  33.560  27.246  1.00  0.00    -0.460 OA
BRANCH  24  25
ATOM     25  C   UNL A   1      33.294  34.384  28.320  1.00  0.00     0.338 C 
ATOM     26  O   UNL A   1      32.520  35.279  28.610  1.00  0.00    -0.246 OA
BRANCH  25  27
ATOM     27  C   UNL A   1      34.355  33.940  29.242  1.00  0.00     0.060 A 
ATOM     28  C   UNL A   1      35.665  34.354  28.963  1.00  0.00     0.016 A 
ATOM     29  C   UNL A   1      34.096  33.053  30.288  1.00  0.00     0.016 A 
ATOM     30  C   UNL A   1      36.731  33.830  29.688  1.00  0.00     0.010 A 
ATOM     31  C   UNL A   1      35.169  32.520  31.010  1.00  0.00     0.010 A 
ATOM     32  C   UNL A   1      36.491  32.871  30.681  1.00  0.00    -0.014 A 
BRANCH  32  33
ATOM     33  C   UNL A   1      37.633  32.101  31.230  1.00  0.00     0.031 A 
ATOM     34  C   UNL A   1      38.100  32.403  32.628  1.00  0.00     0.074 A 
ATOM     35  C   UNL A   1      38.214  31.120  30.519  1.00  0.00     0.049 A 
ATOM     36  N   UNL A   1      39.090  31.881  33.307  1.00  0.00    -0.248 NA
ATOM     37  C   UNL A   1      37.349  33.438  33.358  1.00  0.00     0.031 C 
ATOM     38  C   UNL A   1      37.820  30.705  29.175  1.00  0.00     0.029 A 
ATOM     39  N   UNL A   1      39.266  30.298  30.832  1.00  0.00    -0.354 N 
ATOM     40  C   UNL A   1      39.084  32.528  34.537  1.00  0.00     0.074 A 
ATOM     41  C   UNL A   1      38.015  33.502  34.501  1.00  0.00     0.031 C 
ATOM     42  C   UNL A   1      38.628  29.708  28.773  1.00  0.00     0.029 A 
ATOM     43  C   UNL A   1      39.613  29.440  29.819  1.00  0.00     0.049 A 
ATOM     44  H   UNL A   1      39.730  30.321  31.701  1.00  0.00     0.167 HD
ATOM     45  C   UNL A   1      39.892  32.321  35.604  1.00  0.00     0.037 A 
ATOM     46  C   UNL A   1      40.625  28.553  29.742  1.00  0.00     0.037 A 
ATOM     47  C   UNL A   1      40.950  31.345  35.638  1.00  0.00     0.049 A 
ATOM     48  C   UNL A   1      41.551  28.386  30.919  1.00  0.00     0.074 A 
ATOM     49  C   UNL A   1      41.816  31.047  36.675  1.00  0.00     0.029 A 
ATOM     50  N   UNL A   1      41.288  30.513  34.582  1.00  0.00    -0.354 N 
ATOM     51  N   UNL A   1      41.528  28.985  32.085  1.00  0.00    -0.248 NA
ATOM     52  C   UNL A   1      42.642  27.411  30.770  1.00  0.00     0.031 C 
ATOM     53  C   UNL A   1      42.710  30.069  36.230  1.00  0.00     0.029 A 
ATOM     54  C   UNL A   1      42.365  29.717  34.935  1.00  0.00     0.049 A 
ATOM     55  H   UNL A   1      40.831  30.490  33.710  1.00  0.00     0.167 HD
ATOM     56  C   UNL A   1      42.575  28.439  32.818  1.00  0.00     0.074 A 
ATOM     57  C   UNL A   1      43.207  27.452  31.968  1.00  0.00     0.031 C 
ATOM     58  C   UNL A   1      42.974  28.728  34.082  1.00  0.00     0.037 A 
BRANCH  45  59
ATOM     59  C   UNL A   1      39.678  33.184  36.812  1.00  0.00     0.064 A 
ATOM     60  C   UNL A   1      38.725  32.863  37.791  1.00  0.00     0.173 A 
ATOM     61  C   UNL A   1      40.458  34.333  37.009  1.00  0.00     0.173 A 
ATOM     62  F   UNL A   1      37.943  31.784  37.643  1.00  0.00    -0.203 F 
ATOM     63  C   UNL A   1      38.543  33.676  38.907  1.00  0.00     0.198 A 
ATOM     64  C   UNL A   1      40.294  35.127  38.141  1.00  0.00     0.198 A 
ATOM     65  F   UNL A   1      41.386  34.683  36.106  1.00  0.00    -0.203 F 
ATOM     66  F   UNL A   1      37.593  33.377  39.804  1.00  0.00    -0.200 F 
ATOM     67  C   UNL A   1      39.331  34.803  39.085  1.00  0.00     0.200 A 
ATOM     68  F   UNL A   1      41.066  36.208  38.317  1.00  0.00    -0.200 F 
ATOM     69  F   UNL A   1      39.160  35.580  40.162  1.00  0.00    -0.200 F 
ENDBRANCH  45  59
BRANCH  46  70
ATOM     70  C   UNL A   1      40.822  27.758  28.502  1.00  0.00     0.064 A 
ATOM     71  C   UNL A   1      41.624  28.233  27.456  1.00  0.00     0.173 A 
ATOM     72  C   UNL A   1      40.195  26.514  28.330  1.00  0.00     0.173 A 
ATOM     73  F   UNL A   1      42.223  29.429  27.562  1.00  0.00    -0.203 F 
ATOM     74  C   UNL A   1      41.775  27.506  26.276  1.00  0.00     0.198 A 
ATOM     75  C   UNL A   1      40.371  25.774  27.163  1.00  0.00     0.198 A 
ATOM     76  F   UNL A   1      39.415  26.015  29.300  1.00  0.00    -0.203 F 
ATOM     77  F   UNL A   1      42.508  28.007  25.273  1.00  0.00    -0.200 F 
ATOM     78  C   UNL A   1      41.153  26.275  26.133  1.00  0.00     0.200 A 
ATOM     79  F   UNL A   1      39.778  24.580  27.033  1.00  0.00    -0.200 F 
ATOM     80  F   UNL A   1      41.301  25.575  25.001  1.00  0.00    -0.200 F 
ENDBRANCH  46  70
BRANCH  58  81
ATOM     81  C   UNL A   1      44.118  27.933  34.643  1.00  0.00     0.064 A 
ATOM     82  C   UNL A   1      45.444  28.384  34.556  1.00  0.00     0.173 A 
ATOM     83  C   UNL A   1      43.878  26.726  35.318  1.00  0.00     0.173 A 
ATOM     84  F   UNL A   1      45.729  29.524  33.911  1.00  0.00    -0.203 F 
ATOM     85  C   UNL A   1      46.489  27.640  35.100  1.00  0.00     0.198 A 
ATOM     86  C   UNL A   1      44.921  26.001  35.887  1.00  0.00     0.198 A 
ATOM     87  F   UNL A   1      42.626  26.256  35.436  1.00  0.00    -0.203 F 
ATOM     88  F   UNL A   1      47.752  28.065  34.964  1.00  0.00    -0.200 F 
ATOM     89  C   UNL A   1      46.225  26.455  35.771  1.00  0.00     0.200 A 
ATOM     90  F   UNL A   1      44.662  24.865  36.548  1.00  0.00    -0.200 F 
ATOM     91  F   UNL A   1      47.232  25.746  36.301  1.00  0.00    -0.200 F 
ENDBRANCH  58  81
ENDBRANCH  32  33
ENDBRANCH  25  27
ENDBRANCH  24  25
ENDBRANCH  23  24
ENDBRANCH  22  23
ENDBRANCH   1  22
TORSDOF 16
ENDMDL
