MODEL 1
REMARK VINA RESULT:     -10.6      0.000      0.000
REMARK SMILES COc1cc(-c2ccc(NC(=O)CCC(=O)OCCOCCOC(=O)c3ccc(-c4c5nc(c(-c6c(F)c(F)c(F)c(F)c6F)c6ccc([nH]6)c(-c6c(F)c(F)c(F)c(F)c6F)c6nc(c(-c7c(F)c(F)c(F)c(F)c7F)c7ccc4[nH]7)C=C6)C=C5)cc3)c(OC)c2)ccc1N
REMARK SMILES IDX 18 1 17 2 15 3 16 4 14 5 13 6 11 7 10 8 12 10 9 11 6 12 7 13
REMARK SMILES IDX 92 14 8 15 89 16 5 17 3 18 4 19 95 20 94 21 93 22 2 23 1 24
REMARK SMILES IDX 96 25 90 28 91 29 19 30 20 31 21 32 22 33 23 34 24 35 25 36
REMARK SMILES IDX 26 37 27 38 88 39 28 40 87 41 29 42 30 43 31 44 81 45 32 46
REMARK SMILES IDX 86 47 80 48 82 49 33 50 85 51 79 52 78 53 34 55 66 56 46 57
REMARK SMILES IDX 65 58 47 59 50 60 64 61 83 62 48 63 49 64 63 66 84 67 51 68
REMARK SMILES IDX 35 69 36 70 44 71 37 72 38 73 42 74 45 75 39 76 40 77 43 78
REMARK SMILES IDX 41 79 67 80 68 81 76 82 69 83 70 84 74 85 77 86 71 87 72 88
REMARK SMILES IDX 75 89 73 90 52 91 53 92 61 93 54 94 55 95 59 96 62 97 56 98
REMARK SMILES IDX 57 99 60 100 58 101
REMARK H PARENT 10 9 96 26 96 27 82 54 50 65
REMARK Flexibility Score: inf
ROOT
ATOM      1  C   UNL A   1      33.957  32.585  28.508  1.00  0.00     0.261 C 
ENDROOT
BRANCH   1   2
ATOM      2  O   UNL A   1      33.547  31.730  27.417  1.00  0.00    -0.463 OA
BRANCH   2   3
ATOM      3  C   UNL A   1      33.884  30.435  27.277  1.00  0.00     0.306 C 
ATOM      4  O   UNL A   1      34.999  29.981  27.489  1.00  0.00    -0.252 OA
BRANCH   3   5
ATOM      5  C   UNL A   1      32.662  29.596  26.881  1.00  0.00     0.132 C 
BRANCH   5   6
ATOM      6  C   UNL A   1      32.941  28.502  25.835  1.00  0.00     0.112 C 
BRANCH   6   7
ATOM      7  C   UNL A   1      31.798  27.983  24.955  1.00  0.00     0.225 C 
ATOM      8  N   UNL A   1      31.840  26.816  24.217  1.00  0.00    -0.323 N 
ATOM      9  H   UNL A   1      31.170  26.786  23.496  1.00  0.00     0.170 HD
ATOM     10  O   UNL A   1      30.832  28.731  24.751  1.00  0.00    -0.275 OA
BRANCH   8  11
ATOM     11  C   UNL A   1      32.647  25.655  24.287  1.00  0.00     0.083 A 
ATOM     12  C   UNL A   1      34.819  23.825  24.527  1.00  0.00    -0.014 A 
ATOM     13  C   UNL A   1      34.408  24.273  23.281  1.00  0.00     0.011 A 
ATOM     14  C   UNL A   1      33.886  24.024  25.546  1.00  0.00     0.057 A 
ATOM     15  C   UNL A   1      33.301  25.149  23.168  1.00  0.00     0.031 A 
ATOM     16  C   UNL A   1      32.799  24.898  25.414  1.00  0.00     0.142 A 
BRANCH  12  17
ATOM     17  C   UNL A   1      36.160  23.266  24.838  1.00  0.00    -0.014 A 
ATOM     18  C   UNL A   1      37.642  21.314  24.990  1.00  0.00     0.142 A 
ATOM     19  C   UNL A   1      36.504  21.954  24.474  1.00  0.00     0.057 A 
ATOM     20  C   UNL A   1      38.547  22.000  25.812  1.00  0.00     0.074 A 
ATOM     21  C   UNL A   1      38.218  23.306  26.184  1.00  0.00     0.030 A 
ATOM     22  C   UNL A   1      37.055  23.933  25.697  1.00  0.00     0.011 A 
BRANCH  18  23
ATOM     23  O   UNL A   1      37.819  20.006  24.604  1.00  0.00    -0.495 OA
ATOM     24  C   UNL A   1      36.689  19.181  24.894  1.00  0.00     0.278 C 
ENDBRANCH  18  23
BRANCH  20  25
ATOM     25  N   UNL A   1      39.668  21.383  26.359  1.00  0.00    -0.396 N 
ATOM     26  H   UNL A   1      39.560  20.690  27.051  1.00  0.00     0.156 HD
ATOM     27  H   UNL A   1      40.569  21.640  26.056  1.00  0.00     0.156 HD
ENDBRANCH  20  25
ENDBRANCH  12  17
BRANCH  16  28
ATOM     28  O   UNL A   1      31.882  24.919  26.407  1.00  0.00    -0.495 OA
ATOM     29  C   UNL A   1      30.880  23.915  26.278  1.00  0.00     0.278 C 
ENDBRANCH  16  28
ENDBRANCH   8  11
ENDBRANCH   6   7
ENDBRANCH   5   6
ENDBRANCH   3   5
ENDBRANCH   2   3
ENDBRANCH   1   2
BRANCH   1  30
ATOM     30  C   UNL A   1      35.084  33.635  28.338  1.00  0.00     0.202 C 
BRANCH  30  31
ATOM     31  O   UNL A   1      35.039  34.845  29.130  1.00  0.00    -0.374 OA
BRANCH  31  32
ATOM     32  C   UNL A   1      33.955  35.719  28.802  1.00  0.00     0.202 C 
BRANCH  32  33
ATOM     33  C   UNL A   1      32.634  35.546  29.610  1.00  0.00     0.261 C 
BRANCH  33  34
ATOM     34  O   UNL A   1      32.379  36.560  30.645  1.00  0.00    -0.460 OA
BRANCH  34  35
ATOM     35  C   UNL A   1      32.392  36.088  31.935  1.00  0.00     0.338 C 
ATOM     36  O   UNL A   1      31.432  36.120  32.697  1.00  0.00    -0.246 OA
BRANCH  35  37
ATOM     37  C   UNL A   1      33.652  35.358  32.331  1.00  0.00     0.060 A 
ATOM     38  C   UNL A   1      33.581  33.965  32.509  1.00  0.00     0.016 A 
ATOM     39  C   UNL A   1      34.901  35.966  32.510  1.00  0.00     0.016 A 
ATOM     40  C   UNL A   1      34.748  33.182  32.700  1.00  0.00     0.010 A 
ATOM     41  C   UNL A   1      36.072  35.180  32.742  1.00  0.00     0.010 A 
ATOM     42  C   UNL A   1      36.025  33.771  32.786  1.00  0.00    -0.014 A 
BRANCH  42  43
ATOM     43  C   UNL A   1      37.250  32.912  33.028  1.00  0.00     0.031 A 
ATOM     44  C   UNL A   1      38.039  33.129  34.299  1.00  0.00     0.074 A 
ATOM     45  C   UNL A   1      37.683  31.920  32.211  1.00  0.00     0.049 A 
ATOM     46  N   UNL A   1      39.095  32.492  34.752  1.00  0.00    -0.248 NA
ATOM     47  C   UNL A   1      37.567  34.210  35.175  1.00  0.00     0.031 C 
ATOM     48  C   UNL A   1      37.067  31.492  30.961  1.00  0.00     0.029 A 
ATOM     49  N   UNL A   1      38.776  31.069  32.329  1.00  0.00    -0.354 N 
ATOM     50  C   UNL A   1      39.400  33.081  35.969  1.00  0.00     0.074 A 
ATOM     51  C   UNL A   1      38.429  34.137  36.177  1.00  0.00     0.031 C 
ATOM     52  C   UNL A   1      37.774  30.474  30.433  1.00  0.00     0.029 A 
ATOM     53  C   UNL A   1      38.928  30.185  31.282  1.00  0.00     0.049 A 
ATOM     54  H   UNL A   1      39.391  31.097  33.097  1.00  0.00     0.167 HD
ATOM     55  C   UNL A   1      40.394  32.794  36.845  1.00  0.00     0.037 A 
ATOM     56  C   UNL A   1      39.882  29.261  31.010  1.00  0.00     0.037 A 
ATOM     57  C   UNL A   1      41.416  31.796  36.676  1.00  0.00     0.049 A 
ATOM     58  C   UNL A   1      41.055  29.047  31.944  1.00  0.00     0.074 A 
ATOM     59  C   UNL A   1      42.447  31.471  37.543  1.00  0.00     0.029 A 
ATOM     60  N   UNL A   1      41.563  30.986  35.565  1.00  0.00    -0.354 N 
ATOM     61  N   UNL A   1      41.289  29.573  33.118  1.00  0.00    -0.248 NA
ATOM     62  C   UNL A   1      42.105  28.106  31.503  1.00  0.00     0.031 C 
ATOM     63  C   UNL A   1      43.253  30.503  36.933  1.00  0.00     0.029 A 
ATOM     64  C   UNL A   1      42.692  30.190  35.708  1.00  0.00     0.049 A 
ATOM     65  H   UNL A   1      40.957  30.975  34.789  1.00  0.00     0.167 HD
ATOM     66  C   UNL A   1      42.483  29.010  33.564  1.00  0.00     0.074 A 
ATOM     67  C   UNL A   1      42.925  28.089  32.545  1.00  0.00     0.031 C 
ATOM     68  C   UNL A   1      43.146  29.249  34.719  1.00  0.00     0.037 A 
BRANCH  55  69
ATOM     69  C   UNL A   1      40.448  33.625  38.088  1.00  0.00     0.064 A 
ATOM     70  C   UNL A   1      39.636  33.335  39.193  1.00  0.00     0.173 A 
ATOM     71  C   UNL A   1      41.337  34.705  38.179  1.00  0.00     0.173 A 
ATOM     72  F   UNL A   1      38.762  32.318  39.141  1.00  0.00    -0.203 F 
ATOM     73  C   UNL A   1      39.697  34.115  40.342  1.00  0.00     0.198 A 
ATOM     74  C   UNL A   1      41.411  35.468  39.338  1.00  0.00     0.198 A 
ATOM     75  F   UNL A   1      42.133  35.013  37.145  1.00  0.00    -0.203 F 
ATOM     76  F   UNL A   1      38.884  33.850  41.374  1.00  0.00    -0.200 F 
ATOM     77  C   UNL A   1      40.587  35.178  40.414  1.00  0.00     0.200 A 
ATOM     78  F   UNL A   1      42.275  36.490  39.411  1.00  0.00    -0.200 F 
ATOM     79  F   UNL A   1      40.644  35.929  41.523  1.00  0.00    -0.200 F 
ENDBRANCH  55  69
BRANCH  56  80
ATOM     80  C   UNL A   1      39.837  28.458  29.750  1.00  0.00     0.064 A 
ATOM     81  C   UNL A   1      39.296  27.162  29.731  1.00  0.00     0.173 A 
ATOM     82  C   UNL A   1      40.456  28.918  28.578  1.00  0.00     0.173 A 
ATOM     83  F   UNL A   1      38.740  26.653  30.840  1.00  0.00    -0.203 F 
ATOM     84  C   UNL A   1      39.403  26.350  28.600  1.00  0.00     0.198 A 
ATOM     85  C   UNL A   1      40.536  28.116  27.440  1.00  0.00     0.198 A 
ATOM     86  F   UNL A   1      41.013  30.136  28.548  1.00  0.00    -0.203 F 
ATOM     87  F   UNL A   1      38.947  25.091  28.637  1.00  0.00    -0.200 F 
ATOM     88  C   UNL A   1      40.021  26.828  27.456  1.00  0.00     0.200 A 
ATOM     89  F   UNL A   1      41.139  28.580  26.337  1.00  0.00    -0.200 F 
ATOM     90  F   UNL A   1      40.143  26.041  26.378  1.00  0.00    -0.200 F 
ENDBRANCH  56  80
BRANCH  68  91
ATOM     91  C   UNL A   1      44.413  28.484  34.993  1.00  0.00     0.064 A 
ATOM     92  C   UNL A   1      45.674  28.996  34.657  1.00  0.00     0.173 A 
ATOM     93  C   UNL A   1      44.369  27.251  35.665  1.00  0.00     0.173 A 
ATOM     94  F   UNL A   1      45.776  30.162  34.002  1.00  0.00    -0.203 F 
ATOM     95  C   UNL A   1      46.841  28.300  34.970  1.00  0.00     0.198 A 
ATOM     96  C   UNL A   1      45.538  26.570  36.001  1.00  0.00     0.198 A 
ATOM     97  F   UNL A   1      43.191  26.715  36.017  1.00  0.00    -0.203 F 
ATOM     98  F   UNL A   1      48.033  28.795  34.610  1.00  0.00    -0.200 F 
ATOM     99  C   UNL A   1      46.773  27.093  35.650  1.00  0.00     0.200 A 
ATOM    100  F   UNL A   1      45.469  25.411  36.669  1.00  0.00    -0.200 F 
ATOM    101  F   UNL A   1      47.896  26.433  35.964  1.00  0.00    -0.200 F 
ENDBRANCH  68  91
ENDBRANCH  42  43
ENDBRANCH  35  37
ENDBRANCH  34  35
ENDBRANCH  33  34
ENDBRANCH  32  33
ENDBRANCH  31  32
ENDBRANCH  30  31
ENDBRANCH   1  30
TORSDOF 21
ENDMDL
MODEL 2
REMARK VINA RESULT:      -9.9      4.488     10.819
REMARK SMILES COc1cc(-c2ccc(NC(=O)CCC(=O)OCCOCCOC(=O)c3ccc(-c4c5nc(c(-c6c(F)c(F)c(F)c(F)c6F)c6ccc([nH]6)c(-c6c(F)c(F)c(F)c(F)c6F)c6nc(c(-c7c(F)c(F)c(F)c(F)c7F)c7ccc4[nH]7)C=C6)C=C5)cc3)c(OC)c2)ccc1N
REMARK SMILES IDX 18 1 17 2 15 3 16 4 14 5 13 6 11 7 10 8 12 10 9 11 6 12 7 13
REMARK SMILES IDX 92 14 8 15 89 16 5 17 3 18 4 19 95 20 94 21 93 22 2 23 1 24
REMARK SMILES IDX 96 25 90 28 91 29 19 30 20 31 21 32 22 33 23 34 24 35 25 36
REMARK SMILES IDX 26 37 27 38 88 39 28 40 87 41 29 42 30 43 31 44 81 45 32 46
REMARK SMILES IDX 86 47 80 48 82 49 33 50 85 51 79 52 78 53 34 55 66 56 46 57
REMARK SMILES IDX 65 58 47 59 50 60 64 61 83 62 48 63 49 64 63 66 84 67 51 68
REMARK SMILES IDX 35 69 36 70 44 71 37 72 38 73 42 74 45 75 39 76 40 77 43 78
REMARK SMILES IDX 41 79 67 80 68 81 76 82 69 83 70 84 74 85 77 86 71 87 72 88
REMARK SMILES IDX 75 89 73 90 52 91 53 92 61 93 54 94 55 95 59 96 62 97 56 98
REMARK SMILES IDX 57 99 60 100 58 101
REMARK H PARENT 10 9 96 26 96 27 82 54 50 65
REMARK Flexibility Score: inf
ROOT
ATOM      1  C   UNL A   1      41.527  21.838  26.372  1.00  0.00     0.261 C 
ENDROOT
BRANCH   1   2
ATOM      2  O   UNL A   1      41.358  23.027  27.177  1.00  0.00    -0.463 OA
BRANCH   2   3
ATOM      3  C   UNL A   1      40.287  23.840  27.144  1.00  0.00     0.306 C 
ATOM      4  O   UNL A   1      39.186  23.521  26.720  1.00  0.00    -0.252 OA
BRANCH   3   5
ATOM      5  C   UNL A   1      40.618  25.200  27.773  1.00  0.00     0.132 C 
BRANCH   5   6
ATOM      6  C   UNL A   1      39.668  26.343  27.377  1.00  0.00     0.112 C 
BRANCH   6   7
ATOM      7  C   UNL A   1      40.203  27.777  27.281  1.00  0.00     0.225 C 
ATOM      8  N   UNL A   1      39.862  28.805  28.138  1.00  0.00    -0.323 N 
ATOM      9  H   UNL A   1      40.046  29.699  27.770  1.00  0.00     0.170 HD
ATOM     10  O   UNL A   1      40.856  28.091  26.276  1.00  0.00    -0.275 OA
BRANCH   8  11
ATOM     11  C   UNL A   1      39.302  28.834  29.439  1.00  0.00     0.083 A 
ATOM     12  C   UNL A   1      38.469  29.584  32.059  1.00  0.00    -0.014 A 
ATOM     13  C   UNL A   1      39.663  28.907  31.865  1.00  0.00     0.011 A 
ATOM     14  C   UNL A   1      37.587  29.517  30.979  1.00  0.00     0.057 A 
ATOM     15  C   UNL A   1      40.048  28.500  30.564  1.00  0.00     0.031 A 
ATOM     16  C   UNL A   1      37.991  29.114  29.700  1.00  0.00     0.142 A 
BRANCH  12  17
ATOM     17  C   UNL A   1      38.136  30.414  33.246  1.00  0.00    -0.014 A 
ATOM     18  C   UNL A   1      37.034  32.397  34.185  1.00  0.00     0.142 A 
ATOM     19  C   UNL A   1      37.168  31.430  33.176  1.00  0.00     0.057 A 
ATOM     20  C   UNL A   1      37.791  32.324  35.362  1.00  0.00     0.074 A 
ATOM     21  C   UNL A   1      38.758  31.320  35.446  1.00  0.00     0.030 A 
ATOM     22  C   UNL A   1      38.920  30.374  34.416  1.00  0.00     0.011 A 
BRANCH  18  23
ATOM     23  O   UNL A   1      36.094  33.374  33.954  1.00  0.00    -0.495 OA
ATOM     24  C   UNL A   1      36.491  34.301  32.942  1.00  0.00     0.278 C 
ENDBRANCH  18  23
BRANCH  20  25
ATOM     25  N   UNL A   1      37.697  33.284  36.366  1.00  0.00    -0.396 N 
ATOM     26  H   UNL A   1      38.479  33.842  36.589  1.00  0.00     0.156 HD
ATOM     27  H   UNL A   1      36.851  33.406  36.853  1.00  0.00     0.156 HD
ENDBRANCH  20  25
ENDBRANCH  12  17
BRANCH  16  28
ATOM     28  O   UNL A   1      37.035  28.955  28.756  1.00  0.00    -0.495 OA
ATOM     29  C   UNL A   1      35.900  29.794  28.951  1.00  0.00     0.278 C 
ENDBRANCH  16  28
ENDBRANCH   8  11
ENDBRANCH   6   7
ENDBRANCH   5   6
ENDBRANCH   3   5
ENDBRANCH   2   3
ENDBRANCH   1   2
BRANCH   1  30
ATOM     30  C   UNL A   1      42.882  21.088  26.307  1.00  0.00     0.202 C 
BRANCH  30  31
ATOM     31  O   UNL A   1      43.423  20.732  25.013  1.00  0.00    -0.374 OA
BRANCH  31  32
ATOM     32  C   UNL A   1      44.713  21.290  24.745  1.00  0.00     0.202 C 
BRANCH  32  33
ATOM     33  C   UNL A   1      44.755  22.639  23.969  1.00  0.00     0.261 C 
BRANCH  33  34
ATOM     34  O   UNL A   1      44.519  23.848  24.774  1.00  0.00    -0.460 OA
BRANCH  34  35
ATOM     35  C   UNL A   1      45.606  24.678  24.907  1.00  0.00     0.338 C 
ATOM     36  O   UNL A   1      46.640  24.579  24.255  1.00  0.00    -0.246 OA
BRANCH  35  37
ATOM     37  C   UNL A   1      45.395  25.858  25.823  1.00  0.00     0.060 A 
ATOM     38  C   UNL A   1      44.083  26.328  26.004  1.00  0.00     0.016 A 
ATOM     39  C   UNL A   1      46.414  26.509  26.530  1.00  0.00     0.016 A 
ATOM     40  C   UNL A   1      43.776  27.308  26.983  1.00  0.00     0.010 A 
ATOM     41  C   UNL A   1      46.108  27.525  27.488  1.00  0.00     0.010 A 
ATOM     42  C   UNL A   1      44.780  27.904  27.771  1.00  0.00    -0.014 A 
BRANCH  42  43
ATOM     43  C   UNL A   1      44.426  28.975  28.782  1.00  0.00     0.031 A 
ATOM     44  C   UNL A   1      44.090  28.549  30.193  1.00  0.00     0.074 A 
ATOM     45  C   UNL A   1      44.424  30.310  28.539  1.00  0.00     0.049 A 
ATOM     46  N   UNL A   1      43.800  29.279  31.245  1.00  0.00    -0.248 NA
ATOM     47  C   UNL A   1      44.087  27.102  30.445  1.00  0.00     0.031 C 
ATOM     48  C   UNL A   1      44.758  30.964  27.279  1.00  0.00     0.029 A 
ATOM     49  N   UNL A   1      44.129  31.377  29.378  1.00  0.00    -0.354 N 
ATOM     50  C   UNL A   1      43.598  28.384  32.284  1.00  0.00     0.074 A 
ATOM     51  C   UNL A   1      43.784  27.056  31.733  1.00  0.00     0.031 C 
ATOM     52  C   UNL A   1      44.653  32.300  27.422  1.00  0.00     0.029 A 
ATOM     53  C   UNL A   1      44.207  32.617  28.777  1.00  0.00     0.049 A 
ATOM     54  H   UNL A   1      43.881  31.258  30.323  1.00  0.00     0.167 HD
ATOM     55  C   UNL A   1      43.281  28.620  33.581  1.00  0.00     0.037 A 
ATOM     56  C   UNL A   1      43.939  33.863  29.237  1.00  0.00     0.037 A 
ATOM     57  C   UNL A   1      43.036  29.905  34.177  1.00  0.00     0.049 A 
ATOM     58  C   UNL A   1      43.462  34.089  30.657  1.00  0.00     0.074 A 
ATOM     59  C   UNL A   1      42.709  30.191  35.493  1.00  0.00     0.029 A 
ATOM     60  N   UNL A   1      43.056  31.114  33.504  1.00  0.00    -0.354 N 
ATOM     61  N   UNL A   1      43.337  33.234  31.638  1.00  0.00    -0.248 NA
ATOM     62  C   UNL A   1      43.079  35.467  31.028  1.00  0.00     0.031 C 
ATOM     63  C   UNL A   1      42.475  31.565  35.606  1.00  0.00     0.029 A 
ATOM     64  C   UNL A   1      42.708  32.141  34.371  1.00  0.00     0.049 A 
ATOM     65  H   UNL A   1      43.284  31.227  32.553  1.00  0.00     0.167 HD
ATOM     66  C   UNL A   1      42.898  33.967  32.737  1.00  0.00     0.074 A 
ATOM     67  C   UNL A   1      42.787  35.342  32.315  1.00  0.00     0.031 C 
ATOM     68  C   UNL A   1      42.610  33.523  33.984  1.00  0.00     0.037 A 
BRANCH  55  69
ATOM     69  C   UNL A   1      43.137  27.419  34.461  1.00  0.00     0.064 A 
ATOM     70  C   UNL A   1      41.889  26.818  34.674  1.00  0.00     0.173 A 
ATOM     71  C   UNL A   1      44.264  26.853  35.076  1.00  0.00     0.173 A 
ATOM     72  F   UNL A   1      40.785  27.337  34.115  1.00  0.00    -0.203 F 
ATOM     73  C   UNL A   1      41.770  25.702  35.495  1.00  0.00     0.198 A 
ATOM     74  C   UNL A   1      44.144  25.724  35.876  1.00  0.00     0.198 A 
ATOM     75  F   UNL A   1      45.476  27.396  34.894  1.00  0.00    -0.203 F 
ATOM     76  F   UNL A   1      40.563  25.165  35.721  1.00  0.00    -0.200 F 
ATOM     77  C   UNL A   1      42.898  25.154  36.091  1.00  0.00     0.200 A 
ATOM     78  F   UNL A   1      45.233  25.190  36.446  1.00  0.00    -0.200 F 
ATOM     79  F   UNL A   1      42.780  24.078  36.881  1.00  0.00    -0.200 F 
ENDBRANCH  55  69
BRANCH  56  80
ATOM     80  C   UNL A   1      44.055  35.054  28.341  1.00  0.00     0.064 A 
ATOM     81  C   UNL A   1      45.287  35.700  28.144  1.00  0.00     0.173 A 
ATOM     82  C   UNL A   1      42.916  35.646  27.776  1.00  0.00     0.173 A 
ATOM     83  F   UNL A   1      46.399  35.205  28.706  1.00  0.00    -0.203 F 
ATOM     84  C   UNL A   1      45.367  36.905  27.444  1.00  0.00     0.198 A 
ATOM     85  C   UNL A   1      43.003  36.835  27.053  1.00  0.00     0.198 A 
ATOM     86  F   UNL A   1      41.711  35.088  27.956  1.00  0.00    -0.203 F 
ATOM     87  F   UNL A   1      46.543  37.539  27.339  1.00  0.00    -0.200 F 
ATOM     88  C   UNL A   1      44.225  37.471  26.898  1.00  0.00     0.200 A 
ATOM     89  F   UNL A   1      41.896  37.382  26.530  1.00  0.00    -0.200 F 
ATOM     90  F   UNL A   1      44.300  38.639  26.245  1.00  0.00    -0.200 F 
ENDBRANCH  56  80
BRANCH  68  91
ATOM     91  C   UNL A   1      42.180  34.525  35.022  1.00  0.00     0.064 A 
ATOM     92  C   UNL A   1      40.835  34.890  35.186  1.00  0.00     0.173 A 
ATOM     93  C   UNL A   1      43.116  35.074  35.913  1.00  0.00     0.173 A 
ATOM     94  F   UNL A   1      39.899  34.407  34.355  1.00  0.00    -0.203 F 
ATOM     95  C   UNL A   1      40.447  35.775  36.190  1.00  0.00     0.198 A 
ATOM     96  C   UNL A   1      42.722  35.938  36.933  1.00  0.00     0.198 A 
ATOM     97  F   UNL A   1      44.415  34.756  35.808  1.00  0.00    -0.203 F 
ATOM     98  F   UNL A   1      39.160  36.134  36.306  1.00  0.00    -0.200 F 
ATOM     99  C   UNL A   1      41.388  36.291  37.069  1.00  0.00     0.200 A 
ATOM    100  F   UNL A   1      43.632  36.424  37.788  1.00  0.00    -0.200 F 
ATOM    101  F   UNL A   1      41.011  37.130  38.044  1.00  0.00    -0.200 F 
ENDBRANCH  68  91
ENDBRANCH  42  43
ENDBRANCH  35  37
ENDBRANCH  34  35
ENDBRANCH  33  34
ENDBRANCH  32  33
ENDBRANCH  31  32
ENDBRANCH  30  31
ENDBRANCH   1  30
TORSDOF 21
ENDMDL
MODEL 3
REMARK VINA RESULT:      -9.8      3.266     10.160
REMARK SMILES COc1cc(-c2ccc(NC(=O)CCC(=O)OCCOCCOC(=O)c3ccc(-c4c5nc(c(-c6c(F)c(F)c(F)c(F)c6F)c6ccc([nH]6)c(-c6c(F)c(F)c(F)c(F)c6F)c6nc(c(-c7c(F)c(F)c(F)c(F)c7F)c7ccc4[nH]7)C=C6)C=C5)cc3)c(OC)c2)ccc1N
REMARK SMILES IDX 18 1 17 2 15 3 16 4 14 5 13 6 11 7 10 8 12 10 9 11 6 12 7 13
REMARK SMILES IDX 92 14 8 15 89 16 5 17 3 18 4 19 95 20 94 21 93 22 2 23 1 24
REMARK SMILES IDX 96 25 90 28 91 29 19 30 20 31 21 32 22 33 23 34 24 35 25 36
REMARK SMILES IDX 26 37 27 38 88 39 28 40 87 41 29 42 30 43 31 44 81 45 32 46
REMARK SMILES IDX 86 47 80 48 82 49 33 50 85 51 79 52 78 53 34 55 66 56 46 57
REMARK SMILES IDX 65 58 47 59 50 60 64 61 83 62 48 63 49 64 63 66 84 67 51 68
REMARK SMILES IDX 35 69 36 70 44 71 37 72 38 73 42 74 45 75 39 76 40 77 43 78
REMARK SMILES IDX 41 79 67 80 68 81 76 82 69 83 70 84 74 85 77 86 71 87 72 88
REMARK SMILES IDX 75 89 73 90 52 91 53 92 61 93 54 94 55 95 59 96 62 97 56 98
REMARK SMILES IDX 57 99 60 100 58 101
REMARK H PARENT 10 9 96 26 96 27 82 54 50 65
REMARK Flexibility Score: inf
ROOT
ATOM      1  C   UNL A   1      38.921  21.745  25.664  1.00  0.00     0.261 C 
ENDROOT
BRANCH   1   2
ATOM      2  O   UNL A   1      37.529  21.363  25.747  1.00  0.00    -0.463 OA
BRANCH   2   3
ATOM      3  C   UNL A   1      36.963  20.342  25.078  1.00  0.00     0.306 C 
ATOM      4  O   UNL A   1      37.559  19.342  24.705  1.00  0.00    -0.252 OA
BRANCH   3   5
ATOM      5  C   UNL A   1      35.457  20.575  24.905  1.00  0.00     0.132 C 
BRANCH   5   6
ATOM      6  C   UNL A   1      34.622  19.294  24.729  1.00  0.00     0.112 C 
BRANCH   6   7
ATOM      7  C   UNL A   1      33.154  19.397  24.298  1.00  0.00     0.225 C 
ATOM      8  N   UNL A   1      32.385  20.542  24.385  1.00  0.00    -0.323 N 
ATOM      9  H   UNL A   1      31.417  20.366  24.355  1.00  0.00     0.170 HD
ATOM     10  O   UNL A   1      32.556  18.353  24.004  1.00  0.00    -0.275 OA
BRANCH   8  11
ATOM     11  C   UNL A   1      32.706  21.915  24.509  1.00  0.00     0.083 A 
ATOM     12  C   UNL A   1      32.610  24.759  24.675  1.00  0.00    -0.014 A 
ATOM     13  C   UNL A   1      32.839  24.130  23.460  1.00  0.00     0.011 A 
ATOM     14  C   UNL A   1      32.815  23.946  25.791  1.00  0.00     0.057 A 
ATOM     15  C   UNL A   1      32.929  22.719  23.395  1.00  0.00     0.031 A 
ATOM     16  C   UNL A   1      32.897  22.551  25.703  1.00  0.00     0.142 A 
BRANCH  12  17
ATOM     17  C   UNL A   1      32.093  26.142  24.841  1.00  0.00    -0.014 A 
ATOM     18  C   UNL A   1      31.386  28.260  23.820  1.00  0.00     0.142 A 
ATOM     19  C   UNL A   1      31.617  26.878  23.743  1.00  0.00     0.057 A 
ATOM     20  C   UNL A   1      31.517  28.949  25.034  1.00  0.00     0.074 A 
ATOM     21  C   UNL A   1      31.990  28.231  26.134  1.00  0.00     0.030 A 
ATOM     22  C   UNL A   1      32.259  26.852  26.046  1.00  0.00     0.011 A 
BRANCH  18  23
ATOM     23  O   UNL A   1      30.990  28.866  22.650  1.00  0.00    -0.495 OA
ATOM     24  C   UNL A   1      29.582  29.106  22.596  1.00  0.00     0.278 C 
ENDBRANCH  18  23
BRANCH  20  25
ATOM     25  N   UNL A   1      31.321  30.323  25.133  1.00  0.00    -0.396 N 
ATOM     26  H   UNL A   1      30.665  30.770  24.549  1.00  0.00     0.156 HD
ATOM     27  H   UNL A   1      31.837  30.849  25.785  1.00  0.00     0.156 HD
ENDBRANCH  20  25
ENDBRANCH  12  17
BRANCH  16  28
ATOM     28  O   UNL A   1      33.228  21.866  26.821  1.00  0.00    -0.495 OA
ATOM     29  C   UNL A   1      32.972  22.584  28.024  1.00  0.00     0.278 C 
ENDBRANCH  16  28
ENDBRANCH   8  11
ENDBRANCH   6   7
ENDBRANCH   5   6
ENDBRANCH   3   5
ENDBRANCH   2   3
ENDBRANCH   1   2
BRANCH   1  30
ATOM     30  C   UNL A   1      39.643  22.443  26.844  1.00  0.00     0.202 C 
BRANCH  30  31
ATOM     31  O   UNL A   1      40.890  21.890  27.326  1.00  0.00    -0.374 OA
BRANCH  31  32
ATOM     32  C   UNL A   1      41.572  21.068  26.374  1.00  0.00     0.202 C 
BRANCH  32  33
ATOM     33  C   UNL A   1      42.828  21.677  25.683  1.00  0.00     0.261 C 
BRANCH  33  34
ATOM     34  O   UNL A   1      42.684  23.057  25.194  1.00  0.00    -0.460 OA
BRANCH  34  35
ATOM     35  C   UNL A   1      43.702  23.908  25.552  1.00  0.00     0.338 C 
ATOM     36  O   UNL A   1      44.809  23.928  25.026  1.00  0.00    -0.246 OA
BRANCH  35  37
ATOM     37  C   UNL A   1      43.322  24.962  26.562  1.00  0.00     0.060 A 
ATOM     38  C   UNL A   1      42.264  24.681  27.445  1.00  0.00     0.016 A 
ATOM     39  C   UNL A   1      43.964  26.199  26.703  1.00  0.00     0.016 A 
ATOM     40  C   UNL A   1      41.964  25.535  28.537  1.00  0.00     0.010 A 
ATOM     41  C   UNL A   1      43.634  27.078  27.781  1.00  0.00     0.010 A 
ATOM     42  C   UNL A   1      42.667  26.737  28.748  1.00  0.00    -0.014 A 
BRANCH  42  43
ATOM     43  C   UNL A   1      42.298  27.648  29.901  1.00  0.00     0.031 A 
ATOM     44  C   UNL A   1      41.048  28.490  29.780  1.00  0.00     0.074 A 
ATOM     45  C   UNL A   1      42.979  27.745  31.071  1.00  0.00     0.049 A 
ATOM     46  N   UNL A   1      40.501  29.310  30.647  1.00  0.00    -0.248 NA
ATOM     47  C   UNL A   1      40.320  28.385  28.509  1.00  0.00     0.031 C 
ATOM     48  C   UNL A   1      44.179  27.003  31.441  1.00  0.00     0.029 A 
ATOM     49  N   UNL A   1      42.736  28.529  32.192  1.00  0.00    -0.354 N 
ATOM     50  C   UNL A   1      39.358  29.804  30.034  1.00  0.00     0.074 A 
ATOM     51  C   UNL A   1      39.300  29.203  28.717  1.00  0.00     0.031 C 
ATOM     52  C   UNL A   1      44.564  27.358  32.682  1.00  0.00     0.029 A 
ATOM     53  C   UNL A   1      43.664  28.386  33.202  1.00  0.00     0.049 A 
ATOM     54  H   UNL A   1      41.966  29.138  32.258  1.00  0.00     0.167 HD
ATOM     55  C   UNL A   1      38.435  30.679  30.500  1.00  0.00     0.037 A 
ATOM     56  C   UNL A   1      43.803  29.009  34.398  1.00  0.00     0.037 A 
ATOM     57  C   UNL A   1      38.461  31.347  31.774  1.00  0.00     0.049 A 
ATOM     58  C   UNL A   1      42.827  30.079  34.842  1.00  0.00     0.074 A 
ATOM     59  C   UNL A   1      37.541  32.247  32.288  1.00  0.00     0.029 A 
ATOM     60  N   UNL A   1      39.461  31.220  32.721  1.00  0.00    -0.354 N 
ATOM     61  N   UNL A   1      41.722  30.484  34.272  1.00  0.00    -0.248 NA
ATOM     62  C   UNL A   1      43.130  30.785  36.103  1.00  0.00     0.031 C 
ATOM     63  C   UNL A   1      38.013  32.709  33.522  1.00  0.00     0.029 A 
ATOM     64  C   UNL A   1      39.200  32.056  33.798  1.00  0.00     0.049 A 
ATOM     65  H   UNL A   1      40.241  30.625  32.642  1.00  0.00     0.167 HD
ATOM     66  C   UNL A   1      41.188  31.458  35.112  1.00  0.00     0.074 A 
ATOM     67  C   UNL A   1      42.078  31.581  36.241  1.00  0.00     0.031 C 
ATOM     68  C   UNL A   1      40.057  32.185  34.946  1.00  0.00     0.037 A 
BRANCH  55  69
ATOM     69  C   UNL A   1      37.302  31.006  29.580  1.00  0.00     0.064 A 
ATOM     70  C   UNL A   1      37.243  32.233  28.906  1.00  0.00     0.173 A 
ATOM     71  C   UNL A   1      36.281  30.072  29.355  1.00  0.00     0.173 A 
ATOM     72  F   UNL A   1      38.193  33.159  29.104  1.00  0.00    -0.203 F 
ATOM     73  C   UNL A   1      36.184  32.524  28.053  1.00  0.00     0.198 A 
ATOM     74  C   UNL A   1      35.237  30.357  28.484  1.00  0.00     0.198 A 
ATOM     75  F   UNL A   1      36.303  28.884  29.978  1.00  0.00    -0.203 F 
ATOM     76  F   UNL A   1      36.122  33.718  27.448  1.00  0.00    -0.200 F 
ATOM     77  C   UNL A   1      35.185  31.584  27.839  1.00  0.00     0.200 A 
ATOM     78  F   UNL A   1      34.276  29.447  28.272  1.00  0.00    -0.200 F 
ATOM     79  F   UNL A   1      34.165  31.866  27.017  1.00  0.00    -0.200 F 
ENDBRANCH  55  69
BRANCH  56  80
ATOM     80  C   UNL A   1      44.956  28.699  35.297  1.00  0.00     0.064 A 
ATOM     81  C   UNL A   1      46.210  29.303  35.108  1.00  0.00     0.173 A 
ATOM     82  C   UNL A   1      44.862  27.695  36.272  1.00  0.00     0.173 A 
ATOM     83  F   UNL A   1      46.368  30.231  34.153  1.00  0.00    -0.203 F 
ATOM     84  C   UNL A   1      47.327  28.894  35.837  1.00  0.00     0.198 A 
ATOM     85  C   UNL A   1      45.974  27.307  37.020  1.00  0.00     0.198 A 
ATOM     86  F   UNL A   1      43.697  27.065  36.476  1.00  0.00    -0.203 F 
ATOM     87  F   UNL A   1      48.527  29.433  35.581  1.00  0.00    -0.200 F 
ATOM     88  C   UNL A   1      47.208  27.897  36.793  1.00  0.00     0.200 A 
ATOM     89  F   UNL A   1      45.855  26.340  37.940  1.00  0.00    -0.200 F 
ATOM     90  F   UNL A   1      48.285  27.490  37.478  1.00  0.00    -0.200 F 
ENDBRANCH  56  80
BRANCH  68  91
ATOM     91  C   UNL A   1      39.668  33.164  36.020  1.00  0.00     0.064 A 
ATOM     92  C   UNL A   1      38.814  32.806  37.074  1.00  0.00     0.173 A 
ATOM     93  C   UNL A   1      40.211  34.459  36.034  1.00  0.00     0.173 A 
ATOM     94  F   UNL A   1      38.255  31.587  37.105  1.00  0.00    -0.203 F 
ATOM     95  C   UNL A   1      38.509  33.709  38.092  1.00  0.00     0.198 A 
ATOM     96  C   UNL A   1      39.925  35.351  37.066  1.00  0.00     0.198 A 
ATOM     97  F   UNL A   1      41.038  34.856  35.055  1.00  0.00    -0.203 F 
ATOM     98  F   UNL A   1      37.666  33.354  39.072  1.00  0.00    -0.200 F 
ATOM     99  C   UNL A   1      39.072  34.977  38.094  1.00  0.00     0.200 A 
ATOM    100  F   UNL A   1      40.481  36.570  37.071  1.00  0.00    -0.200 F 
ATOM    101  F   UNL A   1      38.791  35.838  39.081  1.00  0.00    -0.200 F 
ENDBRANCH  68  91
ENDBRANCH  42  43
ENDBRANCH  35  37
ENDBRANCH  34  35
ENDBRANCH  33  34
ENDBRANCH  32  33
ENDBRANCH  31  32
ENDBRANCH  30  31
ENDBRANCH   1  30
TORSDOF 21
ENDMDL
