MODEL 1
REMARK VINA RESULT:     -11.4      0.000      0.000
REMARK SMILES O=C(OCCOCCOC(=O)c1csc(CNc2ccc(-n3cccn3)nc2)c1)c1ccc(-c2c3nc(c(-c4c(F)c(F)c(F)c(F)c4F)c4ccc([nH]4)c(-c4c(F)c(F)c(F)c(F)c4F)c4nc(c(-c5c(F)c(F)c(F)c(F)c5F)c5ccc2[nH]5)C=C4)C=C3)cc1
REMARK SMILES IDX 7 1 6 2 5 3 4 4 3 5 2 6 1 7 30 8 31 9 92 10 32 11 91 12
REMARK SMILES IDX 33 13 34 14 35 15 85 16 36 17 90 18 84 19 86 20 37 21 89 22
REMARK SMILES IDX 83 23 82 24 38 26 70 27 50 28 69 29 51 30 54 31 68 32 87 33
REMARK SMILES IDX 52 34 53 35 67 37 88 38 55 39 39 40 40 41 48 42 41 43 42 44
REMARK SMILES IDX 46 45 49 46 43 47 44 48 47 49 45 50 71 51 72 52 80 53 73 54
REMARK SMILES IDX 74 55 78 56 81 57 75 58 76 59 79 60 77 61 56 62 57 63 65 64
REMARK SMILES IDX 58 65 59 66 63 67 66 68 60 69 61 70 64 71 62 72 8 73 9 74
REMARK SMILES IDX 10 75 11 76 12 77 13 78 29 79 14 80 15 81 16 82 17 83 18 85
REMARK SMILES IDX 19 86 28 87 20 88 27 89 21 90 22 91 23 92 26 93 24 94 25 95
REMARK H PARENT 86 25 54 36 17 84
REMARK Flexibility Score: inf
ROOT
ATOM      1  C   UNL A   1      39.670  20.761  26.023  1.00  0.00     0.202 C 
ENDROOT
BRANCH   1   2
ATOM      2  O   UNL A   1      40.931  21.175  26.575  1.00  0.00    -0.374 OA
BRANCH   2   3
ATOM      3  C   UNL A   1      41.672  20.149  27.233  1.00  0.00     0.202 C 
BRANCH   3   4
ATOM      4  C   UNL A   1      42.638  19.380  26.337  1.00  0.00     0.261 C 
BRANCH   4   5
ATOM      5  O   UNL A   1      42.979  20.042  25.101  1.00  0.00    -0.460 OA
BRANCH   5   6
ATOM      6  C   UNL A   1      44.226  20.536  24.917  1.00  0.00     0.338 C 
ATOM      7  O   UNL A   1      45.076  19.975  24.239  1.00  0.00    -0.246 OA
BRANCH   6   8
ATOM      8  C   UNL A   1      44.325  21.970  25.279  1.00  0.00     0.060 A 
ATOM      9  C   UNL A   1      45.244  22.439  26.219  1.00  0.00     0.016 A 
ATOM     10  C   UNL A   1      43.380  22.844  24.730  1.00  0.00     0.016 A 
ATOM     11  C   UNL A   1      45.086  23.694  26.771  1.00  0.00     0.010 A 
ATOM     12  C   UNL A   1      43.254  24.128  25.243  1.00  0.00     0.010 A 
ATOM     13  C   UNL A   1      44.048  24.509  26.327  1.00  0.00    -0.014 A 
BRANCH  13  14
ATOM     14  C   UNL A   1      43.838  25.746  27.067  1.00  0.00     0.031 A 
ATOM     15  C   UNL A   1      44.837  26.831  26.858  1.00  0.00     0.074 A 
ATOM     16  C   UNL A   1      42.771  25.925  27.868  1.00  0.00     0.049 A 
ATOM     17  N   UNL A   1      45.525  27.480  27.745  1.00  0.00    -0.248 NA
ATOM     18  C   UNL A   1      45.139  27.205  25.469  1.00  0.00     0.031 C 
ATOM     19  C   UNL A   1      41.585  25.073  27.994  1.00  0.00     0.029 A 
ATOM     20  N   UNL A   1      42.477  26.992  28.661  1.00  0.00    -0.354 N 
ATOM     21  C   UNL A   1      46.243  28.445  27.042  1.00  0.00     0.074 A 
ATOM     22  C   UNL A   1      46.035  28.178  25.642  1.00  0.00     0.031 C 
ATOM     23  C   UNL A   1      40.610  25.770  28.614  1.00  0.00     0.029 A 
ATOM     24  C   UNL A   1      41.147  27.052  29.036  1.00  0.00     0.049 A 
ATOM     25  H   UNL A   1      43.147  27.657  28.942  1.00  0.00     0.167 HD
ATOM     26  C   UNL A   1      46.828  29.511  27.652  1.00  0.00     0.037 A 
ATOM     27  C   UNL A   1      40.508  28.120  29.565  1.00  0.00     0.037 A 
ATOM     28  C   UNL A   1      47.051  29.290  29.053  1.00  0.00     0.049 A 
ATOM     29  C   UNL A   1      41.526  29.038  30.131  1.00  0.00     0.074 A 
ATOM     30  C   UNL A   1      47.798  28.389  29.787  1.00  0.00     0.029 A 
ATOM     31  N   UNL A   1      46.236  29.913  29.961  1.00  0.00    -0.354 N 
ATOM     32  N   UNL A   1      42.231  28.790  31.199  1.00  0.00    -0.248 NA
ATOM     33  C   UNL A   1      42.041  30.099  29.278  1.00  0.00     0.031 C 
ATOM     34  C   UNL A   1      47.059  28.180  30.987  1.00  0.00     0.029 A 
ATOM     35  C   UNL A   1      45.915  28.975  30.907  1.00  0.00     0.049 A 
ATOM     36  H   UNL A   1      45.938  30.851  29.939  1.00  0.00     0.167 HD
ATOM     37  C   UNL A   1      43.469  29.361  30.946  1.00  0.00     0.074 A 
ATOM     38  C   UNL A   1      43.255  30.249  29.810  1.00  0.00     0.031 C 
ATOM     39  C   UNL A   1      44.607  28.851  31.499  1.00  0.00     0.037 A 
BRANCH  26  40
ATOM     40  C   UNL A   1      46.937  30.876  27.027  1.00  0.00     0.064 A 
ATOM     41  C   UNL A   1      48.177  31.545  27.005  1.00  0.00     0.173 A 
ATOM     42  C   UNL A   1      45.810  31.666  26.714  1.00  0.00     0.173 A 
ATOM     43  F   UNL A   1      49.308  30.896  27.321  1.00  0.00    -0.203 F 
ATOM     44  C   UNL A   1      48.270  32.915  26.747  1.00  0.00     0.198 A 
ATOM     45  C   UNL A   1      45.913  33.021  26.404  1.00  0.00     0.198 A 
ATOM     46  F   UNL A   1      44.564  31.183  26.805  1.00  0.00    -0.203 F 
ATOM     47  F   UNL A   1      49.454  33.533  26.851  1.00  0.00    -0.200 F 
ATOM     48  C   UNL A   1      47.138  33.652  26.449  1.00  0.00     0.200 A 
ATOM     49  F   UNL A   1      44.802  33.722  26.139  1.00  0.00    -0.200 F 
ATOM     50  F   UNL A   1      47.218  34.974  26.255  1.00  0.00    -0.200 F 
ENDBRANCH  26  40
BRANCH  27  51
ATOM     51  C   UNL A   1      39.099  28.515  29.346  1.00  0.00     0.064 A 
ATOM     52  C   UNL A   1      38.208  28.646  30.419  1.00  0.00     0.173 A 
ATOM     53  C   UNL A   1      38.661  29.006  28.099  1.00  0.00     0.173 A 
ATOM     54  F   UNL A   1      38.570  28.255  31.649  1.00  0.00    -0.203 F 
ATOM     55  C   UNL A   1      36.951  29.237  30.255  1.00  0.00     0.198 A 
ATOM     56  C   UNL A   1      37.402  29.580  27.933  1.00  0.00     0.198 A 
ATOM     57  F   UNL A   1      39.478  29.022  27.035  1.00  0.00    -0.203 F 
ATOM     58  F   UNL A   1      36.146  29.398  31.314  1.00  0.00    -0.200 F 
ATOM     59  C   UNL A   1      36.551  29.706  29.014  1.00  0.00     0.200 A 
ATOM     60  F   UNL A   1      37.045  30.061  26.734  1.00  0.00    -0.200 F 
ATOM     61  F   UNL A   1      35.367  30.315  28.867  1.00  0.00    -0.200 F 
ENDBRANCH  27  51
BRANCH  39  62
ATOM     62  C   UNL A   1      44.457  27.855  32.611  1.00  0.00     0.064 A 
ATOM     63  C   UNL A   1      44.267  26.480  32.397  1.00  0.00     0.173 A 
ATOM     64  C   UNL A   1      44.658  28.284  33.930  1.00  0.00     0.173 A 
ATOM     65  F   UNL A   1      44.182  25.981  31.157  1.00  0.00    -0.203 F 
ATOM     66  C   UNL A   1      44.222  25.584  33.463  1.00  0.00     0.198 A 
ATOM     67  C   UNL A   1      44.651  27.381  34.990  1.00  0.00     0.198 A 
ATOM     68  F   UNL A   1      44.912  29.578  34.187  1.00  0.00    -0.203 F 
ATOM     69  F   UNL A   1      44.026  24.277  33.235  1.00  0.00    -0.200 F 
ATOM     70  C   UNL A   1      44.420  26.034  34.757  1.00  0.00     0.200 A 
ATOM     71  F   UNL A   1      44.896  27.812  36.236  1.00  0.00    -0.200 F 
ATOM     72  F   UNL A   1      44.419  25.167  35.779  1.00  0.00    -0.200 F 
ENDBRANCH  39  62
ENDBRANCH  13  14
ENDBRANCH   6   8
ENDBRANCH   5   6
ENDBRANCH   4   5
ENDBRANCH   3   4
ENDBRANCH   2   3
ENDBRANCH   1   2
BRANCH   1  73
ATOM     73  C   UNL A   1      38.582  21.831  25.820  1.00  0.00     0.261 C 
BRANCH  73  74
ATOM     74  O   UNL A   1      37.789  21.587  24.636  1.00  0.00    -0.460 OA
BRANCH  74  75
ATOM     75  C   UNL A   1      36.537  21.087  24.861  1.00  0.00     0.339 C 
ATOM     76  O   UNL A   1      36.271  19.924  25.045  1.00  0.00    -0.246 OA
BRANCH  75  77
ATOM     77  C   UNL A   1      35.565  22.166  25.109  1.00  0.00     0.071 A 
ATOM     78  C   UNL A   1      34.838  22.336  26.264  1.00  0.00     0.080 A 
ATOM     79  C   UNL A   1      35.205  23.148  24.123  1.00  0.00     0.033 A 
ATOM     80  S   UNL A   1      33.770  23.673  26.170  1.00  0.00    -0.146 S 
ATOM     81  C   UNL A   1      34.192  23.990  24.539  1.00  0.00     0.025 A 
BRANCH  81  82
ATOM     82  C   UNL A   1      33.503  25.075  23.748  1.00  0.00     0.159 C 
BRANCH  82  83
ATOM     83  N   UNL A   1      33.130  26.241  24.538  1.00  0.00    -0.379 N 
ATOM     84  H   UNL A   1      33.561  26.403  25.408  1.00  0.00     0.160 HD
BRANCH  83  85
ATOM     85  C   UNL A   1      32.172  27.124  24.066  1.00  0.00     0.053 A 
ATOM     86  C   UNL A   1      31.123  26.723  23.241  1.00  0.00     0.031 A 
ATOM     87  C   UNL A   1      32.251  28.489  24.336  1.00  0.00     0.139 A 
ATOM     88  C   UNL A   1      30.187  27.654  22.779  1.00  0.00     0.051 A 
ATOM     89  N   UNL A   1      31.392  29.426  23.872  1.00  0.00    -0.235 NA
ATOM     90  C   UNL A   1      30.349  28.997  23.117  1.00  0.00     0.153 A 
BRANCH  90  91
ATOM     91  N   UNL A   1      29.390  29.963  22.671  1.00  0.00    -0.223 N 
ATOM     92  C   UNL A   1      28.639  30.827  23.448  1.00  0.00     0.117 A 
ATOM     93  N   UNL A   1      29.120  30.143  21.348  1.00  0.00    -0.175 NA
ATOM     94  C   UNL A   1      27.853  31.563  22.594  1.00  0.00     0.042 A 
ATOM     95  C   UNL A   1      28.174  31.079  21.318  1.00  0.00     0.135 A 
ENDBRANCH  90  91
ENDBRANCH  83  85
ENDBRANCH  82  83
ENDBRANCH  81  82
ENDBRANCH  75  77
ENDBRANCH  74  75
ENDBRANCH  73  74
ENDBRANCH   1  73
TORSDOF 18
ENDMDL
MODEL 2
REMARK VINA RESULT:     -11.2      2.211      4.131
REMARK SMILES O=C(OCCOCCOC(=O)c1csc(CNc2ccc(-n3cccn3)nc2)c1)c1ccc(-c2c3nc(c(-c4c(F)c(F)c(F)c(F)c4F)c4ccc([nH]4)c(-c4c(F)c(F)c(F)c(F)c4F)c4nc(c(-c5c(F)c(F)c(F)c(F)c5F)c5ccc2[nH]5)C=C4)C=C3)cc1
REMARK SMILES IDX 7 1 6 2 5 3 4 4 3 5 2 6 1 7 30 8 31 9 92 10 32 11 91 12
REMARK SMILES IDX 33 13 34 14 35 15 85 16 36 17 90 18 84 19 86 20 37 21 89 22
REMARK SMILES IDX 83 23 82 24 38 26 70 27 50 28 69 29 51 30 54 31 68 32 87 33
REMARK SMILES IDX 52 34 53 35 67 37 88 38 55 39 39 40 40 41 48 42 41 43 42 44
REMARK SMILES IDX 46 45 49 46 43 47 44 48 47 49 45 50 71 51 72 52 80 53 73 54
REMARK SMILES IDX 74 55 78 56 81 57 75 58 76 59 79 60 77 61 56 62 57 63 65 64
REMARK SMILES IDX 58 65 59 66 63 67 66 68 60 69 61 70 64 71 62 72 8 73 9 74
REMARK SMILES IDX 10 75 11 76 12 77 13 78 29 79 14 80 15 81 16 82 17 83 18 85
REMARK SMILES IDX 19 86 28 87 20 88 27 89 21 90 22 91 23 92 26 93 24 94 25 95
REMARK H PARENT 86 25 54 36 17 84
REMARK Flexibility Score: inf
ROOT
ATOM      1  C   UNL A   1      39.729  21.171  26.152  1.00  0.00     0.202 C 
ENDROOT
BRANCH   1   2
ATOM      2  O   UNL A   1      41.118  21.310  26.495  1.00  0.00    -0.374 OA
BRANCH   2   3
ATOM      3  C   UNL A   1      41.704  20.173  27.128  1.00  0.00     0.202 C 
BRANCH   3   4
ATOM      4  C   UNL A   1      42.703  19.404  26.269  1.00  0.00     0.261 C 
BRANCH   4   5
ATOM      5  O   UNL A   1      43.114  20.080  25.063  1.00  0.00    -0.460 OA
BRANCH   5   6
ATOM      6  C   UNL A   1      44.373  20.569  24.953  1.00  0.00     0.338 C 
ATOM      7  O   UNL A   1      45.261  20.000  24.333  1.00  0.00    -0.246 OA
BRANCH   6   8
ATOM      8  C   UNL A   1      44.454  22.005  25.310  1.00  0.00     0.060 A 
ATOM      9  C   UNL A   1      45.364  22.487  26.252  1.00  0.00     0.016 A 
ATOM     10  C   UNL A   1      43.501  22.866  24.754  1.00  0.00     0.016 A 
ATOM     11  C   UNL A   1      45.189  23.742  26.799  1.00  0.00     0.010 A 
ATOM     12  C   UNL A   1      43.359  24.151  25.262  1.00  0.00     0.010 A 
ATOM     13  C   UNL A   1      44.144  24.544  26.348  1.00  0.00    -0.014 A 
BRANCH  13  14
ATOM     14  C   UNL A   1      43.917  25.782  27.083  1.00  0.00     0.031 A 
ATOM     15  C   UNL A   1      44.902  26.879  26.870  1.00  0.00     0.074 A 
ATOM     16  C   UNL A   1      42.848  25.950  27.882  1.00  0.00     0.049 A 
ATOM     17  N   UNL A   1      45.581  27.541  27.754  1.00  0.00    -0.248 NA
ATOM     18  C   UNL A   1      45.200  27.252  25.480  1.00  0.00     0.031 C 
ATOM     19  C   UNL A   1      41.674  25.083  28.011  1.00  0.00     0.029 A 
ATOM     20  N   UNL A   1      42.539  27.016  28.671  1.00  0.00    -0.354 N 
ATOM     21  C   UNL A   1      46.286  28.513  27.048  1.00  0.00     0.074 A 
ATOM     22  C   UNL A   1      46.082  28.237  25.648  1.00  0.00     0.031 C 
ATOM     23  C   UNL A   1      40.689  25.769  28.628  1.00  0.00     0.029 A 
ATOM     24  C   UNL A   1      41.209  27.060  29.045  1.00  0.00     0.049 A 
ATOM     25  H   UNL A   1      43.200  27.692  28.949  1.00  0.00     0.167 HD
ATOM     26  C   UNL A   1      46.857  29.589  27.653  1.00  0.00     0.037 A 
ATOM     27  C   UNL A   1      40.555  28.122  29.569  1.00  0.00     0.037 A 
ATOM     28  C   UNL A   1      47.082  29.376  29.055  1.00  0.00     0.049 A 
ATOM     29  C   UNL A   1      41.560  29.055  30.131  1.00  0.00     0.074 A 
ATOM     30  C   UNL A   1      47.840  28.488  29.793  1.00  0.00     0.029 A 
ATOM     31  N   UNL A   1      46.259  29.992  29.960  1.00  0.00    -0.354 N 
ATOM     32  N   UNL A   1      42.267  28.821  31.201  1.00  0.00    -0.248 NA
ATOM     33  C   UNL A   1      42.061  30.119  29.274  1.00  0.00     0.031 C 
ATOM     34  C   UNL A   1      47.103  28.275  30.994  1.00  0.00     0.029 A 
ATOM     35  C   UNL A   1      45.950  29.054  30.910  1.00  0.00     0.049 A 
ATOM     36  H   UNL A   1      45.948  30.926  29.934  1.00  0.00     0.167 HD
ATOM     37  C   UNL A   1      43.498  29.407  30.947  1.00  0.00     0.074 A 
ATOM     38  C   UNL A   1      43.273  30.288  29.806  1.00  0.00     0.031 C 
ATOM     39  C   UNL A   1      44.643  28.915  31.502  1.00  0.00     0.037 A 
BRANCH  26  40
ATOM     40  C   UNL A   1      46.948  30.953  27.022  1.00  0.00     0.064 A 
ATOM     41  C   UNL A   1      48.181  31.634  26.992  1.00  0.00     0.173 A 
ATOM     42  C   UNL A   1      45.811  31.729  26.712  1.00  0.00     0.173 A 
ATOM     43  F   UNL A   1      49.320  30.999  27.305  1.00  0.00    -0.203 F 
ATOM     44  C   UNL A   1      48.258  33.005  26.728  1.00  0.00     0.198 A 
ATOM     45  C   UNL A   1      45.897  33.083  26.396  1.00  0.00     0.198 A 
ATOM     46  F   UNL A   1      44.571  31.232  26.811  1.00  0.00    -0.203 F 
ATOM     47  F   UNL A   1      49.435  33.635  26.824  1.00  0.00    -0.200 F 
ATOM     48  C   UNL A   1      47.116  33.728  26.433  1.00  0.00     0.200 A 
ATOM     49  F   UNL A   1      44.778  33.771  26.134  1.00  0.00    -0.200 F 
ATOM     50  F   UNL A   1      47.181  35.050  26.233  1.00  0.00    -0.200 F 
ENDBRANCH  26  40
BRANCH  27  51
ATOM     51  C   UNL A   1      39.141  28.497  29.348  1.00  0.00     0.064 A 
ATOM     52  C   UNL A   1      38.246  28.612  30.419  1.00  0.00     0.173 A 
ATOM     53  C   UNL A   1      38.698  28.984  28.101  1.00  0.00     0.173 A 
ATOM     54  F   UNL A   1      38.610  28.224  31.650  1.00  0.00    -0.203 F 
ATOM     55  C   UNL A   1      36.981  29.186  30.254  1.00  0.00     0.198 A 
ATOM     56  C   UNL A   1      37.432  29.541  27.933  1.00  0.00     0.198 A 
ATOM     57  F   UNL A   1      39.518  29.014  27.039  1.00  0.00    -0.203 F 
ATOM     58  F   UNL A   1      36.171  29.333  31.311  1.00  0.00    -0.200 F 
ATOM     59  C   UNL A   1      36.577  29.652  29.013  1.00  0.00     0.200 A 
ATOM     60  F   UNL A   1      37.070  30.019  26.735  1.00  0.00    -0.200 F 
ATOM     61  F   UNL A   1      35.384  30.245  28.864  1.00  0.00    -0.200 F 
ENDBRANCH  27  51
BRANCH  39  62
ATOM     62  C   UNL A   1      44.506  27.922  32.618  1.00  0.00     0.064 A 
ATOM     63  C   UNL A   1      44.356  28.289  33.966  1.00  0.00     0.173 A 
ATOM     64  C   UNL A   1      44.376  26.564  32.298  1.00  0.00     0.173 A 
ATOM     65  F   UNL A   1      44.354  29.578  34.332  1.00  0.00    -0.203 F 
ATOM     66  C   UNL A   1      44.143  27.332  34.955  1.00  0.00     0.198 A 
ATOM     67  C   UNL A   1      44.125  25.613  33.284  1.00  0.00     0.198 A 
ATOM     68  F   UNL A   1      44.442  26.164  31.018  1.00  0.00    -0.203 F 
ATOM     69  F   UNL A   1      44.016  27.705  36.237  1.00  0.00    -0.200 F 
ATOM     70  C   UNL A   1      44.022  25.995  34.612  1.00  0.00     0.200 A 
ATOM     71  F   UNL A   1      43.955  24.327  32.943  1.00  0.00    -0.200 F 
ATOM     72  F   UNL A   1      43.775  25.078  35.558  1.00  0.00    -0.200 F 
ENDBRANCH  39  62
ENDBRANCH  13  14
ENDBRANCH   6   8
ENDBRANCH   5   6
ENDBRANCH   4   5
ENDBRANCH   3   4
ENDBRANCH   2   3
ENDBRANCH   1   2
BRANCH   1  73
ATOM     73  C   UNL A   1      38.847  22.433  26.178  1.00  0.00     0.261 C 
BRANCH  73  74
ATOM     74  O   UNL A   1      38.048  22.566  24.981  1.00  0.00    -0.460 OA
BRANCH  74  75
ATOM     75  C   UNL A   1      36.829  21.947  25.018  1.00  0.00     0.339 C 
ATOM     76  O   UNL A   1      36.643  20.784  25.279  1.00  0.00    -0.246 OA
BRANCH  75  77
ATOM     77  C   UNL A   1      35.729  22.925  24.950  1.00  0.00     0.071 A 
ATOM     78  C   UNL A   1      35.300  23.717  25.989  1.00  0.00     0.080 A 
ATOM     79  C   UNL A   1      34.913  23.118  23.784  1.00  0.00     0.033 A 
ATOM     80  S   UNL A   1      33.963  24.696  25.553  1.00  0.00    -0.146 S 
ATOM     81  C   UNL A   1      33.872  24.002  23.988  1.00  0.00     0.025 A 
BRANCH  81  82
ATOM     82  C   UNL A   1      32.773  24.381  23.026  1.00  0.00     0.159 C 
BRANCH  82  83
ATOM     83  N   UNL A   1      31.690  23.410  22.946  1.00  0.00    -0.379 N 
ATOM     84  H   UNL A   1      30.790  23.699  22.670  1.00  0.00     0.160 HD
BRANCH  83  85
ATOM     85  C   UNL A   1      31.923  22.080  23.257  1.00  0.00     0.053 A 
ATOM     86  C   UNL A   1      32.067  21.094  22.283  1.00  0.00     0.031 A 
ATOM     87  C   UNL A   1      31.955  21.642  24.580  1.00  0.00     0.139 A 
ATOM     88  C   UNL A   1      32.287  19.762  22.647  1.00  0.00     0.051 A 
ATOM     89  N   UNL A   1      32.122  20.358  24.973  1.00  0.00    -0.235 NA
ATOM     90  C   UNL A   1      32.314  19.429  24.001  1.00  0.00     0.153 A 
BRANCH  90  91
ATOM     91  N   UNL A   1      32.560  18.074  24.395  1.00  0.00    -0.223 N 
ATOM     92  C   UNL A   1      33.185  17.083  23.660  1.00  0.00     0.117 A 
ATOM     93  N   UNL A   1      32.190  17.608  25.620  1.00  0.00    -0.175 NA
ATOM     94  C   UNL A   1      33.193  15.947  24.433  1.00  0.00     0.042 A 
ATOM     95  C   UNL A   1      32.543  16.324  25.617  1.00  0.00     0.135 A 
ENDBRANCH  90  91
ENDBRANCH  83  85
ENDBRANCH  82  83
ENDBRANCH  81  82
ENDBRANCH  75  77
ENDBRANCH  74  75
ENDBRANCH  73  74
ENDBRANCH   1  73
TORSDOF 18
ENDMDL
MODEL 3
REMARK VINA RESULT:     -11.2      2.039      3.012
REMARK SMILES O=C(OCCOCCOC(=O)c1csc(CNc2ccc(-n3cccn3)nc2)c1)c1ccc(-c2c3nc(c(-c4c(F)c(F)c(F)c(F)c4F)c4ccc([nH]4)c(-c4c(F)c(F)c(F)c(F)c4F)c4nc(c(-c5c(F)c(F)c(F)c(F)c5F)c5ccc2[nH]5)C=C4)C=C3)cc1
REMARK SMILES IDX 7 1 6 2 5 3 4 4 3 5 2 6 1 7 30 8 31 9 92 10 32 11 91 12
REMARK SMILES IDX 33 13 34 14 35 15 85 16 36 17 90 18 84 19 86 20 37 21 89 22
REMARK SMILES IDX 83 23 82 24 38 26 70 27 50 28 69 29 51 30 54 31 68 32 87 33
REMARK SMILES IDX 52 34 53 35 67 37 88 38 55 39 39 40 40 41 48 42 41 43 42 44
REMARK SMILES IDX 46 45 49 46 43 47 44 48 47 49 45 50 71 51 72 52 80 53 73 54
REMARK SMILES IDX 74 55 78 56 81 57 75 58 76 59 79 60 77 61 56 62 57 63 65 64
REMARK SMILES IDX 58 65 59 66 63 67 66 68 60 69 61 70 64 71 62 72 8 73 9 74
REMARK SMILES IDX 10 75 11 76 12 77 13 78 29 79 14 80 15 81 16 82 17 83 18 85
REMARK SMILES IDX 19 86 28 87 20 88 27 89 21 90 22 91 23 92 26 93 24 94 25 95
REMARK H PARENT 86 25 54 36 17 84
REMARK Flexibility Score: inf
ROOT
ATOM      1  C   UNL A   1      39.383  21.974  26.428  1.00  0.00     0.202 C 
ENDROOT
BRANCH   1   2
ATOM      2  O   UNL A   1      40.439  21.185  27.001  1.00  0.00    -0.374 OA
BRANCH   2   3
ATOM      3  C   UNL A   1      40.964  20.165  26.152  1.00  0.00     0.202 C 
BRANCH   3   4
ATOM      4  C   UNL A   1      42.455  20.281  25.854  1.00  0.00     0.261 C 
BRANCH   4   5
ATOM      5  O   UNL A   1      43.088  21.468  26.378  1.00  0.00    -0.460 OA
BRANCH   5   6
ATOM      6  C   UNL A   1      43.076  22.617  25.661  1.00  0.00     0.338 C 
ATOM      7  O   UNL A   1      43.199  22.649  24.444  1.00  0.00    -0.246 OA
BRANCH   6   8
ATOM      8  C   UNL A   1      42.521  23.756  26.429  1.00  0.00     0.060 A 
ATOM      9  C   UNL A   1      41.873  24.826  25.811  1.00  0.00     0.016 A 
ATOM     10  C   UNL A   1      42.767  23.789  27.807  1.00  0.00     0.016 A 
ATOM     11  C   UNL A   1      41.674  26.003  26.503  1.00  0.00     0.010 A 
ATOM     12  C   UNL A   1      42.515  24.954  28.520  1.00  0.00     0.010 A 
ATOM     13  C   UNL A   1      42.059  26.084  27.839  1.00  0.00    -0.014 A 
BRANCH  13  14
ATOM     14  C   UNL A   1      41.975  27.401  28.455  1.00  0.00     0.031 A 
ATOM     15  C   UNL A   1      43.080  28.355  28.155  1.00  0.00     0.074 A 
ATOM     16  C   UNL A   1      40.931  27.764  29.223  1.00  0.00     0.049 A 
ATOM     17  N   UNL A   1      43.829  29.013  28.983  1.00  0.00    -0.248 NA
ATOM     18  C   UNL A   1      43.421  28.562  26.740  1.00  0.00     0.031 C 
ATOM     19  C   UNL A   1      39.664  27.052  29.416  1.00  0.00     0.029 A 
ATOM     20  N   UNL A   1      40.745  28.926  29.907  1.00  0.00    -0.354 N 
ATOM     21  C   UNL A   1      44.642  29.829  28.200  1.00  0.00     0.074 A 
ATOM     22  C   UNL A   1      44.410  29.451  26.829  1.00  0.00     0.031 C 
ATOM     23  C   UNL A   1      38.764  27.900  29.956  1.00  0.00     0.029 A 
ATOM     24  C   UNL A   1      39.428  29.157  30.260  1.00  0.00     0.049 A 
ATOM     25  H   UNL A   1      41.479  29.544  30.131  1.00  0.00     0.167 HD
ATOM     26  C   UNL A   1      45.332  30.884  28.711  1.00  0.00     0.037 A 
ATOM     27  C   UNL A   1      38.900  30.329  30.678  1.00  0.00     0.037 A 
ATOM     28  C   UNL A   1      45.529  30.777  30.129  1.00  0.00     0.049 A 
ATOM     29  C   UNL A   1      40.005  31.189  31.164  1.00  0.00     0.074 A 
ATOM     30  C   UNL A   1      46.179  29.879  30.954  1.00  0.00     0.029 A 
ATOM     31  N   UNL A   1      44.781  31.563  30.965  1.00  0.00    -0.354 N 
ATOM     32  N   UNL A   1      40.680  30.975  32.259  1.00  0.00    -0.248 NA
ATOM     33  C   UNL A   1      40.627  32.106  30.220  1.00  0.00     0.031 C 
ATOM     34  C   UNL A   1      45.421  29.863  32.161  1.00  0.00     0.029 A 
ATOM     35  C   UNL A   1      44.365  30.757  31.992  1.00  0.00     0.049 A 
ATOM     36  H   UNL A   1      44.580  32.520  30.850  1.00  0.00     0.167 HD
ATOM     37  C   UNL A   1      41.970  31.391  31.967  1.00  0.00     0.074 A 
ATOM     38  C   UNL A   1      41.849  32.183  30.749  1.00  0.00     0.031 C 
ATOM     39  C   UNL A   1      43.050  30.824  32.579  1.00  0.00     0.037 A 
BRANCH  26  40
ATOM     40  C   UNL A   1      45.580  32.164  27.960  1.00  0.00     0.064 A 
ATOM     41  C   UNL A   1      44.495  32.969  27.561  1.00  0.00     0.173 A 
ATOM     42  C   UNL A   1      46.823  32.474  27.368  1.00  0.00     0.173 A 
ATOM     43  F   UNL A   1      43.262  32.737  28.037  1.00  0.00    -0.203 F 
ATOM     44  C   UNL A   1      44.636  33.970  26.596  1.00  0.00     0.198 A 
ATOM     45  C   UNL A   1      46.971  33.509  26.446  1.00  0.00     0.198 A 
ATOM     46  F   UNL A   1      47.910  31.720  27.575  1.00  0.00    -0.203 F 
ATOM     47  F   UNL A   1      43.556  34.632  26.161  1.00  0.00    -0.200 F 
ATOM     48  C   UNL A   1      45.873  34.238  26.038  1.00  0.00     0.200 A 
ATOM     49  F   UNL A   1      48.174  33.739  25.901  1.00  0.00    -0.200 F 
ATOM     50  F   UNL A   1      46.000  35.159  25.075  1.00  0.00    -0.200 F 
ENDBRANCH  26  40
BRANCH  27  51
ATOM     51  C   UNL A   1      37.539  30.842  30.406  1.00  0.00     0.064 A 
ATOM     52  C   UNL A   1      36.704  31.267  31.447  1.00  0.00     0.173 A 
ATOM     53  C   UNL A   1      37.119  31.149  29.095  1.00  0.00     0.173 A 
ATOM     54  F   UNL A   1      37.059  31.064  32.724  1.00  0.00    -0.203 F 
ATOM     55  C   UNL A   1      35.518  31.963  31.193  1.00  0.00     0.198 A 
ATOM     56  C   UNL A   1      35.930  31.828  28.842  1.00  0.00     0.198 A 
ATOM     57  F   UNL A   1      37.898  30.877  28.038  1.00  0.00    -0.203 F 
ATOM     58  F   UNL A   1      34.771  32.405  32.213  1.00  0.00    -0.200 F 
ATOM     59  C   UNL A   1      35.134  32.245  29.891  1.00  0.00     0.200 A 
ATOM     60  F   UNL A   1      35.591  32.125  27.580  1.00  0.00    -0.200 F 
ATOM     61  F   UNL A   1      34.022  32.954  29.649  1.00  0.00    -0.200 F 
ENDBRANCH  27  51
BRANCH  39  62
ATOM     62  C   UNL A   1      42.798  29.960  33.779  1.00  0.00     0.064 A 
ATOM     63  C   UNL A   1      42.816  30.444  35.098  1.00  0.00     0.173 A 
ATOM     64  C   UNL A   1      42.382  28.637  33.580  1.00  0.00     0.173 A 
ATOM     65  F   UNL A   1      43.093  31.729  35.356  1.00  0.00    -0.203 F 
ATOM     66  C   UNL A   1      42.488  29.621  36.173  1.00  0.00     0.198 A 
ATOM     67  C   UNL A   1      42.018  27.827  34.653  1.00  0.00     0.198 A 
ATOM     68  F   UNL A   1      42.280  28.142  32.336  1.00  0.00    -0.203 F 
ATOM     69  F   UNL A   1      42.526  30.102  37.424  1.00  0.00    -0.200 F 
ATOM     70  C   UNL A   1      42.084  28.315  35.949  1.00  0.00     0.200 A 
ATOM     71  F   UNL A   1      41.575  26.582  34.429  1.00  0.00    -0.200 F 
ATOM     72  F   UNL A   1      41.727  27.536  36.979  1.00  0.00    -0.200 F 
ENDBRANCH  39  62
ENDBRANCH  13  14
ENDBRANCH   6   8
ENDBRANCH   5   6
ENDBRANCH   4   5
ENDBRANCH   3   4
ENDBRANCH   2   3
ENDBRANCH   1   2
BRANCH   1  73
ATOM     73  C   UNL A   1      38.357  21.265  25.524  1.00  0.00     0.261 C 
BRANCH  73  74
ATOM     74  O   UNL A   1      37.013  21.748  25.739  1.00  0.00    -0.460 OA
BRANCH  74  75
ATOM     75  C   UNL A   1      36.421  22.341  24.658  1.00  0.00     0.339 C 
ATOM     76  O   UNL A   1      36.925  22.465  23.568  1.00  0.00    -0.246 OA
BRANCH  75  77
ATOM     77  C   UNL A   1      34.990  22.589  24.899  1.00  0.00     0.071 A 
ATOM     78  C   UNL A   1      34.350  22.465  26.109  1.00  0.00     0.080 A 
ATOM     79  C   UNL A   1      34.061  22.931  23.857  1.00  0.00     0.033 A 
ATOM     80  S   UNL A   1      32.671  22.787  25.995  1.00  0.00    -0.146 S 
ATOM     81  C   UNL A   1      32.753  23.003  24.296  1.00  0.00     0.025 A 
BRANCH  81  82
ATOM     82  C   UNL A   1      31.511  23.251  23.477  1.00  0.00     0.159 C 
BRANCH  82  83
ATOM     83  N   UNL A   1      31.638  24.338  22.516  1.00  0.00    -0.379 N 
ATOM     84  H   UNL A   1      32.195  24.221  21.712  1.00  0.00     0.160 HD
BRANCH  83  85
ATOM     85  C   UNL A   1      30.976  25.537  22.729  1.00  0.00     0.053 A 
ATOM     86  C   UNL A   1      29.948  25.672  23.660  1.00  0.00     0.031 A 
ATOM     87  C   UNL A   1      31.260  26.666  21.963  1.00  0.00     0.139 A 
ATOM     88  C   UNL A   1      29.301  26.901  23.830  1.00  0.00     0.051 A 
ATOM     89  N   UNL A   1      30.628  27.858  22.066  1.00  0.00    -0.235 NA
ATOM     90  C   UNL A   1      29.669  27.974  23.019  1.00  0.00     0.153 A 
BRANCH  90  91
ATOM     91  N   UNL A   1      29.033  29.245  23.193  1.00  0.00    -0.223 N 
ATOM     92  C   UNL A   1      27.718  29.575  22.918  1.00  0.00     0.117 A 
ATOM     93  N   UNL A   1      29.707  30.318  23.693  1.00  0.00    -0.175 NA
ATOM     94  C   UNL A   1      27.557  30.903  23.233  1.00  0.00     0.042 A 
ATOM     95  C   UNL A   1      28.821  31.313  23.680  1.00  0.00     0.135 A 
ENDBRANCH  90  91
ENDBRANCH  83  85
ENDBRANCH  82  83
ENDBRANCH  81  82
ENDBRANCH  75  77
ENDBRANCH  74  75
ENDBRANCH  73  74
ENDBRANCH   1  73
TORSDOF 18
ENDMDL
