MODEL 1
REMARK VINA RESULT:     -11.3      0.000      0.000
REMARK SMILES CCc1ccc(C[N@H+]2CC[C@@H](C(=O)OCCOCCOC(=O)c3ccc(-c4c5nc(c(-c6c(F)c(F)c(F)c(F)c6F)c6ccc([nH]6)c(-c6c(F)c(F)c(F)c(F)c6F)c6nc(c(-c7c(F)c(F)c(F)c(F)c7F)c7ccc4[nH]7)C=C6)C=C5)cc3)[C@@H]2C)cc1
REMARK SMILES IDX 16 1 15 2 14 3 12 4 13 5 11 6 8 7 9 8 86 9 10 11 87 12 7 13
REMARK SMILES IDX 6 14 3 15 4 16 89 17 5 18 88 19 2 20 1 21 17 22 18 23 19 24
REMARK SMILES IDX 20 25 21 26 22 27 23 28 24 29 85 30 25 31 84 32 26 33 27 34
REMARK SMILES IDX 28 35 78 36 29 37 83 38 77 39 79 40 30 41 82 42 76 43 75 44
REMARK SMILES IDX 31 46 63 47 43 48 62 49 44 50 47 51 61 52 80 53 45 54 46 55
REMARK SMILES IDX 60 57 81 58 48 59 32 60 33 61 41 62 34 63 35 64 39 65 42 66
REMARK SMILES IDX 36 67 37 68 40 69 38 70 64 71 65 72 73 73 66 74 67 75 71 76
REMARK SMILES IDX 74 77 68 78 69 79 72 80 70 81 49 82 50 83 58 84 51 85 52 86
REMARK SMILES IDX 56 87 59 88 53 89 54 90 57 91 55 92
REMARK H PARENT 8 10 79 45 47 56
REMARK Flexibility Score: inf
ROOT
ATOM      1  C   UNL A   1      33.244  30.754  26.857  1.00  0.00     0.202 C 
ENDROOT
BRANCH   1   2
ATOM      2  C   UNL A   1      33.723  29.442  27.487  1.00  0.00     0.261 C 
BRANCH   2   3
ATOM      3  O   UNL A   1      33.386  28.315  26.651  1.00  0.00    -0.463 OA
BRANCH   3   4
ATOM      4  C   UNL A   1      32.309  27.574  27.017  1.00  0.00     0.315 C 
ATOM      5  O   UNL A   1      31.604  27.803  27.991  1.00  0.00    -0.252 OA
BRANCH   4   6
ATOM      6  C   UNL A   1      32.058  26.401  26.089  1.00  0.00     0.162 C 
ATOM      7  N   UNL A   1      31.044  25.930  23.941  1.00  0.00    -0.328 N 
ATOM      8  C   UNL A   1      32.439  25.489  23.938  1.00  0.00     0.263 C 
ATOM      9  C   UNL A   1      30.738  26.424  25.301  1.00  0.00     0.195 C 
ATOM     10  H   UNL A   1      30.431  25.139  23.740  1.00  0.00     0.348 HD
ATOM     11  C   UNL A   1      33.135  26.280  25.028  1.00  0.00     0.083 C 
ATOM     12  C   UNL A   1      29.698  25.494  25.935  1.00  0.00     0.076 C 
BRANCH   7  13
ATOM     13  C   UNL A   1      30.677  26.831  22.829  1.00  0.00     0.299 C 
BRANCH  13  14
ATOM     14  C   UNL A   1      29.856  28.055  23.185  1.00  0.00     0.006 A 
ATOM     15  C   UNL A   1      28.426  30.487  23.369  1.00  0.00    -0.048 A 
ATOM     16  C   UNL A   1      29.786  30.427  23.682  1.00  0.00     0.004 A 
ATOM     17  C   UNL A   1      27.757  29.287  23.108  1.00  0.00     0.004 A 
ATOM     18  C   UNL A   1      30.492  29.227  23.602  1.00  0.00     0.010 A 
ATOM     19  C   UNL A   1      28.465  28.080  23.024  1.00  0.00     0.010 A 
BRANCH  15  20
ATOM     20  C   UNL A   1      27.783  31.832  23.132  1.00  0.00     0.032 C 
ATOM     21  C   UNL A   1      28.722  33.004  22.926  1.00  0.00     0.009 C 
ENDBRANCH  15  20
ENDBRANCH  13  14
ENDBRANCH   7  13
ENDBRANCH   4   6
ENDBRANCH   3   4
ENDBRANCH   2   3
ENDBRANCH   1   2
BRANCH   1  22
ATOM     22  O   UNL A   1      31.829  30.946  26.869  1.00  0.00    -0.374 OA
BRANCH  22  23
ATOM     23  C   UNL A   1      31.379  32.294  26.766  1.00  0.00     0.202 C 
BRANCH  23  24
ATOM     24  C   UNL A   1      32.456  33.363  26.976  1.00  0.00     0.261 C 
BRANCH  24  25
ATOM     25  O   UNL A   1      32.423  33.917  28.306  1.00  0.00    -0.460 OA
BRANCH  25  26
ATOM     26  C   UNL A   1      33.484  34.694  28.628  1.00  0.00     0.338 C 
ATOM     27  O   UNL A   1      33.504  35.910  28.735  1.00  0.00    -0.246 OA
BRANCH  26  28
ATOM     28  C   UNL A   1      34.642  33.847  28.986  1.00  0.00     0.060 A 
ATOM     29  C   UNL A   1      34.386  32.635  29.640  1.00  0.00     0.016 A 
ATOM     30  C   UNL A   1      35.956  34.238  28.717  1.00  0.00     0.016 A 
ATOM     31  C   UNL A   1      35.445  31.826  30.056  1.00  0.00     0.010 A 
ATOM     32  C   UNL A   1      37.016  33.428  29.136  1.00  0.00     0.010 A 
ATOM     33  C   UNL A   1      36.769  32.235  29.838  1.00  0.00    -0.014 A 
BRANCH  33  34
ATOM     34  C   UNL A   1      37.888  31.502  30.484  1.00  0.00     0.031 A 
ATOM     35  C   UNL A   1      38.203  31.785  31.924  1.00  0.00     0.074 A 
ATOM     36  C   UNL A   1      38.611  30.588  29.814  1.00  0.00     0.049 A 
ATOM     37  N   UNL A   1      39.151  31.295  32.680  1.00  0.00    -0.248 NA
ATOM     38  C   UNL A   1      37.341  32.769  32.597  1.00  0.00     0.031 C 
ATOM     39  C   UNL A   1      38.405  30.229  28.419  1.00  0.00     0.029 A 
ATOM     40  N   UNL A   1      39.662  29.797  30.214  1.00  0.00    -0.354 N 
ATOM     41  C   UNL A   1      39.012  31.922  33.909  1.00  0.00     0.074 A 
ATOM     42  C   UNL A   1      37.909  32.850  33.790  1.00  0.00     0.031 C 
ATOM     43  C   UNL A   1      39.284  29.270  28.079  1.00  0.00     0.029 A 
ATOM     44  C   UNL A   1      40.145  28.979  29.221  1.00  0.00     0.049 A 
ATOM     45  H   UNL A   1      40.035  29.817  31.124  1.00  0.00     0.167 HD
ATOM     46  C   UNL A   1      39.739  31.737  35.036  1.00  0.00     0.037 A 
ATOM     47  C   UNL A   1      41.174  28.108  29.223  1.00  0.00     0.037 A 
ATOM     48  C   UNL A   1      40.843  30.819  35.147  1.00  0.00     0.049 A 
ATOM     49  C   UNL A   1      42.001  27.959  30.475  1.00  0.00     0.074 A 
ATOM     50  C   UNL A   1      41.636  30.555  36.249  1.00  0.00     0.029 A 
ATOM     51  N   UNL A   1      41.318  30.023  34.114  1.00  0.00    -0.354 N 
ATOM     52  N   UNL A   1      41.846  28.536  31.643  1.00  0.00    -0.248 NA
ATOM     53  C   UNL A   1      43.154  27.050  30.406  1.00  0.00     0.031 C 
ATOM     54  C   UNL A   1      42.627  29.646  35.868  1.00  0.00     0.029 A 
ATOM     55  C   UNL A   1      42.409  29.287  34.547  1.00  0.00     0.049 A 
ATOM     56  H   UNL A   1      40.935  29.986  33.208  1.00  0.00     0.167 HD
ATOM     57  C   UNL A   1      42.863  28.044  32.451  1.00  0.00     0.074 A 
ATOM     58  C   UNL A   1      43.619  27.107  31.647  1.00  0.00     0.031 C 
ATOM     59  C   UNL A   1      43.146  28.346  33.741  1.00  0.00     0.037 A 
BRANCH  46  60
ATOM     60  C   UNL A   1      39.382  32.576  36.228  1.00  0.00     0.064 A 
ATOM     61  C   UNL A   1      39.968  33.831  36.451  1.00  0.00     0.173 A 
ATOM     62  C   UNL A   1      38.433  32.122  37.156  1.00  0.00     0.173 A 
ATOM     63  F   UNL A   1      40.894  34.305  35.603  1.00  0.00    -0.203 F 
ATOM     64  C   UNL A   1      39.646  34.583  37.578  1.00  0.00     0.198 A 
ATOM     65  C   UNL A   1      38.085  32.892  38.262  1.00  0.00     0.198 A 
ATOM     66  F   UNL A   1      37.839  30.931  36.990  1.00  0.00    -0.203 F 
ATOM     67  F   UNL A   1      40.264  35.751  37.802  1.00  0.00    -0.200 F 
ATOM     68  C   UNL A   1      38.700  34.117  38.478  1.00  0.00     0.200 A 
ATOM     69  F   UNL A   1      37.161  32.446  39.123  1.00  0.00    -0.200 F 
ATOM     70  F   UNL A   1      38.387  34.843  39.559  1.00  0.00    -0.200 F 
ENDBRANCH  46  60
BRANCH  47  71
ATOM     71  C   UNL A   1      41.495  27.313  28.005  1.00  0.00     0.064 A 
ATOM     72  C   UNL A   1      40.950  26.036  27.812  1.00  0.00     0.173 A 
ATOM     73  C   UNL A   1      42.370  27.799  27.020  1.00  0.00     0.173 A 
ATOM     74  F   UNL A   1      40.130  25.511  28.735  1.00  0.00    -0.203 F 
ATOM     75  C   UNL A   1      41.282  25.269  26.695  1.00  0.00     0.198 A 
ATOM     76  C   UNL A   1      42.671  27.047  25.887  1.00  0.00     0.198 A 
ATOM     77  F   UNL A   1      42.925  29.012  27.154  1.00  0.00    -0.203 F 
ATOM     78  F   UNL A   1      40.788  24.030  26.566  1.00  0.00    -0.200 F 
ATOM     79  C   UNL A   1      42.135  25.778  25.730  1.00  0.00     0.200 A 
ATOM     80  F   UNL A   1      43.485  27.550  24.948  1.00  0.00    -0.200 F 
ATOM     81  F   UNL A   1      42.449  25.043  24.654  1.00  0.00    -0.200 F 
ENDBRANCH  47  71
BRANCH  59  82
ATOM     82  C   UNL A   1      44.293  27.624  34.390  1.00  0.00     0.064 A 
ATOM     83  C   UNL A   1      44.142  26.353  34.962  1.00  0.00     0.173 A 
ATOM     84  C   UNL A   1      45.577  28.192  34.385  1.00  0.00     0.173 A 
ATOM     85  F   UNL A   1      42.933  25.771  35.007  1.00  0.00    -0.203 F 
ATOM     86  C   UNL A   1      45.229  25.686  35.521  1.00  0.00     0.198 A 
ATOM     87  C   UNL A   1      46.667  27.508  34.914  1.00  0.00     0.198 A 
ATOM     88  F   UNL A   1      45.778  29.404  33.845  1.00  0.00    -0.203 F 
ATOM     89  F   UNL A   1      45.053  24.490  36.101  1.00  0.00    -0.200 F 
ATOM     90  C   UNL A   1      46.492  26.258  35.486  1.00  0.00     0.200 A 
ATOM     91  F   UNL A   1      47.889  28.057  34.864  1.00  0.00    -0.200 F 
ATOM     92  F   UNL A   1      47.539  25.607  36.011  1.00  0.00    -0.200 F 
ENDBRANCH  59  82
ENDBRANCH  33  34
ENDBRANCH  26  28
ENDBRANCH  25  26
ENDBRANCH  24  25
ENDBRANCH  23  24
ENDBRANCH  22  23
ENDBRANCH   1  22
TORSDOF 17
ENDMDL
MODEL 2
REMARK VINA RESULT:     -11.1      0.788      7.511
REMARK SMILES CCc1ccc(C[N@H+]2CC[C@@H](C(=O)OCCOCCOC(=O)c3ccc(-c4c5nc(c(-c6c(F)c(F)c(F)c(F)c6F)c6ccc([nH]6)c(-c6c(F)c(F)c(F)c(F)c6F)c6nc(c(-c7c(F)c(F)c(F)c(F)c7F)c7ccc4[nH]7)C=C6)C=C5)cc3)[C@@H]2C)cc1
REMARK SMILES IDX 16 1 15 2 14 3 12 4 13 5 11 6 8 7 9 8 86 9 10 11 87 12 7 13
REMARK SMILES IDX 6 14 3 15 4 16 89 17 5 18 88 19 2 20 1 21 17 22 18 23 19 24
REMARK SMILES IDX 20 25 21 26 22 27 23 28 24 29 85 30 25 31 84 32 26 33 27 34
REMARK SMILES IDX 28 35 78 36 29 37 83 38 77 39 79 40 30 41 82 42 76 43 75 44
REMARK SMILES IDX 31 46 63 47 43 48 62 49 44 50 47 51 61 52 80 53 45 54 46 55
REMARK SMILES IDX 60 57 81 58 48 59 32 60 33 61 41 62 34 63 35 64 39 65 42 66
REMARK SMILES IDX 36 67 37 68 40 69 38 70 64 71 65 72 73 73 66 74 67 75 71 76
REMARK SMILES IDX 74 77 68 78 69 79 72 80 70 81 49 82 50 83 58 84 51 85 52 86
REMARK SMILES IDX 56 87 59 88 53 89 54 90 57 91 55 92
REMARK H PARENT 8 10 79 45 47 56
REMARK Flexibility Score: inf
ROOT
ATOM      1  C   UNL A   1      33.361  30.810  27.055  1.00  0.00     0.202 C 
ENDROOT
BRANCH   1   2
ATOM      2  C   UNL A   1      33.806  29.459  27.624  1.00  0.00     0.261 C 
BRANCH   2   3
ATOM      3  O   UNL A   1      33.465  28.383  26.724  1.00  0.00    -0.463 OA
BRANCH   3   4
ATOM      4  C   UNL A   1      32.365  27.649  27.027  1.00  0.00     0.315 C 
ATOM      5  O   UNL A   1      31.609  27.879  27.962  1.00  0.00    -0.252 OA
BRANCH   4   6
ATOM      6  C   UNL A   1      32.156  26.482  26.081  1.00  0.00     0.162 C 
ATOM      7  N   UNL A   1      31.171  26.011  23.919  1.00  0.00    -0.328 N 
ATOM      8  C   UNL A   1      32.579  25.613  23.919  1.00  0.00     0.263 C 
ATOM      9  C   UNL A   1      30.841  26.477  25.283  1.00  0.00     0.195 C 
ATOM     10  H   UNL A   1      30.584  25.205  23.702  1.00  0.00     0.348 HD
ATOM     11  C   UNL A   1      33.243  26.409  25.026  1.00  0.00     0.083 C 
ATOM     12  C   UNL A   1      29.826  25.506  25.897  1.00  0.00     0.076 C 
BRANCH   7  13
ATOM     13  C   UNL A   1      30.785  26.916  22.817  1.00  0.00     0.299 C 
BRANCH  13  14
ATOM     14  C   UNL A   1      29.919  28.107  23.183  1.00  0.00     0.006 A 
ATOM     15  C   UNL A   1      28.433  30.501  23.402  1.00  0.00    -0.048 A 
ATOM     16  C   UNL A   1      29.771  30.447  23.800  1.00  0.00     0.004 A 
ATOM     17  C   UNL A   1      27.805  29.308  23.036  1.00  0.00     0.004 A 
ATOM     18  C   UNL A   1      30.504  29.264  23.702  1.00  0.00     0.010 A 
ATOM     19  C   UNL A   1      28.541  28.118  22.934  1.00  0.00     0.010 A 
BRANCH  15  20
ATOM     20  C   UNL A   1      27.781  31.847  23.195  1.00  0.00     0.032 C 
ATOM     21  C   UNL A   1      28.655  32.942  22.617  1.00  0.00     0.009 C 
ENDBRANCH  15  20
ENDBRANCH  13  14
ENDBRANCH   7  13
ENDBRANCH   4   6
ENDBRANCH   3   4
ENDBRANCH   2   3
ENDBRANCH   1   2
BRANCH   1  22
ATOM     22  O   UNL A   1      31.948  31.017  27.030  1.00  0.00    -0.374 OA
BRANCH  22  23
ATOM     23  C   UNL A   1      31.515  32.345  26.750  1.00  0.00     0.202 C 
BRANCH  23  24
ATOM     24  C   UNL A   1      32.540  33.445  27.042  1.00  0.00     0.261 C 
BRANCH  24  25
ATOM     25  O   UNL A   1      32.206  34.203  28.220  1.00  0.00    -0.460 OA
BRANCH  25  26
ATOM     26  C   UNL A   1      33.179  35.037  28.659  1.00  0.00     0.338 C 
ATOM     27  O   UNL A   1      33.114  36.250  28.780  1.00  0.00    -0.246 OA
BRANCH  26  28
ATOM     28  C   UNL A   1      34.344  34.254  29.126  1.00  0.00     0.060 A 
ATOM     29  C   UNL A   1      34.104  33.183  29.996  1.00  0.00     0.016 A 
ATOM     30  C   UNL A   1      35.650  34.575  28.747  1.00  0.00     0.016 A 
ATOM     31  C   UNL A   1      35.172  32.449  30.516  1.00  0.00     0.010 A 
ATOM     32  C   UNL A   1      36.719  33.840  29.271  1.00  0.00     0.010 A 
ATOM     33  C   UNL A   1      36.490  32.797  30.184  1.00  0.00    -0.014 A 
BRANCH  33  34
ATOM     34  C   UNL A   1      37.626  32.178  30.915  1.00  0.00     0.031 A 
ATOM     35  C   UNL A   1      38.429  31.110  30.233  1.00  0.00     0.074 A 
ATOM     36  C   UNL A   1      37.954  32.561  32.161  1.00  0.00     0.049 A 
ATOM     37  N   UNL A   1      39.435  30.408  30.687  1.00  0.00    -0.248 NA
ATOM     38  C   UNL A   1      38.031  30.777  28.857  1.00  0.00     0.031 C 
ATOM     39  C   UNL A   1      37.251  33.581  32.927  1.00  0.00     0.029 A 
ATOM     40  N   UNL A   1      38.956  32.139  33.002  1.00  0.00    -0.354 N 
ATOM     41  C   UNL A   1      39.779  29.539  29.662  1.00  0.00     0.074 A 
ATOM     42  C   UNL A   1      38.855  29.779  28.574  1.00  0.00     0.031 C 
ATOM     43  C   UNL A   1      37.856  33.728  34.119  1.00  0.00     0.029 A 
ATOM     44  C   UNL A   1      38.962  32.780  34.218  1.00  0.00     0.049 A 
ATOM     45  H   UNL A   1      39.606  31.442  32.757  1.00  0.00     0.167 HD
ATOM     46  C   UNL A   1      40.777  28.625  29.632  1.00  0.00     0.037 A 
ATOM     47  C   UNL A   1      39.754  32.611  35.296  1.00  0.00     0.037 A 
ATOM     48  C   UNL A   1      41.686  28.382  30.721  1.00  0.00     0.049 A 
ATOM     49  C   UNL A   1      40.824  31.550  35.256  1.00  0.00     0.074 A 
ATOM     50  C   UNL A   1      42.736  27.483  30.782  1.00  0.00     0.029 A 
ATOM     51  N   UNL A   1      41.648  29.035  31.945  1.00  0.00    -0.354 N 
ATOM     52  N   UNL A   1      41.160  30.750  34.273  1.00  0.00    -0.248 NA
ATOM     53  C   UNL A   1      41.615  31.357  36.480  1.00  0.00     0.031 C 
ATOM     54  C   UNL A   1      43.293  27.547  32.063  1.00  0.00     0.029 A 
ATOM     55  C   UNL A   1      42.639  28.538  32.777  1.00  0.00     0.049 A 
ATOM     56  H   UNL A   1      41.012  29.745  32.186  1.00  0.00     0.167 HD
ATOM     57  C   UNL A   1      42.213  29.979  34.749  1.00  0.00     0.074 A 
ATOM     58  C   UNL A   1      42.473  30.419  36.104  1.00  0.00     0.031 C 
ATOM     59  C   UNL A   1      42.898  28.994  34.120  1.00  0.00     0.037 A 
BRANCH  46  60
ATOM     60  C   UNL A   1      40.908  27.793  28.389  1.00  0.00     0.064 A 
ATOM     61  C   UNL A   1      40.258  26.556  28.255  1.00  0.00     0.173 A 
ATOM     62  C   UNL A   1      41.686  28.244  27.313  1.00  0.00     0.173 A 
ATOM     63  F   UNL A   1      39.515  26.071  29.262  1.00  0.00    -0.203 F 
ATOM     64  C   UNL A   1      40.414  25.785  27.107  1.00  0.00     0.198 A 
ATOM     65  C   UNL A   1      41.811  27.488  26.151  1.00  0.00     0.198 A 
ATOM     66  F   UNL A   1      42.326  29.421  27.387  1.00  0.00    -0.203 F 
ATOM     67  F   UNL A   1      39.835  24.580  27.026  1.00  0.00    -0.200 F 
ATOM     68  C   UNL A   1      41.184  26.255  26.053  1.00  0.00     0.200 A 
ATOM     69  F   UNL A   1      42.544  27.950  25.129  1.00  0.00    -0.200 F 
ATOM     70  F   UNL A   1      41.330  25.515  24.946  1.00  0.00    -0.200 F 
ENDBRANCH  46  60
BRANCH  47  71
ATOM     71  C   UNL A   1      39.568  33.453  36.510  1.00  0.00     0.064 A 
ATOM     72  C   UNL A   1      40.218  34.689  36.639  1.00  0.00     0.173 A 
ATOM     73  C   UNL A   1      38.758  33.034  37.578  1.00  0.00     0.173 A 
ATOM     74  F   UNL A   1      41.025  35.126  35.661  1.00  0.00    -0.203 F 
ATOM     75  C   UNL A   1      40.083  35.461  37.792  1.00  0.00     0.198 A 
ATOM     76  C   UNL A   1      38.594  33.824  38.714  1.00  0.00     0.198 A 
ATOM     77  F   UNL A   1      38.115  31.859  37.513  1.00  0.00    -0.203 F 
ATOM     78  F   UNL A   1      40.760  36.612  37.909  1.00  0.00    -0.200 F 
ATOM     79  C   UNL A   1      39.265  35.032  38.825  1.00  0.00     0.200 A 
ATOM     80  F   UNL A   1      37.789  33.411  39.704  1.00  0.00    -0.200 F 
ATOM     81  F   UNL A   1      39.130  35.777  39.931  1.00  0.00    -0.200 F 
ENDBRANCH  47  71
BRANCH  59  82
ATOM     82  C   UNL A   1      44.031  28.348  34.866  1.00  0.00     0.064 A 
ATOM     83  C   UNL A   1      45.317  28.907  34.893  1.00  0.00     0.173 A 
ATOM     84  C   UNL A   1      43.808  27.182  35.615  1.00  0.00     0.173 A 
ATOM     85  F   UNL A   1      45.588  30.013  34.182  1.00  0.00    -0.203 F 
ATOM     86  C   UNL A   1      46.341  28.313  35.625  1.00  0.00     0.198 A 
ATOM     87  C   UNL A   1      44.826  26.609  36.373  1.00  0.00     0.198 A 
ATOM     88  F   UNL A   1      42.596  26.609  35.629  1.00  0.00    -0.203 F 
ATOM     89  F   UNL A   1      47.573  28.840  35.601  1.00  0.00    -0.200 F 
ATOM     90  C   UNL A   1      46.092  27.172  36.373  1.00  0.00     0.200 A 
ATOM     91  F   UNL A   1      44.578  25.516  37.108  1.00  0.00    -0.200 F 
ATOM     92  F   UNL A   1      47.076  26.611  37.090  1.00  0.00    -0.200 F 
ENDBRANCH  59  82
ENDBRANCH  33  34
ENDBRANCH  26  28
ENDBRANCH  25  26
ENDBRANCH  24  25
ENDBRANCH  23  24
ENDBRANCH  22  23
ENDBRANCH   1  22
TORSDOF 17
ENDMDL
MODEL 3
REMARK VINA RESULT:     -11.1      2.188      8.527
REMARK SMILES CCc1ccc(C[N@H+]2CC[C@@H](C(=O)OCCOCCOC(=O)c3ccc(-c4c5nc(c(-c6c(F)c(F)c(F)c(F)c6F)c6ccc([nH]6)c(-c6c(F)c(F)c(F)c(F)c6F)c6nc(c(-c7c(F)c(F)c(F)c(F)c7F)c7ccc4[nH]7)C=C6)C=C5)cc3)[C@@H]2C)cc1
REMARK SMILES IDX 16 1 15 2 14 3 12 4 13 5 11 6 8 7 9 8 86 9 10 11 87 12 7 13
REMARK SMILES IDX 6 14 3 15 4 16 89 17 5 18 88 19 2 20 1 21 17 22 18 23 19 24
REMARK SMILES IDX 20 25 21 26 22 27 23 28 24 29 85 30 25 31 84 32 26 33 27 34
REMARK SMILES IDX 28 35 78 36 29 37 83 38 77 39 79 40 30 41 82 42 76 43 75 44
REMARK SMILES IDX 31 46 63 47 43 48 62 49 44 50 47 51 61 52 80 53 45 54 46 55
REMARK SMILES IDX 60 57 81 58 48 59 32 60 33 61 41 62 34 63 35 64 39 65 42 66
REMARK SMILES IDX 36 67 37 68 40 69 38 70 64 71 65 72 73 73 66 74 67 75 71 76
REMARK SMILES IDX 74 77 68 78 69 79 72 80 70 81 49 82 50 83 58 84 51 85 52 86
REMARK SMILES IDX 56 87 59 88 53 89 54 90 57 91 55 92
REMARK H PARENT 8 10 79 45 47 56
REMARK Flexibility Score: inf
ROOT
ATOM      1  C   UNL A   1      33.150  27.590  24.409  1.00  0.00     0.202 C 
ENDROOT
BRANCH   1   2
ATOM      2  C   UNL A   1      33.189  26.973  23.007  1.00  0.00     0.261 C 
BRANCH   2   3
ATOM      3  O   UNL A   1      32.265  25.869  22.904  1.00  0.00    -0.463 OA
BRANCH   3   4
ATOM      4  C   UNL A   1      32.797  24.624  22.807  1.00  0.00     0.315 C 
ATOM      5  O   UNL A   1      33.876  24.365  22.288  1.00  0.00    -0.252 OA
BRANCH   4   6
ATOM      6  C   UNL A   1      31.908  23.555  23.410  1.00  0.00     0.162 C 
ATOM      7  N   UNL A   1      32.048  21.684  24.943  1.00  0.00    -0.328 N 
ATOM      8  C   UNL A   1      31.033  22.631  25.407  1.00  0.00     0.263 C 
ATOM      9  C   UNL A   1      32.556  22.179  23.645  1.00  0.00     0.195 C 
ATOM     10  H   UNL A   1      31.624  20.768  24.795  1.00  0.00     0.348 HD
ATOM     11  C   UNL A   1      31.375  23.963  24.770  1.00  0.00     0.083 C 
ATOM     12  C   UNL A   1      32.154  21.184  22.552  1.00  0.00     0.076 C 
BRANCH   7  13
ATOM     13  C   UNL A   1      33.074  21.335  25.947  1.00  0.00     0.299 C 
BRANCH  13  14
ATOM     14  C   UNL A   1      34.472  21.871  25.709  1.00  0.00     0.006 A 
ATOM     15  C   UNL A   1      37.164  22.734  25.751  1.00  0.00    -0.048 A 
ATOM     16  C   UNL A   1      36.128  23.593  26.126  1.00  0.00     0.004 A 
ATOM     17  C   UNL A   1      36.826  21.489  25.212  1.00  0.00     0.004 A 
ATOM     18  C   UNL A   1      34.798  23.173  26.097  1.00  0.00     0.010 A 
ATOM     19  C   UNL A   1      35.490  21.064  25.184  1.00  0.00     0.010 A 
BRANCH  15  20
ATOM     20  C   UNL A   1      38.584  23.090  26.118  1.00  0.00     0.032 C 
ATOM     21  C   UNL A   1      38.798  24.446  26.762  1.00  0.00     0.009 C 
ENDBRANCH  15  20
ENDBRANCH  13  14
ENDBRANCH   7  13
ENDBRANCH   4   6
ENDBRANCH   3   4
ENDBRANCH   2   3
ENDBRANCH   1   2
BRANCH   1  22
ATOM     22  O   UNL A   1      31.849  27.679  24.991  1.00  0.00    -0.374 OA
BRANCH  22  23
ATOM     23  C   UNL A   1      31.758  28.409  26.211  1.00  0.00     0.202 C 
BRANCH  23  24
ATOM     24  C   UNL A   1      31.781  29.934  26.068  1.00  0.00     0.261 C 
BRANCH  24  25
ATOM     25  O   UNL A   1      33.122  30.462  26.070  1.00  0.00    -0.460 OA
BRANCH  25  26
ATOM     26  C   UNL A   1      33.390  31.339  27.067  1.00  0.00     0.338 C 
ATOM     27  O   UNL A   1      32.652  32.206  27.507  1.00  0.00    -0.246 OA
BRANCH  26  28
ATOM     28  C   UNL A   1      34.696  31.020  27.683  1.00  0.00     0.060 A 
ATOM     29  C   UNL A   1      34.968  29.678  27.980  1.00  0.00     0.016 A 
ATOM     30  C   UNL A   1      35.629  32.013  27.995  1.00  0.00     0.016 A 
ATOM     31  C   UNL A   1      36.159  29.329  28.619  1.00  0.00     0.010 A 
ATOM     32  C   UNL A   1      36.821  31.662  28.637  1.00  0.00     0.010 A 
ATOM     33  C   UNL A   1      37.078  30.324  28.984  1.00  0.00    -0.014 A 
BRANCH  33  34
ATOM     34  C   UNL A   1      38.224  29.987  29.868  1.00  0.00     0.031 A 
ATOM     35  C   UNL A   1      39.300  29.083  29.343  1.00  0.00     0.074 A 
ATOM     36  C   UNL A   1      38.321  30.481  31.114  1.00  0.00     0.049 A 
ATOM     37  N   UNL A   1      40.369  28.626  29.944  1.00  0.00    -0.248 NA
ATOM     38  C   UNL A   1      39.140  28.618  27.957  1.00  0.00     0.031 C 
ATOM     39  C   UNL A   1      37.342  31.362  31.735  1.00  0.00     0.029 A 
ATOM     40  N   UNL A   1      39.284  30.312  32.080  1.00  0.00    -0.354 N 
ATOM     41  C   UNL A   1      40.998  27.807  29.018  1.00  0.00     0.074 A 
ATOM     42  C   UNL A   1      40.177  27.804  27.826  1.00  0.00     0.031 C 
ATOM     43  C   UNL A   1      37.763  31.681  32.972  1.00  0.00     0.029 A 
ATOM     44  C   UNL A   1      39.019  30.990  33.246  1.00  0.00     0.049 A 
ATOM     45  H   UNL A   1      40.086  29.758  31.950  1.00  0.00     0.167 HD
ATOM     46  C   UNL A   1      42.157  27.121  29.151  1.00  0.00     0.037 A 
ATOM     47  C   UNL A   1      39.699  31.034  34.410  1.00  0.00     0.037 A 
ATOM     48  C   UNL A   1      42.965  27.119  30.342  1.00  0.00     0.049 A 
ATOM     49  C   UNL A   1      40.959  30.220  34.550  1.00  0.00     0.074 A 
ATOM     50  C   UNL A   1      44.161  26.462  30.571  1.00  0.00     0.029 A 
ATOM     51  N   UNL A   1      42.654  27.799  31.512  1.00  0.00    -0.354 N 
ATOM     52  N   UNL A   1      41.563  29.468  33.661  1.00  0.00    -0.248 NA
ATOM     53  C   UNL A   1      41.626  30.247  35.860  1.00  0.00     0.031 C 
ATOM     54  C   UNL A   1      44.542  26.694  31.896  1.00  0.00     0.029 A 
ATOM     55  C   UNL A   1      43.622  27.554  32.473  1.00  0.00     0.049 A 
ATOM     56  H   UNL A   1      41.863  28.370  31.639  1.00  0.00     0.167 HD
ATOM     57  C   UNL A   1      42.687  28.954  34.293  1.00  0.00     0.074 A 
ATOM     58  C   UNL A   1      42.695  29.494  35.637  1.00  0.00     0.031 C 
ATOM     59  C   UNL A   1      43.627  28.109  33.804  1.00  0.00     0.037 A 
BRANCH  46  60
ATOM     60  C   UNL A   1      42.597  26.284  27.985  1.00  0.00     0.064 A 
ATOM     61  C   UNL A   1      42.208  24.943  27.848  1.00  0.00     0.173 A 
ATOM     62  C   UNL A   1      43.412  26.836  26.985  1.00  0.00     0.173 A 
ATOM     63  F   UNL A   1      41.442  24.363  28.785  1.00  0.00    -0.203 F 
ATOM     64  C   UNL A   1      42.649  24.175  26.774  1.00  0.00     0.198 A 
ATOM     65  C   UNL A   1      43.822  26.076  25.893  1.00  0.00     0.198 A 
ATOM     66  F   UNL A   1      43.811  28.114  27.065  1.00  0.00    -0.203 F 
ATOM     67  F   UNL A   1      42.315  22.880  26.697  1.00  0.00    -0.200 F 
ATOM     68  C   UNL A   1      43.449  24.743  25.794  1.00  0.00     0.200 A 
ATOM     69  F   UNL A   1      44.583  26.630  24.941  1.00  0.00    -0.200 F 
ATOM     70  F   UNL A   1      43.869  24.004  24.759  1.00  0.00    -0.200 F 
ENDBRANCH  46  60
BRANCH  47  71
ATOM     71  C   UNL A   1      39.206  31.869  35.542  1.00  0.00     0.064 A 
ATOM     72  C   UNL A   1      39.621  33.199  35.692  1.00  0.00     0.173 A 
ATOM     73  C   UNL A   1      38.332  31.350  36.510  1.00  0.00     0.173 A 
ATOM     74  F   UNL A   1      40.478  33.738  34.811  1.00  0.00    -0.203 F 
ATOM     75  C   UNL A   1      39.199  33.971  36.774  1.00  0.00     0.198 A 
ATOM     76  C   UNL A   1      37.881  32.134  37.570  1.00  0.00     0.198 A 
ATOM     77  F   UNL A   1      37.906  30.082  36.420  1.00  0.00    -0.203 F 
ATOM     78  F   UNL A   1      39.655  35.222  36.921  1.00  0.00    -0.200 F 
ATOM     79  C   UNL A   1      38.323  33.441  37.708  1.00  0.00     0.200 A 
ATOM     80  F   UNL A   1      37.022  31.620  38.462  1.00  0.00    -0.200 F 
ATOM     81  F   UNL A   1      37.912  34.184  38.744  1.00  0.00    -0.200 F 
ENDBRANCH  47  71
BRANCH  59  82
ATOM     82  C   UNL A   1      44.773  27.746  34.704  1.00  0.00     0.064 A 
ATOM     83  C   UNL A   1      45.933  28.530  34.783  1.00  0.00     0.173 A 
ATOM     84  C   UNL A   1      44.681  26.625  35.545  1.00  0.00     0.173 A 
ATOM     85  F   UNL A   1      46.078  29.603  33.989  1.00  0.00    -0.203 F 
ATOM     86  C   UNL A   1      46.966  28.196  35.655  1.00  0.00     0.198 A 
ATOM     87  C   UNL A   1      45.701  26.313  36.440  1.00  0.00     0.198 A 
ATOM     88  F   UNL A   1      43.592  25.844  35.514  1.00  0.00    -0.203 F 
ATOM     89  F   UNL A   1      48.083  28.935  35.682  1.00  0.00    -0.200 F 
ATOM     90  C   UNL A   1      46.844  27.096  36.490  1.00  0.00     0.200 A 
ATOM     91  F   UNL A   1      45.573  25.259  37.258  1.00  0.00    -0.200 F 
ATOM     92  F   UNL A   1      47.833  26.785  37.341  1.00  0.00    -0.200 F 
ENDBRANCH  59  82
ENDBRANCH  33  34
ENDBRANCH  26  28
ENDBRANCH  25  26
ENDBRANCH  24  25
ENDBRANCH  23  24
ENDBRANCH  22  23
ENDBRANCH   1  22
TORSDOF 17
ENDMDL
