MODEL 1
REMARK VINA RESULT:     -13.5      0.000      0.000
REMARK SMILES Cc1coc2c(C)c3oc(=O)c(CCC(=O)N[C@H](CC(C)C)C(=O)OCCOCCOC(=O)c4ccc(-c5c6nc(c(-c7c(F)c(F)c(F)c(F)c7F)c7ccc([nH]7)c(-c7c(F)c(F)c(F)c(F)c7F)c7nc(c(-c8c(F)c(F)c(F)c(F)c8F)c8ccc5[nH]8)C=C7)C=C6)cc4)c(C)c3cc12
REMARK SMILES IDX 27 1 26 2 25 3 23 4 24 5 18 6 17 7 15 8 16 9 14 11 13 12
REMARK SMILES IDX 12 13 1 14 2 15 3 16 101 17 4 18 5 19 100 20 6 21 99 22 7 23
REMARK SMILES IDX 8 24 97 25 9 26 98 27 10 28 11 29 19 30 20 31 21 32 22 33
REMARK SMILES IDX 28 34 29 35 30 36 31 37 32 38 33 39 34 40 35 41 96 42 36 43
REMARK SMILES IDX 95 44 37 45 38 46 39 47 89 48 40 49 94 50 88 51 90 52 41 53
REMARK SMILES IDX 93 54 87 55 86 56 42 58 74 59 54 60 73 61 55 62 58 63 72 64
REMARK SMILES IDX 91 65 56 66 57 67 71 69 92 70 59 71 43 72 44 73 52 74 45 75
REMARK SMILES IDX 46 76 50 77 53 78 47 79 48 80 51 81 49 82 75 83 76 84 84 85
REMARK SMILES IDX 77 86 78 87 82 88 85 89 79 90 80 91 83 92 81 93 60 94 61 95
REMARK SMILES IDX 69 96 62 97 63 98 67 99 70 100 64 101 65 102 68 103 66 104
REMARK H PARENT 17 10 90 57 58 68
REMARK Flexibility Score: inf
ROOT
ATOM      1  C   UNL A   1      35.079  33.262  28.001  1.00  0.00     0.202 C 
ENDROOT
BRANCH   1   2
ATOM      2  C   UNL A   1      34.382  31.585  27.942  1.00  0.00     0.261 C 
BRANCH   2   3
ATOM      3  O   UNL A   1      33.473  30.917  26.735  1.00  0.00    -0.462 OA
BRANCH   3   4
ATOM      4  C   UNL A   1      32.174  31.088  26.250  1.00  0.00     0.328 C 
ATOM      5  O   UNL A   1      31.392  32.007  26.512  1.00  0.00    -0.250 OA
BRANCH   4   6
ATOM      6  C   UNL A   1      31.489  30.008  25.427  1.00  0.00     0.192 C 
BRANCH   6   7
ATOM      7  N   UNL A   1      30.391  30.468  24.622  1.00  0.00    -0.343 N 
ATOM      8  C   UNL A   1      30.026  29.776  23.478  1.00  0.00     0.221 C 
ATOM      9  O   UNL A   1      29.597  30.412  22.516  1.00  0.00    -0.275 OA
ATOM     10  H   UNL A   1      29.896  31.277  24.884  1.00  0.00     0.164 HD
BRANCH   8  11
ATOM     11  C   UNL A   1      30.069  28.225  23.486  1.00  0.00     0.105 C 
BRANCH  11  12
ATOM     12  C   UNL A   1      30.943  27.407  22.483  1.00  0.00     0.053 C 
BRANCH  12  13
ATOM     13  C   UNL A   1      31.610  26.101  22.940  1.00  0.00     0.042 A 
ATOM     14  C   UNL A   1      38.175  23.746  25.944  1.00  0.00     0.048 C 
ATOM     15  C   UNL A   1      37.053  22.803  25.654  1.00  0.00    -0.005 A 
ATOM     16  C   UNL A   1      37.048  21.408  25.596  1.00  0.00     0.199 A 
ATOM     17  C   UNL A   1      35.746  23.190  25.280  1.00  0.00     0.024 A 
ATOM     18  O   UNL A   1      35.890  20.807  25.129  1.00  0.00    -0.464 OA
ATOM     19  C   UNL A   1      35.023  21.794  24.723  1.00  0.00     0.140 A 
ATOM     20  C   UNL A   1      34.951  24.751  24.959  1.00  0.00     0.024 A 
ATOM     21  C   UNL A   1      33.511  21.787  23.768  1.00  0.00     0.036 A 
ATOM     22  C   UNL A   1      33.525  24.893  23.734  1.00  0.00     0.022 A 
ATOM     23  C   UNL A   1      32.576  20.644  24.131  1.00  0.00     0.052 C 
ATOM     24  C   UNL A   1      32.811  23.373  23.203  1.00  0.00     0.145 A 
ATOM     25  C   UNL A   1      32.944  25.988  22.922  1.00  0.00    -0.030 A 
ATOM     26  O   UNL A   1      31.394  23.570  23.006  1.00  0.00    -0.422 OA
ATOM     27  C   UNL A   1      33.682  26.713  21.802  1.00  0.00     0.046 C 
ATOM     28  C   UNL A   1      30.790  24.855  23.190  1.00  0.00     0.339 A 
ATOM     29  O   UNL A   1      29.587  24.950  23.420  1.00  0.00    -0.246 OA
ENDBRANCH  12  13
ENDBRANCH  11  12
ENDBRANCH   8  11
ENDBRANCH   6   7
BRANCH   6  30
ATOM     30  C   UNL A   1      31.358  28.751  26.376  1.00  0.00     0.040 C 
BRANCH  30  31
ATOM     31  C   UNL A   1      32.386  27.589  26.075  1.00  0.00    -0.015 C 
ATOM     32  C   UNL A   1      33.848  27.725  26.550  1.00  0.00     0.007 C 
ATOM     33  C   UNL A   1      31.902  26.237  26.637  1.00  0.00     0.007 C 
ENDBRANCH  30  31
ENDBRANCH   6  30
ENDBRANCH   4   6
ENDBRANCH   3   4
ENDBRANCH   2   3
ENDBRANCH   1   2
BRANCH   1  34
ATOM     34  O   UNL A   1      35.458  34.177  29.445  1.00  0.00    -0.374 OA
BRANCH  34  35
ATOM     35  C   UNL A   1      35.279  33.803  31.439  1.00  0.00     0.202 C 
BRANCH  35  36
ATOM     36  C   UNL A   1      36.038  32.908  32.482  1.00  0.00     0.261 C 
BRANCH  36  37
ATOM     37  O   UNL A   1      37.152  32.226  32.000  1.00  0.00    -0.460 OA
BRANCH  37  38
ATOM     38  C   UNL A   1      36.843  30.957  31.696  1.00  0.00     0.338 C 
ATOM     39  O   UNL A   1      36.265  30.127  32.377  1.00  0.00    -0.246 OA
BRANCH  38  40
ATOM     40  C   UNL A   1      37.429  30.704  30.373  1.00  0.00     0.060 A 
ATOM     41  C   UNL A   1      37.262  29.361  30.038  1.00  0.00     0.016 A 
ATOM     42  C   UNL A   1      38.642  31.388  30.253  1.00  0.00     0.016 A 
ATOM     43  C   UNL A   1      38.382  28.590  30.110  1.00  0.00     0.010 A 
ATOM     44  C   UNL A   1      39.748  30.625  30.443  1.00  0.00     0.010 A 
ATOM     45  C   UNL A   1      39.584  29.239  30.410  1.00  0.00    -0.014 A 
BRANCH  45  46
ATOM     46  C   UNL A   1      40.775  28.455  30.350  1.00  0.00     0.031 A 
ATOM     47  C   UNL A   1      41.303  28.285  31.721  1.00  0.00     0.074 A 
ATOM     48  C   UNL A   1      41.171  27.873  29.215  1.00  0.00     0.049 A 
ATOM     49  N   UNL A   1      42.329  28.872  32.239  1.00  0.00    -0.248 NA
ATOM     50  C   UNL A   1      40.398  27.673  32.720  1.00  0.00     0.031 C 
ATOM     51  C   UNL A   1      40.493  27.803  27.922  1.00  0.00     0.029 A 
ATOM     52  N   UNL A   1      42.254  27.083  29.054  1.00  0.00    -0.354 N 
ATOM     53  C   UNL A   1      42.297  28.509  33.577  1.00  0.00     0.074 A 
ATOM     54  C   UNL A   1      40.963  28.069  33.857  1.00  0.00     0.031 C 
ATOM     55  C   UNL A   1      41.068  26.824  27.185  1.00  0.00     0.029 A 
ATOM     56  C   UNL A   1      42.197  26.288  27.921  1.00  0.00     0.049 A 
ATOM     57  H   UNL A   1      43.011  27.073  29.682  1.00  0.00     0.167 HD
ATOM     58  C   UNL A   1      43.443  28.265  34.262  1.00  0.00     0.037 A 
ATOM     59  C   UNL A   1      42.975  25.189  27.764  1.00  0.00     0.037 A 
ATOM     60  C   UNL A   1      44.581  28.804  33.566  1.00  0.00     0.049 A 
ATOM     61  C   UNL A   1      44.094  25.311  28.758  1.00  0.00     0.074 A 
ATOM     62  C   UNL A   1      44.941  30.086  33.195  1.00  0.00     0.029 A 
ATOM     63  N   UNL A   1      45.285  27.951  32.747  1.00  0.00    -0.354 N 
ATOM     64  N   UNL A   1      45.018  26.236  28.688  1.00  0.00    -0.248 NA
ATOM     65  C   UNL A   1      43.883  24.758  30.093  1.00  0.00     0.031 C 
ATOM     66  C   UNL A   1      45.490  29.952  31.888  1.00  0.00     0.029 A 
ATOM     67  C   UNL A   1      45.510  28.596  31.555  1.00  0.00     0.049 A 
ATOM     68  H   UNL A   1      45.576  27.038  32.975  1.00  0.00     0.167 HD
ATOM     69  C   UNL A   1      45.218  26.656  30.001  1.00  0.00     0.074 A 
ATOM     70  C   UNL A   1      44.540  25.662  30.828  1.00  0.00     0.031 C 
ATOM     71  C   UNL A   1      45.649  27.922  30.282  1.00  0.00     0.037 A 
BRANCH  58  72
ATOM     72  C   UNL A   1      43.545  27.225  35.340  1.00  0.00     0.064 A 
ATOM     73  C   UNL A   1      43.883  27.626  36.641  1.00  0.00     0.173 A 
ATOM     74  C   UNL A   1      43.566  25.830  35.104  1.00  0.00     0.173 A 
ATOM     75  F   UNL A   1      43.923  28.928  36.962  1.00  0.00    -0.203 F 
ATOM     76  C   UNL A   1      44.257  26.701  37.618  1.00  0.00     0.198 A 
ATOM     77  C   UNL A   1      43.874  24.908  36.096  1.00  0.00     0.198 A 
ATOM     78  F   UNL A   1      43.404  25.302  33.885  1.00  0.00    -0.203 F 
ATOM     79  F   UNL A   1      44.680  27.135  38.812  1.00  0.00    -0.200 F 
ATOM     80  C   UNL A   1      44.249  25.344  37.346  1.00  0.00     0.200 A 
ATOM     81  F   UNL A   1      43.875  23.600  35.801  1.00  0.00    -0.200 F 
ATOM     82  F   UNL A   1      44.651  24.461  38.267  1.00  0.00    -0.200 F 
ENDBRANCH  58  72
BRANCH  59  83
ATOM     83  C   UNL A   1      42.621  23.931  27.072  1.00  0.00     0.064 A 
ATOM     84  C   UNL A   1      43.528  23.307  26.205  1.00  0.00     0.173 A 
ATOM     85  C   UNL A   1      41.469  23.190  27.411  1.00  0.00     0.173 A 
ATOM     86  F   UNL A   1      44.672  23.923  25.871  1.00  0.00    -0.203 F 
ATOM     87  C   UNL A   1      43.303  22.016  25.714  1.00  0.00     0.198 A 
ATOM     88  C   UNL A   1      41.239  21.909  26.910  1.00  0.00     0.198 A 
ATOM     89  F   UNL A   1      40.583  23.652  28.304  1.00  0.00    -0.203 F 
ATOM     90  F   UNL A   1      44.219  21.431  24.930  1.00  0.00    -0.200 F 
ATOM     91  C   UNL A   1      42.162  21.317  26.071  1.00  0.00     0.200 A 
ATOM     92  F   UNL A   1      40.145  21.232  27.292  1.00  0.00    -0.200 F 
ATOM     93  F   UNL A   1      41.970  20.062  25.640  1.00  0.00    -0.200 F 
ENDBRANCH  59  83
BRANCH  71  94
ATOM     94  C   UNL A   1      46.088  28.783  29.127  1.00  0.00     0.064 A 
ATOM     95  C   UNL A   1      45.217  29.618  28.405  1.00  0.00     0.173 A 
ATOM     96  C   UNL A   1      47.458  28.916  28.872  1.00  0.00     0.173 A 
ATOM     97  F   UNL A   1      43.906  29.631  28.666  1.00  0.00    -0.203 F 
ATOM     98  C   UNL A   1      45.692  30.516  27.450  1.00  0.00     0.198 A 
ATOM     99  C   UNL A   1      47.936  29.841  27.947  1.00  0.00     0.198 A 
ATOM    100  F   UNL A   1      48.344  28.193  29.577  1.00  0.00    -0.203 F 
ATOM    101  F   UNL A   1      44.835  31.298  26.778  1.00  0.00    -0.200 F 
ATOM    102  C   UNL A   1      47.053  30.633  27.231  1.00  0.00     0.200 A 
ATOM    103  F   UNL A   1      49.256  29.992  27.779  1.00  0.00    -0.200 F 
ATOM    104  F   UNL A   1      47.517  31.535  26.353  1.00  0.00    -0.200 F 
ENDBRANCH  71  94
ENDBRANCH  45  46
ENDBRANCH  38  40
ENDBRANCH  37  38
ENDBRANCH  36  37
ENDBRANCH  35  36
ENDBRANCH  34  35
ENDBRANCH   1  34
TORSDOF 20
ENDMDL
MODEL 2
REMARK VINA RESULT:     -12.8      3.323      9.229
REMARK SMILES Cc1coc2c(C)c3oc(=O)c(CCC(=O)N[C@H](CC(C)C)C(=O)OCCOCCOC(=O)c4ccc(-c5c6nc(c(-c7c(F)c(F)c(F)c(F)c7F)c7ccc([nH]7)c(-c7c(F)c(F)c(F)c(F)c7F)c7nc(c(-c8c(F)c(F)c(F)c(F)c8F)c8ccc5[nH]8)C=C7)C=C6)cc4)c(C)c3cc12
REMARK SMILES IDX 27 1 26 2 25 3 23 4 24 5 18 6 17 7 15 8 16 9 14 11 13 12
REMARK SMILES IDX 12 13 1 14 2 15 3 16 101 17 4 18 5 19 100 20 6 21 99 22 7 23
REMARK SMILES IDX 8 24 97 25 9 26 98 27 10 28 11 29 19 30 20 31 21 32 22 33
REMARK SMILES IDX 28 34 29 35 30 36 31 37 32 38 33 39 34 40 35 41 96 42 36 43
REMARK SMILES IDX 95 44 37 45 38 46 39 47 89 48 40 49 94 50 88 51 90 52 41 53
REMARK SMILES IDX 93 54 87 55 86 56 42 58 74 59 54 60 73 61 55 62 58 63 72 64
REMARK SMILES IDX 91 65 56 66 57 67 71 69 92 70 59 71 43 72 44 73 52 74 45 75
REMARK SMILES IDX 46 76 50 77 53 78 47 79 48 80 51 81 49 82 75 83 76 84 84 85
REMARK SMILES IDX 77 86 78 87 82 88 85 89 79 90 80 91 83 92 81 93 60 94 61 95
REMARK SMILES IDX 69 96 62 97 63 98 67 99 70 100 64 101 65 102 68 103 66 104
REMARK H PARENT 17 10 90 57 58 68
REMARK Flexibility Score: inf
ROOT
ATOM      1  C   UNL A   1      39.355  20.864  25.765  1.00  0.00     0.202 C 
ENDROOT
BRANCH   1   2
ATOM      2  C   UNL A   1      38.041  22.100  25.544  1.00  0.00     0.261 C 
BRANCH   2   3
ATOM      3  O   UNL A   1      36.638  21.932  24.687  1.00  0.00    -0.462 OA
BRANCH   3   4
ATOM      4  C   UNL A   1      36.038  22.593  23.612  1.00  0.00     0.328 C 
ATOM      5  O   UNL A   1      36.576  22.955  22.561  1.00  0.00    -0.250 OA
BRANCH   4   6
ATOM      6  C   UNL A   1      34.612  23.113  23.701  1.00  0.00     0.192 C 
BRANCH   6   7
ATOM      7  N   UNL A   1      34.410  24.422  23.144  1.00  0.00    -0.343 N 
ATOM      8  C   UNL A   1      33.300  24.683  22.357  1.00  0.00     0.221 C 
ATOM      9  O   UNL A   1      33.411  25.479  21.425  1.00  0.00    -0.275 OA
ATOM     10  H   UNL A   1      35.064  25.136  23.322  1.00  0.00     0.164 HD
BRANCH   8  11
ATOM     11  C   UNL A   1      31.936  24.052  22.741  1.00  0.00     0.105 C 
BRANCH  11  12
ATOM     12  C   UNL A   1      30.889  24.798  23.628  1.00  0.00     0.053 C 
BRANCH  12  13
ATOM     13  C   UNL A   1      31.246  26.154  24.254  1.00  0.00     0.042 A 
ATOM     14  C   UNL A   1      36.854  29.329  28.271  1.00  0.00     0.048 C 
ATOM     15  C   UNL A   1      35.650  30.102  27.842  1.00  0.00    -0.005 A 
ATOM     16  C   UNL A   1      35.189  31.348  28.270  1.00  0.00     0.199 A 
ATOM     17  C   UNL A   1      34.669  29.638  26.938  1.00  0.00     0.024 A 
ATOM     18  O   UNL A   1      33.938  31.739  27.817  1.00  0.00    -0.464 OA
ATOM     19  C   UNL A   1      33.394  30.701  27.098  1.00  0.00     0.140 A 
ATOM     20  C   UNL A   1      34.403  28.110  26.063  1.00  0.00     0.024 A 
ATOM     21  C   UNL A   1      31.751  30.361  26.481  1.00  0.00     0.036 A 
ATOM     22  C   UNL A   1      32.667  27.520  25.622  1.00  0.00     0.022 A 
ATOM     23  C   UNL A   1      31.069  31.581  25.880  1.00  0.00     0.052 C 
ATOM     24  C   UNL A   1      31.379  28.707  25.810  1.00  0.00     0.145 A 
ATOM     25  C   UNL A   1      32.049  26.206  25.325  1.00  0.00    -0.030 A 
ATOM     26  O   UNL A   1      30.395  28.490  24.775  1.00  0.00    -0.422 OA
ATOM     27  C   UNL A   1      31.943  25.060  26.324  1.00  0.00     0.046 C 
ATOM     28  C   UNL A   1      30.527  27.417  23.837  1.00  0.00     0.339 A 
ATOM     29  O   UNL A   1      29.952  27.464  22.753  1.00  0.00    -0.246 OA
ENDBRANCH  12  13
ENDBRANCH  11  12
ENDBRANCH   8  11
ENDBRANCH   6   7
BRANCH   6  30
ATOM     30  C   UNL A   1      34.096  22.733  25.146  1.00  0.00     0.040 C 
BRANCH  30  31
ATOM     31  C   UNL A   1      33.104  21.503  25.189  1.00  0.00    -0.015 C 
ATOM     32  C   UNL A   1      32.663  20.836  23.869  1.00  0.00     0.007 C 
ATOM     33  C   UNL A   1      33.654  20.355  26.058  1.00  0.00     0.007 C 
ENDBRANCH  30  31
ENDBRANCH   6  30
ENDBRANCH   4   6
ENDBRANCH   3   4
ENDBRANCH   2   3
ENDBRANCH   1   2
BRANCH   1  34
ATOM     34  O   UNL A   1      40.943  21.150  26.444  1.00  0.00    -0.374 OA
BRANCH  34  35
ATOM     35  C   UNL A   1      42.641  22.027  25.740  1.00  0.00     0.202 C 
BRANCH  35  36
ATOM     36  C   UNL A   1      43.122  23.503  25.503  1.00  0.00     0.261 C 
BRANCH  36  37
ATOM     37  O   UNL A   1      42.813  24.412  26.510  1.00  0.00    -0.460 OA
BRANCH  37  38
ATOM     38  C   UNL A   1      41.833  25.242  26.123  1.00  0.00     0.338 C 
ATOM     39  O   UNL A   1      41.672  25.781  25.041  1.00  0.00    -0.246 OA
BRANCH  38  40
ATOM     40  C   UNL A   1      41.002  25.469  27.313  1.00  0.00     0.060 A 
ATOM     41  C   UNL A   1      40.067  26.469  27.044  1.00  0.00     0.016 A 
ATOM     42  C   UNL A   1      41.798  25.442  28.461  1.00  0.00     0.016 A 
ATOM     43  C   UNL A   1      40.312  27.678  27.620  1.00  0.00     0.010 A 
ATOM     44  C   UNL A   1      42.129  26.661  28.955  1.00  0.00     0.010 A 
ATOM     45  C   UNL A   1      41.404  27.760  28.489  1.00  0.00    -0.014 A 
BRANCH  45  46
ATOM     46  C   UNL A   1      41.578  28.988  29.196  1.00  0.00     0.031 A 
ATOM     47  C   UNL A   1      42.671  29.754  28.559  1.00  0.00     0.074 A 
ATOM     48  C   UNL A   1      40.729  29.367  30.155  1.00  0.00     0.049 A 
ATOM     49  N   UNL A   1      43.869  29.921  29.009  1.00  0.00    -0.248 NA
ATOM     50  C   UNL A   1      42.524  30.068  27.120  1.00  0.00     0.031 C 
ATOM     51  C   UNL A   1      39.480  28.744  30.589  1.00  0.00     0.029 A 
ATOM     52  N   UNL A   1      40.775  30.518  30.858  1.00  0.00    -0.354 N 
ATOM     53  C   UNL A   1      44.541  30.557  27.975  1.00  0.00     0.074 A 
ATOM     54  C   UNL A   1      43.784  30.324  26.782  1.00  0.00     0.031 C 
ATOM     55  C   UNL A   1      38.776  29.644  31.313  1.00  0.00     0.029 A 
ATOM     56  C   UNL A   1      39.574  30.847  31.465  1.00  0.00     0.049 A 
ATOM     57  H   UNL A   1      41.586  31.072  30.932  1.00  0.00     0.167 HD
ATOM     58  C   UNL A   1      45.470  31.512  28.230  1.00  0.00     0.037 A 
ATOM     59  C   UNL A   1      39.297  32.101  31.898  1.00  0.00     0.037 A 
ATOM     60  C   UNL A   1      45.902  31.456  29.601  1.00  0.00     0.049 A 
ATOM     61  C   UNL A   1      40.611  32.823  31.987  1.00  0.00     0.074 A 
ATOM     62  C   UNL A   1      46.532  30.482  30.354  1.00  0.00     0.029 A 
ATOM     63  N   UNL A   1      45.280  32.296  30.497  1.00  0.00    -0.354 N 
ATOM     64  N   UNL A   1      41.548  32.506  32.844  1.00  0.00    -0.248 NA
ATOM     65  C   UNL A   1      41.084  33.525  30.797  1.00  0.00     0.031 C 
ATOM     66  C   UNL A   1      45.889  30.522  31.624  1.00  0.00     0.029 A 
ATOM     67  C   UNL A   1      44.957  31.563  31.613  1.00  0.00     0.049 A 
ATOM     68  H   UNL A   1      45.098  33.254  30.361  1.00  0.00     0.167 HD
ATOM     69  C   UNL A   1      42.743  32.606  32.137  1.00  0.00     0.074 A 
ATOM     70  C   UNL A   1      42.399  33.303  30.901  1.00  0.00     0.031 C 
ATOM     71  C   UNL A   1      43.831  31.852  32.476  1.00  0.00     0.037 A 
BRANCH  58  72
ATOM     72  C   UNL A   1      45.681  32.705  27.343  1.00  0.00     0.064 A 
ATOM     73  C   UNL A   1      46.941  32.903  26.759  1.00  0.00     0.173 A 
ATOM     74  C   UNL A   1      44.778  33.788  27.234  1.00  0.00     0.173 A 
ATOM     75  F   UNL A   1      47.882  31.950  26.832  1.00  0.00    -0.203 F 
ATOM     76  C   UNL A   1      47.284  34.113  26.153  1.00  0.00     0.198 A 
ATOM     77  C   UNL A   1      45.099  34.967  26.572  1.00  0.00     0.198 A 
ATOM     78  F   UNL A   1      43.593  33.806  27.856  1.00  0.00    -0.203 F 
ATOM     79  F   UNL A   1      48.534  34.301  25.710  1.00  0.00    -0.200 F 
ATOM     80  C   UNL A   1      46.363  35.142  26.057  1.00  0.00     0.200 A 
ATOM     81  F   UNL A   1      44.193  35.954  26.509  1.00  0.00    -0.200 F 
ATOM     82  F   UNL A   1      46.705  36.318  25.518  1.00  0.00    -0.200 F 
ENDBRANCH  58  72
BRANCH  59  83
ATOM     83  C   UNL A   1      37.982  32.777  31.902  1.00  0.00     0.064 A 
ATOM     84  C   UNL A   1      37.439  33.300  30.721  1.00  0.00     0.173 A 
ATOM     85  C   UNL A   1      37.123  32.736  33.021  1.00  0.00     0.173 A 
ATOM     86  F   UNL A   1      38.172  33.331  29.598  1.00  0.00    -0.203 F 
ATOM     87  C   UNL A   1      36.113  33.745  30.658  1.00  0.00     0.198 A 
ATOM     88  C   UNL A   1      35.807  33.191  32.961  1.00  0.00     0.198 A 
ATOM     89  F   UNL A   1      37.510  32.171  34.173  1.00  0.00    -0.203 F 
ATOM     90  F   UNL A   1      35.612  34.188  29.497  1.00  0.00    -0.200 F 
ATOM     91  C   UNL A   1      35.298  33.685  31.776  1.00  0.00     0.200 A 
ATOM     92  F   UNL A   1      35.021  33.096  34.043  1.00  0.00    -0.200 F 
ATOM     93  F   UNL A   1      34.014  34.065  31.704  1.00  0.00    -0.200 F 
ENDBRANCH  59  83
BRANCH  71  94
ATOM     94  C   UNL A   1      43.762  31.059  33.754  1.00  0.00     0.064 A 
ATOM     95  C   UNL A   1      43.294  29.735  33.822  1.00  0.00     0.173 A 
ATOM     96  C   UNL A   1      44.367  31.582  34.902  1.00  0.00     0.173 A 
ATOM     97  F   UNL A   1      42.803  29.125  32.737  1.00  0.00    -0.203 F 
ATOM     98  C   UNL A   1      43.395  28.984  34.992  1.00  0.00     0.198 A 
ATOM     99  C   UNL A   1      44.505  30.819  36.059  1.00  0.00     0.198 A 
ATOM    100  F   UNL A   1      44.892  32.818  34.879  1.00  0.00    -0.203 F 
ATOM    101  F   UNL A   1      42.939  27.724  35.024  1.00  0.00    -0.200 F 
ATOM    102  C   UNL A   1      44.011  29.525  36.107  1.00  0.00     0.200 A 
ATOM    103  F   UNL A   1      45.151  31.326  37.117  1.00  0.00    -0.200 F 
ATOM    104  F   UNL A   1      44.160  28.788  37.217  1.00  0.00    -0.200 F 
ENDBRANCH  71  94
ENDBRANCH  45  46
ENDBRANCH  38  40
ENDBRANCH  37  38
ENDBRANCH  36  37
ENDBRANCH  35  36
ENDBRANCH  34  35
ENDBRANCH   1  34
TORSDOF 20
ENDMDL
MODEL 3
REMARK VINA RESULT:     -12.2      3.545      9.314
REMARK SMILES Cc1coc2c(C)c3oc(=O)c(CCC(=O)N[C@H](CC(C)C)C(=O)OCCOCCOC(=O)c4ccc(-c5c6nc(c(-c7c(F)c(F)c(F)c(F)c7F)c7ccc([nH]7)c(-c7c(F)c(F)c(F)c(F)c7F)c7nc(c(-c8c(F)c(F)c(F)c(F)c8F)c8ccc5[nH]8)C=C7)C=C6)cc4)c(C)c3cc12
REMARK SMILES IDX 27 1 26 2 25 3 23 4 24 5 18 6 17 7 15 8 16 9 14 11 13 12
REMARK SMILES IDX 12 13 1 14 2 15 3 16 101 17 4 18 5 19 100 20 6 21 99 22 7 23
REMARK SMILES IDX 8 24 97 25 9 26 98 27 10 28 11 29 19 30 20 31 21 32 22 33
REMARK SMILES IDX 28 34 29 35 30 36 31 37 32 38 33 39 34 40 35 41 96 42 36 43
REMARK SMILES IDX 95 44 37 45 38 46 39 47 89 48 40 49 94 50 88 51 90 52 41 53
REMARK SMILES IDX 93 54 87 55 86 56 42 58 74 59 54 60 73 61 55 62 58 63 72 64
REMARK SMILES IDX 91 65 56 66 57 67 71 69 92 70 59 71 43 72 44 73 52 74 45 75
REMARK SMILES IDX 46 76 50 77 53 78 47 79 48 80 51 81 49 82 75 83 76 84 84 85
REMARK SMILES IDX 77 86 78 87 82 88 85 89 79 90 80 91 83 92 81 93 60 94 61 95
REMARK SMILES IDX 69 96 62 97 63 98 67 99 70 100 64 101 65 102 68 103 66 104
REMARK H PARENT 17 10 90 57 58 68
REMARK Flexibility Score: inf
ROOT
ATOM      1  C   UNL A   1      40.025  21.729  26.165  1.00  0.00     0.202 C 
ENDROOT
BRANCH   1   2
ATOM      2  C   UNL A   1      38.778  23.043  26.323  1.00  0.00     0.261 C 
BRANCH   2   3
ATOM      3  O   UNL A   1      37.183  22.969  25.900  1.00  0.00    -0.462 OA
BRANCH   3   4
ATOM      4  C   UNL A   1      36.470  22.891  24.701  1.00  0.00     0.328 C 
ATOM      5  O   UNL A   1      36.923  22.683  23.571  1.00  0.00    -0.250 OA
BRANCH   4   6
ATOM      6  C   UNL A   1      34.990  23.237  24.638  1.00  0.00     0.192 C 
BRANCH   6   7
ATOM      7  N   UNL A   1      34.633  24.174  23.608  1.00  0.00    -0.343 N 
ATOM      8  C   UNL A   1      33.587  23.895  22.743  1.00  0.00     0.221 C 
ATOM      9  O   UNL A   1      33.663  24.289  21.580  1.00  0.00    -0.275 OA
ATOM     10  H   UNL A   1      35.133  25.017  23.518  1.00  0.00     0.164 HD
BRANCH   8  11
ATOM     11  C   UNL A   1      32.316  23.198  23.293  1.00  0.00     0.105 C 
BRANCH  11  12
ATOM     12  C   UNL A   1      30.944  23.935  23.419  1.00  0.00     0.053 C 
BRANCH  12  13
ATOM     13  C   UNL A   1      30.905  25.405  23.860  1.00  0.00     0.042 A 
ATOM     14  C   UNL A   1      27.813  31.984  21.663  1.00  0.00     0.048 C 
ATOM     15  C   UNL A   1      28.659  31.876  22.889  1.00  0.00    -0.005 A 
ATOM     16  C   UNL A   1      29.249  32.880  23.659  1.00  0.00     0.199 A 
ATOM     17  C   UNL A   1      29.104  30.664  23.463  1.00  0.00     0.024 A 
ATOM     18  O   UNL A   1      30.131  32.471  24.647  1.00  0.00    -0.464 OA
ATOM     19  C   UNL A   1      30.287  31.108  24.551  1.00  0.00     0.140 A 
ATOM     20  C   UNL A   1      28.948  28.945  23.023  1.00  0.00     0.024 A 
ATOM     21  C   UNL A   1      31.448  29.950  25.263  1.00  0.00     0.036 A 
ATOM     22  C   UNL A   1      30.278  27.690  23.481  1.00  0.00     0.022 A 
ATOM     23  C   UNL A   1      31.746  30.221  26.729  1.00  0.00     0.052 C 
ATOM     24  C   UNL A   1      31.484  28.235  24.644  1.00  0.00     0.145 A 
ATOM     25  C   UNL A   1      30.702  26.371  22.955  1.00  0.00    -0.030 A 
ATOM     26  O   UNL A   1      31.865  27.116  25.475  1.00  0.00    -0.422 OA
ATOM     27  C   UNL A   1      31.286  26.148  21.565  1.00  0.00     0.046 C 
ATOM     28  C   UNL A   1      31.322  25.810  25.257  1.00  0.00     0.339 A 
ATOM     29  O   UNL A   1      31.316  24.980  26.162  1.00  0.00    -0.246 OA
ENDBRANCH  12  13
ENDBRANCH  11  12
ENDBRANCH   8  11
ENDBRANCH   6   7
BRANCH   6  30
ATOM     30  C   UNL A   1      34.519  23.424  26.135  1.00  0.00     0.040 C 
BRANCH  30  31
ATOM     31  C   UNL A   1      33.419  22.394  26.612  1.00  0.00    -0.015 C 
ATOM     32  C   UNL A   1      33.544  20.908  26.212  1.00  0.00     0.007 C 
ATOM     33  C   UNL A   1      33.268  22.388  28.146  1.00  0.00     0.007 C 
ENDBRANCH  30  31
ENDBRANCH   6  30
ENDBRANCH   4   6
ENDBRANCH   3   4
ENDBRANCH   2   3
ENDBRANCH   1   2
BRANCH   1  34
ATOM     34  O   UNL A   1      41.732  21.871  26.527  1.00  0.00    -0.374 OA
BRANCH  34  35
ATOM     35  C   UNL A   1      43.400  22.116  25.385  1.00  0.00     0.202 C 
BRANCH  35  36
ATOM     36  C   UNL A   1      44.088  23.323  24.653  1.00  0.00     0.261 C 
BRANCH  36  37
ATOM     37  O   UNL A   1      44.560  24.343  25.476  1.00  0.00    -0.460 OA
BRANCH  37  38
ATOM     38  C   UNL A   1      43.805  25.445  25.355  1.00  0.00     0.338 C 
ATOM     39  O   UNL A   1      43.985  26.421  24.647  1.00  0.00    -0.246 OA
BRANCH  38  40
ATOM     40  C   UNL A   1      42.721  25.301  26.336  1.00  0.00     0.060 A 
ATOM     41  C   UNL A   1      41.626  26.067  25.937  1.00  0.00     0.016 A 
ATOM     42  C   UNL A   1      43.247  25.317  27.631  1.00  0.00     0.016 A 
ATOM     43  C   UNL A   1      41.417  27.212  26.643  1.00  0.00     0.010 A 
ATOM     44  C   UNL A   1      43.132  26.504  28.278  1.00  0.00     0.010 A 
ATOM     45  C   UNL A   1      42.248  27.444  27.744  1.00  0.00    -0.014 A 
BRANCH  45  46
ATOM     46  C   UNL A   1      41.940  28.571  28.562  1.00  0.00     0.031 A 
ATOM     47  C   UNL A   1      42.988  29.597  28.373  1.00  0.00     0.074 A 
ATOM     48  C   UNL A   1      40.783  28.658  29.223  1.00  0.00     0.049 A 
ATOM     49  N   UNL A   1      43.933  29.906  29.197  1.00  0.00    -0.248 NA
ATOM     50  C   UNL A   1      43.218  30.079  26.993  1.00  0.00     0.031 C 
ATOM     51  C   UNL A   1      39.621  27.772  29.180  1.00  0.00     0.029 A 
ATOM     52  N   UNL A   1      40.373  29.690  29.990  1.00  0.00    -0.354 N 
ATOM     53  C   UNL A   1      44.735  30.787  28.488  1.00  0.00     0.074 A 
ATOM     54  C   UNL A   1      44.439  30.596  27.100  1.00  0.00     0.031 C 
ATOM     55  C   UNL A   1      38.559  28.426  29.708  1.00  0.00     0.029 A 
ATOM     56  C   UNL A   1      39.005  29.716  30.202  1.00  0.00     0.049 A 
ATOM     57  H   UNL A   1      40.989  30.360  30.365  1.00  0.00     0.167 HD
ATOM     58  C   UNL A   1      45.323  31.845  29.103  1.00  0.00     0.037 A 
ATOM     59  C   UNL A   1      38.354  30.829  30.619  1.00  0.00     0.037 A 
ATOM     60  C   UNL A   1      45.325  31.673  30.531  1.00  0.00     0.049 A 
ATOM     61  C   UNL A   1      39.398  31.749  31.183  1.00  0.00     0.074 A 
ATOM     62  C   UNL A   1      45.888  30.728  31.368  1.00  0.00     0.029 A 
ATOM     63  N   UNL A   1      44.300  32.258  31.241  1.00  0.00    -0.354 N 
ATOM     64  N   UNL A   1      40.079  31.483  32.269  1.00  0.00    -0.248 NA
ATOM     65  C   UNL A   1      40.049  32.683  30.267  1.00  0.00     0.031 C 
ATOM     66  C   UNL A   1      44.900  30.477  32.362  1.00  0.00     0.029 A 
ATOM     67  C   UNL A   1      43.818  31.331  32.133  1.00  0.00     0.049 A 
ATOM     68  H   UNL A   1      43.971  33.179  31.129  1.00  0.00     0.167 HD
ATOM     69  C   UNL A   1      41.382  31.888  31.995  1.00  0.00     0.074 A 
ATOM     70  C   UNL A   1      41.287  32.680  30.772  1.00  0.00     0.031 C 
ATOM     71  C   UNL A   1      42.451  31.296  32.606  1.00  0.00     0.037 A 
BRANCH  58  72
ATOM     72  C   UNL A   1      45.536  33.168  28.427  1.00  0.00     0.064 A 
ATOM     73  C   UNL A   1      46.843  33.659  28.289  1.00  0.00     0.173 A 
ATOM     74  C   UNL A   1      44.502  34.086  28.126  1.00  0.00     0.173 A 
ATOM     75  F   UNL A   1      47.896  32.879  28.579  1.00  0.00    -0.203 F 
ATOM     76  C   UNL A   1      47.092  34.983  27.923  1.00  0.00     0.198 A 
ATOM     77  C   UNL A   1      44.755  35.383  27.697  1.00  0.00     0.198 A 
ATOM     78  F   UNL A   1      43.210  33.814  28.340  1.00  0.00    -0.203 F 
ATOM     79  F   UNL A   1      48.351  35.441  27.914  1.00  0.00    -0.200 F 
ATOM     80  C   UNL A   1      46.050  35.842  27.624  1.00  0.00     0.200 A 
ATOM     81  F   UNL A   1      43.725  36.201  27.430  1.00  0.00    -0.200 F 
ATOM     82  F   UNL A   1      46.286  37.123  27.317  1.00  0.00    -0.200 F 
ENDBRANCH  58  72
BRANCH  59  83
ATOM     83  C   UNL A   1      36.987  31.259  30.252  1.00  0.00     0.064 A 
ATOM     84  C   UNL A   1      36.144  31.859  31.197  1.00  0.00     0.173 A 
ATOM     85  C   UNL A   1      36.548  31.294  28.912  1.00  0.00     0.173 A 
ATOM     86  F   UNL A   1      36.509  31.912  32.487  1.00  0.00    -0.203 F 
ATOM     87  C   UNL A   1      34.940  32.467  30.824  1.00  0.00     0.198 A 
ATOM     88  C   UNL A   1      35.342  31.888  28.543  1.00  0.00     0.198 A 
ATOM     89  F   UNL A   1      37.318  30.832  27.917  1.00  0.00    -0.203 F 
ATOM     90  F   UNL A   1      34.186  33.079  31.748  1.00  0.00    -0.200 F 
ATOM     91  C   UNL A   1      34.543  32.485  29.497  1.00  0.00     0.200 A 
ATOM     92  F   UNL A   1      34.988  31.926  27.249  1.00  0.00    -0.200 F 
ATOM     93  F   UNL A   1      33.415  33.110  29.133  1.00  0.00    -0.200 F 
ENDBRANCH  59  83
BRANCH  71  94
ATOM     94  C   UNL A   1      42.168  30.331  33.728  1.00  0.00     0.064 A 
ATOM     95  C   UNL A   1      41.931  28.959  33.531  1.00  0.00     0.173 A 
ATOM     96  C   UNL A   1      42.338  30.767  35.047  1.00  0.00     0.173 A 
ATOM     97  F   UNL A   1      41.866  28.445  32.298  1.00  0.00    -0.203 F 
ATOM     98  C   UNL A   1      41.832  28.075  34.604  1.00  0.00     0.198 A 
ATOM     99  C   UNL A   1      42.280  29.877  36.117  1.00  0.00     0.198 A 
ATOM    100  F   UNL A   1      42.633  32.053  35.295  1.00  0.00    -0.203 F 
ATOM    101  F   UNL A   1      41.603  26.772  34.382  1.00  0.00    -0.200 F 
ATOM    102  C   UNL A   1      42.018  28.534  35.896  1.00  0.00     0.200 A 
ATOM    103  F   UNL A   1      42.516  30.315  37.360  1.00  0.00    -0.200 F 
ATOM    104  F   UNL A   1      41.979  27.677  36.926  1.00  0.00    -0.200 F 
ENDBRANCH  71  94
ENDBRANCH  45  46
ENDBRANCH  38  40
ENDBRANCH  37  38
ENDBRANCH  36  37
ENDBRANCH  35  36
ENDBRANCH  34  35
ENDBRANCH   1  34
TORSDOF 20
ENDMDL
