MODEL 1
REMARK VINA RESULT:     -11.9      0.000      0.000
REMARK SMILES O=C(Cn1cc(NC(=O)N2CC[N@@H+]3CCC[C@@H]3C2)cn1)OCCOCCOC(=O)c1ccc(-c2c3nc(c(-c4c(F)c(F)c(F)c(F)c4F)c4ccc([nH]4)c(-c4c(F)c(F)c(F)c(F)c4F)c4nc(c(-c5c(F)c(F)c(F)c(F)c5F)c5ccc2[nH]5)C=C4)C=C3)cc1
REMARK SMILES IDX 23 1 22 2 21 3 2 4 1 5 3 6 4 7 5 8 20 9 6 10 19 11 7 12 8 13
REMARK SMILES IDX 9 15 10 16 11 17 18 18 12 19 17 20 13 21 16 22 14 23 15 25
REMARK SMILES IDX 24 26 25 27 26 28 27 29 28 30 29 31 30 32 31 33 92 34 32 35
REMARK SMILES IDX 91 36 33 37 34 38 35 39 85 40 36 41 90 42 84 43 86 44 37 45
REMARK SMILES IDX 89 46 83 47 82 48 38 50 70 51 50 52 69 53 51 54 54 55 68 56
REMARK SMILES IDX 87 57 52 58 53 59 67 61 88 62 55 63 39 64 40 65 48 66 41 67
REMARK SMILES IDX 42 68 46 69 49 70 43 71 44 72 47 73 45 74 71 75 72 76 80 77
REMARK SMILES IDX 73 78 74 79 78 80 81 81 75 82 76 83 79 84 77 85 56 86 57 87
REMARK SMILES IDX 65 88 58 89 59 90 63 91 66 92 60 93 61 94 64 95 62 96
REMARK H PARENT 7 14 13 24 86 49 54 60
REMARK Flexibility Score: inf
ROOT
ATOM      1  C   UNL A   1      39.974  21.126  26.489  1.00  0.00     0.202 C 
ENDROOT
BRANCH   1   2
ATOM      2  C   UNL A   1      39.138  22.230  25.844  1.00  0.00     0.261 C 
BRANCH   2   3
ATOM      3  O   UNL A   1      37.734  22.086  26.066  1.00  0.00    -0.462 OA
BRANCH   3   4
ATOM      4  C   UNL A   1      36.851  21.746  25.095  1.00  0.00     0.327 C 
ATOM      5  O   UNL A   1      36.878  22.390  24.045  1.00  0.00    -0.250 OA
BRANCH   4   6
ATOM      6  C   UNL A   1      35.708  20.808  25.385  1.00  0.00     0.266 C 
BRANCH   6   7
ATOM      7  N   UNL A   1      34.361  21.274  25.168  1.00  0.00    -0.259 N 
ATOM      8  C   UNL A   1      33.545  22.032  25.961  1.00  0.00     0.135 A 
ATOM      9  N   UNL A   1      33.843  21.111  23.935  1.00  0.00    -0.179 NA
ATOM     10  C   UNL A   1      32.298  21.826  25.436  1.00  0.00     0.081 A 
ATOM     11  C   UNL A   1      32.568  21.450  24.105  1.00  0.00     0.161 A 
BRANCH  10  12
ATOM     12  N   UNL A   1      31.110  21.989  26.112  1.00  0.00    -0.305 N 
ATOM     13  C   UNL A   1      30.602  23.196  26.507  1.00  0.00     0.322 C 
ATOM     14  H   UNL A   1      30.590  21.181  26.324  1.00  0.00     0.171 HD
ATOM     15  O   UNL A   1      29.801  23.256  27.437  1.00  0.00    -0.248 OA
BRANCH  13  16
ATOM     16  N   UNL A   1      31.053  24.311  25.837  1.00  0.00    -0.313 N 
ATOM     17  C   UNL A   1      30.646  24.636  24.458  1.00  0.00     0.183 C 
ATOM     18  C   UNL A   1      31.816  25.300  26.569  1.00  0.00     0.186 C 
ATOM     19  C   UNL A   1      31.241  25.953  23.924  1.00  0.00     0.284 C 
ATOM     20  C   UNL A   1      31.390  26.736  26.274  1.00  0.00     0.204 C 
ATOM     21  N   UNL A   1      31.149  27.084  24.855  1.00  0.00    -0.330 N 
ATOM     22  C   UNL A   1      32.447  27.721  26.771  1.00  0.00     0.073 C 
ATOM     23  C   UNL A   1      32.046  28.184  24.490  1.00  0.00     0.262 C 
ATOM     24  H   UNL A   1      30.177  27.379  24.768  1.00  0.00     0.348 HD
ATOM     25  C   UNL A   1      32.331  28.881  25.807  1.00  0.00     0.068 C 
ENDBRANCH  13  16
ENDBRANCH  10  12
ENDBRANCH   6   7
ENDBRANCH   4   6
ENDBRANCH   3   4
ENDBRANCH   2   3
ENDBRANCH   1   2
BRANCH   1  26
ATOM     26  O   UNL A   1      41.097  20.630  25.758  1.00  0.00    -0.374 OA
BRANCH  26  27
ATOM     27  C   UNL A   1      41.603  19.323  26.069  1.00  0.00     0.202 C 
BRANCH  27  28
ATOM     28  C   UNL A   1      43.007  18.982  25.634  1.00  0.00     0.261 C 
BRANCH  28  29
ATOM     29  O   UNL A   1      43.778  20.158  25.638  1.00  0.00    -0.460 OA
BRANCH  29  30
ATOM     30  C   UNL A   1      44.482  20.390  24.519  1.00  0.00     0.338 C 
ATOM     31  O   UNL A   1      44.813  19.586  23.649  1.00  0.00    -0.246 OA
BRANCH  30  32
ATOM     32  C   UNL A   1      44.897  21.789  24.584  1.00  0.00     0.060 A 
ATOM     33  C   UNL A   1      45.765  22.074  25.630  1.00  0.00     0.016 A 
ATOM     34  C   UNL A   1      44.045  22.748  24.010  1.00  0.00     0.016 A 
ATOM     35  C   UNL A   1      45.506  23.208  26.350  1.00  0.00     0.010 A 
ATOM     36  C   UNL A   1      43.739  23.841  24.766  1.00  0.00     0.010 A 
ATOM     37  C   UNL A   1      44.414  24.000  25.970  1.00  0.00    -0.014 A 
BRANCH  37  38
ATOM     38  C   UNL A   1      44.119  25.157  26.767  1.00  0.00     0.031 A 
ATOM     39  C   UNL A   1      45.161  26.176  26.570  1.00  0.00     0.074 A 
ATOM     40  C   UNL A   1      43.013  25.288  27.512  1.00  0.00     0.049 A 
ATOM     41  N   UNL A   1      46.185  26.373  27.328  1.00  0.00    -0.248 NA
ATOM     42  C   UNL A   1      45.248  26.825  25.252  1.00  0.00     0.031 C 
ATOM     43  C   UNL A   1      41.806  24.463  27.532  1.00  0.00     0.029 A 
ATOM     44  N   UNL A   1      42.721  26.286  28.383  1.00  0.00    -0.354 N 
ATOM     45  C   UNL A   1      46.915  27.358  26.683  1.00  0.00     0.074 A 
ATOM     46  C   UNL A   1      46.464  27.366  25.320  1.00  0.00     0.031 C 
ATOM     47  C   UNL A   1      40.833  25.121  28.209  1.00  0.00     0.029 A 
ATOM     48  C   UNL A   1      41.391  26.339  28.774  1.00  0.00     0.049 A 
ATOM     49  H   UNL A   1      43.398  26.920  28.711  1.00  0.00     0.167 HD
ATOM     50  C   UNL A   1      47.551  28.313  27.411  1.00  0.00     0.037 A 
ATOM     51  C   UNL A   1      40.824  27.380  29.435  1.00  0.00     0.037 A 
ATOM     52  C   UNL A   1      47.673  27.900  28.791  1.00  0.00     0.049 A 
ATOM     53  C   UNL A   1      41.932  28.164  30.053  1.00  0.00     0.074 A 
ATOM     54  C   UNL A   1      48.272  26.838  29.440  1.00  0.00     0.029 A 
ATOM     55  N   UNL A   1      46.763  28.422  29.678  1.00  0.00    -0.354 N 
ATOM     56  N   UNL A   1      42.668  27.724  31.037  1.00  0.00    -0.248 NA
ATOM     57  C   UNL A   1      42.527  29.234  29.265  1.00  0.00     0.031 C 
ATOM     58  C   UNL A   1      47.394  26.508  30.514  1.00  0.00     0.029 A 
ATOM     59  C   UNL A   1      46.340  27.423  30.513  1.00  0.00     0.049 A 
ATOM     60  H   UNL A   1      46.465  29.360  29.709  1.00  0.00     0.167 HD
ATOM     61  C   UNL A   1      43.957  28.135  30.727  1.00  0.00     0.074 A 
ATOM     62  C   UNL A   1      43.795  29.137  29.676  1.00  0.00     0.031 C 
ATOM     63  C   UNL A   1      45.035  27.403  31.137  1.00  0.00     0.037 A 
BRANCH  50  64
ATOM     64  C   UNL A   1      47.635  29.762  26.993  1.00  0.00     0.064 A 
ATOM     65  C   UNL A   1      48.870  30.421  27.136  1.00  0.00     0.173 A 
ATOM     66  C   UNL A   1      46.524  30.603  26.749  1.00  0.00     0.173 A 
ATOM     67  F   UNL A   1      49.990  29.726  27.382  1.00  0.00    -0.203 F 
ATOM     68  C   UNL A   1      48.966  31.815  27.132  1.00  0.00     0.198 A 
ATOM     69  C   UNL A   1      46.635  31.989  26.689  1.00  0.00     0.198 A 
ATOM     70  F   UNL A   1      45.269  30.153  26.671  1.00  0.00    -0.203 F 
ATOM     71  F   UNL A   1      50.139  32.397  27.412  1.00  0.00    -0.200 F 
ATOM     72  C   UNL A   1      47.847  32.597  26.916  1.00  0.00     0.200 A 
ATOM     73  F   UNL A   1      45.531  32.726  26.496  1.00  0.00    -0.200 F 
ATOM     74  F   UNL A   1      47.925  33.932  26.977  1.00  0.00    -0.200 F 
ENDBRANCH  50  64
BRANCH  51  75
ATOM     75  C   UNL A   1      39.457  27.935  29.296  1.00  0.00     0.064 A 
ATOM     76  C   UNL A   1      38.625  28.083  30.420  1.00  0.00     0.173 A 
ATOM     77  C   UNL A   1      39.048  28.600  28.125  1.00  0.00     0.173 A 
ATOM     78  F   UNL A   1      38.965  27.518  31.588  1.00  0.00    -0.203 F 
ATOM     79  C   UNL A   1      37.475  28.877  30.384  1.00  0.00     0.198 A 
ATOM     80  C   UNL A   1      37.895  29.387  28.089  1.00  0.00     0.198 A 
ATOM     81  F   UNL A   1      39.809  28.584  27.022  1.00  0.00    -0.203 F 
ATOM     82  F   UNL A   1      36.747  29.050  31.496  1.00  0.00    -0.200 F 
ATOM     83  C   UNL A   1      37.117  29.538  29.222  1.00  0.00     0.200 A 
ATOM     84  F   UNL A   1      37.581  30.052  26.967  1.00  0.00    -0.200 F 
ATOM     85  F   UNL A   1      36.053  30.352  29.204  1.00  0.00    -0.200 F 
ENDBRANCH  51  75
BRANCH  63  86
ATOM     86  C   UNL A   1      44.803  26.350  32.185  1.00  0.00     0.064 A 
ATOM     87  C   UNL A   1      44.740  26.601  33.567  1.00  0.00     0.173 A 
ATOM     88  C   UNL A   1      44.505  25.051  31.751  1.00  0.00     0.173 A 
ATOM     89  F   UNL A   1      44.912  27.837  34.053  1.00  0.00    -0.203 F 
ATOM     90  C   UNL A   1      44.439  25.583  34.472  1.00  0.00     0.198 A 
ATOM     91  C   UNL A   1      44.164  24.047  32.652  1.00  0.00     0.198 A 
ATOM     92  F   UNL A   1      44.498  24.766  30.439  1.00  0.00    -0.203 F 
ATOM     93  F   UNL A   1      44.403  25.840  35.787  1.00  0.00    -0.200 F 
ATOM     94  C   UNL A   1      44.145  24.309  34.012  1.00  0.00     0.200 A 
ATOM     95  F   UNL A   1      43.830  22.832  32.198  1.00  0.00    -0.200 F 
ATOM     96  F   UNL A   1      43.815  23.340  34.878  1.00  0.00    -0.200 F 
ENDBRANCH  63  86
ENDBRANCH  37  38
ENDBRANCH  30  32
ENDBRANCH  29  30
ENDBRANCH  28  29
ENDBRANCH  27  28
ENDBRANCH  26  27
ENDBRANCH   1  26
TORSDOF 17
ENDMDL
MODEL 2
REMARK VINA RESULT:     -11.8      4.958     10.399
REMARK SMILES O=C(Cn1cc(NC(=O)N2CC[N@@H+]3CCC[C@@H]3C2)cn1)OCCOCCOC(=O)c1ccc(-c2c3nc(c(-c4c(F)c(F)c(F)c(F)c4F)c4ccc([nH]4)c(-c4c(F)c(F)c(F)c(F)c4F)c4nc(c(-c5c(F)c(F)c(F)c(F)c5F)c5ccc2[nH]5)C=C4)C=C3)cc1
REMARK SMILES IDX 23 1 22 2 21 3 2 4 1 5 3 6 4 7 5 8 20 9 6 10 19 11 7 12 8 13
REMARK SMILES IDX 9 15 10 16 11 17 18 18 12 19 17 20 13 21 16 22 14 23 15 25
REMARK SMILES IDX 24 26 25 27 26 28 27 29 28 30 29 31 30 32 31 33 92 34 32 35
REMARK SMILES IDX 91 36 33 37 34 38 35 39 85 40 36 41 90 42 84 43 86 44 37 45
REMARK SMILES IDX 89 46 83 47 82 48 38 50 70 51 50 52 69 53 51 54 54 55 68 56
REMARK SMILES IDX 87 57 52 58 53 59 67 61 88 62 55 63 39 64 40 65 48 66 41 67
REMARK SMILES IDX 42 68 46 69 49 70 43 71 44 72 47 73 45 74 71 75 72 76 80 77
REMARK SMILES IDX 73 78 74 79 78 80 81 81 75 82 76 83 79 84 77 85 56 86 57 87
REMARK SMILES IDX 65 88 58 89 59 90 63 91 66 92 60 93 61 94 64 95 62 96
REMARK H PARENT 7 14 13 24 86 49 54 60
REMARK Flexibility Score: inf
ROOT
ATOM      1  C   UNL A   1      33.582  33.008  28.032  1.00  0.00     0.202 C 
ENDROOT
BRANCH   1   2
ATOM      2  C   UNL A   1      34.075  31.585  27.776  1.00  0.00     0.261 C 
BRANCH   2   3
ATOM      3  O   UNL A   1      33.021  30.642  27.577  1.00  0.00    -0.462 OA
BRANCH   3   4
ATOM      4  C   UNL A   1      33.117  29.573  26.749  1.00  0.00     0.327 C 
ATOM      5  O   UNL A   1      33.510  28.509  27.230  1.00  0.00    -0.250 OA
BRANCH   4   6
ATOM      6  C   UNL A   1      33.010  29.740  25.255  1.00  0.00     0.266 C 
BRANCH   6   7
ATOM      7  N   UNL A   1      32.425  28.673  24.481  1.00  0.00    -0.259 N 
ATOM      8  C   UNL A   1      33.001  27.784  23.618  1.00  0.00     0.135 A 
ATOM      9  N   UNL A   1      31.145  28.349  24.748  1.00  0.00    -0.179 NA
ATOM     10  C   UNL A   1      31.943  27.289  22.905  1.00  0.00     0.081 A 
ATOM     11  C   UNL A   1      30.849  27.496  23.771  1.00  0.00     0.161 A 
BRANCH  10  12
ATOM     12  N   UNL A   1      32.017  26.722  21.654  1.00  0.00    -0.305 N 
ATOM     13  C   UNL A   1      32.636  25.535  21.375  1.00  0.00     0.322 C 
ATOM     14  H   UNL A   1      31.594  27.204  20.907  1.00  0.00     0.171 HD
ATOM     15  O   UNL A   1      33.035  25.296  20.238  1.00  0.00    -0.248 OA
BRANCH  13  16
ATOM     16  N   UNL A   1      32.808  24.661  22.425  1.00  0.00    -0.313 N 
ATOM     17  C   UNL A   1      31.711  23.847  22.978  1.00  0.00     0.183 C 
ATOM     18  C   UNL A   1      34.152  24.395  22.894  1.00  0.00     0.186 C 
ATOM     19  C   UNL A   1      32.143  22.910  24.123  1.00  0.00     0.284 C 
ATOM     20  C   UNL A   1      34.424  22.914  23.148  1.00  0.00     0.204 C 
ATOM     21  N   UNL A   1      33.371  22.153  23.859  1.00  0.00    -0.330 N 
ATOM     22  C   UNL A   1      35.696  22.737  23.975  1.00  0.00     0.073 C 
ATOM     23  C   UNL A   1      33.954  21.588  25.079  1.00  0.00     0.262 C 
ATOM     24  H   UNL A   1      33.057  21.406  23.240  1.00  0.00     0.348 HD
ATOM     25  C   UNL A   1      35.434  21.474  24.764  1.00  0.00     0.068 C 
ENDBRANCH  13  16
ENDBRANCH  10  12
ENDBRANCH   6   7
ENDBRANCH   4   6
ENDBRANCH   3   4
ENDBRANCH   2   3
ENDBRANCH   1   2
BRANCH   1  26
ATOM     26  O   UNL A   1      34.507  34.078  27.831  1.00  0.00    -0.374 OA
BRANCH  26  27
ATOM     27  C   UNL A   1      34.449  35.216  28.705  1.00  0.00     0.202 C 
BRANCH  27  28
ATOM     28  C   UNL A   1      33.355  35.262  29.743  1.00  0.00     0.261 C 
BRANCH  28  29
ATOM     29  O   UNL A   1      33.912  35.675  30.966  1.00  0.00    -0.460 OA
BRANCH  29  30
ATOM     30  C   UNL A   1      33.346  35.150  32.064  1.00  0.00     0.338 C 
ATOM     31  O   UNL A   1      32.184  35.264  32.447  1.00  0.00    -0.246 OA
BRANCH  30  32
ATOM     32  C   UNL A   1      34.424  34.500  32.805  1.00  0.00     0.060 A 
ATOM     33  C   UNL A   1      35.611  35.222  32.828  1.00  0.00     0.016 A 
ATOM     34  C   UNL A   1      34.373  33.102  32.935  1.00  0.00     0.016 A 
ATOM     35  C   UNL A   1      36.761  34.518  32.596  1.00  0.00     0.010 A 
ATOM     36  C   UNL A   1      35.507  32.407  32.634  1.00  0.00     0.010 A 
ATOM     37  C   UNL A   1      36.662  33.137  32.379  1.00  0.00    -0.014 A 
BRANCH  37  38
ATOM     38  C   UNL A   1      37.869  32.420  32.082  1.00  0.00     0.031 A 
ATOM     39  C   UNL A   1      38.678  32.280  33.302  1.00  0.00     0.074 A 
ATOM     40  C   UNL A   1      38.152  31.902  30.879  1.00  0.00     0.049 A 
ATOM     41  N   UNL A   1      39.657  33.041  33.656  1.00  0.00    -0.248 NA
ATOM     42  C   UNL A   1      38.160  31.418  34.376  1.00  0.00     0.031 C 
ATOM     43  C   UNL A   1      37.286  31.741  29.712  1.00  0.00     0.029 A 
ATOM     44  N   UNL A   1      39.314  31.324  30.486  1.00  0.00    -0.354 N 
ATOM     45  C   UNL A   1      40.028  32.575  34.907  1.00  0.00     0.074 A 
ATOM     46  C   UNL A   1      38.915  31.815  35.400  1.00  0.00     0.031 C 
ATOM     47  C   UNL A   1      37.891  30.912  28.826  1.00  0.00     0.029 A 
ATOM     48  C   UNL A   1      39.227  30.598  29.307  1.00  0.00     0.049 A 
ATOM     49  H   UNL A   1      40.151  31.411  30.996  1.00  0.00     0.167 HD
ATOM     50  C   UNL A   1      41.341  32.553  35.257  1.00  0.00     0.037 A 
ATOM     51  C   UNL A   1      40.181  29.747  28.854  1.00  0.00     0.037 A 
ATOM     52  C   UNL A   1      42.114  33.400  34.377  1.00  0.00     0.049 A 
ATOM     53  C   UNL A   1      41.450  30.098  29.553  1.00  0.00     0.074 A 
ATOM     54  C   UNL A   1      42.099  34.744  34.060  1.00  0.00     0.029 A 
ATOM     55  N   UNL A   1      42.803  32.779  33.364  1.00  0.00    -0.354 N 
ATOM     56  N   UNL A   1      42.108  31.206  29.346  1.00  0.00    -0.248 NA
ATOM     57  C   UNL A   1      41.732  29.439  30.821  1.00  0.00     0.031 C 
ATOM     58  C   UNL A   1      42.401  34.807  32.667  1.00  0.00     0.029 A 
ATOM     59  C   UNL A   1      42.653  33.511  32.217  1.00  0.00     0.049 A 
ATOM     60  H   UNL A   1      43.321  31.946  33.449  1.00  0.00     0.167 HD
ATOM     61  C   UNL A   1      42.531  31.608  30.605  1.00  0.00     0.074 A 
ATOM     62  C   UNL A   1      42.350  30.437  31.460  1.00  0.00     0.031 C 
ATOM     63  C   UNL A   1      42.695  32.933  30.891  1.00  0.00     0.037 A 
BRANCH  50  64
ATOM     64  C   UNL A   1      41.970  31.440  36.062  1.00  0.00     0.064 A 
ATOM     65  C   UNL A   1      42.806  31.793  37.137  1.00  0.00     0.173 A 
ATOM     66  C   UNL A   1      42.037  30.085  35.662  1.00  0.00     0.173 A 
ATOM     67  F   UNL A   1      42.834  33.053  37.594  1.00  0.00    -0.203 F 
ATOM     68  C   UNL A   1      43.706  30.885  37.699  1.00  0.00     0.198 A 
ATOM     69  C   UNL A   1      42.896  29.169  36.263  1.00  0.00     0.198 A 
ATOM     70  F   UNL A   1      41.376  29.600  34.607  1.00  0.00    -0.203 F 
ATOM     71  F   UNL A   1      44.578  31.306  38.624  1.00  0.00    -0.200 F 
ATOM     72  C   UNL A   1      43.756  29.577  37.257  1.00  0.00     0.200 A 
ATOM     73  F   UNL A   1      42.938  27.911  35.803  1.00  0.00    -0.200 F 
ATOM     74  F   UNL A   1      44.662  28.723  37.747  1.00  0.00    -0.200 F 
ENDBRANCH  50  64
BRANCH  51  75
ATOM     75  C   UNL A   1      40.014  28.461  28.136  1.00  0.00     0.064 A 
ATOM     76  C   UNL A   1      40.697  28.217  26.932  1.00  0.00     0.173 A 
ATOM     77  C   UNL A   1      39.424  27.342  28.756  1.00  0.00     0.173 A 
ATOM     78  F   UNL A   1      41.325  29.220  26.299  1.00  0.00    -0.203 F 
ATOM     79  C   UNL A   1      40.814  26.930  26.400  1.00  0.00     0.198 A 
ATOM     80  C   UNL A   1      39.535  26.058  28.219  1.00  0.00     0.198 A 
ATOM     81  F   UNL A   1      38.815  27.455  29.944  1.00  0.00    -0.203 F 
ATOM     82  F   UNL A   1      41.534  26.729  25.287  1.00  0.00    -0.200 F 
ATOM     83  C   UNL A   1      40.243  25.849  27.050  1.00  0.00     0.200 A 
ATOM     84  F   UNL A   1      39.010  25.016  28.879  1.00  0.00    -0.200 F 
ATOM     85  F   UNL A   1      40.410  24.606  26.578  1.00  0.00    -0.200 F 
ENDBRANCH  51  75
BRANCH  63  86
ATOM     86  C   UNL A   1      42.723  33.895  29.735  1.00  0.00     0.064 A 
ATOM     87  C   UNL A   1      41.590  34.536  29.204  1.00  0.00     0.173 A 
ATOM     88  C   UNL A   1      43.974  34.276  29.231  1.00  0.00     0.173 A 
ATOM     89  F   UNL A   1      40.368  34.303  29.701  1.00  0.00    -0.203 F 
ATOM     90  C   UNL A   1      41.707  35.479  28.183  1.00  0.00     0.198 A 
ATOM     91  C   UNL A   1      44.091  35.247  28.242  1.00  0.00     0.198 A 
ATOM     92  F   UNL A   1      45.094  33.735  29.738  1.00  0.00    -0.203 F 
ATOM     93  F   UNL A   1      40.611  36.065  27.679  1.00  0.00    -0.200 F 
ATOM     94  C   UNL A   1      42.959  35.838  27.709  1.00  0.00     0.200 A 
ATOM     95  F   UNL A   1      45.306  35.627  27.824  1.00  0.00    -0.200 F 
ATOM     96  F   UNL A   1      43.075  36.774  26.756  1.00  0.00    -0.200 F 
ENDBRANCH  63  86
ENDBRANCH  37  38
ENDBRANCH  30  32
ENDBRANCH  29  30
ENDBRANCH  28  29
ENDBRANCH  27  28
ENDBRANCH  26  27
ENDBRANCH   1  26
TORSDOF 17
ENDMDL
MODEL 3
REMARK VINA RESULT:     -11.1      3.883      9.240
REMARK SMILES O=C(Cn1cc(NC(=O)N2CC[N@@H+]3CCC[C@@H]3C2)cn1)OCCOCCOC(=O)c1ccc(-c2c3nc(c(-c4c(F)c(F)c(F)c(F)c4F)c4ccc([nH]4)c(-c4c(F)c(F)c(F)c(F)c4F)c4nc(c(-c5c(F)c(F)c(F)c(F)c5F)c5ccc2[nH]5)C=C4)C=C3)cc1
REMARK SMILES IDX 23 1 22 2 21 3 2 4 1 5 3 6 4 7 5 8 20 9 6 10 19 11 7 12 8 13
REMARK SMILES IDX 9 15 10 16 11 17 18 18 12 19 17 20 13 21 16 22 14 23 15 25
REMARK SMILES IDX 24 26 25 27 26 28 27 29 28 30 29 31 30 32 31 33 92 34 32 35
REMARK SMILES IDX 91 36 33 37 34 38 35 39 85 40 36 41 90 42 84 43 86 44 37 45
REMARK SMILES IDX 89 46 83 47 82 48 38 50 70 51 50 52 69 53 51 54 54 55 68 56
REMARK SMILES IDX 87 57 52 58 53 59 67 61 88 62 55 63 39 64 40 65 48 66 41 67
REMARK SMILES IDX 42 68 46 69 49 70 43 71 44 72 47 73 45 74 71 75 72 76 80 77
REMARK SMILES IDX 73 78 74 79 78 80 81 81 75 82 76 83 79 84 77 85 56 86 57 87
REMARK SMILES IDX 65 88 58 89 59 90 63 91 66 92 60 93 61 94 64 95 62 96
REMARK H PARENT 7 14 13 24 86 49 54 60
REMARK Flexibility Score: inf
ROOT
ATOM      1  C   UNL A   1      34.303  33.758  28.868  1.00  0.00     0.202 C 
ENDROOT
BRANCH   1   2
ATOM      2  C   UNL A   1      34.016  32.301  28.507  1.00  0.00     0.261 C 
BRANCH   2   3
ATOM      3  O   UNL A   1      34.866  31.788  27.480  1.00  0.00    -0.462 OA
BRANCH   3   4
ATOM      4  C   UNL A   1      35.694  30.729  27.650  1.00  0.00     0.327 C 
ATOM      5  O   UNL A   1      36.905  30.950  27.697  1.00  0.00    -0.250 OA
BRANCH   4   6
ATOM      6  C   UNL A   1      35.182  29.318  27.515  1.00  0.00     0.266 C 
BRANCH   6   7
ATOM      7  N   UNL A   1      33.923  29.102  26.847  1.00  0.00    -0.259 N 
ATOM      8  C   UNL A   1      33.632  28.988  25.517  1.00  0.00     0.135 A 
ATOM      9  N   UNL A   1      32.863  28.784  27.616  1.00  0.00    -0.179 NA
ATOM     10  C   UNL A   1      32.280  29.188  25.460  1.00  0.00     0.081 A 
ATOM     11  C   UNL A   1      31.850  28.841  26.757  1.00  0.00     0.161 A 
BRANCH  10  12
ATOM     12  N   UNL A   1      31.580  29.612  24.353  1.00  0.00    -0.305 N 
ATOM     13  C   UNL A   1      31.271  28.820  23.282  1.00  0.00     0.322 C 
ATOM     14  H   UNL A   1      31.280  30.549  24.332  1.00  0.00     0.171 HD
ATOM     15  O   UNL A   1      31.039  29.325  22.185  1.00  0.00    -0.248 OA
BRANCH  13  16
ATOM     16  N   UNL A   1      31.265  27.460  23.493  1.00  0.00    -0.313 N 
ATOM     17  C   UNL A   1      30.060  26.717  23.903  1.00  0.00     0.183 C 
ATOM     18  C   UNL A   1      32.441  26.695  23.130  1.00  0.00     0.186 C 
ATOM     19  C   UNL A   1      30.277  25.198  24.041  1.00  0.00     0.284 C 
ATOM     20  C   UNL A   1      32.117  25.400  22.389  1.00  0.00     0.204 C 
ATOM     21  N   UNL A   1      31.004  24.584  22.925  1.00  0.00    -0.330 N 
ATOM     22  C   UNL A   1      33.336  24.479  22.366  1.00  0.00     0.073 C 
ATOM     23  C   UNL A   1      31.524  23.255  23.259  1.00  0.00     0.262 C 
ATOM     24  H   UNL A   1      30.294  24.510  22.196  1.00  0.00     0.348 HD
ATOM     25  C   UNL A   1      32.731  23.092  22.354  1.00  0.00     0.068 C 
ENDBRANCH  13  16
ENDBRANCH  10  12
ENDBRANCH   6   7
ENDBRANCH   4   6
ENDBRANCH   3   4
ENDBRANCH   2   3
ENDBRANCH   1   2
BRANCH   1  26
ATOM     26  O   UNL A   1      33.700  34.281  30.052  1.00  0.00    -0.374 OA
BRANCH  26  27
ATOM     27  C   UNL A   1      34.496  34.401  31.240  1.00  0.00     0.202 C 
BRANCH  27  28
ATOM     28  C   UNL A   1      34.285  33.395  32.344  1.00  0.00     0.261 C 
BRANCH  28  29
ATOM     29  O   UNL A   1      34.826  32.162  31.939  1.00  0.00    -0.460 OA
BRANCH  29  30
ATOM     30  C   UNL A   1      36.064  31.900  32.386  1.00  0.00     0.338 C 
ATOM     31  O   UNL A   1      36.549  32.172  33.482  1.00  0.00    -0.246 OA
BRANCH  30  32
ATOM     32  C   UNL A   1      36.789  31.322  31.257  1.00  0.00     0.060 A 
ATOM     33  C   UNL A   1      36.581  29.958  31.089  1.00  0.00     0.016 A 
ATOM     34  C   UNL A   1      37.952  31.980  30.826  1.00  0.00     0.016 A 
ATOM     35  C   UNL A   1      37.688  29.196  30.840  1.00  0.00     0.010 A 
ATOM     36  C   UNL A   1      39.069  31.218  30.647  1.00  0.00     0.010 A 
ATOM     37  C   UNL A   1      38.930  29.839  30.750  1.00  0.00    -0.014 A 
BRANCH  37  38
ATOM     38  C   UNL A   1      40.092  29.021  30.543  1.00  0.00     0.031 A 
ATOM     39  C   UNL A   1      40.799  28.831  31.818  1.00  0.00     0.074 A 
ATOM     40  C   UNL A   1      40.414  28.465  29.367  1.00  0.00     0.049 A 
ATOM     41  N   UNL A   1      41.811  29.514  32.235  1.00  0.00    -0.248 NA
ATOM     42  C   UNL A   1      40.139  28.029  32.859  1.00  0.00     0.031 C 
ATOM     43  C   UNL A   1      39.621  28.360  28.143  1.00  0.00     0.029 A 
ATOM     44  N   UNL A   1      41.548  27.788  29.061  1.00  0.00    -0.354 N 
ATOM     45  C   UNL A   1      42.055  29.036  33.512  1.00  0.00     0.074 A 
ATOM     46  C   UNL A   1      40.851  28.376  33.931  1.00  0.00     0.031 C 
ATOM     47  C   UNL A   1      40.215  27.473  27.308  1.00  0.00     0.029 A 
ATOM     48  C   UNL A   1      41.484  27.057  27.884  1.00  0.00     0.049 A 
ATOM     49  H   UNL A   1      42.352  27.814  29.628  1.00  0.00     0.167 HD
ATOM     50  C   UNL A   1      43.333  28.910  33.953  1.00  0.00     0.037 A 
ATOM     51  C   UNL A   1      42.393  26.124  27.506  1.00  0.00     0.037 A 
ATOM     52  C   UNL A   1      44.234  29.679  33.124  1.00  0.00     0.049 A 
ATOM     53  C   UNL A   1      43.636  26.379  28.290  1.00  0.00     0.074 A 
ATOM     54  C   UNL A   1      44.352  31.016  32.797  1.00  0.00     0.029 A 
ATOM     55  N   UNL A   1      44.938  28.990  32.167  1.00  0.00    -0.354 N 
ATOM     56  N   UNL A   1      44.395  27.426  28.122  1.00  0.00    -0.248 NA
ATOM     57  C   UNL A   1      43.773  25.716  29.580  1.00  0.00     0.031 C 
ATOM     58  C   UNL A   1      44.754  31.035  31.428  1.00  0.00     0.029 A 
ATOM     59  C   UNL A   1      44.929  29.717  31.006  1.00  0.00     0.049 A 
ATOM     60  H   UNL A   1      45.378  28.118  32.294  1.00  0.00     0.167 HD
ATOM     61  C   UNL A   1      44.762  27.809  29.405  1.00  0.00     0.074 A 
ATOM     62  C   UNL A   1      44.426  26.668  30.253  1.00  0.00     0.031 C 
ATOM     63  C   UNL A   1      45.015  29.120  29.691  1.00  0.00     0.037 A 
BRANCH  50  64
ATOM     64  C   UNL A   1      43.811  27.761  34.810  1.00  0.00     0.064 A 
ATOM     65  C   UNL A   1      43.630  26.454  34.322  1.00  0.00     0.173 A 
ATOM     66  C   UNL A   1      44.152  27.855  36.179  1.00  0.00     0.173 A 
ATOM     67  F   UNL A   1      43.293  26.244  33.041  1.00  0.00    -0.203 F 
ATOM     68  C   UNL A   1      43.691  25.339  35.162  1.00  0.00     0.198 A 
ATOM     69  C   UNL A   1      44.267  26.736  37.000  1.00  0.00     0.198 A 
ATOM     70  F   UNL A   1      44.277  29.018  36.824  1.00  0.00    -0.203 F 
ATOM     71  F   UNL A   1      43.375  24.130  34.680  1.00  0.00    -0.200 F 
ATOM     72  C   UNL A   1      44.002  25.482  36.501  1.00  0.00     0.200 A 
ATOM     73  F   UNL A   1      44.552  26.904  38.299  1.00  0.00    -0.200 F 
ATOM     74  F   UNL A   1      43.997  24.424  37.321  1.00  0.00    -0.200 F 
ENDBRANCH  50  64
BRANCH  51  75
ATOM     75  C   UNL A   1      42.171  24.846  26.788  1.00  0.00     0.064 A 
ATOM     76  C   UNL A   1      43.006  24.467  25.723  1.00  0.00     0.173 A 
ATOM     77  C   UNL A   1      41.333  23.843  27.312  1.00  0.00     0.173 A 
ATOM     78  F   UNL A   1      43.867  25.349  25.195  1.00  0.00    -0.203 F 
ATOM     79  C   UNL A   1      43.029  23.156  25.237  1.00  0.00     0.198 A 
ATOM     80  C   UNL A   1      41.351  22.536  26.820  1.00  0.00     0.198 A 
ATOM     81  F   UNL A   1      40.553  24.083  28.375  1.00  0.00    -0.203 F 
ATOM     82  F   UNL A   1      43.891  22.817  24.268  1.00  0.00    -0.200 F 
ATOM     83  C   UNL A   1      42.209  22.189  25.794  1.00  0.00     0.200 A 
ATOM     84  F   UNL A   1      40.579  21.601  27.394  1.00  0.00    -0.200 F 
ATOM     85  F   UNL A   1      42.277  20.918  25.375  1.00  0.00    -0.200 F 
ENDBRANCH  51  75
BRANCH  63  86
ATOM     86  C   UNL A   1      45.202  30.061  28.533  1.00  0.00     0.064 A 
ATOM     87  C   UNL A   1      44.158  30.731  27.872  1.00  0.00     0.173 A 
ATOM     88  C   UNL A   1      46.514  30.391  28.164  1.00  0.00     0.173 A 
ATOM     89  F   UNL A   1      42.881  30.547  28.235  1.00  0.00    -0.203 F 
ATOM     90  C   UNL A   1      44.419  31.652  26.858  1.00  0.00     0.198 A 
ATOM     91  C   UNL A   1      46.773  31.340  27.181  1.00  0.00     0.198 A 
ATOM     92  F   UNL A   1      47.552  29.821  28.797  1.00  0.00    -0.203 F 
ATOM     93  F   UNL A   1      43.406  32.266  26.230  1.00  0.00    -0.200 F 
ATOM     94  C   UNL A   1      45.726  31.960  26.519  1.00  0.00     0.200 A 
ATOM     95  F   UNL A   1      48.039  31.672  26.894  1.00  0.00    -0.200 F 
ATOM     96  F   UNL A   1      45.979  32.876  25.573  1.00  0.00    -0.200 F 
ENDBRANCH  63  86
ENDBRANCH  37  38
ENDBRANCH  30  32
ENDBRANCH  29  30
ENDBRANCH  28  29
ENDBRANCH  27  28
ENDBRANCH  26  27
ENDBRANCH   1  26
TORSDOF 17
ENDMDL
