MODEL 1
REMARK VINA RESULT:     -12.2      0.000      0.000
REMARK SMILES CC1CCN(S(=O)(=O)N2CCC[C@H](c3cccc(C(=O)OCCOCCOC(=O)c4ccc(-c5c6nc(c(-c7c(F)c(F)c(F)c(F)c7F)c7ccc([nH]7)c(-c7c(F)c(F)c(F)c(F)c7F)c7nc(c(-c8c(F)c(F)c(F)c(F)c8F)c8ccc5[nH]8)C=C7)C=C6)cc4)c3)C2)CC1
REMARK SMILES IDX 23 1 22 2 21 3 19 4 20 5 18 6 14 7 15 8 93 9 16 10 17 11
REMARK SMILES IDX 13 12 9 13 10 14 94 15 11 16 12 17 6 18 7 19 8 20 5 21 1 22
REMARK SMILES IDX 2 23 3 24 96 25 4 26 95 27 24 28 25 29 26 30 27 31 28 32
REMARK SMILES IDX 29 33 30 34 31 35 92 36 32 37 91 38 33 39 34 40 35 41 85 42
REMARK SMILES IDX 36 43 90 44 84 45 86 46 37 47 89 48 83 49 82 50 38 52 70 53
REMARK SMILES IDX 50 54 69 55 51 56 54 57 68 58 87 59 52 60 53 61 67 63 88 64
REMARK SMILES IDX 55 65 39 66 40 67 48 68 41 69 42 70 46 71 49 72 43 73 44 74
REMARK SMILES IDX 47 75 45 76 71 77 72 78 80 79 73 80 74 81 78 82 81 83 75 84
REMARK SMILES IDX 76 85 79 86 77 87 56 88 57 89 65 90 58 91 59 92 63 93 66 94
REMARK SMILES IDX 60 95 61 96 64 97 62 98
REMARK H PARENT 86 51 54 62
REMARK Flexibility Score: inf
ROOT
ATOM      1  C   UNL A   1      42.604  20.469  26.228  1.00  0.00     0.202 C 
ENDROOT
BRANCH   1   2
ATOM      2  C   UNL A   1      41.680  21.632  26.604  1.00  0.00     0.261 C 
BRANCH   2   3
ATOM      3  O   UNL A   1      40.384  21.164  26.998  1.00  0.00    -0.460 OA
BRANCH   3   4
ATOM      4  C   UNL A   1      39.585  20.758  25.977  1.00  0.00     0.338 C 
ATOM      5  O   UNL A   1      39.629  19.686  25.398  1.00  0.00    -0.246 OA
BRANCH   4   6
ATOM      6  C   UNL A   1      38.503  21.750  25.776  1.00  0.00     0.060 A 
ATOM      7  C   UNL A   1      36.330  22.406  24.876  1.00  0.00    -0.043 A 
ATOM      8  C   UNL A   1      36.552  23.695  25.388  1.00  0.00     0.004 A 
ATOM      9  C   UNL A   1      37.351  21.451  25.042  1.00  0.00     0.019 A 
ATOM     10  C   UNL A   1      37.723  24.009  26.082  1.00  0.00     0.001 A 
ATOM     11  C   UNL A   1      38.691  23.034  26.293  1.00  0.00     0.016 A 
BRANCH   7  12
ATOM     12  C   UNL A   1      35.055  22.017  24.132  1.00  0.00     0.034 C 
ATOM     13  N   UNL A   1      33.317  23.402  25.282  1.00  0.00    -0.188 NA
ATOM     14  C   UNL A   1      32.710  22.244  25.963  1.00  0.00     0.103 C 
ATOM     15  C   UNL A   1      33.986  23.117  23.990  1.00  0.00     0.111 C 
ATOM     16  C   UNL A   1      33.725  21.110  26.083  1.00  0.00     0.017 C 
ATOM     17  C   UNL A   1      34.348  20.779  24.730  1.00  0.00     0.011 C 
BRANCH  13  18
ATOM     18  S   UNL A   1      32.614  24.904  25.527  1.00  0.00     0.281 S 
ATOM     19  O   UNL A   1      33.459  25.644  26.432  1.00  0.00    -0.195 OA
ATOM     20  O   UNL A   1      31.217  24.696  25.846  1.00  0.00    -0.195 OA
BRANCH  18  21
ATOM     21  N   UNL A   1      32.653  25.638  23.994  1.00  0.00    -0.189 NA
ATOM     22  C   UNL A   1      31.578  29.589  25.169  1.00  0.00     0.008 C 
ATOM     23  C   UNL A   1      31.940  28.483  24.179  1.00  0.00    -0.012 C 
ATOM     24  C   UNL A   1      30.871  27.372  24.196  1.00  0.00     0.020 C 
ATOM     25  C   UNL A   1      33.356  27.962  24.468  1.00  0.00     0.020 C 
ATOM     26  C   UNL A   1      31.311  26.078  23.507  1.00  0.00     0.104 C 
ATOM     27  C   UNL A   1      33.634  26.696  23.676  1.00  0.00     0.104 C 
ENDBRANCH  18  21
ENDBRANCH  13  18
ENDBRANCH   7  12
ENDBRANCH   4   6
ENDBRANCH   3   4
ENDBRANCH   2   3
ENDBRANCH   1   2
BRANCH   1  28
ATOM     28  O   UNL A   1      43.331  20.572  25.005  1.00  0.00    -0.374 OA
BRANCH  28  29
ATOM     29  C   UNL A   1      44.525  21.353  25.005  1.00  0.00     0.202 C 
BRANCH  29  30
ATOM     30  C   UNL A   1      44.573  22.588  24.098  1.00  0.00     0.261 C 
BRANCH  30  31
ATOM     31  O   UNL A   1      43.718  23.651  24.555  1.00  0.00    -0.460 OA
BRANCH  31  32
ATOM     32  C   UNL A   1      44.387  24.741  24.999  1.00  0.00     0.338 C 
ATOM     33  O   UNL A   1      45.455  25.172  24.597  1.00  0.00    -0.246 OA
BRANCH  32  34
ATOM     34  C   UNL A   1      43.559  25.490  25.960  1.00  0.00     0.060 A 
ATOM     35  C   UNL A   1      43.974  26.789  26.276  1.00  0.00     0.016 A 
ATOM     36  C   UNL A   1      42.466  24.914  26.610  1.00  0.00     0.016 A 
ATOM     37  C   UNL A   1      43.336  27.494  27.290  1.00  0.00     0.010 A 
ATOM     38  C   UNL A   1      41.823  25.628  27.630  1.00  0.00     0.010 A 
ATOM     39  C   UNL A   1      42.282  26.905  28.001  1.00  0.00    -0.014 A 
BRANCH  39  40
ATOM     40  C   UNL A   1      41.756  27.606  29.199  1.00  0.00     0.031 A 
ATOM     41  C   UNL A   1      42.492  27.507  30.507  1.00  0.00     0.074 A 
ATOM     42  C   UNL A   1      40.673  28.398  29.093  1.00  0.00     0.049 A 
ATOM     43  N   UNL A   1      42.247  28.108  31.645  1.00  0.00    -0.248 NA
ATOM     44  C   UNL A   1      43.658  26.612  30.540  1.00  0.00     0.031 C 
ATOM     45  C   UNL A   1      39.890  28.591  27.872  1.00  0.00     0.029 A 
ATOM     46  N   UNL A   1      40.056  29.199  30.020  1.00  0.00    -0.354 N 
ATOM     47  C   UNL A   1      43.227  27.667  32.526  1.00  0.00     0.074 A 
ATOM     48  C   UNL A   1      44.043  26.714  31.804  1.00  0.00     0.031 C 
ATOM     49  C   UNL A   1      38.905  29.469  28.122  1.00  0.00     0.029 A 
ATOM     50  C   UNL A   1      38.970  29.875  29.525  1.00  0.00     0.049 A 
ATOM     51  H   UNL A   1      40.365  29.281  30.951  1.00  0.00     0.167 HD
ATOM     52  C   UNL A   1      43.437  28.035  33.812  1.00  0.00     0.037 A 
ATOM     53  C   UNL A   1      38.119  30.721  30.135  1.00  0.00     0.037 A 
ATOM     54  C   UNL A   1      42.622  28.985  34.528  1.00  0.00     0.049 A 
ATOM     55  C   UNL A   1      38.343  31.071  31.583  1.00  0.00     0.074 A 
ATOM     56  C   UNL A   1      42.769  29.445  35.825  1.00  0.00     0.029 A 
ATOM     57  N   UNL A   1      41.499  29.613  34.008  1.00  0.00    -0.354 N 
ATOM     58  N   UNL A   1      39.299  30.684  32.393  1.00  0.00    -0.248 NA
ATOM     59  C   UNL A   1      37.375  31.990  32.196  1.00  0.00     0.031 C 
ATOM     60  C   UNL A   1      41.697  30.298  36.113  1.00  0.00     0.029 A 
ATOM     61  C   UNL A   1      40.922  30.429  34.971  1.00  0.00     0.049 A 
ATOM     62  H   UNL A   1      41.160  29.497  33.091  1.00  0.00     0.167 HD
ATOM     63  C   UNL A   1      39.059  31.326  33.601  1.00  0.00     0.074 A 
ATOM     64  C   UNL A   1      37.887  32.154  33.407  1.00  0.00     0.031 C 
ATOM     65  C   UNL A   1      39.746  31.237  34.770  1.00  0.00     0.037 A 
BRANCH  52  66
ATOM     66  C   UNL A   1      44.580  27.390  34.545  1.00  0.00     0.064 A 
ATOM     67  C   UNL A   1      44.423  26.190  35.258  1.00  0.00     0.173 A 
ATOM     68  C   UNL A   1      45.864  27.957  34.501  1.00  0.00     0.173 A 
ATOM     69  F   UNL A   1      43.217  25.610  35.344  1.00  0.00    -0.203 F 
ATOM     70  C   UNL A   1      45.497  25.601  35.920  1.00  0.00     0.198 A 
ATOM     71  C   UNL A   1      46.943  27.348  35.135  1.00  0.00     0.198 A 
ATOM     72  F   UNL A   1      46.074  29.100  33.830  1.00  0.00    -0.203 F 
ATOM     73  F   UNL A   1      45.312  24.484  36.636  1.00  0.00    -0.200 F 
ATOM     74  C   UNL A   1      46.758  26.175  35.850  1.00  0.00     0.200 A 
ATOM     75  F   UNL A   1      48.163  27.897  35.052  1.00  0.00    -0.200 F 
ATOM     76  F   UNL A   1      47.794  25.603  36.479  1.00  0.00    -0.200 F 
ENDBRANCH  52  66
BRANCH  53  77
ATOM     77  C   UNL A   1      36.973  31.296  29.382  1.00  0.00     0.064 A 
ATOM     78  C   UNL A   1      35.864  30.512  29.032  1.00  0.00     0.173 A 
ATOM     79  C   UNL A   1      36.974  32.640  28.977  1.00  0.00     0.173 A 
ATOM     80  F   UNL A   1      35.825  29.216  29.375  1.00  0.00    -0.203 F 
ATOM     81  C   UNL A   1      34.813  31.044  28.287  1.00  0.00     0.198 A 
ATOM     82  C   UNL A   1      35.906  33.178  28.264  1.00  0.00     0.198 A 
ATOM     83  F   UNL A   1      38.009  33.434  29.287  1.00  0.00    -0.203 F 
ATOM     84  F   UNL A   1      33.792  30.257  27.919  1.00  0.00    -0.200 F 
ATOM     85  C   UNL A   1      34.832  32.377  27.909  1.00  0.00     0.200 A 
ATOM     86  F   UNL A   1      35.922  34.473  27.916  1.00  0.00    -0.200 F 
ATOM     87  F   UNL A   1      33.819  32.889  27.196  1.00  0.00    -0.200 F 
ENDBRANCH  53  77
BRANCH  65  88
ATOM     88  C   UNL A   1      39.252  32.076  35.918  1.00  0.00     0.064 A 
ATOM     89  C   UNL A   1      39.718  33.383  36.132  1.00  0.00     0.173 A 
ATOM     90  C   UNL A   1      38.305  31.565  36.818  1.00  0.00     0.173 A 
ATOM     91  F   UNL A   1      40.633  33.918  35.309  1.00  0.00    -0.203 F 
ATOM     92  C   UNL A   1      39.292  34.125  37.231  1.00  0.00     0.198 A 
ATOM     93  C   UNL A   1      37.850  32.325  37.893  1.00  0.00     0.198 A 
ATOM     94  F   UNL A   1      37.816  30.327  36.656  1.00  0.00    -0.203 F 
ATOM     95  F   UNL A   1      39.811  35.340  37.457  1.00  0.00    -0.200 F 
ATOM     96  C   UNL A   1      38.356  33.598  38.108  1.00  0.00     0.200 A 
ATOM     97  F   UNL A   1      36.932  31.821  38.727  1.00  0.00    -0.200 F 
ATOM     98  F   UNL A   1      37.951  34.312  39.167  1.00  0.00    -0.200 F 
ENDBRANCH  65  88
ENDBRANCH  39  40
ENDBRANCH  32  34
ENDBRANCH  31  32
ENDBRANCH  30  31
ENDBRANCH  29  30
ENDBRANCH  28  29
ENDBRANCH   1  28
TORSDOF 17
ENDMDL
MODEL 2
REMARK VINA RESULT:     -12.2      0.967      7.149
REMARK SMILES CC1CCN(S(=O)(=O)N2CCC[C@H](c3cccc(C(=O)OCCOCCOC(=O)c4ccc(-c5c6nc(c(-c7c(F)c(F)c(F)c(F)c7F)c7ccc([nH]7)c(-c7c(F)c(F)c(F)c(F)c7F)c7nc(c(-c8c(F)c(F)c(F)c(F)c8F)c8ccc5[nH]8)C=C7)C=C6)cc4)c3)C2)CC1
REMARK SMILES IDX 23 1 22 2 21 3 19 4 20 5 18 6 14 7 15 8 93 9 16 10 17 11
REMARK SMILES IDX 13 12 9 13 10 14 94 15 11 16 12 17 6 18 7 19 8 20 5 21 1 22
REMARK SMILES IDX 2 23 3 24 96 25 4 26 95 27 24 28 25 29 26 30 27 31 28 32
REMARK SMILES IDX 29 33 30 34 31 35 92 36 32 37 91 38 33 39 34 40 35 41 85 42
REMARK SMILES IDX 36 43 90 44 84 45 86 46 37 47 89 48 83 49 82 50 38 52 70 53
REMARK SMILES IDX 50 54 69 55 51 56 54 57 68 58 87 59 52 60 53 61 67 63 88 64
REMARK SMILES IDX 55 65 39 66 40 67 48 68 41 69 42 70 46 71 49 72 43 73 44 74
REMARK SMILES IDX 47 75 45 76 71 77 72 78 80 79 73 80 74 81 78 82 81 83 75 84
REMARK SMILES IDX 76 85 79 86 77 87 56 88 57 89 65 90 58 91 59 92 63 93 66 94
REMARK SMILES IDX 60 95 61 96 64 97 62 98
REMARK H PARENT 86 51 54 62
REMARK Flexibility Score: inf
ROOT
ATOM      1  C   UNL A   1      40.569  20.683  26.483  1.00  0.00     0.202 C 
ENDROOT
BRANCH   1   2
ATOM      2  C   UNL A   1      39.656  21.817  26.005  1.00  0.00     0.261 C 
BRANCH   2   3
ATOM      3  O   UNL A   1      38.273  21.465  26.136  1.00  0.00    -0.460 OA
BRANCH   3   4
ATOM      4  C   UNL A   1      37.748  20.799  25.076  1.00  0.00     0.338 C 
ATOM      5  O   UNL A   1      38.073  19.695  24.673  1.00  0.00    -0.246 OA
BRANCH   4   6
ATOM      6  C   UNL A   1      36.566  21.535  24.569  1.00  0.00     0.060 A 
ATOM      7  C   UNL A   1      34.160  21.941  24.488  1.00  0.00    -0.043 A 
ATOM      8  C   UNL A   1      34.399  22.925  23.514  1.00  0.00     0.004 A 
ATOM      9  C   UNL A   1      35.265  21.218  24.973  1.00  0.00     0.019 A 
ATOM     10  C   UNL A   1      35.693  23.212  23.075  1.00  0.00     0.001 A 
ATOM     11  C   UNL A   1      36.779  22.532  23.614  1.00  0.00     0.016 A 
BRANCH   7  12
ATOM     12  C   UNL A   1      32.763  21.612  25.010  1.00  0.00     0.034 C 
ATOM     13  N   UNL A   1      31.694  23.871  25.145  1.00  0.00    -0.188 NA
ATOM     14  C   UNL A   1      31.724  23.901  26.619  1.00  0.00     0.103 C 
ATOM     15  C   UNL A   1      31.621  22.526  24.525  1.00  0.00     0.111 C 
ATOM     16  C   UNL A   1      32.814  22.970  27.144  1.00  0.00     0.017 C 
ATOM     17  C   UNL A   1      32.679  21.570  26.553  1.00  0.00     0.011 C 
BRANCH  13  18
ATOM     18  S   UNL A   1      30.999  25.176  24.356  1.00  0.00     0.281 S 
ATOM     19  O   UNL A   1      30.388  26.020  25.353  1.00  0.00    -0.195 OA
ATOM     20  O   UNL A   1      30.208  24.663  23.256  1.00  0.00    -0.195 OA
BRANCH  18  21
ATOM     21  N   UNL A   1      32.317  25.993  23.660  1.00  0.00    -0.189 NA
ATOM     22  C   UNL A   1      31.515  29.886  25.194  1.00  0.00     0.008 C 
ATOM     23  C   UNL A   1      32.276  28.844  24.375  1.00  0.00    -0.012 C 
ATOM     24  C   UNL A   1      31.375  28.269  23.263  1.00  0.00     0.020 C 
ATOM     25  C   UNL A   1      32.851  27.763  25.303  1.00  0.00     0.020 C 
ATOM     26  C   UNL A   1      31.921  26.992  22.621  1.00  0.00     0.104 C 
ATOM     27  C   UNL A   1      33.379  26.589  24.498  1.00  0.00     0.104 C 
ENDBRANCH  18  21
ENDBRANCH  13  18
ENDBRANCH   7  12
ENDBRANCH   4   6
ENDBRANCH   3   4
ENDBRANCH   2   3
ENDBRANCH   1   2
BRANCH   1  28
ATOM     28  O   UNL A   1      41.820  20.515  25.818  1.00  0.00    -0.374 OA
BRANCH  28  29
ATOM     29  C   UNL A   1      42.930  21.278  26.289  1.00  0.00     0.202 C 
BRANCH  29  30
ATOM     30  C   UNL A   1      43.694  22.134  25.271  1.00  0.00     0.261 C 
BRANCH  30  31
ATOM     31  O   UNL A   1      42.989  23.333  24.908  1.00  0.00    -0.460 OA
BRANCH  31  32
ATOM     32  C   UNL A   1      43.698  24.469  25.110  1.00  0.00     0.338 C 
ATOM     33  O   UNL A   1      44.698  24.835  24.517  1.00  0.00    -0.246 OA
BRANCH  32  34
ATOM     34  C   UNL A   1      42.994  25.346  26.063  1.00  0.00     0.060 A 
ATOM     35  C   UNL A   1      43.471  26.655  26.189  1.00  0.00     0.016 A 
ATOM     36  C   UNL A   1      41.962  24.882  26.881  1.00  0.00     0.016 A 
ATOM     37  C   UNL A   1      42.962  27.488  27.179  1.00  0.00     0.010 A 
ATOM     38  C   UNL A   1      41.448  25.724  27.876  1.00  0.00     0.010 A 
ATOM     39  C   UNL A   1      41.975  27.016  28.055  1.00  0.00    -0.014 A 
BRANCH  39  40
ATOM     40  C   UNL A   1      41.596  27.860  29.216  1.00  0.00     0.031 A 
ATOM     41  C   UNL A   1      40.344  28.692  29.158  1.00  0.00     0.074 A 
ATOM     42  C   UNL A   1      42.321  27.812  30.347  1.00  0.00     0.049 A 
ATOM     43  N   UNL A   1      39.793  29.430  30.090  1.00  0.00    -0.248 NA
ATOM     44  C   UNL A   1      39.615  28.697  27.881  1.00  0.00     0.031 C 
ATOM     45  C   UNL A   1      43.541  27.026  30.531  1.00  0.00     0.029 A 
ATOM     46  N   UNL A   1      42.130  28.425  31.560  1.00  0.00    -0.354 N 
ATOM     47  C   UNL A   1      38.655  29.982  29.514  1.00  0.00     0.074 A 
ATOM     48  C   UNL A   1      38.619  29.531  28.139  1.00  0.00     0.031 C 
ATOM     49  C   UNL A   1      43.981  27.191  31.789  1.00  0.00     0.029 A 
ATOM     50  C   UNL A   1      43.092  28.117  32.489  1.00  0.00     0.049 A 
ATOM     51  H   UNL A   1      41.374  29.028  31.746  1.00  0.00     0.167 HD
ATOM     52  C   UNL A   1      37.719  30.778  30.084  1.00  0.00     0.037 A 
ATOM     53  C   UNL A   1      43.243  28.540  33.758  1.00  0.00     0.037 A 
ATOM     54  C   UNL A   1      37.759  31.225  31.455  1.00  0.00     0.049 A 
ATOM     55  C   UNL A   1      42.216  29.469  34.350  1.00  0.00     0.074 A 
ATOM     56  C   UNL A   1      36.845  32.011  32.134  1.00  0.00     0.029 A 
ATOM     57  N   UNL A   1      38.776  30.932  32.352  1.00  0.00    -0.354 N 
ATOM     58  N   UNL A   1      41.121  29.948  33.812  1.00  0.00    -0.248 NA
ATOM     59  C   UNL A   1      42.442  29.904  35.735  1.00  0.00     0.031 C 
ATOM     60  C   UNL A   1      37.341  32.250  33.421  1.00  0.00     0.029 A 
ATOM     61  C   UNL A   1      38.530  31.552  33.569  1.00  0.00     0.049 A 
ATOM     62  H   UNL A   1      39.559  30.367  32.155  1.00  0.00     0.167 HD
ATOM     63  C   UNL A   1      40.518  30.722  34.797  1.00  0.00     0.074 A 
ATOM     64  C   UNL A   1      41.354  30.619  35.975  1.00  0.00     0.031 C 
ATOM     65  C   UNL A   1      39.377  31.454  34.731  1.00  0.00     0.037 A 
BRANCH  52  66
ATOM     66  C   UNL A   1      36.579  31.243  29.221  1.00  0.00     0.064 A 
ATOM     67  C   UNL A   1      35.525  30.389  28.858  1.00  0.00     0.173 A 
ATOM     68  C   UNL A   1      36.518  32.576  28.784  1.00  0.00     0.173 A 
ATOM     69  F   UNL A   1      35.538  29.103  29.239  1.00  0.00    -0.203 F 
ATOM     70  C   UNL A   1      34.472  30.843  28.068  1.00  0.00     0.198 A 
ATOM     71  C   UNL A   1      35.447  33.036  28.022  1.00  0.00     0.198 A 
ATOM     72  F   UNL A   1      37.494  33.438  29.105  1.00  0.00    -0.203 F 
ATOM     73  F   UNL A   1      33.504  29.997  27.692  1.00  0.00    -0.200 F 
ATOM     74  C   UNL A   1      34.429  32.168  27.659  1.00  0.00     0.200 A 
ATOM     75  F   UNL A   1      35.400  34.320  27.642  1.00  0.00    -0.200 F 
ATOM     76  F   UNL A   1      33.410  32.607  26.907  1.00  0.00    -0.200 F 
ENDBRANCH  52  66
BRANCH  53  77
ATOM     77  C   UNL A   1      44.414  28.090  34.557  1.00  0.00     0.064 A 
ATOM     78  C   UNL A   1      45.649  28.750  34.475  1.00  0.00     0.173 A 
ATOM     79  C   UNL A   1      44.327  26.976  35.405  1.00  0.00     0.173 A 
ATOM     80  F   UNL A   1      45.790  29.807  33.661  1.00  0.00    -0.203 F 
ATOM     81  C   UNL A   1      46.755  28.298  35.191  1.00  0.00     0.198 A 
ATOM     82  C   UNL A   1      45.424  26.547  36.148  1.00  0.00     0.198 A 
ATOM     83  F   UNL A   1      43.169  26.309  35.522  1.00  0.00    -0.203 F 
ATOM     84  F   UNL A   1      47.937  28.914  35.050  1.00  0.00    -0.200 F 
ATOM     85  C   UNL A   1      46.641  27.202  36.032  1.00  0.00     0.200 A 
ATOM     86  F   UNL A   1      45.304  25.497  36.972  1.00  0.00    -0.200 F 
ATOM     87  F   UNL A   1      47.704  26.771  36.723  1.00  0.00    -0.200 F 
ENDBRANCH  53  77
BRANCH  65  88
ATOM     88  C   UNL A   1      38.960  32.183  35.980  1.00  0.00     0.064 A 
ATOM     89  C   UNL A   1      39.345  33.511  36.224  1.00  0.00     0.173 A 
ATOM     90  C   UNL A   1      38.171  31.544  36.949  1.00  0.00     0.173 A 
ATOM     91  F   UNL A   1      40.109  34.167  35.338  1.00  0.00    -0.203 F 
ATOM     92  C   UNL A   1      38.997  34.153  37.411  1.00  0.00     0.198 A 
ATOM     93  C   UNL A   1      37.791  32.202  38.116  1.00  0.00     0.198 A 
ATOM     94  F   UNL A   1      37.764  30.279  36.764  1.00  0.00    -0.203 F 
ATOM     95  F   UNL A   1      39.442  35.393  37.654  1.00  0.00    -0.200 F 
ATOM     96  C   UNL A   1      38.218  33.500  38.353  1.00  0.00     0.200 A 
ATOM     97  F   UNL A   1      37.022  31.576  39.016  1.00  0.00    -0.200 F 
ATOM     98  F   UNL A   1      37.888  34.116  39.497  1.00  0.00    -0.200 F 
ENDBRANCH  65  88
ENDBRANCH  39  40
ENDBRANCH  32  34
ENDBRANCH  31  32
ENDBRANCH  30  31
ENDBRANCH  29  30
ENDBRANCH  28  29
ENDBRANCH   1  28
TORSDOF 17
ENDMDL
MODEL 3
REMARK VINA RESULT:     -12.0      3.683      9.252
REMARK SMILES CC1CCN(S(=O)(=O)N2CCC[C@H](c3cccc(C(=O)OCCOCCOC(=O)c4ccc(-c5c6nc(c(-c7c(F)c(F)c(F)c(F)c7F)c7ccc([nH]7)c(-c7c(F)c(F)c(F)c(F)c7F)c7nc(c(-c8c(F)c(F)c(F)c(F)c8F)c8ccc5[nH]8)C=C7)C=C6)cc4)c3)C2)CC1
REMARK SMILES IDX 23 1 22 2 21 3 19 4 20 5 18 6 14 7 15 8 93 9 16 10 17 11
REMARK SMILES IDX 13 12 9 13 10 14 94 15 11 16 12 17 6 18 7 19 8 20 5 21 1 22
REMARK SMILES IDX 2 23 3 24 96 25 4 26 95 27 24 28 25 29 26 30 27 31 28 32
REMARK SMILES IDX 29 33 30 34 31 35 92 36 32 37 91 38 33 39 34 40 35 41 85 42
REMARK SMILES IDX 36 43 90 44 84 45 86 46 37 47 89 48 83 49 82 50 38 52 70 53
REMARK SMILES IDX 50 54 69 55 51 56 54 57 68 58 87 59 52 60 53 61 67 63 88 64
REMARK SMILES IDX 55 65 39 66 40 67 48 68 41 69 42 70 46 71 49 72 43 73 44 74
REMARK SMILES IDX 47 75 45 76 71 77 72 78 80 79 73 80 74 81 78 82 81 83 75 84
REMARK SMILES IDX 76 85 79 86 77 87 56 88 57 89 65 90 58 91 59 92 63 93 66 94
REMARK SMILES IDX 60 95 61 96 64 97 62 98
REMARK H PARENT 86 51 54 62
REMARK Flexibility Score: inf
ROOT
ATOM      1  C   UNL A   1      35.070  33.143  28.007  1.00  0.00     0.202 C 
ENDROOT
BRANCH   1   2
ATOM      2  C   UNL A   1      34.228  31.927  28.408  1.00  0.00     0.261 C 
BRANCH   2   3
ATOM      3  O   UNL A   1      33.860  31.146  27.263  1.00  0.00    -0.460 OA
BRANCH   3   4
ATOM      4  C   UNL A   1      32.537  31.168  26.956  1.00  0.00     0.338 C 
ATOM      5  O   UNL A   1      31.820  32.151  26.885  1.00  0.00    -0.246 OA
BRANCH   4   6
ATOM      6  C   UNL A   1      32.111  29.815  26.526  1.00  0.00     0.060 A 
ATOM      7  C   UNL A   1      31.321  28.251  24.825  1.00  0.00    -0.043 A 
ATOM      8  C   UNL A   1      31.260  27.262  25.821  1.00  0.00     0.004 A 
ATOM      9  C   UNL A   1      31.708  29.547  25.213  1.00  0.00     0.019 A 
ATOM     10  C   UNL A   1      31.617  27.539  27.143  1.00  0.00     0.001 A 
ATOM     11  C   UNL A   1      32.061  28.809  27.493  1.00  0.00     0.016 A 
BRANCH   7  12
ATOM     12  C   UNL A   1      30.960  27.984  23.366  1.00  0.00     0.034 C 
ATOM     13  N   UNL A   1      32.083  25.790  22.928  1.00  0.00    -0.188 NA
ATOM     14  C   UNL A   1      33.122  26.387  22.070  1.00  0.00     0.103 C 
ATOM     15  C   UNL A   1      30.785  26.506  22.967  1.00  0.00     0.111 C 
ATOM     16  C   UNL A   1      33.296  27.867  22.401  1.00  0.00     0.017 C 
ATOM     17  C   UNL A   1      31.960  28.603  22.363  1.00  0.00     0.011 C 
BRANCH  13  18
ATOM     18  S   UNL A   1      32.109  24.127  23.138  1.00  0.00     0.281 S 
ATOM     19  O   UNL A   1      33.024  23.575  22.170  1.00  0.00    -0.195 OA
ATOM     20  O   UNL A   1      30.739  23.662  23.189  1.00  0.00    -0.195 OA
BRANCH  18  21
ATOM     21  N   UNL A   1      32.748  23.914  24.700  1.00  0.00    -0.189 NA
ATOM     22  C   UNL A   1      36.646  22.593  23.601  1.00  0.00     0.008 C 
ATOM     23  C   UNL A   1      35.520  22.946  24.571  1.00  0.00    -0.012 C 
ATOM     24  C   UNL A   1      34.317  22.002  24.368  1.00  0.00     0.020 C 
ATOM     25  C   UNL A   1      35.152  24.431  24.432  1.00  0.00     0.020 C 
ATOM     26  C   UNL A   1      33.030  22.486  25.040  1.00  0.00     0.104 C 
ATOM     27  C   UNL A   1      33.871  24.740  25.187  1.00  0.00     0.104 C 
ENDBRANCH  18  21
ENDBRANCH  13  18
ENDBRANCH   7  12
ENDBRANCH   4   6
ENDBRANCH   3   4
ENDBRANCH   2   3
ENDBRANCH   1   2
BRANCH   1  28
ATOM     28  O   UNL A   1      34.377  34.328  27.620  1.00  0.00    -0.374 OA
BRANCH  28  29
ATOM     29  C   UNL A   1      34.291  35.389  28.572  1.00  0.00     0.202 C 
BRANCH  29  30
ATOM     30  C   UNL A   1      32.904  35.753  29.114  1.00  0.00     0.261 C 
BRANCH  30  31
ATOM     31  O   UNL A   1      32.531  34.974  30.263  1.00  0.00    -0.460 OA
BRANCH  31  32
ATOM     32  C   UNL A   1      32.808  35.573  31.446  1.00  0.00     0.338 C 
ATOM     33  O   UNL A   1      32.166  36.446  32.005  1.00  0.00    -0.246 OA
BRANCH  32  34
ATOM     34  C   UNL A   1      33.942  34.899  32.104  1.00  0.00     0.060 A 
ATOM     35  C   UNL A   1      35.160  35.588  32.127  1.00  0.00     0.016 A 
ATOM     36  C   UNL A   1      33.851  33.597  32.598  1.00  0.00     0.016 A 
ATOM     37  C   UNL A   1      36.308  34.953  32.586  1.00  0.00     0.010 A 
ATOM     38  C   UNL A   1      35.009  32.960  33.063  1.00  0.00     0.010 A 
ATOM     39  C   UNL A   1      36.250  33.621  33.021  1.00  0.00    -0.014 A 
BRANCH  39  40
ATOM     40  C   UNL A   1      37.521  32.916  33.319  1.00  0.00     0.031 A 
ATOM     41  C   UNL A   1      38.240  33.186  34.613  1.00  0.00     0.074 A 
ATOM     42  C   UNL A   1      37.982  31.976  32.475  1.00  0.00     0.049 A 
ATOM     43  N   UNL A   1      39.314  32.616  35.099  1.00  0.00    -0.248 NA
ATOM     44  C   UNL A   1      37.676  34.236  35.473  1.00  0.00     0.031 C 
ATOM     45  C   UNL A   1      37.360  31.612  31.202  1.00  0.00     0.029 A 
ATOM     46  N   UNL A   1      39.070  31.146  32.568  1.00  0.00    -0.354 N 
ATOM     47  C   UNL A   1      39.552  33.236  36.321  1.00  0.00     0.074 A 
ATOM     48  C   UNL A   1      38.537  34.255  36.480  1.00  0.00     0.031 C 
ATOM     49  C   UNL A   1      38.068  30.619  30.639  1.00  0.00     0.029 A 
ATOM     50  C   UNL A   1      39.208  30.299  31.497  1.00  0.00     0.049 A 
ATOM     51  H   UNL A   1      39.692  31.156  33.332  1.00  0.00     0.167 HD
ATOM     52  C   UNL A   1      40.518  32.968  37.232  1.00  0.00     0.037 A 
ATOM     53  C   UNL A   1      40.151  29.375  31.234  1.00  0.00     0.037 A 
ATOM     54  C   UNL A   1      41.528  31.951  37.070  1.00  0.00     0.049 A 
ATOM     55  C   UNL A   1      41.246  29.135  32.240  1.00  0.00     0.074 A 
ATOM     56  C   UNL A   1      42.533  31.584  37.947  1.00  0.00     0.029 A 
ATOM     57  N   UNL A   1      41.666  31.146  35.948  1.00  0.00    -0.354 N 
ATOM     58  N   UNL A   1      41.435  29.694  33.411  1.00  0.00    -0.248 NA
ATOM     59  C   UNL A   1      42.252  28.123  31.891  1.00  0.00     0.031 C 
ATOM     60  C   UNL A   1      43.320  30.605  37.329  1.00  0.00     0.029 A 
ATOM     61  C   UNL A   1      42.762  30.308  36.096  1.00  0.00     0.049 A 
ATOM     62  H   UNL A   1      41.073  31.165  35.162  1.00  0.00     0.167 HD
ATOM     63  C   UNL A   1      42.565  29.088  33.946  1.00  0.00     0.074 A 
ATOM     64  C   UNL A   1      42.998  28.095  32.985  1.00  0.00     0.031 C 
ATOM     65  C   UNL A   1      43.191  29.333  35.126  1.00  0.00     0.037 A 
BRANCH  52  66
ATOM     66  C   UNL A   1      40.550  33.804  38.481  1.00  0.00     0.064 A 
ATOM     67  C   UNL A   1      41.342  34.960  38.581  1.00  0.00     0.173 A 
ATOM     68  C   UNL A   1      39.746  33.469  39.582  1.00  0.00     0.173 A 
ATOM     69  F   UNL A   1      42.139  35.321  37.564  1.00  0.00    -0.203 F 
ATOM     70  C   UNL A   1      41.348  35.728  39.742  1.00  0.00     0.198 A 
ATOM     71  C   UNL A   1      39.728  34.258  40.729  1.00  0.00     0.198 A 
ATOM     72  F   UNL A   1      38.965  32.379  39.541  1.00  0.00    -0.203 F 
ATOM     73  F   UNL A   1      42.150  36.798  39.832  1.00  0.00    -0.200 F 
ATOM     74  C   UNL A   1      40.535  35.383  40.811  1.00  0.00     0.200 A 
ATOM     75  F   UNL A   1      38.930  33.930  41.753  1.00  0.00    -0.200 F 
ATOM     76  F   UNL A   1      40.534  36.129  41.924  1.00  0.00    -0.200 F 
ENDBRANCH  52  66
BRANCH  53  77
ATOM     77  C   UNL A   1      40.105  28.607  29.962  1.00  0.00     0.064 A 
ATOM     78  C   UNL A   1      39.470  27.359  29.886  1.00  0.00     0.173 A 
ATOM     79  C   UNL A   1      40.714  29.098  28.797  1.00  0.00     0.173 A 
ATOM     80  F   UNL A   1      38.892  26.835  30.978  1.00  0.00    -0.203 F 
ATOM     81  C   UNL A   1      39.467  26.623  28.703  1.00  0.00     0.198 A 
ATOM     82  C   UNL A   1      40.680  28.377  27.606  1.00  0.00     0.198 A 
ATOM     83  F   UNL A   1      41.334  30.287  28.813  1.00  0.00    -0.203 F 
ATOM     84  F   UNL A   1      38.902  25.408  28.675  1.00  0.00    -0.200 F 
ATOM     85  C   UNL A   1      40.066  27.135  27.563  1.00  0.00     0.200 A 
ATOM     86  F   UNL A   1      41.246  28.885  26.502  1.00  0.00    -0.200 F 
ATOM     87  F   UNL A   1      40.060  26.428  26.424  1.00  0.00    -0.200 F 
ENDBRANCH  53  77
BRANCH  65  88
ATOM     88  C   UNL A   1      44.400  28.494  35.445  1.00  0.00     0.064 A 
ATOM     89  C   UNL A   1      45.694  28.892  35.076  1.00  0.00     0.173 A 
ATOM     90  C   UNL A   1      44.261  27.273  36.123  1.00  0.00     0.173 A 
ATOM     91  F   UNL A   1      45.885  30.044  34.415  1.00  0.00    -0.203 F 
ATOM     92  C   UNL A   1      46.795  28.077  35.330  1.00  0.00     0.198 A 
ATOM     93  C   UNL A   1      45.369  26.480  36.412  1.00  0.00     0.198 A 
ATOM     94  F   UNL A   1      43.049  26.847  36.510  1.00  0.00    -0.203 F 
ATOM     95  F   UNL A   1      48.010  28.444  34.899  1.00  0.00    -0.200 F 
ATOM     96  C   UNL A   1      46.632  26.875  36.000  1.00  0.00     0.200 A 
ATOM     97  F   UNL A   1      45.211  25.328  37.077  1.00  0.00    -0.200 F 
ATOM     98  F   UNL A   1      47.692  26.090  36.240  1.00  0.00    -0.200 F 
ENDBRANCH  65  88
ENDBRANCH  39  40
ENDBRANCH  32  34
ENDBRANCH  31  32
ENDBRANCH  30  31
ENDBRANCH  29  30
ENDBRANCH  28  29
ENDBRANCH   1  28
TORSDOF 17
ENDMDL
