MODEL 1
REMARK VINA RESULT:     -12.6      0.000      0.000
REMARK SMILES Cc1cccc(-n2c(C)cc(/C=N\c3ccc(O)c(C(=O)OCCOCCOC(=O)c4ccc(-c5c6nc(c(-c7c(F)c(F)c(F)c(F)c7F)c7ccc([nH]7)c(-c7c(F)c(F)c(F)c(F)c7F)c7nc(c(-c8c(F)c(F)c(F)c(F)c8F)c8ccc5[nH]8)C=C7)C=C6)cc4)c3)c2C)c1
REMARK SMILES IDX 24 1 23 2 22 3 20 4 21 5 19 6 14 7 15 8 94 9 16 10 17 11
REMARK SMILES IDX 13 12 12 13 11 14 7 15 8 16 95 17 9 18 10 19 96 20 6 21 1 22
REMARK SMILES IDX 2 23 3 24 97 25 4 26 5 27 18 28 25 30 26 31 27 32 28 33
REMARK SMILES IDX 29 34 30 35 31 36 32 37 93 38 33 39 92 40 34 41 35 42 36 43
REMARK SMILES IDX 86 44 37 45 91 46 85 47 87 48 38 49 90 50 84 51 83 52 39 54
REMARK SMILES IDX 71 55 51 56 70 57 52 58 55 59 69 60 88 61 53 62 54 63 68 65
REMARK SMILES IDX 89 66 56 67 40 68 41 69 49 70 42 71 43 72 47 73 50 74 44 75
REMARK SMILES IDX 45 76 48 77 46 78 72 79 73 80 81 81 74 82 75 83 79 84 82 85
REMARK SMILES IDX 76 86 77 87 80 88 78 89 57 90 58 91 66 92 59 93 60 94 64 95
REMARK SMILES IDX 67 96 61 97 62 98 65 99 63 100
REMARK H PARENT 18 29 87 53 55 64
REMARK Flexibility Score: inf
ROOT
ATOM      1  C   UNL A   1      32.398  36.098  31.023  1.00  0.00     0.202 C 
ENDROOT
BRANCH   1   2
ATOM      2  C   UNL A   1      32.668  35.627  29.638  1.00  0.00     0.261 C 
BRANCH   2   3
ATOM      3  O   UNL A   1      32.889  34.218  29.584  1.00  0.00    -0.460 OA
BRANCH   3   4
ATOM      4  C   UNL A   1      32.899  33.751  28.313  1.00  0.00     0.342 C 
ATOM      5  O   UNL A   1      31.970  33.833  27.516  1.00  0.00    -0.246 OA
BRANCH   4   6
ATOM      6  C   UNL A   1      34.199  33.114  28.078  1.00  0.00     0.103 A 
ATOM      7  C   UNL A   1      35.402  31.045  28.108  1.00  0.00     0.064 A 
ATOM      8  C   UNL A   1      36.608  31.739  27.977  1.00  0.00     0.032 A 
ATOM      9  C   UNL A   1      34.194  31.724  28.015  1.00  0.00     0.048 A 
ATOM     10  C   UNL A   1      36.617  33.130  27.933  1.00  0.00     0.049 A 
ATOM     11  C   UNL A   1      35.419  33.814  28.063  1.00  0.00     0.130 A 
BRANCH   7  12
ATOM     12  N   UNL A   1      35.364  29.683  28.355  1.00  0.00    -0.256 NA
ATOM     13  C   UNL A   1      34.692  28.848  27.617  1.00  0.00     0.121 C 
BRANCH  13  14
ATOM     14  C   UNL A   1      33.810  29.001  26.450  1.00  0.00     0.014 A 
ATOM     15  N   UNL A   1      32.165  29.229  24.896  1.00  0.00    -0.318 N 
ATOM     16  C   UNL A   1      33.340  29.010  24.207  1.00  0.00     0.021 A 
ATOM     17  C   UNL A   1      32.457  29.302  26.261  1.00  0.00     0.029 A 
ATOM     18  C   UNL A   1      33.437  28.991  22.724  1.00  0.00     0.065 C 
ATOM     19  C   UNL A   1      34.351  28.891  25.133  1.00  0.00     0.033 A 
ATOM     20  C   UNL A   1      31.368  29.569  27.231  1.00  0.00     0.065 C 
BRANCH  15  21
ATOM     21  C   UNL A   1      30.856  29.256  24.334  1.00  0.00     0.046 A 
ATOM     22  C   UNL A   1      28.408  31.869  23.048  1.00  0.00     0.044 C 
ATOM     23  C   UNL A   1      29.070  30.555  23.340  1.00  0.00    -0.049 A 
ATOM     24  C   UNL A   1      28.523  29.375  22.817  1.00  0.00     0.003 A 
ATOM     25  C   UNL A   1      30.244  30.493  24.104  1.00  0.00     0.030 A 
ATOM     26  C   UNL A   1      29.111  28.139  23.088  1.00  0.00     0.002 A 
ATOM     27  C   UNL A   1      30.266  28.076  23.867  1.00  0.00     0.026 A 
ENDBRANCH  15  21
ENDBRANCH  13  14
ENDBRANCH   7  12
BRANCH  11  28
ATOM     28  O   UNL A   1      35.551  35.159  28.289  1.00  0.00    -0.507 OA
ATOM     29  H   UNL A   1      35.515  35.492  29.163  1.00  0.00     0.293 HD
ENDBRANCH  11  28
ENDBRANCH   4   6
ENDBRANCH   3   4
ENDBRANCH   2   3
ENDBRANCH   1   2
BRANCH   1  30
ATOM     30  O   UNL A   1      33.049  37.358  31.092  1.00  0.00    -0.374 OA
BRANCH  30  31
ATOM     31  C   UNL A   1      33.952  37.493  32.172  1.00  0.00     0.202 C 
BRANCH  31  32
ATOM     32  C   UNL A   1      33.945  36.278  33.114  1.00  0.00     0.261 C 
BRANCH  32  33
ATOM     33  O   UNL A   1      34.914  35.310  32.649  1.00  0.00    -0.460 OA
BRANCH  33  34
ATOM     34  C   UNL A   1      34.516  34.005  32.592  1.00  0.00     0.338 C 
ATOM     35  O   UNL A   1      33.634  33.504  33.269  1.00  0.00    -0.246 OA
BRANCH  34  36
ATOM     36  C   UNL A   1      35.535  33.209  31.837  1.00  0.00     0.060 A 
ATOM     37  C   UNL A   1      35.452  31.800  31.805  1.00  0.00     0.016 A 
ATOM     38  C   UNL A   1      36.729  33.836  31.498  1.00  0.00     0.016 A 
ATOM     39  C   UNL A   1      36.606  31.022  31.604  1.00  0.00     0.010 A 
ATOM     40  C   UNL A   1      37.873  33.072  31.410  1.00  0.00     0.010 A 
ATOM     41  C   UNL A   1      37.836  31.665  31.494  1.00  0.00    -0.014 A 
BRANCH  41  42
ATOM     42  C   UNL A   1      39.159  31.032  31.574  1.00  0.00     0.031 A 
ATOM     43  C   UNL A   1      39.397  29.869  30.696  1.00  0.00     0.074 A 
ATOM     44  C   UNL A   1      40.214  31.611  32.209  1.00  0.00     0.049 A 
ATOM     45  N   UNL A   1      40.336  29.015  30.886  1.00  0.00    -0.248 NA
ATOM     46  C   UNL A   1      38.563  29.530  29.545  1.00  0.00     0.031 C 
ATOM     47  C   UNL A   1      41.650  31.396  32.008  1.00  0.00     0.029 A 
ATOM     48  N   UNL A   1      40.217  32.617  33.182  1.00  0.00    -0.354 N 
ATOM     49  C   UNL A   1      40.466  28.281  29.730  1.00  0.00     0.074 A 
ATOM     50  C   UNL A   1      39.248  28.522  29.006  1.00  0.00     0.031 C 
ATOM     51  C   UNL A   1      42.343  31.961  33.018  1.00  0.00     0.029 A 
ATOM     52  C   UNL A   1      41.377  32.509  33.955  1.00  0.00     0.049 A 
ATOM     53  H   UNL A   1      39.513  33.294  33.305  1.00  0.00     0.167 HD
ATOM     54  C   UNL A   1      41.674  27.705  29.469  1.00  0.00     0.037 A 
ATOM     55  C   UNL A   1      41.293  32.358  35.300  1.00  0.00     0.037 A 
ATOM     56  C   UNL A   1      42.620  28.017  30.561  1.00  0.00     0.049 A 
ATOM     57  C   UNL A   1      41.804  30.983  35.589  1.00  0.00     0.074 A 
ATOM     58  C   UNL A   1      43.706  28.874  30.658  1.00  0.00     0.029 A 
ATOM     59  N   UNL A   1      42.281  27.688  31.878  1.00  0.00    -0.354 N 
ATOM     60  N   UNL A   1      41.766  30.033  34.689  1.00  0.00    -0.248 NA
ATOM     61  C   UNL A   1      42.567  30.620  36.773  1.00  0.00     0.031 C 
ATOM     62  C   UNL A   1      43.998  29.067  32.042  1.00  0.00     0.029 A 
ATOM     63  C   UNL A   1      43.093  28.331  32.794  1.00  0.00     0.049 A 
ATOM     64  H   UNL A   1      41.552  27.073  32.123  1.00  0.00     0.167 HD
ATOM     65  C   UNL A   1      42.624  29.046  35.059  1.00  0.00     0.074 A 
ATOM     66  C   UNL A   1      43.051  29.421  36.398  1.00  0.00     0.031 C 
ATOM     67  C   UNL A   1      42.994  28.035  34.223  1.00  0.00     0.037 A 
BRANCH  54  68
ATOM     68  C   UNL A   1      42.093  27.089  28.140  1.00  0.00     0.064 A 
ATOM     69  C   UNL A   1      42.479  25.730  28.072  1.00  0.00     0.173 A 
ATOM     70  C   UNL A   1      42.147  27.752  26.894  1.00  0.00     0.173 A 
ATOM     71  F   UNL A   1      42.418  24.933  29.147  1.00  0.00    -0.203 F 
ATOM     72  C   UNL A   1      42.926  25.121  26.892  1.00  0.00     0.198 A 
ATOM     73  C   UNL A   1      42.626  27.157  25.721  1.00  0.00     0.198 A 
ATOM     74  F   UNL A   1      41.675  28.986  26.718  1.00  0.00    -0.203 F 
ATOM     75  F   UNL A   1      43.265  23.825  26.902  1.00  0.00    -0.200 F 
ATOM     76  C   UNL A   1      43.014  25.838  25.718  1.00  0.00     0.200 A 
ATOM     77  F   UNL A   1      42.682  27.874  24.589  1.00  0.00    -0.200 F 
ATOM     78  F   UNL A   1      43.438  25.257  24.589  1.00  0.00    -0.200 F 
ENDBRANCH  54  68
BRANCH  55  79
ATOM     79  C   UNL A   1      40.167  33.156  35.878  1.00  0.00     0.064 A 
ATOM     80  C   UNL A   1      39.092  32.402  36.412  1.00  0.00     0.173 A 
ATOM     81  C   UNL A   1      40.340  34.452  36.390  1.00  0.00     0.173 A 
ATOM     82  F   UNL A   1      38.890  31.142  35.994  1.00  0.00    -0.203 F 
ATOM     83  C   UNL A   1      38.335  32.858  37.494  1.00  0.00     0.198 A 
ATOM     84  C   UNL A   1      39.574  34.906  37.477  1.00  0.00     0.198 A 
ATOM     85  F   UNL A   1      41.351  35.218  35.957  1.00  0.00    -0.203 F 
ATOM     86  F   UNL A   1      37.457  32.037  38.090  1.00  0.00    -0.200 F 
ATOM     87  C   UNL A   1      38.602  34.096  38.050  1.00  0.00     0.200 A 
ATOM     88  F   UNL A   1      39.867  36.080  38.055  1.00  0.00    -0.200 F 
ATOM     89  F   UNL A   1      38.013  34.453  39.202  1.00  0.00    -0.200 F 
ENDBRANCH  55  79
BRANCH  67  90
ATOM     90  C   UNL A   1      43.367  26.663  34.714  1.00  0.00     0.064 A 
ATOM     91  C   UNL A   1      42.420  25.690  35.073  1.00  0.00     0.173 A 
ATOM     92  C   UNL A   1      44.707  26.213  34.642  1.00  0.00     0.173 A 
ATOM     93  F   UNL A   1      41.104  25.934  35.045  1.00  0.00    -0.203 F 
ATOM     94  C   UNL A   1      42.792  24.393  35.413  1.00  0.00     0.198 A 
ATOM     95  C   UNL A   1      45.060  24.894  34.892  1.00  0.00     0.198 A 
ATOM     96  F   UNL A   1      45.716  27.020  34.284  1.00  0.00    -0.203 F 
ATOM     97  F   UNL A   1      41.853  23.524  35.813  1.00  0.00    -0.200 F 
ATOM     98  C   UNL A   1      44.107  23.989  35.305  1.00  0.00     0.200 A 
ATOM     99  F   UNL A   1      46.328  24.502  34.704  1.00  0.00    -0.200 F 
ATOM    100  F   UNL A   1      44.451  22.725  35.576  1.00  0.00    -0.200 F 
ENDBRANCH  67  90
ENDBRANCH  41  42
ENDBRANCH  34  36
ENDBRANCH  33  34
ENDBRANCH  32  33
ENDBRANCH  31  32
ENDBRANCH  30  31
ENDBRANCH   1  30
TORSDOF 18
ENDMDL
MODEL 2
REMARK VINA RESULT:     -12.5      5.024     10.343
REMARK SMILES Cc1cccc(-n2c(C)cc(/C=N\c3ccc(O)c(C(=O)OCCOCCOC(=O)c4ccc(-c5c6nc(c(-c7c(F)c(F)c(F)c(F)c7F)c7ccc([nH]7)c(-c7c(F)c(F)c(F)c(F)c7F)c7nc(c(-c8c(F)c(F)c(F)c(F)c8F)c8ccc5[nH]8)C=C7)C=C6)cc4)c3)c2C)c1
REMARK SMILES IDX 24 1 23 2 22 3 20 4 21 5 19 6 14 7 15 8 94 9 16 10 17 11
REMARK SMILES IDX 13 12 12 13 11 14 7 15 8 16 95 17 9 18 10 19 96 20 6 21 1 22
REMARK SMILES IDX 2 23 3 24 97 25 4 26 5 27 18 28 25 30 26 31 27 32 28 33
REMARK SMILES IDX 29 34 30 35 31 36 32 37 93 38 33 39 92 40 34 41 35 42 36 43
REMARK SMILES IDX 86 44 37 45 91 46 85 47 87 48 38 49 90 50 84 51 83 52 39 54
REMARK SMILES IDX 71 55 51 56 70 57 52 58 55 59 69 60 88 61 53 62 54 63 68 65
REMARK SMILES IDX 89 66 56 67 40 68 41 69 49 70 42 71 43 72 47 73 50 74 44 75
REMARK SMILES IDX 45 76 48 77 46 78 72 79 73 80 81 81 74 82 75 83 79 84 82 85
REMARK SMILES IDX 76 86 77 87 80 88 78 89 57 90 58 91 66 92 59 93 60 94 64 95
REMARK SMILES IDX 67 96 61 97 62 98 65 99 63 100
REMARK H PARENT 18 29 87 53 55 64
REMARK Flexibility Score: inf
ROOT
ATOM      1  C   UNL A   1      37.702  20.724  25.126  1.00  0.00     0.202 C 
ENDROOT
BRANCH   1   2
ATOM      2  C   UNL A   1      37.241  21.813  24.225  1.00  0.00     0.261 C 
BRANCH   2   3
ATOM      3  O   UNL A   1      35.829  22.006  24.295  1.00  0.00    -0.460 OA
BRANCH   3   4
ATOM      4  C   UNL A   1      35.492  23.014  25.135  1.00  0.00     0.342 C 
ATOM      5  O   UNL A   1      36.230  23.932  25.478  1.00  0.00    -0.246 OA
BRANCH   4   6
ATOM      6  C   UNL A   1      34.111  22.792  25.574  1.00  0.00     0.103 A 
ATOM      7  C   UNL A   1      31.804  23.034  24.984  1.00  0.00     0.064 A 
ATOM      8  C   UNL A   1      31.432  22.736  26.298  1.00  0.00     0.032 A 
ATOM      9  C   UNL A   1      33.131  22.922  24.593  1.00  0.00     0.048 A 
ATOM     10  C   UNL A   1      32.403  22.501  27.266  1.00  0.00     0.049 A 
ATOM     11  C   UNL A   1      33.740  22.607  26.918  1.00  0.00     0.130 A 
BRANCH   7  12
ATOM     12  N   UNL A   1      30.885  23.468  24.044  1.00  0.00    -0.256 NA
ATOM     13  C   UNL A   1      30.873  24.681  23.572  1.00  0.00     0.121 C 
BRANCH  13  14
ATOM     14  C   UNL A   1      31.669  25.887  23.845  1.00  0.00     0.014 A 
ATOM     15  N   UNL A   1      32.723  27.756  24.600  1.00  0.00    -0.318 N 
ATOM     16  C   UNL A   1      33.035  27.633  23.262  1.00  0.00     0.021 A 
ATOM     17  C   UNL A   1      31.953  26.654  24.981  1.00  0.00     0.029 A 
ATOM     18  C   UNL A   1      33.939  28.562  22.536  1.00  0.00     0.065 C 
ATOM     19  C   UNL A   1      32.421  26.494  22.793  1.00  0.00     0.033 A 
ATOM     20  C   UNL A   1      31.510  26.519  26.389  1.00  0.00     0.065 C 
BRANCH  15  21
ATOM     21  C   UNL A   1      33.024  28.873  25.432  1.00  0.00     0.046 A 
ATOM     22  C   UNL A   1      31.282  32.042  26.614  1.00  0.00     0.044 C 
ATOM     23  C   UNL A   1      32.265  30.916  26.488  1.00  0.00    -0.049 A 
ATOM     24  C   UNL A   1      33.340  30.835  27.383  1.00  0.00     0.003 A 
ATOM     25  C   UNL A   1      32.108  29.928  25.505  1.00  0.00     0.030 A 
ATOM     26  C   UNL A   1      34.276  29.807  27.277  1.00  0.00     0.002 A 
ATOM     27  C   UNL A   1      34.133  28.837  26.285  1.00  0.00     0.026 A 
ENDBRANCH  15  21
ENDBRANCH  13  14
ENDBRANCH   7  12
BRANCH  11  28
ATOM     28  O   UNL A   1      34.606  22.637  27.978  1.00  0.00    -0.507 OA
ATOM     29  H   UNL A   1      35.510  22.429  27.850  1.00  0.00     0.293 HD
ENDBRANCH  11  28
ENDBRANCH   4   6
ENDBRANCH   3   4
ENDBRANCH   2   3
ENDBRANCH   1   2
BRANCH   1  30
ATOM     30  O   UNL A   1      38.515  21.388  26.083  1.00  0.00    -0.374 OA
BRANCH  30  31
ATOM     31  C   UNL A   1      39.824  20.866  26.203  1.00  0.00     0.202 C 
BRANCH  31  32
ATOM     32  C   UNL A   1      40.658  21.581  27.279  1.00  0.00     0.261 C 
BRANCH  32  33
ATOM     33  O   UNL A   1      40.200  22.947  27.406  1.00  0.00    -0.460 OA
BRANCH  33  34
ATOM     34  C   UNL A   1      40.882  23.902  26.708  1.00  0.00     0.338 C 
ATOM     35  O   UNL A   1      41.940  23.733  26.127  1.00  0.00    -0.246 OA
BRANCH  34  36
ATOM     36  C   UNL A   1      40.327  25.252  27.044  1.00  0.00     0.060 A 
ATOM     37  C   UNL A   1      40.698  26.380  26.281  1.00  0.00     0.016 A 
ATOM     38  C   UNL A   1      39.760  25.427  28.302  1.00  0.00     0.016 A 
ATOM     39  C   UNL A   1      40.661  27.667  26.848  1.00  0.00     0.010 A 
ATOM     40  C   UNL A   1      39.828  26.673  28.888  1.00  0.00     0.010 A 
ATOM     41  C   UNL A   1      40.307  27.799  28.188  1.00  0.00    -0.014 A 
BRANCH  41  42
ATOM     42  C   UNL A   1      40.489  28.994  29.022  1.00  0.00     0.031 A 
ATOM     43  C   UNL A   1      39.365  29.950  29.074  1.00  0.00     0.074 A 
ATOM     44  C   UNL A   1      41.508  29.118  29.915  1.00  0.00     0.049 A 
ATOM     45  N   UNL A   1      39.486  31.169  29.457  1.00  0.00    -0.248 NA
ATOM     46  C   UNL A   1      38.004  29.634  28.649  1.00  0.00     0.031 C 
ATOM     47  C   UNL A   1      41.595  29.959  31.113  1.00  0.00     0.029 A 
ATOM     48  N   UNL A   1      42.726  28.430  29.969  1.00  0.00    -0.354 N 
ATOM     49  C   UNL A   1      38.220  31.655  29.690  1.00  0.00     0.074 A 
ATOM     50  C   UNL A   1      37.346  30.733  29.018  1.00  0.00     0.031 C 
ATOM     51  C   UNL A   1      42.868  29.988  31.560  1.00  0.00     0.029 A 
ATOM     52  C   UNL A   1      43.674  29.219  30.628  1.00  0.00     0.049 A 
ATOM     53  H   UNL A   1      42.890  27.532  29.602  1.00  0.00     0.167 HD
ATOM     54  C   UNL A   1      38.081  32.686  30.572  1.00  0.00     0.037 A 
ATOM     55  C   UNL A   1      44.837  29.548  30.013  1.00  0.00     0.037 A 
ATOM     56  C   UNL A   1      39.408  33.067  31.102  1.00  0.00     0.049 A 
ATOM     57  C   UNL A   1      44.778  31.025  29.791  1.00  0.00     0.074 A 
ATOM     58  C   UNL A   1      40.030  32.873  32.326  1.00  0.00     0.029 A 
ATOM     59  N   UNL A   1      40.427  33.421  30.212  1.00  0.00    -0.354 N 
ATOM     60  N   UNL A   1      43.638  31.662  29.703  1.00  0.00    -0.248 NA
ATOM     61  C   UNL A   1      45.927  31.915  29.865  1.00  0.00     0.031 C 
ATOM     62  C   UNL A   1      41.430  33.095  32.152  1.00  0.00     0.029 A 
ATOM     63  C   UNL A   1      41.666  33.423  30.824  1.00  0.00     0.049 A 
ATOM     64  H   UNL A   1      40.279  33.641  29.264  1.00  0.00     0.167 HD
ATOM     65  C   UNL A   1      43.861  32.987  29.901  1.00  0.00     0.074 A 
ATOM     66  C   UNL A   1      45.310  33.110  29.929  1.00  0.00     0.031 C 
ATOM     67  C   UNL A   1      42.856  33.885  30.110  1.00  0.00     0.037 A 
BRANCH  54  68
ATOM     68  C   UNL A   1      36.764  33.179  31.158  1.00  0.00     0.064 A 
ATOM     69  C   UNL A   1      35.851  33.901  30.354  1.00  0.00     0.173 A 
ATOM     70  C   UNL A   1      36.320  32.992  32.485  1.00  0.00     0.173 A 
ATOM     71  F   UNL A   1      36.081  34.107  29.051  1.00  0.00    -0.203 F 
ATOM     72  C   UNL A   1      34.650  34.427  30.847  1.00  0.00     0.198 A 
ATOM     73  C   UNL A   1      35.138  33.547  32.990  1.00  0.00     0.198 A 
ATOM     74  F   UNL A   1      36.960  32.207  33.351  1.00  0.00    -0.203 F 
ATOM     75  F   UNL A   1      33.830  35.092  30.023  1.00  0.00    -0.200 F 
ATOM     76  C   UNL A   1      34.299  34.264  32.170  1.00  0.00     0.200 A 
ATOM     77  F   UNL A   1      34.813  33.354  34.277  1.00  0.00    -0.200 F 
ATOM     78  F   UNL A   1      33.151  34.764  32.643  1.00  0.00    -0.200 F 
ENDBRANCH  54  68
BRANCH  55  79
ATOM     79  C   UNL A   1      45.357  28.424  29.174  1.00  0.00     0.064 A 
ATOM     80  C   UNL A   1      46.056  27.408  29.872  1.00  0.00     0.173 A 
ATOM     81  C   UNL A   1      44.772  28.055  27.952  1.00  0.00     0.173 A 
ATOM     82  F   UNL A   1      46.611  27.681  31.064  1.00  0.00    -0.203 F 
ATOM     83  C   UNL A   1      46.040  26.075  29.452  1.00  0.00     0.198 A 
ATOM     84  C   UNL A   1      44.760  26.714  27.533  1.00  0.00     0.198 A 
ATOM     85  F   UNL A   1      44.070  28.951  27.244  1.00  0.00    -0.203 F 
ATOM     86  F   UNL A   1      46.551  25.118  30.242  1.00  0.00    -0.200 F 
ATOM     87  C   UNL A   1      45.359  25.724  28.300  1.00  0.00     0.200 A 
ATOM     88  F   UNL A   1      44.054  26.360  26.449  1.00  0.00    -0.200 F 
ATOM     89  F   UNL A   1      45.178  24.429  28.000  1.00  0.00    -0.200 F 
ENDBRANCH  55  79
BRANCH  67  90
ATOM     90  C   UNL A   1      42.952  35.329  29.700  1.00  0.00     0.064 A 
ATOM     91  C   UNL A   1      43.312  36.357  30.586  1.00  0.00     0.173 A 
ATOM     92  C   UNL A   1      42.883  35.695  28.335  1.00  0.00     0.173 A 
ATOM     93  F   UNL A   1      43.553  36.129  31.882  1.00  0.00    -0.203 F 
ATOM     94  C   UNL A   1      43.505  37.666  30.152  1.00  0.00     0.198 A 
ATOM     95  C   UNL A   1      43.168  36.982  27.897  1.00  0.00     0.198 A 
ATOM     96  F   UNL A   1      42.581  34.814  27.371  1.00  0.00    -0.203 F 
ATOM     97  F   UNL A   1      43.780  38.621  31.051  1.00  0.00    -0.200 F 
ATOM     98  C   UNL A   1      43.452  37.975  28.809  1.00  0.00     0.200 A 
ATOM     99  F   UNL A   1      43.191  37.244  26.583  1.00  0.00    -0.200 F 
ATOM    100  F   UNL A   1      43.697  39.222  28.391  1.00  0.00    -0.200 F 
ENDBRANCH  67  90
ENDBRANCH  41  42
ENDBRANCH  34  36
ENDBRANCH  33  34
ENDBRANCH  32  33
ENDBRANCH  31  32
ENDBRANCH  30  31
ENDBRANCH   1  30
TORSDOF 18
ENDMDL
MODEL 3
REMARK VINA RESULT:     -12.2      2.811      4.601
REMARK SMILES Cc1cccc(-n2c(C)cc(/C=N\c3ccc(O)c(C(=O)OCCOCCOC(=O)c4ccc(-c5c6nc(c(-c7c(F)c(F)c(F)c(F)c7F)c7ccc([nH]7)c(-c7c(F)c(F)c(F)c(F)c7F)c7nc(c(-c8c(F)c(F)c(F)c(F)c8F)c8ccc5[nH]8)C=C7)C=C6)cc4)c3)c2C)c1
REMARK SMILES IDX 24 1 23 2 22 3 20 4 21 5 19 6 14 7 15 8 94 9 16 10 17 11
REMARK SMILES IDX 13 12 12 13 11 14 7 15 8 16 95 17 9 18 10 19 96 20 6 21 1 22
REMARK SMILES IDX 2 23 3 24 97 25 4 26 5 27 18 28 25 30 26 31 27 32 28 33
REMARK SMILES IDX 29 34 30 35 31 36 32 37 93 38 33 39 92 40 34 41 35 42 36 43
REMARK SMILES IDX 86 44 37 45 91 46 85 47 87 48 38 49 90 50 84 51 83 52 39 54
REMARK SMILES IDX 71 55 51 56 70 57 52 58 55 59 69 60 88 61 53 62 54 63 68 65
REMARK SMILES IDX 89 66 56 67 40 68 41 69 49 70 42 71 43 72 47 73 50 74 44 75
REMARK SMILES IDX 45 76 48 77 46 78 72 79 73 80 81 81 74 82 75 83 79 84 82 85
REMARK SMILES IDX 76 86 77 87 80 88 78 89 57 90 58 91 66 92 59 93 60 94 64 95
REMARK SMILES IDX 67 96 61 97 62 98 65 99 63 100
REMARK H PARENT 18 29 87 53 55 64
REMARK Flexibility Score: inf
ROOT
ATOM      1  C   UNL A   1      33.998  31.555  27.411  1.00  0.00     0.202 C 
ENDROOT
BRANCH   1   2
ATOM      2  C   UNL A   1      33.190  30.311  27.508  1.00  0.00     0.261 C 
BRANCH   2   3
ATOM      3  O   UNL A   1      32.658  29.917  26.244  1.00  0.00    -0.460 OA
BRANCH   3   4
ATOM      4  C   UNL A   1      32.086  28.690  26.291  1.00  0.00     0.342 C 
ATOM      5  O   UNL A   1      31.706  28.119  27.308  1.00  0.00    -0.246 OA
BRANCH   4   6
ATOM      6  C   UNL A   1      32.033  28.166  24.922  1.00  0.00     0.103 A 
ATOM      7  C   UNL A   1      31.184  26.419  23.523  1.00  0.00     0.064 A 
ATOM      8  C   UNL A   1      32.025  26.834  22.486  1.00  0.00     0.032 A 
ATOM      9  C   UNL A   1      31.088  27.172  24.686  1.00  0.00     0.048 A 
ATOM     10  C   UNL A   1      32.902  27.897  22.677  1.00  0.00     0.049 A 
ATOM     11  C   UNL A   1      32.958  28.508  23.919  1.00  0.00     0.130 A 
BRANCH   7  12
ATOM     12  N   UNL A   1      30.447  25.250  23.444  1.00  0.00    -0.256 NA
ATOM     13  C   UNL A   1      30.811  24.142  24.020  1.00  0.00     0.121 C 
BRANCH  13  14
ATOM     14  C   UNL A   1      31.986  23.743  24.810  1.00  0.00     0.014 A 
ATOM     15  N   UNL A   1      33.991  23.155  25.708  1.00  0.00    -0.318 N 
ATOM     16  C   UNL A   1      33.035  22.921  26.675  1.00  0.00     0.021 A 
ATOM     17  C   UNL A   1      33.368  23.728  24.596  1.00  0.00     0.029 A 
ATOM     18  C   UNL A   1      33.344  22.423  28.040  1.00  0.00     0.065 C 
ATOM     19  C   UNL A   1      31.816  23.292  26.155  1.00  0.00     0.033 A 
ATOM     20  C   UNL A   1      34.181  24.115  23.419  1.00  0.00     0.065 C 
BRANCH  15  21
ATOM     21  C   UNL A   1      35.361  22.769  25.774  1.00  0.00     0.046 A 
ATOM     22  C   UNL A   1      37.477  19.760  24.802  1.00  0.00     0.044 C 
ATOM     23  C   UNL A   1      37.067  21.138  25.231  1.00  0.00    -0.049 A 
ATOM     24  C   UNL A   1      38.047  22.118  25.434  1.00  0.00     0.003 A 
ATOM     25  C   UNL A   1      35.715  21.467  25.403  1.00  0.00     0.030 A 
ATOM     26  C   UNL A   1      37.692  23.402  25.848  1.00  0.00     0.002 A 
ATOM     27  C   UNL A   1      36.349  23.722  26.042  1.00  0.00     0.026 A 
ENDBRANCH  15  21
ENDBRANCH  13  14
ENDBRANCH   7  12
BRANCH  11  28
ATOM     28  O   UNL A   1      34.030  29.343  24.098  1.00  0.00    -0.507 OA
ATOM     29  H   UNL A   1      34.839  29.003  24.423  1.00  0.00     0.293 HD
ENDBRANCH  11  28
ENDBRANCH   4   6
ENDBRANCH   3   4
ENDBRANCH   2   3
ENDBRANCH   1   2
BRANCH   1  30
ATOM     30  O   UNL A   1      33.327  32.471  28.264  1.00  0.00    -0.374 OA
BRANCH  30  31
ATOM     31  C   UNL A   1      33.575  33.832  27.974  1.00  0.00     0.202 C 
BRANCH  31  32
ATOM     32  C   UNL A   1      33.566  34.723  29.228  1.00  0.00     0.261 C 
BRANCH  32  33
ATOM     33  O   UNL A   1      33.699  33.891  30.404  1.00  0.00    -0.460 OA
BRANCH  33  34
ATOM     34  C   UNL A   1      34.889  33.935  31.069  1.00  0.00     0.338 C 
ATOM     35  O   UNL A   1      35.318  34.893  31.690  1.00  0.00    -0.246 OA
BRANCH  34  36
ATOM     36  C   UNL A   1      35.737  32.775  30.646  1.00  0.00     0.060 A 
ATOM     37  C   UNL A   1      35.711  31.572  31.383  1.00  0.00     0.016 A 
ATOM     38  C   UNL A   1      36.788  33.025  29.770  1.00  0.00     0.016 A 
ATOM     39  C   UNL A   1      36.820  30.706  31.373  1.00  0.00     0.010 A 
ATOM     40  C   UNL A   1      37.913  32.230  29.848  1.00  0.00     0.010 A 
ATOM     41  C   UNL A   1      37.959  31.086  30.669  1.00  0.00    -0.014 A 
BRANCH  41  42
ATOM     42  C   UNL A   1      39.292  30.475  30.775  1.00  0.00     0.031 A 
ATOM     43  C   UNL A   1      39.502  29.204  30.054  1.00  0.00     0.074 A 
ATOM     44  C   UNL A   1      40.367  31.140  31.277  1.00  0.00     0.049 A 
ATOM     45  N   UNL A   1      40.458  28.388  30.317  1.00  0.00    -0.248 NA
ATOM     46  C   UNL A   1      38.622  28.707  28.999  1.00  0.00     0.031 C 
ATOM     47  C   UNL A   1      41.795  30.905  31.042  1.00  0.00     0.029 A 
ATOM     48  N   UNL A   1      40.403  32.270  32.102  1.00  0.00    -0.354 N 
ATOM     49  C   UNL A   1      40.544  27.503  29.266  1.00  0.00     0.074 A 
ATOM     50  C   UNL A   1      39.293  27.637  28.573  1.00  0.00     0.031 C 
ATOM     51  C   UNL A   1      42.526  31.606  31.934  1.00  0.00     0.029 A 
ATOM     52  C   UNL A   1      41.597  32.274  32.830  1.00  0.00     0.049 A 
ATOM     53  H   UNL A   1      39.698  32.954  32.163  1.00  0.00     0.167 HD
ATOM     54  C   UNL A   1      41.746  26.901  29.033  1.00  0.00     0.037 A 
ATOM     55  C   UNL A   1      41.574  32.308  34.185  1.00  0.00     0.037 A 
ATOM     56  C   UNL A   1      42.735  27.365  30.029  1.00  0.00     0.049 A 
ATOM     57  C   UNL A   1      42.110  30.987  34.636  1.00  0.00     0.074 A 
ATOM     58  C   UNL A   1      43.815  28.231  29.958  1.00  0.00     0.029 A 
ATOM     59  N   UNL A   1      42.458  27.218  31.392  1.00  0.00    -0.354 N 
ATOM     60  N   UNL A   1      42.043  29.923  33.876  1.00  0.00    -0.248 NA
ATOM     61  C   UNL A   1      42.929  30.793  35.823  1.00  0.00     0.031 C 
ATOM     62  C   UNL A   1      44.166  28.613  31.288  1.00  0.00     0.029 A 
ATOM     63  C   UNL A   1      43.302  27.984  32.174  1.00  0.00     0.049 A 
ATOM     64  H   UNL A   1      41.747  26.639  31.751  1.00  0.00     0.167 HD
ATOM     65  C   UNL A   1      42.926  29.000  34.339  1.00  0.00     0.074 A 
ATOM     66  C   UNL A   1      43.408  29.556  35.593  1.00  0.00     0.031 C 
ATOM     67  C   UNL A   1      43.270  27.885  33.633  1.00  0.00     0.037 A 
BRANCH  54  68
ATOM     68  C   UNL A   1      42.112  26.111  27.783  1.00  0.00     0.064 A 
ATOM     69  C   UNL A   1      41.512  24.856  27.530  1.00  0.00     0.173 A 
ATOM     70  C   UNL A   1      43.035  26.505  26.789  1.00  0.00     0.173 A 
ATOM     71  F   UNL A   1      40.561  24.363  28.333  1.00  0.00    -0.203 F 
ATOM     72  C   UNL A   1      41.847  24.058  26.428  1.00  0.00     0.198 A 
ATOM     73  C   UNL A   1      43.397  25.695  25.706  1.00  0.00     0.198 A 
ATOM     74  F   UNL A   1      43.586  27.718  26.762  1.00  0.00    -0.203 F 
ATOM     75  F   UNL A   1      41.228  22.883  26.248  1.00  0.00    -0.200 F 
ATOM     76  C   UNL A   1      42.801  24.470  25.523  1.00  0.00     0.200 A 
ATOM     77  F   UNL A   1      44.314  26.131  24.830  1.00  0.00    -0.200 F 
ATOM     78  F   UNL A   1      43.120  23.710  24.468  1.00  0.00    -0.200 F 
ENDBRANCH  54  68
BRANCH  55  79
ATOM     79  C   UNL A   1      40.466  33.172  34.699  1.00  0.00     0.064 A 
ATOM     80  C   UNL A   1      39.380  32.487  35.299  1.00  0.00     0.173 A 
ATOM     81  C   UNL A   1      40.665  34.503  35.099  1.00  0.00     0.173 A 
ATOM     82  F   UNL A   1      39.152  31.200  34.990  1.00  0.00    -0.203 F 
ATOM     83  C   UNL A   1      38.638  33.046  36.343  1.00  0.00     0.198 A 
ATOM     84  C   UNL A   1      39.915  35.062  36.147  1.00  0.00     0.198 A 
ATOM     85  F   UNL A   1      41.687  35.211  34.599  1.00  0.00    -0.203 F 
ATOM     86  F   UNL A   1      37.749  32.294  37.009  1.00  0.00    -0.200 F 
ATOM     87  C   UNL A   1      38.932  34.322  36.791  1.00  0.00     0.200 A 
ATOM     88  F   UNL A   1      40.233  36.275  36.623  1.00  0.00    -0.200 F 
ATOM     89  F   UNL A   1      38.356  34.785  37.911  1.00  0.00    -0.200 F 
ENDBRANCH  55  79
BRANCH  67  90
ATOM     90  C   UNL A   1      43.679  26.595  34.290  1.00  0.00     0.064 A 
ATOM     91  C   UNL A   1      42.767  25.723  34.906  1.00  0.00     0.173 A 
ATOM     92  C   UNL A   1      44.993  26.094  34.135  1.00  0.00     0.173 A 
ATOM     93  F   UNL A   1      41.461  26.004  34.993  1.00  0.00    -0.203 F 
ATOM     94  C   UNL A   1      43.157  24.483  35.403  1.00  0.00     0.198 A 
ATOM     95  C   UNL A   1      45.354  24.819  34.549  1.00  0.00     0.198 A 
ATOM     96  F   UNL A   1      45.964  26.801  33.539  1.00  0.00    -0.203 F 
ATOM     97  F   UNL A   1      42.260  23.720  36.043  1.00  0.00    -0.200 F 
ATOM     98  C   UNL A   1      44.444  24.023  35.209  1.00  0.00     0.200 A 
ATOM     99  F   UNL A   1      46.583  24.359  34.280  1.00  0.00    -0.200 F 
ATOM    100  F   UNL A   1      44.798  22.805  35.636  1.00  0.00    -0.200 F 
ENDBRANCH  67  90
ENDBRANCH  41  42
ENDBRANCH  34  36
ENDBRANCH  33  34
ENDBRANCH  32  33
ENDBRANCH  31  32
ENDBRANCH  30  31
ENDBRANCH   1  30
TORSDOF 18
ENDMDL
