MODEL 1
REMARK VINA RESULT:     -11.6      0.000      0.000
REMARK SMILES Nc1nonc1C(=O)N1[C@@H]2CC[C@H]1C[C@H](CC(=O)OCCOCCOC(=O)c1ccc(-c3c4nc(c(-c5c(F)c(F)c(F)c(F)c5F)c5ccc([nH]5)c(-c5c(F)c(F)c(F)c(F)c5F)c5nc(c(-c6c(F)c(F)c(F)c(F)c6F)c6ccc3[nH]6)C=C5)C=C4)cc1)C2
REMARK SMILES IDX 21 1 20 2 19 3 17 4 18 5 16 6 15 7 9 8 10 9 13 10 11 11
REMARK SMILES IDX 91 12 12 13 14 14 7 15 8 16 6 17 2 18 3 19 4 20 5 21 1 22
REMARK SMILES IDX 22 25 23 26 24 27 25 28 26 29 27 30 28 31 29 32 90 33 30 34
REMARK SMILES IDX 89 35 31 36 32 37 33 38 83 39 34 40 88 41 82 42 84 43 35 44
REMARK SMILES IDX 87 45 81 46 80 47 36 49 68 50 48 51 67 52 49 53 52 54 66 55
REMARK SMILES IDX 85 56 50 57 51 58 65 60 86 61 53 62 37 63 38 64 46 65 39 66
REMARK SMILES IDX 40 67 44 68 47 69 41 70 42 71 45 72 43 73 69 74 70 75 78 76
REMARK SMILES IDX 71 77 72 78 76 79 79 80 73 81 74 82 77 83 75 84 54 85 55 86
REMARK SMILES IDX 63 87 56 88 57 89 61 90 64 91 58 92 59 93 62 94 60 95
REMARK H PARENT 1 23 1 24 84 48 52 59
REMARK Flexibility Score: inf
ROOT
ATOM      1  C   UNL A   1      35.137  23.440  23.931  1.00  0.00     0.202 C 
ENDROOT
BRANCH   1   2
ATOM      2  C   UNL A   1      33.824  24.098  23.501  1.00  0.00     0.261 C 
BRANCH   2   3
ATOM      3  O   UNL A   1      34.029  24.908  22.327  1.00  0.00    -0.463 OA
BRANCH   3   4
ATOM      4  C   UNL A   1      33.065  25.819  22.050  1.00  0.00     0.306 C 
ATOM      5  O   UNL A   1      31.888  25.559  21.844  1.00  0.00    -0.252 OA
BRANCH   4   6
ATOM      6  C   UNL A   1      33.618  27.223  21.951  1.00  0.00     0.126 C 
BRANCH   6   7
ATOM      7  C   UNL A   1      33.322  28.230  23.092  1.00  0.00     0.004 C 
ATOM      8  N   UNL A   1      31.970  27.565  25.496  1.00  0.00    -0.331 N 
ATOM      9  C   UNL A   1      33.326  28.043  25.677  1.00  0.00     0.086 C 
ATOM     10  C   UNL A   1      31.301  28.594  24.719  1.00  0.00     0.086 C 
ATOM     11  C   UNL A   1      33.185  29.552  25.902  1.00  0.00     0.027 C 
ATOM     12  C   UNL A   1      34.043  27.711  24.372  1.00  0.00     0.029 C 
ATOM     13  C   UNL A   1      31.783  29.890  25.387  1.00  0.00     0.027 C 
ATOM     14  C   UNL A   1      31.799  28.519  23.265  1.00  0.00     0.029 C 
BRANCH   8  15
ATOM     15  C   UNL A   1      31.339  26.873  26.528  1.00  0.00     0.280 C 
ATOM     16  O   UNL A   1      31.028  27.458  27.566  1.00  0.00    -0.267 OA
BRANCH  15  17
ATOM     17  C   UNL A   1      31.175  25.427  26.358  1.00  0.00     0.216 A 
ATOM     18  C   UNL A   1      30.591  24.655  25.319  1.00  0.00     0.201 A 
ATOM     19  N   UNL A   1      30.717  23.360  25.593  1.00  0.00    -0.032 NA
ATOM     20  O   UNL A   1      31.432  23.307  26.776  1.00  0.00    -0.242 OA
ATOM     21  N   UNL A   1      31.707  24.578  27.253  1.00  0.00    -0.042 NA
BRANCH  18  22
ATOM     22  N   UNL A   1      30.023  25.107  24.190  1.00  0.00    -0.379 N 
ATOM     23  H   UNL A   1      29.076  24.912  24.003  1.00  0.00     0.158 HD
ATOM     24  H   UNL A   1      30.552  25.634  23.548  1.00  0.00     0.158 HD
ENDBRANCH  18  22
ENDBRANCH  15  17
ENDBRANCH   8  15
ENDBRANCH   6   7
ENDBRANCH   4   6
ENDBRANCH   3   4
ENDBRANCH   2   3
ENDBRANCH   1   2
BRANCH   1  25
ATOM     25  O   UNL A   1      35.061  22.042  24.213  1.00  0.00    -0.374 OA
BRANCH  25  26
ATOM     26  C   UNL A   1      35.787  21.572  25.346  1.00  0.00     0.202 C 
BRANCH  26  27
ATOM     27  C   UNL A   1      37.058  20.773  25.038  1.00  0.00     0.261 C 
BRANCH  27  28
ATOM     28  O   UNL A   1      38.225  21.617  25.025  1.00  0.00    -0.460 OA
BRANCH  28  29
ATOM     29  C   UNL A   1      39.166  21.276  25.935  1.00  0.00     0.338 C 
ATOM     30  O   UNL A   1      39.721  20.189  26.050  1.00  0.00    -0.246 OA
BRANCH  29  31
ATOM     31  C   UNL A   1      39.597  22.456  26.707  1.00  0.00     0.060 A 
ATOM     32  C   UNL A   1      38.942  23.662  26.432  1.00  0.00     0.016 A 
ATOM     33  C   UNL A   1      40.657  22.418  27.618  1.00  0.00     0.016 A 
ATOM     34  C   UNL A   1      39.395  24.848  27.001  1.00  0.00     0.010 A 
ATOM     35  C   UNL A   1      41.110  23.614  28.192  1.00  0.00     0.010 A 
ATOM     36  C   UNL A   1      40.513  24.841  27.845  1.00  0.00    -0.014 A 
BRANCH  36  37
ATOM     37  C   UNL A   1      41.138  26.141  28.201  1.00  0.00     0.031 A 
ATOM     38  C   UNL A   1      42.544  26.424  27.745  1.00  0.00     0.074 A 
ATOM     39  C   UNL A   1      40.430  27.098  28.825  1.00  0.00     0.049 A 
ATOM     40  N   UNL A   1      43.247  27.524  27.844  1.00  0.00    -0.248 NA
ATOM     41  C   UNL A   1      43.252  25.318  27.080  1.00  0.00     0.031 C 
ATOM     42  C   UNL A   1      39.049  26.966  29.279  1.00  0.00     0.029 A 
ATOM     43  N   UNL A   1      40.777  28.384  29.164  1.00  0.00    -0.354 N 
ATOM     44  C   UNL A   1      44.472  27.246  27.251  1.00  0.00     0.074 A 
ATOM     45  C   UNL A   1      44.436  25.859  26.837  1.00  0.00     0.031 C 
ATOM     46  C   UNL A   1      38.655  28.132  29.820  1.00  0.00     0.029 A 
ATOM     47  C   UNL A   1      39.763  29.085  29.769  1.00  0.00     0.049 A 
ATOM     48  H   UNL A   1      41.668  28.765  28.989  1.00  0.00     0.167 HD
ATOM     49  C   UNL A   1      45.526  28.073  27.049  1.00  0.00     0.037 A 
ATOM     50  C   UNL A   1      39.734  30.351  30.224  1.00  0.00     0.037 A 
ATOM     51  C   UNL A   1      45.569  29.451  27.463  1.00  0.00     0.049 A 
ATOM     52  C   UNL A   1      40.950  31.227  30.062  1.00  0.00     0.074 A 
ATOM     53  C   UNL A   1      46.589  30.373  27.298  1.00  0.00     0.029 A 
ATOM     54  N   UNL A   1      44.547  30.104  28.136  1.00  0.00    -0.354 N 
ATOM     55  N   UNL A   1      42.089  30.965  29.470  1.00  0.00    -0.248 NA
ATOM     56  C   UNL A   1      40.866  32.582  30.627  1.00  0.00     0.031 C 
ATOM     57  C   UNL A   1      46.204  31.568  27.916  1.00  0.00     0.029 A 
ATOM     58  C   UNL A   1      44.922  31.409  28.416  1.00  0.00     0.049 A 
ATOM     59  H   UNL A   1      43.683  29.701  28.378  1.00  0.00     0.167 HD
ATOM     60  C   UNL A   1      42.842  32.130  29.558  1.00  0.00     0.074 A 
ATOM     61  C   UNL A   1      42.025  33.103  30.251  1.00  0.00     0.031 C 
ATOM     62  C   UNL A   1      44.096  32.373  29.100  1.00  0.00     0.037 A 
BRANCH  49  63
ATOM     63  C   UNL A   1      46.732  27.492  26.367  1.00  0.00     0.064 A 
ATOM     64  C   UNL A   1      47.742  26.835  27.088  1.00  0.00     0.173 A 
ATOM     65  C   UNL A   1      46.878  27.588  24.976  1.00  0.00     0.173 A 
ATOM     66  F   UNL A   1      47.659  26.729  28.423  1.00  0.00    -0.203 F 
ATOM     67  C   UNL A   1      48.870  26.330  26.444  1.00  0.00     0.198 A 
ATOM     68  C   UNL A   1      47.991  27.055  24.332  1.00  0.00     0.198 A 
ATOM     69  F   UNL A   1      45.940  28.201  24.238  1.00  0.00    -0.203 F 
ATOM     70  F   UNL A   1      49.850  25.762  27.160  1.00  0.00    -0.200 F 
ATOM     71  C   UNL A   1      48.992  26.436  25.068  1.00  0.00     0.200 A 
ATOM     72  F   UNL A   1      48.101  27.148  22.999  1.00  0.00    -0.200 F 
ATOM     73  F   UNL A   1      50.078  25.952  24.450  1.00  0.00    -0.200 F 
ENDBRANCH  49  63
BRANCH  50  74
ATOM     74  C   UNL A   1      38.500  30.884  30.859  1.00  0.00     0.064 A 
ATOM     75  C   UNL A   1      37.469  31.433  30.082  1.00  0.00     0.173 A 
ATOM     76  C   UNL A   1      38.333  30.871  32.251  1.00  0.00     0.173 A 
ATOM     77  F   UNL A   1      37.595  31.490  28.749  1.00  0.00    -0.203 F 
ATOM     78  C   UNL A   1      36.326  31.963  30.677  1.00  0.00     0.198 A 
ATOM     79  C   UNL A   1      37.178  31.376  32.842  1.00  0.00     0.198 A 
ATOM     80  F   UNL A   1      39.291  30.359  33.037  1.00  0.00    -0.203 F 
ATOM     81  F   UNL A   1      35.376  32.521  29.915  1.00  0.00    -0.200 F 
ATOM     82  C   UNL A   1      36.178  31.929  32.055  1.00  0.00     0.200 A 
ATOM     83  F   UNL A   1      37.034  31.331  34.173  1.00  0.00    -0.200 F 
ATOM     84  F   UNL A   1      35.076  32.434  32.625  1.00  0.00    -0.200 F 
ENDBRANCH  50  74
BRANCH  62  85
ATOM     85  C   UNL A   1      44.645  33.758  29.295  1.00  0.00     0.064 A 
ATOM     86  C   UNL A   1      45.401  34.104  30.424  1.00  0.00     0.173 A 
ATOM     87  C   UNL A   1      44.427  34.749  28.324  1.00  0.00     0.173 A 
ATOM     88  F   UNL A   1      45.628  33.198  31.388  1.00  0.00    -0.203 F 
ATOM     89  C   UNL A   1      45.888  35.399  30.592  1.00  0.00     0.198 A 
ATOM     90  C   UNL A   1      44.943  36.033  28.480  1.00  0.00     0.198 A 
ATOM     91  F   UNL A   1      43.718  34.471  27.220  1.00  0.00    -0.203 F 
ATOM     92  F   UNL A   1      46.558  35.721  31.707  1.00  0.00    -0.200 F 
ATOM     93  C   UNL A   1      45.664  36.360  29.618  1.00  0.00     0.200 A 
ATOM     94  F   UNL A   1      44.736  36.956  27.531  1.00  0.00    -0.200 F 
ATOM     95  F   UNL A   1      46.134  37.604  29.781  1.00  0.00    -0.200 F 
ENDBRANCH  62  85
ENDBRANCH  36  37
ENDBRANCH  29  31
ENDBRANCH  28  29
ENDBRANCH  27  28
ENDBRANCH  26  27
ENDBRANCH  25  26
ENDBRANCH   1  25
TORSDOF 18
ENDMDL
MODEL 2
REMARK VINA RESULT:     -11.5      5.360     10.664
REMARK SMILES Nc1nonc1C(=O)N1[C@@H]2CC[C@H]1C[C@H](CC(=O)OCCOCCOC(=O)c1ccc(-c3c4nc(c(-c5c(F)c(F)c(F)c(F)c5F)c5ccc([nH]5)c(-c5c(F)c(F)c(F)c(F)c5F)c5nc(c(-c6c(F)c(F)c(F)c(F)c6F)c6ccc3[nH]6)C=C5)C=C4)cc1)C2
REMARK SMILES IDX 21 1 20 2 19 3 17 4 18 5 16 6 15 7 9 8 10 9 13 10 11 11
REMARK SMILES IDX 91 12 12 13 14 14 7 15 8 16 6 17 2 18 3 19 4 20 5 21 1 22
REMARK SMILES IDX 22 25 23 26 24 27 25 28 26 29 27 30 28 31 29 32 90 33 30 34
REMARK SMILES IDX 89 35 31 36 32 37 33 38 83 39 34 40 88 41 82 42 84 43 35 44
REMARK SMILES IDX 87 45 81 46 80 47 36 49 68 50 48 51 67 52 49 53 52 54 66 55
REMARK SMILES IDX 85 56 50 57 51 58 65 60 86 61 53 62 37 63 38 64 46 65 39 66
REMARK SMILES IDX 40 67 44 68 47 69 41 70 42 71 45 72 43 73 69 74 70 75 78 76
REMARK SMILES IDX 71 77 72 78 76 79 79 80 73 81 74 82 77 83 75 84 54 85 55 86
REMARK SMILES IDX 63 87 56 88 57 89 61 90 64 91 58 92 59 93 62 94 60 95
REMARK H PARENT 1 23 1 24 84 48 52 59
REMARK Flexibility Score: inf
ROOT
ATOM      1  C   UNL A   1      35.280  32.615  28.144  1.00  0.00     0.202 C 
ENDROOT
BRANCH   1   2
ATOM      2  C   UNL A   1      34.484  31.402  27.661  1.00  0.00     0.261 C 
BRANCH   2   3
ATOM      3  O   UNL A   1      33.092  31.741  27.511  1.00  0.00    -0.463 OA
BRANCH   3   4
ATOM      4  C   UNL A   1      32.327  30.854  26.831  1.00  0.00     0.306 C 
ATOM      5  O   UNL A   1      31.341  31.138  26.165  1.00  0.00    -0.252 OA
BRANCH   4   6
ATOM      6  C   UNL A   1      32.785  29.428  27.039  1.00  0.00     0.126 C 
BRANCH   6   7
ATOM      7  C   UNL A   1      32.726  28.438  25.847  1.00  0.00     0.004 C 
ATOM      8  N   UNL A   1      31.115  28.811  23.542  1.00  0.00    -0.331 N 
ATOM      9  C   UNL A   1      32.539  28.750  23.281  1.00  0.00     0.086 C 
ATOM     10  C   UNL A   1      30.806  27.596  24.275  1.00  0.00     0.086 C 
ATOM     11  C   UNL A   1      32.819  27.277  22.965  1.00  0.00     0.027 C 
ATOM     12  C   UNL A   1      33.201  29.206  24.578  1.00  0.00     0.029 C 
ATOM     13  C   UNL A   1      31.599  26.527  23.508  1.00  0.00     0.027 C 
ATOM     14  C   UNL A   1      31.339  27.735  25.711  1.00  0.00     0.029 C 
BRANCH   8  15
ATOM     15  C   UNL A   1      30.260  29.346  22.580  1.00  0.00     0.280 C 
ATOM     16  O   UNL A   1      30.631  29.450  21.410  1.00  0.00    -0.267 OA
BRANCH  15  17
ATOM     17  C   UNL A   1      28.974  29.870  23.048  1.00  0.00     0.216 A 
ATOM     18  C   UNL A   1      28.608  31.125  23.604  1.00  0.00     0.201 A 
ATOM     19  N   UNL A   1      27.300  31.150  23.839  1.00  0.00    -0.032 NA
ATOM     20  O   UNL A   1      26.824  29.936  23.377  1.00  0.00    -0.242 OA
ATOM     21  N   UNL A   1      27.854  29.143  22.900  1.00  0.00    -0.042 NA
BRANCH  18  22
ATOM     22  N   UNL A   1      29.409  32.176  23.840  1.00  0.00    -0.379 N 
ATOM     23  H   UNL A   1      30.387  32.058  23.845  1.00  0.00     0.158 HD
ATOM     24  H   UNL A   1      29.019  33.064  24.007  1.00  0.00     0.158 HD
ENDBRANCH  18  22
ENDBRANCH  15  17
ENDBRANCH   8  15
ENDBRANCH   6   7
ENDBRANCH   4   6
ENDBRANCH   3   4
ENDBRANCH   2   3
ENDBRANCH   1   2
BRANCH   1  25
ATOM     25  O   UNL A   1      34.557  33.544  28.954  1.00  0.00    -0.374 OA
BRANCH  25  26
ATOM     26  C   UNL A   1      34.234  34.799  28.363  1.00  0.00     0.202 C 
BRANCH  26  27
ATOM     27  C   UNL A   1      33.318  35.709  29.187  1.00  0.00     0.261 C 
BRANCH  27  28
ATOM     28  O   UNL A   1      32.650  34.979  30.234  1.00  0.00    -0.460 OA
BRANCH  28  29
ATOM     29  C   UNL A   1      32.835  35.493  31.472  1.00  0.00     0.338 C 
ATOM     30  O   UNL A   1      32.114  36.296  32.054  1.00  0.00    -0.246 OA
BRANCH  29  31
ATOM     31  C   UNL A   1      33.962  34.826  32.149  1.00  0.00     0.060 A 
ATOM     32  C   UNL A   1      35.132  35.579  32.316  1.00  0.00     0.016 A 
ATOM     33  C   UNL A   1      33.922  33.487  32.547  1.00  0.00     0.016 A 
ATOM     34  C   UNL A   1      36.288  34.976  32.801  1.00  0.00     0.010 A 
ATOM     35  C   UNL A   1      35.088  32.881  33.038  1.00  0.00     0.010 A 
ATOM     36  C   UNL A   1      36.288  33.611  33.118  1.00  0.00    -0.014 A 
BRANCH  36  37
ATOM     37  C   UNL A   1      37.594  32.942  33.354  1.00  0.00     0.031 A 
ATOM     38  C   UNL A   1      38.324  33.201  34.644  1.00  0.00     0.074 A 
ATOM     39  C   UNL A   1      38.071  32.034  32.485  1.00  0.00     0.049 A 
ATOM     40  N   UNL A   1      39.416  32.648  35.109  1.00  0.00    -0.248 NA
ATOM     41  C   UNL A   1      37.741  34.217  35.534  1.00  0.00     0.031 C 
ATOM     42  C   UNL A   1      37.438  31.661  31.222  1.00  0.00     0.029 A 
ATOM     43  N   UNL A   1      39.192  31.244  32.548  1.00  0.00    -0.354 N 
ATOM     44  C   UNL A   1      39.645  33.242  36.344  1.00  0.00     0.074 A 
ATOM     45  C   UNL A   1      38.607  34.233  36.535  1.00  0.00     0.031 C 
ATOM     46  C   UNL A   1      38.170  30.697  30.637  1.00  0.00     0.029 A 
ATOM     47  C   UNL A   1      39.333  30.402  31.472  1.00  0.00     0.049 A 
ATOM     48  H   UNL A   1      39.835  31.279  33.293  1.00  0.00     0.167 HD
ATOM     49  C   UNL A   1      40.618  32.976  37.249  1.00  0.00     0.037 A 
ATOM     50  C   UNL A   1      40.289  29.494  31.199  1.00  0.00     0.037 A 
ATOM     51  C   UNL A   1      41.655  31.995  37.061  1.00  0.00     0.049 A 
ATOM     52  C   UNL A   1      41.408  29.275  32.184  1.00  0.00     0.074 A 
ATOM     53  C   UNL A   1      42.682  31.647  37.922  1.00  0.00     0.029 A 
ATOM     54  N   UNL A   1      41.803  31.210  35.927  1.00  0.00    -0.354 N 
ATOM     55  N   UNL A   1      41.596  29.816  33.363  1.00  0.00    -0.248 NA
ATOM     56  C   UNL A   1      42.444  28.305  31.798  1.00  0.00     0.031 C 
ATOM     57  C   UNL A   1      43.480  30.688  37.286  1.00  0.00     0.029 A 
ATOM     58  C   UNL A   1      42.919  30.398  36.054  1.00  0.00     0.049 A 
ATOM     59  H   UNL A   1      41.203  31.228  35.147  1.00  0.00     0.167 HD
ATOM     60  C   UNL A   1      42.747  29.229  33.874  1.00  0.00     0.074 A 
ATOM     61  C   UNL A   1      43.208  28.281  32.881  1.00  0.00     0.031 C 
ATOM     62  C   UNL A   1      43.364  29.451  35.062  1.00  0.00     0.037 A 
BRANCH  49  63
ATOM     63  C   UNL A   1      40.615  33.781  38.516  1.00  0.00     0.064 A 
ATOM     64  C   UNL A   1      39.809  33.432  39.611  1.00  0.00     0.173 A 
ATOM     65  C   UNL A   1      41.433  34.914  38.641  1.00  0.00     0.173 A 
ATOM     66  F   UNL A   1      38.997  32.366  39.539  1.00  0.00    -0.203 F 
ATOM     67  C   UNL A   1      39.795  34.207  40.768  1.00  0.00     0.198 A 
ATOM     68  C   UNL A   1      41.439  35.669  39.810  1.00  0.00     0.198 A 
ATOM     69  F   UNL A   1      42.226  35.290  37.627  1.00  0.00    -0.203 F 
ATOM     70  F   UNL A   1      38.972  33.889  41.776  1.00  0.00    -0.200 F 
ATOM     71  C   UNL A   1      40.612  35.322  40.869  1.00  0.00     0.200 A 
ATOM     72  F   UNL A   1      42.239  36.740  39.910  1.00  0.00    -0.200 F 
ATOM     73  F   UNL A   1      40.596  36.070  41.981  1.00  0.00    -0.200 F 
ENDBRANCH  49  63
BRANCH  50  74
ATOM     74  C   UNL A   1      40.221  28.700  29.945  1.00  0.00     0.064 A 
ATOM     75  C   UNL A   1      39.537  27.476  29.902  1.00  0.00     0.173 A 
ATOM     76  C   UNL A   1      40.851  29.137  28.771  1.00  0.00     0.173 A 
ATOM     77  F   UNL A   1      38.941  27.005  31.007  1.00  0.00    -0.203 F 
ATOM     78  C   UNL A   1      39.500  26.714  28.737  1.00  0.00     0.198 A 
ATOM     79  C   UNL A   1      40.789  28.387  27.599  1.00  0.00     0.198 A 
ATOM     80  F   UNL A   1      41.520  30.299  28.761  1.00  0.00    -0.203 F 
ATOM     81  F   UNL A   1      38.877  25.528  28.735  1.00  0.00    -0.200 F 
ATOM     82  C   UNL A   1      40.120  27.172  27.585  1.00  0.00     0.200 A 
ATOM     83  F   UNL A   1      41.381  28.838  26.485  1.00  0.00    -0.200 F 
ATOM     84  F   UNL A   1      40.080  26.440  26.463  1.00  0.00    -0.200 F 
ENDBRANCH  50  74
BRANCH  62  85
ATOM     85  C   UNL A   1      44.579  28.624  35.374  1.00  0.00     0.064 A 
ATOM     86  C   UNL A   1      45.872  29.052  35.041  1.00  0.00     0.173 A 
ATOM     87  C   UNL A   1      44.446  27.392  36.035  1.00  0.00     0.173 A 
ATOM     88  F   UNL A   1      46.054  30.215  34.396  1.00  0.00    -0.203 F 
ATOM     89  C   UNL A   1      46.985  28.262  35.326  1.00  0.00     0.198 A 
ATOM     90  C   UNL A   1      45.563  26.621  36.347  1.00  0.00     0.198 A 
ATOM     91  F   UNL A   1      43.233  26.938  36.384  1.00  0.00    -0.203 F 
ATOM     92  F   UNL A   1      48.205  28.665  34.946  1.00  0.00    -0.200 F 
ATOM     93  C   UNL A   1      46.829  27.050  35.983  1.00  0.00     0.200 A 
ATOM     94  F   UNL A   1      45.412  25.457  36.995  1.00  0.00    -0.200 F 
ATOM     95  F   UNL A   1      47.900  26.293  36.257  1.00  0.00    -0.200 F 
ENDBRANCH  62  85
ENDBRANCH  36  37
ENDBRANCH  29  31
ENDBRANCH  28  29
ENDBRANCH  27  28
ENDBRANCH  26  27
ENDBRANCH  25  26
ENDBRANCH   1  25
TORSDOF 18
ENDMDL
MODEL 3
REMARK VINA RESULT:     -11.5      4.260      9.856
REMARK SMILES Nc1nonc1C(=O)N1[C@@H]2CC[C@H]1C[C@H](CC(=O)OCCOCCOC(=O)c1ccc(-c3c4nc(c(-c5c(F)c(F)c(F)c(F)c5F)c5ccc([nH]5)c(-c5c(F)c(F)c(F)c(F)c5F)c5nc(c(-c6c(F)c(F)c(F)c(F)c6F)c6ccc3[nH]6)C=C5)C=C4)cc1)C2
REMARK SMILES IDX 21 1 20 2 19 3 17 4 18 5 16 6 15 7 9 8 10 9 13 10 11 11
REMARK SMILES IDX 91 12 12 13 14 14 7 15 8 16 6 17 2 18 3 19 4 20 5 21 1 22
REMARK SMILES IDX 22 25 23 26 24 27 25 28 26 29 27 30 28 31 29 32 90 33 30 34
REMARK SMILES IDX 89 35 31 36 32 37 33 38 83 39 34 40 88 41 82 42 84 43 35 44
REMARK SMILES IDX 87 45 81 46 80 47 36 49 68 50 48 51 67 52 49 53 52 54 66 55
REMARK SMILES IDX 85 56 50 57 51 58 65 60 86 61 53 62 37 63 38 64 46 65 39 66
REMARK SMILES IDX 40 67 44 68 47 69 41 70 42 71 45 72 43 73 69 74 70 75 78 76
REMARK SMILES IDX 71 77 72 78 76 79 79 80 73 81 74 82 77 83 75 84 54 85 55 86
REMARK SMILES IDX 63 87 56 88 57 89 61 90 64 91 58 92 59 93 62 94 60 95
REMARK H PARENT 1 23 1 24 84 48 52 59
REMARK Flexibility Score: inf
ROOT
ATOM      1  C   UNL A   1      32.401  29.422  25.368  1.00  0.00     0.202 C 
ENDROOT
BRANCH   1   2
ATOM      2  C   UNL A   1      31.869  27.989  25.311  1.00  0.00     0.261 C 
BRANCH   2   3
ATOM      3  O   UNL A   1      32.422  27.292  24.178  1.00  0.00    -0.463 OA
BRANCH   3   4
ATOM      4  C   UNL A   1      32.007  26.015  23.997  1.00  0.00     0.306 C 
ATOM      5  O   UNL A   1      31.191  25.651  23.162  1.00  0.00    -0.252 OA
BRANCH   4   6
ATOM      6  C   UNL A   1      32.621  25.067  25.003  1.00  0.00     0.126 C 
BRANCH   6   7
ATOM      7  C   UNL A   1      34.120  24.698  24.871  1.00  0.00     0.004 C 
ATOM      8  N   UNL A   1      35.121  22.044  24.932  1.00  0.00    -0.331 N 
ATOM      9  C   UNL A   1      35.380  22.760  23.699  1.00  0.00     0.086 C 
ATOM     10  C   UNL A   1      35.654  22.889  25.986  1.00  0.00     0.086 C 
ATOM     11  C   UNL A   1      36.764  23.389  23.891  1.00  0.00     0.027 C 
ATOM     12  C   UNL A   1      34.272  23.804  23.604  1.00  0.00     0.029 C 
ATOM     13  C   UNL A   1      36.999  23.349  25.404  1.00  0.00     0.027 C 
ATOM     14  C   UNL A   1      34.713  24.090  26.181  1.00  0.00     0.029 C 
BRANCH   8  15
ATOM     15  C   UNL A   1      35.227  20.655  24.958  1.00  0.00     0.280 C 
ATOM     16  O   UNL A   1      36.334  20.116  24.933  1.00  0.00    -0.267 OA
BRANCH  15  17
ATOM     17  C   UNL A   1      33.977  19.890  24.902  1.00  0.00     0.216 A 
ATOM     18  C   UNL A   1      33.723  18.494  24.835  1.00  0.00     0.201 A 
ATOM     19  N   UNL A   1      32.412  18.273  24.846  1.00  0.00    -0.032 NA
ATOM     20  O   UNL A   1      31.834  19.523  24.980  1.00  0.00    -0.242 OA
ATOM     21  N   UNL A   1      32.795  20.519  25.005  1.00  0.00    -0.042 NA
BRANCH  18  22
ATOM     22  N   UNL A   1      34.627  17.502  24.805  1.00  0.00    -0.379 N 
ATOM     23  H   UNL A   1      35.444  17.564  25.352  1.00  0.00     0.158 HD
ATOM     24  H   UNL A   1      34.474  16.713  24.237  1.00  0.00     0.158 HD
ENDBRANCH  18  22
ENDBRANCH  15  17
ENDBRANCH   8  15
ENDBRANCH   6   7
ENDBRANCH   4   6
ENDBRANCH   3   4
ENDBRANCH   2   3
ENDBRANCH   1   2
BRANCH   1  25
ATOM     25  O   UNL A   1      31.949  30.203  26.476  1.00  0.00    -0.374 OA
BRANCH  25  26
ATOM     26  C   UNL A   1      31.303  31.437  26.173  1.00  0.00     0.202 C 
BRANCH  26  27
ATOM     27  C   UNL A   1      31.757  32.647  26.996  1.00  0.00     0.261 C 
BRANCH  27  28
ATOM     28  O   UNL A   1      33.181  32.846  26.903  1.00  0.00    -0.460 OA
BRANCH  28  29
ATOM     29  C   UNL A   1      33.740  33.375  28.015  1.00  0.00     0.338 C 
ATOM     30  O   UNL A   1      33.219  34.155  28.804  1.00  0.00    -0.246 OA
BRANCH  29  31
ATOM     31  C   UNL A   1      35.051  32.756  28.284  1.00  0.00     0.060 A 
ATOM     32  C   UNL A   1      35.051  31.390  28.596  1.00  0.00     0.016 A 
ATOM     33  C   UNL A   1      36.242  33.486  28.311  1.00  0.00     0.016 A 
ATOM     34  C   UNL A   1      36.222  30.769  29.016  1.00  0.00     0.010 A 
ATOM     35  C   UNL A   1      37.423  32.858  28.731  1.00  0.00     0.010 A 
ATOM     36  C   UNL A   1      37.406  31.510  29.135  1.00  0.00    -0.014 A 
BRANCH  36  37
ATOM     37  C   UNL A   1      38.554  30.895  29.851  1.00  0.00     0.031 A 
ATOM     38  C   UNL A   1      38.768  31.221  31.304  1.00  0.00     0.074 A 
ATOM     39  C   UNL A   1      39.330  29.977  29.249  1.00  0.00     0.049 A 
ATOM     40  N   UNL A   1      39.632  30.722  32.152  1.00  0.00    -0.248 NA
ATOM     41  C   UNL A   1      37.882  32.245  31.882  1.00  0.00     0.031 C 
ATOM     42  C   UNL A   1      39.201  29.542  27.861  1.00  0.00     0.029 A 
ATOM     43  N   UNL A   1      40.372  29.230  29.742  1.00  0.00    -0.354 N 
ATOM     44  C   UNL A   1      39.390  31.364  33.361  1.00  0.00     0.074 A 
ATOM     45  C   UNL A   1      38.332  32.323  33.125  1.00  0.00     0.031 C 
ATOM     46  C   UNL A   1      40.115  28.586  27.618  1.00  0.00     0.029 A 
ATOM     47  C   UNL A   1      40.907  28.359  28.826  1.00  0.00     0.049 A 
ATOM     48  H   UNL A   1      40.703  29.312  30.666  1.00  0.00     0.167 HD
ATOM     49  C   UNL A   1      39.979  31.161  34.563  1.00  0.00     0.037 A 
ATOM     50  C   UNL A   1      41.916  27.477  28.951  1.00  0.00     0.037 A 
ATOM     51  C   UNL A   1      41.036  30.212  34.802  1.00  0.00     0.049 A 
ATOM     52  C   UNL A   1      42.612  27.329  30.279  1.00  0.00     0.074 A 
ATOM     53  C   UNL A   1      41.693  29.929  35.986  1.00  0.00     0.029 A 
ATOM     54  N   UNL A   1      41.597  29.397  33.829  1.00  0.00    -0.354 N 
ATOM     55  N   UNL A   1      42.354  27.915  31.423  1.00  0.00    -0.248 NA
ATOM     56  C   UNL A   1      43.738  26.385  30.331  1.00  0.00     0.031 C 
ATOM     57  C   UNL A   1      42.686  28.979  35.720  1.00  0.00     0.029 A 
ATOM     58  C   UNL A   1      42.610  28.629  34.382  1.00  0.00     0.049 A 
ATOM     59  H   UNL A   1      41.317  29.368  32.886  1.00  0.00     0.167 HD
ATOM     60  C   UNL A   1      43.257  27.385  32.336  1.00  0.00     0.074 A 
ATOM     61  C   UNL A   1      44.064  26.423  31.615  1.00  0.00     0.031 C 
ATOM     62  C   UNL A   1      43.402  27.667  33.656  1.00  0.00     0.037 A 
BRANCH  49  63
ATOM     63  C   UNL A   1      39.505  32.007  35.711  1.00  0.00     0.064 A 
ATOM     64  C   UNL A   1      40.053  33.273  35.970  1.00  0.00     0.173 A 
ATOM     65  C   UNL A   1      38.485  31.549  36.558  1.00  0.00     0.173 A 
ATOM     66  F   UNL A   1      41.040  33.752  35.199  1.00  0.00    -0.203 F 
ATOM     67  C   UNL A   1      39.624  34.031  37.057  1.00  0.00     0.198 A 
ATOM     68  C   UNL A   1      38.037  32.322  37.625  1.00  0.00     0.198 A 
ATOM     69  F   UNL A   1      37.924  30.348  36.353  1.00  0.00    -0.203 F 
ATOM     70  F   UNL A   1      40.204  35.210  37.321  1.00  0.00    -0.200 F 
ATOM     71  C   UNL A   1      38.614  33.558  37.881  1.00  0.00     0.200 A 
ATOM     72  F   UNL A   1      37.053  31.868  38.414  1.00  0.00    -0.200 F 
ATOM     73  F   UNL A   1      38.203  34.287  38.928  1.00  0.00    -0.200 F 
ENDBRANCH  49  63
BRANCH  50  74
ATOM     74  C   UNL A   1      42.320  26.641  27.791  1.00  0.00     0.064 A 
ATOM     75  C   UNL A   1      43.330  27.063  26.914  1.00  0.00     0.173 A 
ATOM     76  C   UNL A   1      41.695  25.414  27.524  1.00  0.00     0.173 A 
ATOM     77  F   UNL A   1      43.939  28.241  27.114  1.00  0.00    -0.203 F 
ATOM     78  C   UNL A   1      43.688  26.297  25.807  1.00  0.00     0.198 A 
ATOM     79  C   UNL A   1      42.073  24.636  26.433  1.00  0.00     0.198 A 
ATOM     80  F   UNL A   1      40.722  24.967  28.331  1.00  0.00    -0.203 F 
ATOM     81  F   UNL A   1      44.626  26.744  24.961  1.00  0.00    -0.200 F 
ATOM     82  C   UNL A   1      43.064  25.081  25.571  1.00  0.00     0.200 A 
ATOM     83  F   UNL A   1      41.476  23.458  26.214  1.00  0.00    -0.200 F 
ATOM     84  F   UNL A   1      43.412  24.343  24.508  1.00  0.00    -0.200 F 
ENDBRANCH  50  74
BRANCH  62  85
ATOM     85  C   UNL A   1      44.442  26.894  34.416  1.00  0.00     0.064 A 
ATOM     86  C   UNL A   1      44.154  25.660  35.020  1.00  0.00     0.173 A 
ATOM     87  C   UNL A   1      45.752  27.386  34.524  1.00  0.00     0.173 A 
ATOM     88  F   UNL A   1      42.914  25.151  34.958  1.00  0.00    -0.203 F 
ATOM     89  C   UNL A   1      45.130  24.966  35.733  1.00  0.00     0.198 A 
ATOM     90  C   UNL A   1      46.733  26.673  35.210  1.00  0.00     0.198 A 
ATOM     91  F   UNL A   1      46.084  28.556  33.959  1.00  0.00    -0.203 F 
ATOM     92  F   UNL A   1      44.816  23.819  36.350  1.00  0.00    -0.200 F 
ATOM     93  C   UNL A   1      46.419  25.471  35.822  1.00  0.00     0.200 A 
ATOM     94  F   UNL A   1      47.981  27.156  35.283  1.00  0.00    -0.200 F 
ATOM     95  F   UNL A   1      47.355  24.801  36.508  1.00  0.00    -0.200 F 
ENDBRANCH  62  85
ENDBRANCH  36  37
ENDBRANCH  29  31
ENDBRANCH  28  29
ENDBRANCH  27  28
ENDBRANCH  26  27
ENDBRANCH  25  26
ENDBRANCH   1  25
TORSDOF 18
ENDMDL
