MODEL 1
REMARK VINA RESULT:     -11.4      0.000      0.000
REMARK SMILES O=C(OCCOCCOC(=O)c1ccc(S(=O)(=O)NCc2ccn[nH]2)c(F)c1)c1ccc(-c2c3nc(c(-c4c(F)c(F)c(F)c(F)c4F)c4ccc([nH]4)c(-c4c(F)c(F)c(F)c(F)c4F)c4nc(c(-c5c(F)c(F)c(F)c(F)c5F)c5ccc2[nH]5)C=C4)C=C3)cc1
REMARK SMILES IDX 7 1 6 2 5 3 4 4 3 5 2 6 1 7 29 8 30 9 91 10 31 11 90 12
REMARK SMILES IDX 32 13 33 14 34 15 84 16 35 17 89 18 83 19 85 20 36 21 88 22
REMARK SMILES IDX 82 23 81 24 37 26 69 27 49 28 68 29 50 30 53 31 67 32 86 33
REMARK SMILES IDX 51 34 52 35 66 37 87 38 54 39 38 40 39 41 47 42 40 43 41 44
REMARK SMILES IDX 45 45 48 46 42 47 43 48 46 49 44 50 70 51 71 52 79 53 72 54
REMARK SMILES IDX 73 55 77 56 80 57 74 58 75 59 78 60 76 61 55 62 56 63 64 64
REMARK SMILES IDX 57 65 58 66 62 67 65 68 59 69 60 70 63 71 61 72 8 73 9 74
REMARK SMILES IDX 10 75 11 76 12 77 13 78 28 79 14 80 26 81 15 82 27 83 16 84
REMARK SMILES IDX 17 85 18 86 19 87 20 89 21 90 22 91 25 92 23 93 24 94
REMARK H PARENT 85 25 53 36 19 88 25 95
REMARK Flexibility Score: inf
ROOT
ATOM      1  C   UNL A   1      30.758  27.607  23.350  1.00  0.00     0.202 C 
ENDROOT
BRANCH   1   2
ATOM      2  O   UNL A   1      31.130  28.721  24.175  1.00  0.00    -0.374 OA
BRANCH   2   3
ATOM      3  C   UNL A   1      31.964  28.409  25.292  1.00  0.00     0.202 C 
BRANCH   3   4
ATOM      4  C   UNL A   1      33.126  29.390  25.476  1.00  0.00     0.261 C 
BRANCH   4   5
ATOM      5  O   UNL A   1      32.658  30.602  26.087  1.00  0.00    -0.460 OA
BRANCH   5   6
ATOM      6  C   UNL A   1      33.280  31.393  26.989  1.00  0.00     0.338 C 
ATOM      7  O   UNL A   1      32.809  32.506  27.217  1.00  0.00    -0.246 OA
BRANCH   6   8
ATOM      8  C   UNL A   1      34.501  30.991  27.753  1.00  0.00     0.060 A 
ATOM      9  C   UNL A   1      34.785  29.702  28.211  1.00  0.00     0.016 A 
ATOM     10  C   UNL A   1      35.478  31.984  27.938  1.00  0.00     0.016 A 
ATOM     11  C   UNL A   1      35.966  29.409  28.880  1.00  0.00     0.010 A 
ATOM     12  C   UNL A   1      36.681  31.696  28.584  1.00  0.00     0.010 A 
ATOM     13  C   UNL A   1      36.914  30.407  29.073  1.00  0.00    -0.014 A 
BRANCH  13  14
ATOM     14  C   UNL A   1      38.097  30.108  29.895  1.00  0.00     0.031 A 
ATOM     15  C   UNL A   1      39.162  29.245  29.303  1.00  0.00     0.074 A 
ATOM     16  C   UNL A   1      38.232  30.675  31.104  1.00  0.00     0.049 A 
ATOM     17  N   UNL A   1      40.235  28.754  29.860  1.00  0.00    -0.248 NA
ATOM     18  C   UNL A   1      39.000  28.892  27.882  1.00  0.00     0.031 C 
ATOM     19  C   UNL A   1      37.296  31.635  31.692  1.00  0.00     0.029 A 
ATOM     20  N   UNL A   1      39.213  30.539  32.048  1.00  0.00    -0.354 N 
ATOM     21  C   UNL A   1      40.857  28.009  28.869  1.00  0.00     0.074 A 
ATOM     22  C   UNL A   1      40.051  28.113  27.675  1.00  0.00     0.031 C 
ATOM     23  C   UNL A   1      37.753  32.005  32.898  1.00  0.00     0.029 A 
ATOM     24  C   UNL A   1      38.972  31.258  33.192  1.00  0.00     0.049 A 
ATOM     25  H   UNL A   1      40.014  29.980  31.920  1.00  0.00     0.167 HD
ATOM     26  C   UNL A   1      41.998  27.291  28.969  1.00  0.00     0.037 A 
ATOM     27  C   UNL A   1      39.647  31.270  34.356  1.00  0.00     0.037 A 
ATOM     28  C   UNL A   1      42.767  27.209  30.179  1.00  0.00     0.049 A 
ATOM     29  C   UNL A   1      40.862  30.391  34.479  1.00  0.00     0.074 A 
ATOM     30  C   UNL A   1      43.905  26.468  30.433  1.00  0.00     0.029 A 
ATOM     31  N   UNL A   1      42.465  27.903  31.345  1.00  0.00    -0.354 N 
ATOM     32  N   UNL A   1      41.412  29.619  33.571  1.00  0.00    -0.248 NA
ATOM     33  C   UNL A   1      41.538  30.362  35.781  1.00  0.00     0.031 C 
ATOM     34  C   UNL A   1      44.264  26.679  31.768  1.00  0.00     0.029 A 
ATOM     35  C   UNL A   1      43.384  27.594  32.330  1.00  0.00     0.049 A 
ATOM     36  H   UNL A   1      41.708  28.524  31.453  1.00  0.00     0.167 HD
ATOM     37  C   UNL A   1      42.504  29.022  34.181  1.00  0.00     0.074 A 
ATOM     38  C   UNL A   1      42.543  29.528  35.540  1.00  0.00     0.031 C 
ATOM     39  C   UNL A   1      43.392  28.135  33.668  1.00  0.00     0.037 A 
BRANCH  26  40
ATOM     40  C   UNL A   1      42.413  26.492  27.771  1.00  0.00     0.064 A 
ATOM     41  C   UNL A   1      41.835  25.236  27.530  1.00  0.00     0.173 A 
ATOM     42  C   UNL A   1      43.351  26.971  26.845  1.00  0.00     0.173 A 
ATOM     43  F   UNL A   1      40.925  24.735  28.379  1.00  0.00    -0.203 F 
ATOM     44  C   UNL A   1      42.180  24.492  26.405  1.00  0.00     0.198 A 
ATOM     45  C   UNL A   1      43.672  26.236  25.707  1.00  0.00     0.198 A 
ATOM     46  F   UNL A   1      43.910  28.180  27.013  1.00  0.00    -0.203 F 
ATOM     47  F   UNL A   1      41.617  23.293  26.199  1.00  0.00    -0.200 F 
ATOM     48  C   UNL A   1      43.091  24.995  25.489  1.00  0.00     0.200 A 
ATOM     49  F   UNL A   1      44.526  26.740  24.804  1.00  0.00    -0.200 F 
ATOM     50  F   UNL A   1      43.394  24.294  24.389  1.00  0.00    -0.200 F 
ENDBRANCH  26  40
BRANCH  27  51
ATOM     51  C   UNL A   1      39.157  32.114  35.477  1.00  0.00     0.064 A 
ATOM     52  C   UNL A   1      39.533  33.463  35.588  1.00  0.00     0.173 A 
ATOM     53  C   UNL A   1      38.366  31.575  36.499  1.00  0.00     0.173 A 
ATOM     54  F   UNL A   1      40.290  34.029  34.637  1.00  0.00    -0.203 F 
ATOM     55  C   UNL A   1      39.167  34.227  36.694  1.00  0.00     0.198 A 
ATOM     56  C   UNL A   1      37.981  32.347  37.595  1.00  0.00     0.198 A 
ATOM     57  F   UNL A   1      37.965  30.297  36.431  1.00  0.00    -0.203 F 
ATOM     58  F   UNL A   1      39.582  35.497  36.797  1.00  0.00    -0.200 F 
ATOM     59  C   UNL A   1      38.392  33.668  37.697  1.00  0.00     0.200 A 
ATOM     60  F   UNL A   1      37.213  31.810  38.554  1.00  0.00    -0.200 F 
ATOM     61  F   UNL A   1      38.041  34.401  38.763  1.00  0.00    -0.200 F 
ENDBRANCH  27  51
BRANCH  39  62
ATOM     62  C   UNL A   1      44.501  27.672  34.560  1.00  0.00     0.064 A 
ATOM     63  C   UNL A   1      45.734  28.340  34.551  1.00  0.00     0.173 A 
ATOM     64  C   UNL A   1      44.389  26.492  35.305  1.00  0.00     0.173 A 
ATOM     65  F   UNL A   1      45.886  29.468  33.839  1.00  0.00    -0.203 F 
ATOM     66  C   UNL A   1      46.830  27.823  35.234  1.00  0.00     0.198 A 
ATOM     67  C   UNL A   1      45.482  25.990  36.006  1.00  0.00     0.198 A 
ATOM     68  F   UNL A   1      43.226  25.827  35.348  1.00  0.00    -0.203 F 
ATOM     69  F   UNL A   1      48.013  28.448  35.170  1.00  0.00    -0.200 F 
ATOM     70  C   UNL A   1      46.703  26.647  35.958  1.00  0.00     0.200 A 
ATOM     71  F   UNL A   1      45.357  24.862  36.719  1.00  0.00    -0.200 F 
ATOM     72  F   UNL A   1      47.762  26.143  36.605  1.00  0.00    -0.200 F 
ENDBRANCH  39  62
ENDBRANCH  13  14
ENDBRANCH   6   8
ENDBRANCH   5   6
ENDBRANCH   4   5
ENDBRANCH   3   4
ENDBRANCH   2   3
ENDBRANCH   1   2
BRANCH   1  73
ATOM     73  C   UNL A   1      32.004  27.040  22.667  1.00  0.00     0.261 C 
BRANCH  73  74
ATOM     74  O   UNL A   1      31.717  25.691  22.263  1.00  0.00    -0.460 OA
BRANCH  74  75
ATOM     75  C   UNL A   1      32.730  25.070  21.611  1.00  0.00     0.338 C 
ATOM     76  O   UNL A   1      33.242  25.395  20.553  1.00  0.00    -0.246 OA
BRANCH  75  77
ATOM     77  C   UNL A   1      33.280  24.014  22.490  1.00  0.00     0.063 A 
ATOM     78  C   UNL A   1      34.563  24.108  23.042  1.00  0.00     0.017 A 
ATOM     79  C   UNL A   1      32.492  22.881  22.733  1.00  0.00     0.056 A 
ATOM     80  C   UNL A   1      35.042  23.082  23.859  1.00  0.00     0.026 A 
ATOM     81  C   UNL A   1      32.976  21.864  23.551  1.00  0.00     0.144 A 
ATOM     82  C   UNL A   1      34.234  21.968  24.124  1.00  0.00     0.118 A 
ATOM     83  F   UNL A   1      32.201  20.792  23.763  1.00  0.00    -0.205 F 
BRANCH  82  84
ATOM     84  S   UNL A   1      34.779  20.791  25.312  1.00  0.00     0.243 S 
ATOM     85  O   UNL A   1      34.447  19.479  24.807  1.00  0.00    -0.207 OA
ATOM     86  O   UNL A   1      36.146  21.139  25.631  1.00  0.00    -0.207 OA
BRANCH  84  87
ATOM     87  N   UNL A   1      33.910  21.017  26.723  1.00  0.00    -0.205 NA
ATOM     88  H   UNL A   1      34.353  20.423  27.424  1.00  0.00     0.141 HD
BRANCH  87  89
ATOM     89  C   UNL A   1      33.738  22.316  27.353  1.00  0.00     0.154 C 
BRANCH  89  90
ATOM     90  C   UNL A   1      32.545  23.047  26.878  1.00  0.00     0.050 A 
ATOM     91  C   UNL A   1      32.403  24.335  26.400  1.00  0.00     0.046 A 
ATOM     92  N   UNL A   1      31.282  22.515  26.856  1.00  0.00    -0.281 N 
ATOM     93  C   UNL A   1      31.030  24.477  26.134  1.00  0.00     0.135 A 
ATOM     94  N   UNL A   1      30.341  23.378  26.435  1.00  0.00    -0.184 NA
ATOM     95  H   UNL A   1      31.083  21.588  27.123  1.00  0.00     0.190 HD
ENDBRANCH  89  90
ENDBRANCH  87  89
ENDBRANCH  84  87
ENDBRANCH  82  84
ENDBRANCH  75  77
ENDBRANCH  74  75
ENDBRANCH  73  74
ENDBRANCH   1  73
TORSDOF 18
ENDMDL
MODEL 2
REMARK VINA RESULT:     -11.3      1.434      2.569
REMARK SMILES O=C(OCCOCCOC(=O)c1ccc(S(=O)(=O)NCc2ccn[nH]2)c(F)c1)c1ccc(-c2c3nc(c(-c4c(F)c(F)c(F)c(F)c4F)c4ccc([nH]4)c(-c4c(F)c(F)c(F)c(F)c4F)c4nc(c(-c5c(F)c(F)c(F)c(F)c5F)c5ccc2[nH]5)C=C4)C=C3)cc1
REMARK SMILES IDX 7 1 6 2 5 3 4 4 3 5 2 6 1 7 29 8 30 9 91 10 31 11 90 12
REMARK SMILES IDX 32 13 33 14 34 15 84 16 35 17 89 18 83 19 85 20 36 21 88 22
REMARK SMILES IDX 82 23 81 24 37 26 69 27 49 28 68 29 50 30 53 31 67 32 86 33
REMARK SMILES IDX 51 34 52 35 66 37 87 38 54 39 38 40 39 41 47 42 40 43 41 44
REMARK SMILES IDX 45 45 48 46 42 47 43 48 46 49 44 50 70 51 71 52 79 53 72 54
REMARK SMILES IDX 73 55 77 56 80 57 74 58 75 59 78 60 76 61 55 62 56 63 64 64
REMARK SMILES IDX 57 65 58 66 62 67 65 68 59 69 60 70 63 71 61 72 8 73 9 74
REMARK SMILES IDX 10 75 11 76 12 77 13 78 28 79 14 80 26 81 15 82 27 83 16 84
REMARK SMILES IDX 17 85 18 86 19 87 20 89 21 90 22 91 25 92 23 93 24 94
REMARK H PARENT 85 25 53 36 19 88 25 95
REMARK Flexibility Score: inf
ROOT
ATOM      1  C   UNL A   1      30.260  28.033  23.222  1.00  0.00     0.202 C 
ENDROOT
BRANCH   1   2
ATOM      2  O   UNL A   1      30.744  29.071  24.085  1.00  0.00    -0.374 OA
BRANCH   2   3
ATOM      3  C   UNL A   1      31.724  28.669  25.044  1.00  0.00     0.202 C 
BRANCH   3   4
ATOM      4  C   UNL A   1      32.803  29.727  25.292  1.00  0.00     0.261 C 
BRANCH   4   5
ATOM      5  O   UNL A   1      32.443  30.546  26.416  1.00  0.00    -0.460 OA
BRANCH   5   6
ATOM      6  C   UNL A   1      33.212  31.407  27.119  1.00  0.00     0.338 C 
ATOM      7  O   UNL A   1      32.863  32.584  27.185  1.00  0.00    -0.246 OA
BRANCH   6   8
ATOM      8  C   UNL A   1      34.455  31.013  27.850  1.00  0.00     0.060 A 
ATOM      9  C   UNL A   1      34.788  29.715  28.246  1.00  0.00     0.016 A 
ATOM     10  C   UNL A   1      35.401  32.029  28.068  1.00  0.00     0.016 A 
ATOM     11  C   UNL A   1      35.987  29.434  28.888  1.00  0.00     0.010 A 
ATOM     12  C   UNL A   1      36.622  31.754  28.686  1.00  0.00     0.010 A 
ATOM     13  C   UNL A   1      36.904  30.454  29.114  1.00  0.00    -0.014 A 
BRANCH  13  14
ATOM     14  C   UNL A   1      38.107  30.159  29.907  1.00  0.00     0.031 A 
ATOM     15  C   UNL A   1      39.162  29.301  29.290  1.00  0.00     0.074 A 
ATOM     16  C   UNL A   1      38.268  30.724  31.114  1.00  0.00     0.049 A 
ATOM     17  N   UNL A   1      40.250  28.815  29.820  1.00  0.00    -0.248 NA
ATOM     18  C   UNL A   1      38.968  28.950  27.872  1.00  0.00     0.031 C 
ATOM     19  C   UNL A   1      37.341  31.678  31.725  1.00  0.00     0.029 A 
ATOM     20  N   UNL A   1      39.271  30.592  32.035  1.00  0.00    -0.354 N 
ATOM     21  C   UNL A   1      40.852  28.074  28.814  1.00  0.00     0.074 A 
ATOM     22  C   UNL A   1      40.017  28.177  27.640  1.00  0.00     0.031 C 
ATOM     23  C   UNL A   1      37.824  32.049  32.921  1.00  0.00     0.029 A 
ATOM     24  C   UNL A   1      39.053  31.307  33.185  1.00  0.00     0.049 A 
ATOM     25  H   UNL A   1      40.071  30.036  31.887  1.00  0.00     0.167 HD
ATOM     26  C   UNL A   1      41.998  27.361  28.886  1.00  0.00     0.037 A 
ATOM     27  C   UNL A   1      39.755  31.320  34.334  1.00  0.00     0.037 A 
ATOM     28  C   UNL A   1      42.796  27.281  30.078  1.00  0.00     0.049 A 
ATOM     29  C   UNL A   1      40.976  30.447  34.426  1.00  0.00     0.074 A 
ATOM     30  C   UNL A   1      43.942  26.545  30.305  1.00  0.00     0.029 A 
ATOM     31  N   UNL A   1      42.517  27.972  31.252  1.00  0.00    -0.354 N 
ATOM     32  N   UNL A   1      41.509  29.679  33.505  1.00  0.00    -0.248 NA
ATOM     33  C   UNL A   1      41.683  30.420  35.713  1.00  0.00     0.031 C 
ATOM     34  C   UNL A   1      44.332  26.755  31.631  1.00  0.00     0.029 A 
ATOM     35  C   UNL A   1      43.460  27.665  32.215  1.00  0.00     0.049 A 
ATOM     36  H   UNL A   1      41.760  28.588  31.378  1.00  0.00     0.167 HD
ATOM     37  C   UNL A   1      42.617  29.087  34.088  1.00  0.00     0.074 A 
ATOM     38  C   UNL A   1      42.686  29.590  35.447  1.00  0.00     0.031 C 
ATOM     39  C   UNL A   1      43.497  28.205  33.553  1.00  0.00     0.037 A 
BRANCH  26  40
ATOM     40  C   UNL A   1      42.389  26.566  27.678  1.00  0.00     0.064 A 
ATOM     41  C   UNL A   1      43.344  27.072  26.782  1.00  0.00     0.173 A 
ATOM     42  C   UNL A   1      41.853  25.296  27.416  1.00  0.00     0.173 A 
ATOM     43  F   UNL A   1      43.895  28.277  26.991  1.00  0.00    -0.203 F 
ATOM     44  C   UNL A   1      43.748  26.336  25.672  1.00  0.00     0.198 A 
ATOM     45  C   UNL A   1      42.280  24.551  26.320  1.00  0.00     0.198 A 
ATOM     46  F   UNL A   1      40.960  24.754  28.258  1.00  0.00    -0.203 F 
ATOM     47  F   UNL A   1      44.658  26.844  24.830  1.00  0.00    -0.200 F 
ATOM     48  C   UNL A   1      43.223  25.073  25.446  1.00  0.00     0.200 A 
ATOM     49  F   UNL A   1      41.799  23.315  26.123  1.00  0.00    -0.200 F 
ATOM     50  F   UNL A   1      43.640  24.351  24.397  1.00  0.00    -0.200 F 
ENDBRANCH  26  40
BRANCH  27  51
ATOM     51  C   UNL A   1      39.288  32.160  35.467  1.00  0.00     0.064 A 
ATOM     52  C   UNL A   1      39.762  33.471  35.643  1.00  0.00     0.173 A 
ATOM     53  C   UNL A   1      38.418  31.650  36.438  1.00  0.00     0.173 A 
ATOM     54  F   UNL A   1      40.597  34.009  34.742  1.00  0.00    -0.203 F 
ATOM     55  C   UNL A   1      39.412  34.222  36.763  1.00  0.00     0.198 A 
ATOM     56  C   UNL A   1      38.049  32.411  37.547  1.00  0.00     0.198 A 
ATOM     57  F   UNL A   1      37.922  30.410  36.306  1.00  0.00    -0.203 F 
ATOM     58  F   UNL A   1      39.919  35.451  36.929  1.00  0.00    -0.200 F 
ATOM     59  C   UNL A   1      38.556  33.691  37.715  1.00  0.00     0.200 A 
ATOM     60  F   UNL A   1      37.206  31.902  38.456  1.00  0.00    -0.200 F 
ATOM     61  F   UNL A   1      38.222  34.412  38.794  1.00  0.00    -0.200 F 
ENDBRANCH  27  51
BRANCH  39  62
ATOM     62  C   UNL A   1      44.629  27.745  34.418  1.00  0.00     0.064 A 
ATOM     63  C   UNL A   1      44.468  26.626  35.248  1.00  0.00     0.173 A 
ATOM     64  C   UNL A   1      45.808  28.491  34.530  1.00  0.00     0.173 A 
ATOM     65  F   UNL A   1      43.347  25.890  35.181  1.00  0.00    -0.203 F 
ATOM     66  C   UNL A   1      45.438  26.288  36.186  1.00  0.00     0.198 A 
ATOM     67  C   UNL A   1      46.787  28.137  35.454  1.00  0.00     0.198 A 
ATOM     68  F   UNL A   1      46.006  29.563  33.749  1.00  0.00    -0.203 F 
ATOM     69  F   UNL A   1      45.242  25.247  37.005  1.00  0.00    -0.200 F 
ATOM     70  C   UNL A   1      46.594  27.046  36.290  1.00  0.00     0.200 A 
ATOM     71  F   UNL A   1      47.912  28.860  35.544  1.00  0.00    -0.200 F 
ATOM     72  F   UNL A   1      47.523  26.728  37.202  1.00  0.00    -0.200 F 
ENDBRANCH  39  62
ENDBRANCH  13  14
ENDBRANCH   6   8
ENDBRANCH   5   6
ENDBRANCH   4   5
ENDBRANCH   3   4
ENDBRANCH   2   3
ENDBRANCH   1   2
BRANCH   1  73
ATOM     73  C   UNL A   1      31.400  27.539  22.329  1.00  0.00     0.261 C 
BRANCH  73  74
ATOM     74  O   UNL A   1      31.430  26.104  22.395  1.00  0.00    -0.460 OA
BRANCH  74  75
ATOM     75  C   UNL A   1      32.593  25.544  21.982  1.00  0.00     0.338 C 
ATOM     76  O   UNL A   1      33.292  25.890  21.044  1.00  0.00    -0.246 OA
BRANCH  75  77
ATOM     77  C   UNL A   1      33.013  24.537  22.982  1.00  0.00     0.063 A 
ATOM     78  C   UNL A   1      32.360  23.306  23.109  1.00  0.00     0.017 A 
ATOM     79  C   UNL A   1      34.073  24.862  23.839  1.00  0.00     0.056 A 
ATOM     80  C   UNL A   1      32.787  22.391  24.073  1.00  0.00     0.026 A 
ATOM     81  C   UNL A   1      34.495  23.944  24.796  1.00  0.00     0.144 A 
ATOM     82  C   UNL A   1      33.870  22.710  24.904  1.00  0.00     0.118 A 
ATOM     83  F   UNL A   1      35.509  24.282  25.604  1.00  0.00    -0.205 F 
BRANCH  82  84
ATOM     84  S   UNL A   1      34.515  21.467  25.968  1.00  0.00     0.243 S 
ATOM     85  O   UNL A   1      35.907  21.285  25.629  1.00  0.00    -0.207 OA
ATOM     86  O   UNL A   1      34.121  21.837  27.310  1.00  0.00    -0.207 OA
BRANCH  84  87
ATOM     87  N   UNL A   1      33.729  20.027  25.643  1.00  0.00    -0.205 NA
ATOM     88  H   UNL A   1      32.767  20.279  25.410  1.00  0.00     0.141 HD
BRANCH  87  89
ATOM     89  C   UNL A   1      34.160  19.100  24.610  1.00  0.00     0.154 C 
BRANCH  89  90
ATOM     90  C   UNL A   1      33.681  17.719  24.821  1.00  0.00     0.050 A 
ATOM     91  C   UNL A   1      33.501  16.677  23.933  1.00  0.00     0.046 A 
ATOM     92  N   UNL A   1      33.289  17.225  26.038  1.00  0.00    -0.281 N 
ATOM     93  C   UNL A   1      32.993  15.620  24.707  1.00  0.00     0.135 A 
ATOM     94  N   UNL A   1      32.838  15.959  25.986  1.00  0.00    -0.184 NA
ATOM     95  H   UNL A   1      33.332  17.747  26.872  1.00  0.00     0.190 HD
ENDBRANCH  89  90
ENDBRANCH  87  89
ENDBRANCH  84  87
ENDBRANCH  82  84
ENDBRANCH  75  77
ENDBRANCH  74  75
ENDBRANCH  73  74
ENDBRANCH   1  73
TORSDOF 18
ENDMDL
MODEL 3
REMARK VINA RESULT:     -11.3      2.791      8.732
REMARK SMILES O=C(OCCOCCOC(=O)c1ccc(S(=O)(=O)NCc2ccn[nH]2)c(F)c1)c1ccc(-c2c3nc(c(-c4c(F)c(F)c(F)c(F)c4F)c4ccc([nH]4)c(-c4c(F)c(F)c(F)c(F)c4F)c4nc(c(-c5c(F)c(F)c(F)c(F)c5F)c5ccc2[nH]5)C=C4)C=C3)cc1
REMARK SMILES IDX 7 1 6 2 5 3 4 4 3 5 2 6 1 7 29 8 30 9 91 10 31 11 90 12
REMARK SMILES IDX 32 13 33 14 34 15 84 16 35 17 89 18 83 19 85 20 36 21 88 22
REMARK SMILES IDX 82 23 81 24 37 26 69 27 49 28 68 29 50 30 53 31 67 32 86 33
REMARK SMILES IDX 51 34 52 35 66 37 87 38 54 39 38 40 39 41 47 42 40 43 41 44
REMARK SMILES IDX 45 45 48 46 42 47 43 48 46 49 44 50 70 51 71 52 79 53 72 54
REMARK SMILES IDX 73 55 77 56 80 57 74 58 75 59 78 60 76 61 55 62 56 63 64 64
REMARK SMILES IDX 57 65 58 66 62 67 65 68 59 69 60 70 63 71 61 72 8 73 9 74
REMARK SMILES IDX 10 75 11 76 12 77 13 78 28 79 14 80 26 81 15 82 27 83 16 84
REMARK SMILES IDX 17 85 18 86 19 87 20 89 21 90 22 91 25 92 23 93 24 94
REMARK H PARENT 85 25 53 36 19 88 25 95
REMARK Flexibility Score: inf
ROOT
ATOM      1  C   UNL A   1      34.006  33.496  29.194  1.00  0.00     0.202 C 
ENDROOT
BRANCH   1   2
ATOM      2  O   UNL A   1      33.002  34.521  29.201  1.00  0.00    -0.374 OA
BRANCH   2   3
ATOM      3  C   UNL A   1      33.459  35.834  28.874  1.00  0.00     0.202 C 
BRANCH   3   4
ATOM      4  C   UNL A   1      32.884  36.923  29.784  1.00  0.00     0.261 C 
BRANCH   4   5
ATOM      5  O   UNL A   1      32.206  36.327  30.902  1.00  0.00    -0.460 OA
BRANCH   5   6
ATOM      6  C   UNL A   1      32.667  36.105  32.153  1.00  0.00     0.338 C 
ATOM      7  O   UNL A   1      32.107  36.668  33.092  1.00  0.00    -0.246 OA
BRANCH   6   8
ATOM      8  C   UNL A   1      33.807  35.193  32.476  1.00  0.00     0.060 A 
ATOM      9  C   UNL A   1      33.691  33.879  32.937  1.00  0.00     0.016 A 
ATOM     10  C   UNL A   1      35.095  35.681  32.199  1.00  0.00     0.016 A 
ATOM     11  C   UNL A   1      34.807  33.089  33.173  1.00  0.00     0.010 A 
ATOM     12  C   UNL A   1      36.224  34.886  32.406  1.00  0.00     0.010 A 
ATOM     13  C   UNL A   1      36.077  33.593  32.913  1.00  0.00    -0.014 A 
BRANCH  13  14
ATOM     14  C   UNL A   1      37.247  32.786  33.292  1.00  0.00     0.031 A 
ATOM     15  C   UNL A   1      37.854  33.019  34.637  1.00  0.00     0.074 A 
ATOM     16  C   UNL A   1      37.687  31.818  32.473  1.00  0.00     0.049 A 
ATOM     17  N   UNL A   1      38.942  32.519  35.153  1.00  0.00    -0.248 NA
ATOM     18  C   UNL A   1      37.125  33.937  35.530  1.00  0.00     0.031 C 
ATOM     19  C   UNL A   1      37.062  31.444  31.203  1.00  0.00     0.029 A 
ATOM     20  N   UNL A   1      38.749  30.964  32.591  1.00  0.00    -0.354 N 
ATOM     21  C   UNL A   1      39.048  33.087  36.414  1.00  0.00     0.074 A 
ATOM     22  C   UNL A   1      37.914  33.963  36.593  1.00  0.00     0.031 C 
ATOM     23  C   UNL A   1      37.753  30.429  30.661  1.00  0.00     0.029 A 
ATOM     24  C   UNL A   1      38.903  30.133  31.509  1.00  0.00     0.049 A 
ATOM     25  H   UNL A   1      39.346  30.947  33.375  1.00  0.00     0.167 HD
ATOM     26  C   UNL A   1      40.025  32.893  37.328  1.00  0.00     0.037 A 
ATOM     27  C   UNL A   1      39.890  29.263  31.230  1.00  0.00     0.037 A 
ATOM     28  C   UNL A   1      41.141  32.016  37.106  1.00  0.00     0.049 A 
ATOM     29  C   UNL A   1      41.018  29.130  32.217  1.00  0.00     0.074 A 
ATOM     30  C   UNL A   1      42.230  31.778  37.921  1.00  0.00     0.029 A 
ATOM     31  N   UNL A   1      41.302  31.229  35.971  1.00  0.00    -0.354 N 
ATOM     32  N   UNL A   1      41.167  29.725  33.378  1.00  0.00    -0.248 NA
ATOM     33  C   UNL A   1      42.121  28.232  31.856  1.00  0.00     0.031 C 
ATOM     34  C   UNL A   1      43.073  30.880  37.258  1.00  0.00     0.029 A 
ATOM     35  C   UNL A   1      42.483  30.516  36.055  1.00  0.00     0.049 A 
ATOM     36  H   UNL A   1      40.667  31.185  35.220  1.00  0.00     0.167 HD
ATOM     37  C   UNL A   1      42.368  29.267  33.895  1.00  0.00     0.074 A 
ATOM     38  C   UNL A   1      42.909  28.337  32.921  1.00  0.00     0.031 C 
ATOM     39  C   UNL A   1      42.974  29.588  35.065  1.00  0.00     0.037 A 
BRANCH  26  40
ATOM     40  C   UNL A   1      39.957  33.702  38.587  1.00  0.00     0.064 A 
ATOM     41  C   UNL A   1      40.657  34.915  38.682  1.00  0.00     0.173 A 
ATOM     42  C   UNL A   1      39.181  33.305  39.686  1.00  0.00     0.173 A 
ATOM     43  F   UNL A   1      41.405  35.346  37.655  1.00  0.00    -0.203 F 
ATOM     44  C   UNL A   1      40.580  35.700  39.829  1.00  0.00     0.198 A 
ATOM     45  C   UNL A   1      39.085  34.107  40.821  1.00  0.00     0.198 A 
ATOM     46  F   UNL A   1      38.469  32.169  39.635  1.00  0.00    -0.203 F 
ATOM     47  F   UNL A   1      41.261  36.852  39.896  1.00  0.00    -0.200 F 
ATOM     48  C   UNL A   1      39.787  35.301  40.894  1.00  0.00     0.200 A 
ATOM     49  F   UNL A   1      38.290  33.737  41.835  1.00  0.00    -0.200 F 
ATOM     50  F   UNL A   1      39.686  36.075  41.982  1.00  0.00    -0.200 F 
ENDBRANCH  26  40
BRANCH  27  51
ATOM     51  C   UNL A   1      39.851  28.496  29.958  1.00  0.00     0.064 A 
ATOM     52  C   UNL A   1      39.291  27.209  29.902  1.00  0.00     0.173 A 
ATOM     53  C   UNL A   1      40.436  28.999  28.789  1.00  0.00     0.173 A 
ATOM     54  F   UNL A   1      38.718  26.679  30.993  1.00  0.00    -0.203 F 
ATOM     55  C   UNL A   1      39.351  26.443  28.740  1.00  0.00     0.198 A 
ATOM     56  C   UNL A   1      40.475  28.241  27.619  1.00  0.00     0.198 A 
ATOM     57  F   UNL A   1      40.968  30.230  28.784  1.00  0.00    -0.203 F 
ATOM     58  F   UNL A   1      38.852  25.200  28.731  1.00  0.00    -0.200 F 
ATOM     59  C   UNL A   1      39.944  26.960  27.599  1.00  0.00     0.200 A 
ATOM     60  F   UNL A   1      41.031  28.751  26.511  1.00  0.00    -0.200 F 
ATOM     61  F   UNL A   1      40.005  26.223  26.481  1.00  0.00    -0.200 F 
ENDBRANCH  27  51
BRANCH  39  62
ATOM     62  C   UNL A   1      44.272  28.912  35.381  1.00  0.00     0.064 A 
ATOM     63  C   UNL A   1      44.283  27.735  36.144  1.00  0.00     0.173 A 
ATOM     64  C   UNL A   1      45.497  29.505  35.055  1.00  0.00     0.173 A 
ATOM     65  F   UNL A   1      43.128  27.142  36.488  1.00  0.00    -0.203 F 
ATOM     66  C   UNL A   1      45.479  27.191  36.597  1.00  0.00     0.198 A 
ATOM     67  C   UNL A   1      46.694  28.944  35.492  1.00  0.00     0.198 A 
ATOM     68  F   UNL A   1      45.532  30.625  34.319  1.00  0.00    -0.203 F 
ATOM     69  F   UNL A   1      45.465  26.096  37.369  1.00  0.00    -0.200 F 
ATOM     70  C   UNL A   1      46.683  27.798  36.274  1.00  0.00     0.200 A 
ATOM     71  F   UNL A   1      47.859  29.522  35.166  1.00  0.00    -0.200 F 
ATOM     72  F   UNL A   1      47.835  27.281  36.722  1.00  0.00    -0.200 F 
ENDBRANCH  39  62
ENDBRANCH  13  14
ENDBRANCH   6   8
ENDBRANCH   5   6
ENDBRANCH   4   5
ENDBRANCH   3   4
ENDBRANCH   2   3
ENDBRANCH   1   2
BRANCH   1  73
ATOM     73  C   UNL A   1      34.113  32.896  27.791  1.00  0.00     0.261 C 
BRANCH  73  74
ATOM     74  O   UNL A   1      33.546  31.577  27.824  1.00  0.00    -0.460 OA
BRANCH  74  75
ATOM     75  C   UNL A   1      34.387  30.591  27.428  1.00  0.00     0.338 C 
ATOM     76  O   UNL A   1      35.606  30.594  27.465  1.00  0.00    -0.246 OA
BRANCH  75  77
ATOM     77  C   UNL A   1      33.587  29.385  27.114  1.00  0.00     0.063 A 
ATOM     78  C   UNL A   1      32.214  29.322  27.379  1.00  0.00     0.017 A 
ATOM     79  C   UNL A   1      34.250  28.276  26.573  1.00  0.00     0.056 A 
ATOM     80  C   UNL A   1      31.502  28.161  27.072  1.00  0.00     0.026 A 
ATOM     81  C   UNL A   1      33.533  27.123  26.268  1.00  0.00     0.144 A 
ATOM     82  C   UNL A   1      32.167  27.068  26.500  1.00  0.00     0.118 A 
ATOM     83  F   UNL A   1      34.193  26.077  25.753  1.00  0.00    -0.205 F 
BRANCH  82  84
ATOM     84  S   UNL A   1      31.216  25.698  25.940  1.00  0.00     0.243 S 
ATOM     85  O   UNL A   1      31.316  24.662  26.942  1.00  0.00    -0.207 OA
ATOM     86  O   UNL A   1      29.929  26.229  25.549  1.00  0.00    -0.207 OA
BRANCH  84  87
ATOM     87  N   UNL A   1      31.910  25.105  24.538  1.00  0.00    -0.205 NA
ATOM     88  H   UNL A   1      32.819  24.731  24.812  1.00  0.00     0.141 HD
BRANCH  87  89
ATOM     89  C   UNL A   1      31.288  24.081  23.714  1.00  0.00     0.154 C 
BRANCH  89  90
ATOM     90  C   UNL A   1      31.739  22.712  24.039  1.00  0.00     0.050 A 
ATOM     91  C   UNL A   1      32.465  21.799  23.299  1.00  0.00     0.046 A 
ATOM     92  N   UNL A   1      31.464  22.078  25.222  1.00  0.00    -0.281 N 
ATOM     93  C   UNL A   1      32.559  20.659  24.115  1.00  0.00     0.135 A 
ATOM     94  N   UNL A   1      31.927  20.816  25.278  1.00  0.00    -0.184 NA
ATOM     95  H   UNL A   1      30.973  22.504  25.961  1.00  0.00     0.190 HD
ENDBRANCH  89  90
ENDBRANCH  87  89
ENDBRANCH  84  87
ENDBRANCH  82  84
ENDBRANCH  75  77
ENDBRANCH  74  75
ENDBRANCH  73  74
ENDBRANCH   1  73
TORSDOF 18
ENDMDL
