MODEL 1
REMARK VINA RESULT:     -12.5      0.000      0.000
REMARK SMILES O=C(OCCOCCOC(=O)c1ccc(-c2c3nc(c(-c4c(F)c(F)c(F)c(F)c4F)c4ccc([nH]4)c(-c4c(F)c(F)c(F)c(F)c4F)c4nc(c(-c5c(F)c(F)c(F)c(F)c5F)c5ccc2[nH]5)C=C4)C=C3)cc1)C1=NN(c2ccc(S(=O)(=O)[O-])cc2)C(=O)/C1=C/Nc1ccccc1
REMARK SMILES IDX 6 1 5 2 4 3 3 4 2 5 1 6 75 7 76 8 90 9 77 10 88 11 91 12
REMARK SMILES IDX 89 13 78 14 79 15 87 16 80 17 86 18 81 19 82 20 83 21 84 22
REMARK SMILES IDX 85 23 92 24 93 26 94 27 98 28 95 29 97 30 96 31 7 32 8 33
REMARK SMILES IDX 9 34 10 35 11 36 12 37 13 38 74 39 14 40 73 41 15 42 16 43
REMARK SMILES IDX 17 44 67 45 18 46 72 47 66 48 68 49 19 50 71 51 65 52 64 53
REMARK SMILES IDX 20 55 52 56 32 57 51 58 33 59 36 60 50 61 69 62 34 63 35 64
REMARK SMILES IDX 49 66 70 67 37 68 21 69 22 70 30 71 23 72 24 73 28 74 31 75
REMARK SMILES IDX 25 76 26 77 29 78 27 79 53 80 54 81 62 82 55 83 56 84 60 85
REMARK SMILES IDX 63 86 57 87 58 88 61 89 59 90 38 91 39 92 47 93 40 94 41 95
REMARK SMILES IDX 45 96 48 97 42 98 43 99 46 100 44 101
REMARK H PARENT 92 25 68 54 36 65
REMARK Flexibility Score: inf
ROOT
ATOM      1  O   UNL A   1      32.539  27.628  25.944  1.00  0.00    -0.374 OA
ENDROOT
BRANCH   1   2
ATOM      2  C   UNL A   1      33.769  26.911  25.779  1.00  0.00     0.202 C 
BRANCH   2   3
ATOM      3  C   UNL A   1      33.998  26.567  24.308  1.00  0.00     0.261 C 
BRANCH   3   4
ATOM      4  O   UNL A   1      34.207  25.160  24.152  1.00  0.00    -0.458 OA
BRANCH   4   5
ATOM      5  C   UNL A   1      33.193  24.442  23.622  1.00  0.00     0.359 C 
ATOM      6  O   UNL A   1      33.362  23.427  22.960  1.00  0.00    -0.244 OA
BRANCH   5   7
ATOM      7  C   UNL A   1      31.833  24.698  24.195  1.00  0.00     0.183 C 
ATOM      8  N   UNL A   1      31.051  25.420  23.436  1.00  0.00    -0.157 NA
ATOM      9  C   UNL A   1      31.268  24.469  25.551  1.00  0.00     0.093 C 
ATOM     10  N   UNL A   1      30.026  25.847  24.240  1.00  0.00    -0.196 N 
ATOM     11  C   UNL A   1      29.982  25.233  25.492  1.00  0.00     0.282 C 
ATOM     12  C   UNL A   1      31.520  23.932  26.755  1.00  0.00     0.099 C 
ATOM     13  O   UNL A   1      29.158  25.337  26.384  1.00  0.00    -0.267 OA
BRANCH  10  14
ATOM     14  C   UNL A   1      29.539  27.139  23.943  1.00  0.00     0.069 A 
ATOM     15  C   UNL A   1      28.190  27.312  23.588  1.00  0.00     0.030 A 
ATOM     16  C   UNL A   1      30.425  28.217  23.806  1.00  0.00     0.030 A 
ATOM     17  C   UNL A   1      27.735  28.540  23.110  1.00  0.00     0.021 A 
ATOM     18  C   UNL A   1      29.982  29.439  23.304  1.00  0.00     0.021 A 
ATOM     19  C   UNL A   1      28.637  29.595  22.971  1.00  0.00     0.054 A 
BRANCH  19  20
ATOM     20  S   UNL A   1      28.044  31.141  22.357  1.00  0.00     0.124 S 
ATOM     21  O   UNL A   1      27.734  30.973  20.956  1.00  0.00    -0.237 OA
ATOM     22  O   UNL A   1      27.074  31.635  23.310  1.00  0.00    -0.237 OA
ATOM     23  O   UNL A   1      29.293  32.156  22.461  1.00  0.00    -0.744 OA
ENDBRANCH  19  20
ENDBRANCH  10  14
BRANCH  12  24
ATOM     24  N   UNL A   1      32.578  23.278  27.325  1.00  0.00    -0.361 N 
ATOM     25  H   UNL A   1      32.817  23.536  28.245  1.00  0.00     0.166 HD
BRANCH  24  26
ATOM     26  C   UNL A   1      33.369  22.257  26.714  1.00  0.00     0.038 A 
ATOM     27  C   UNL A   1      34.753  22.478  26.584  1.00  0.00     0.026 A 
ATOM     28  C   UNL A   1      32.776  21.267  25.915  1.00  0.00     0.026 A 
ATOM     29  C   UNL A   1      35.502  21.802  25.613  1.00  0.00     0.002 A 
ATOM     30  C   UNL A   1      33.530  20.586  24.949  1.00  0.00     0.002 A 
ATOM     31  C   UNL A   1      34.885  20.875  24.778  1.00  0.00     0.000 A 
ENDBRANCH  24  26
ENDBRANCH  12  24
ENDBRANCH   5   7
ENDBRANCH   4   5
ENDBRANCH   3   4
ENDBRANCH   2   3
ENDBRANCH   1   2
BRANCH   1  32
ATOM     32  C   UNL A   1      32.362  28.257  27.227  1.00  0.00     0.202 C 
BRANCH  32  33
ATOM     33  C   UNL A   1      32.131  29.765  27.093  1.00  0.00     0.261 C 
BRANCH  33  34
ATOM     34  O   UNL A   1      33.266  30.408  26.494  1.00  0.00    -0.460 OA
BRANCH  34  35
ATOM     35  C   UNL A   1      33.746  31.394  27.278  1.00  0.00     0.338 C 
ATOM     36  O   UNL A   1      33.153  32.393  27.618  1.00  0.00    -0.246 OA
BRANCH  35  37
ATOM     37  C   UNL A   1      35.044  31.131  27.862  1.00  0.00     0.060 A 
ATOM     38  C   UNL A   1      35.261  29.818  28.316  1.00  0.00     0.016 A 
ATOM     39  C   UNL A   1      35.976  32.145  28.032  1.00  0.00     0.016 A 
ATOM     40  C   UNL A   1      36.426  29.513  28.978  1.00  0.00     0.010 A 
ATOM     41  C   UNL A   1      37.153  31.837  28.685  1.00  0.00     0.010 A 
ATOM     42  C   UNL A   1      37.360  30.532  29.166  1.00  0.00    -0.014 A 
BRANCH  42  43
ATOM     43  C   UNL A   1      38.562  30.248  29.943  1.00  0.00     0.031 A 
ATOM     44  C   UNL A   1      39.586  29.347  29.347  1.00  0.00     0.074 A 
ATOM     45  C   UNL A   1      38.656  30.793  31.163  1.00  0.00     0.049 A 
ATOM     46  N   UNL A   1      40.638  28.818  29.905  1.00  0.00    -0.248 NA
ATOM     47  C   UNL A   1      39.390  28.972  27.935  1.00  0.00     0.031 C 
ATOM     48  C   UNL A   1      37.685  31.720  31.750  1.00  0.00     0.029 A 
ATOM     49  N   UNL A   1      39.599  30.631  32.133  1.00  0.00    -0.354 N 
ATOM     50  C   UNL A   1      41.210  28.018  28.926  1.00  0.00     0.074 A 
ATOM     51  C   UNL A   1      40.388  28.123  27.742  1.00  0.00     0.031 C 
ATOM     52  C   UNL A   1      38.080  32.038  32.991  1.00  0.00     0.029 A 
ATOM     53  C   UNL A   1      39.295  31.293  33.294  1.00  0.00     0.049 A 
ATOM     54  H   UNL A   1      40.415  30.093  32.012  1.00  0.00     0.167 HD
ATOM     55  C   UNL A   1      42.324  27.261  29.039  1.00  0.00     0.037 A 
ATOM     56  C   UNL A   1      39.930  31.256  34.475  1.00  0.00     0.037 A 
ATOM     57  C   UNL A   1      43.099  27.201  30.250  1.00  0.00     0.049 A 
ATOM     58  C   UNL A   1      41.154  30.393  34.573  1.00  0.00     0.074 A 
ATOM     59  C   UNL A   1      44.249  26.485  30.511  1.00  0.00     0.029 A 
ATOM     60  N   UNL A   1      42.785  27.902  31.411  1.00  0.00    -0.354 N 
ATOM     61  N   UNL A   1      41.698  29.625  33.657  1.00  0.00    -0.248 NA
ATOM     62  C   UNL A   1      41.854  30.391  35.859  1.00  0.00     0.031 C 
ATOM     63  C   UNL A   1      44.609  26.721  31.843  1.00  0.00     0.029 A 
ATOM     64  C   UNL A   1      43.714  27.627  32.397  1.00  0.00     0.049 A 
ATOM     65  H   UNL A   1      42.014  28.506  31.516  1.00  0.00     0.167 HD
ATOM     66  C   UNL A   1      42.822  29.067  34.242  1.00  0.00     0.074 A 
ATOM     67  C   UNL A   1      42.885  29.600  35.592  1.00  0.00     0.031 C 
ATOM     68  C   UNL A   1      43.725  28.196  33.724  1.00  0.00     0.037 A 
BRANCH  55  69
ATOM     69  C   UNL A   1      42.713  26.422  27.858  1.00  0.00     0.064 A 
ATOM     70  C   UNL A   1      43.639  26.867  26.902  1.00  0.00     0.173 A 
ATOM     71  C   UNL A   1      42.136  25.158  27.669  1.00  0.00     0.173 A 
ATOM     72  F   UNL A   1      44.199  28.081  27.017  1.00  0.00    -0.203 F 
ATOM     73  C   UNL A   1      43.951  26.090  25.788  1.00  0.00     0.198 A 
ATOM     74  C   UNL A   1      42.472  24.370  26.570  1.00  0.00     0.198 A 
ATOM     75  F   UNL A   1      41.236  24.687  28.545  1.00  0.00    -0.203 F 
ATOM     76  F   UNL A   1      44.793  26.561  24.859  1.00  0.00    -0.200 F 
ATOM     77  C   UNL A   1      43.372  24.840  25.626  1.00  0.00     0.200 A 
ATOM     78  F   UNL A   1      41.913  23.163  26.416  1.00  0.00    -0.200 F 
ATOM     79  F   UNL A   1      43.672  24.094  24.554  1.00  0.00    -0.200 F 
ENDBRANCH  55  69
BRANCH  56  80
ATOM     80  C   UNL A   1      39.422  32.060  35.613  1.00  0.00     0.064 A 
ATOM     81  C   UNL A   1      38.489  31.522  36.509  1.00  0.00     0.173 A 
ATOM     82  C   UNL A   1      39.890  33.360  35.861  1.00  0.00     0.173 A 
ATOM     83  F   UNL A   1      38.010  30.285  36.312  1.00  0.00    -0.203 F 
ATOM     84  C   UNL A   1      38.031  32.259  37.599  1.00  0.00     0.198 A 
ATOM     85  C   UNL A   1      39.452  34.085  36.967  1.00  0.00     0.198 A 
ATOM     86  F   UNL A   1      40.798  33.915  35.045  1.00  0.00    -0.203 F 
ATOM     87  F   UNL A   1      37.116  31.729  38.424  1.00  0.00    -0.200 F 
ATOM     88  C   UNL A   1      38.518  33.536  37.832  1.00  0.00     0.200 A 
ATOM     89  F   UNL A   1      39.943  35.309  37.201  1.00  0.00    -0.200 F 
ATOM     90  F   UNL A   1      38.087  34.238  38.889  1.00  0.00    -0.200 F 
ENDBRANCH  56  80
BRANCH  68  91
ATOM     91  C   UNL A   1      44.866  27.820  34.617  1.00  0.00     0.064 A 
ATOM     92  C   UNL A   1      44.806  26.697  35.454  1.00  0.00     0.173 A 
ATOM     93  C   UNL A   1      46.038  28.590  34.619  1.00  0.00     0.173 A 
ATOM     94  F   UNL A   1      43.696  25.945  35.495  1.00  0.00    -0.203 F 
ATOM     95  C   UNL A   1      45.869  26.379  36.291  1.00  0.00     0.198 A 
ATOM     96  C   UNL A   1      47.112  28.249  35.433  1.00  0.00     0.198 A 
ATOM     97  F   UNL A   1      46.141  29.669  33.828  1.00  0.00    -0.203 F 
ATOM     98  F   UNL A   1      45.769  25.337  37.128  1.00  0.00    -0.200 F 
ATOM     99  C   UNL A   1      47.022  27.151  36.275  1.00  0.00     0.200 A 
ATOM    100  F   UNL A   1      48.230  28.986  35.408  1.00  0.00    -0.200 F 
ATOM    101  F   UNL A   1      48.045  26.841  37.083  1.00  0.00    -0.200 F 
ENDBRANCH  68  91
ENDBRANCH  42  43
ENDBRANCH  35  37
ENDBRANCH  34  35
ENDBRANCH  33  34
ENDBRANCH  32  33
ENDBRANCH   1  32
TORSDOF 18
ENDMDL
MODEL 2
REMARK VINA RESULT:     -12.3      2.311      4.981
REMARK SMILES O=C(OCCOCCOC(=O)c1ccc(-c2c3nc(c(-c4c(F)c(F)c(F)c(F)c4F)c4ccc([nH]4)c(-c4c(F)c(F)c(F)c(F)c4F)c4nc(c(-c5c(F)c(F)c(F)c(F)c5F)c5ccc2[nH]5)C=C4)C=C3)cc1)C1=NN(c2ccc(S(=O)(=O)[O-])cc2)C(=O)/C1=C/Nc1ccccc1
REMARK SMILES IDX 6 1 5 2 4 3 3 4 2 5 1 6 75 7 76 8 90 9 77 10 88 11 91 12
REMARK SMILES IDX 89 13 78 14 79 15 87 16 80 17 86 18 81 19 82 20 83 21 84 22
REMARK SMILES IDX 85 23 92 24 93 26 94 27 98 28 95 29 97 30 96 31 7 32 8 33
REMARK SMILES IDX 9 34 10 35 11 36 12 37 13 38 74 39 14 40 73 41 15 42 16 43
REMARK SMILES IDX 17 44 67 45 18 46 72 47 66 48 68 49 19 50 71 51 65 52 64 53
REMARK SMILES IDX 20 55 52 56 32 57 51 58 33 59 36 60 50 61 69 62 34 63 35 64
REMARK SMILES IDX 49 66 70 67 37 68 21 69 22 70 30 71 23 72 24 73 28 74 31 75
REMARK SMILES IDX 25 76 26 77 29 78 27 79 53 80 54 81 62 82 55 83 56 84 60 85
REMARK SMILES IDX 63 86 57 87 58 88 61 89 59 90 38 91 39 92 47 93 40 94 41 95
REMARK SMILES IDX 45 96 48 97 42 98 43 99 46 100 44 101
REMARK H PARENT 92 25 68 54 36 65
REMARK Flexibility Score: inf
ROOT
ATOM      1  O   UNL A   1      34.350  28.366  24.362  1.00  0.00    -0.374 OA
ENDROOT
BRANCH   1   2
ATOM      2  C   UNL A   1      33.618  28.726  23.184  1.00  0.00     0.202 C 
BRANCH   2   3
ATOM      3  C   UNL A   1      33.517  27.538  22.229  1.00  0.00     0.261 C 
BRANCH   3   4
ATOM      4  O   UNL A   1      34.012  26.350  22.855  1.00  0.00    -0.458 OA
BRANCH   4   5
ATOM      5  C   UNL A   1      33.160  25.307  22.957  1.00  0.00     0.359 C 
ATOM      6  O   UNL A   1      32.523  24.864  22.010  1.00  0.00    -0.244 OA
BRANCH   5   7
ATOM      7  C   UNL A   1      33.309  24.450  24.176  1.00  0.00     0.183 C 
ATOM      8  N   UNL A   1      34.074  23.402  24.014  1.00  0.00    -0.157 NA
ATOM      9  C   UNL A   1      32.590  24.442  25.477  1.00  0.00     0.093 C 
ATOM     10  N   UNL A   1      33.813  22.571  25.071  1.00  0.00    -0.196 N 
ATOM     11  C   UNL A   1      33.039  23.147  26.079  1.00  0.00     0.282 C 
ATOM     12  C   UNL A   1      31.679  25.093  26.217  1.00  0.00     0.099 C 
ATOM     13  O   UNL A   1      32.712  22.700  27.165  1.00  0.00    -0.267 OA
BRANCH  10  14
ATOM     14  C   UNL A   1      33.873  21.192  24.771  1.00  0.00     0.069 A 
ATOM     15  C   UNL A   1      32.686  20.467  24.580  1.00  0.00     0.030 A 
ATOM     16  C   UNL A   1      35.090  20.501  24.858  1.00  0.00     0.030 A 
ATOM     17  C   UNL A   1      32.712  19.077  24.471  1.00  0.00     0.021 A 
ATOM     18  C   UNL A   1      35.121  19.109  24.777  1.00  0.00     0.021 A 
ATOM     19  C   UNL A   1      33.933  18.409  24.572  1.00  0.00     0.054 A 
BRANCH  19  20
ATOM     20  S   UNL A   1      33.947  16.648  24.440  1.00  0.00     0.124 S 
ATOM     21  O   UNL A   1      35.132  16.163  25.109  1.00  0.00    -0.237 OA
ATOM     22  O   UNL A   1      32.621  16.183  24.780  1.00  0.00    -0.237 OA
ATOM     23  O   UNL A   1      34.115  16.334  22.866  1.00  0.00    -0.744 OA
ENDBRANCH  19  20
ENDBRANCH  10  14
BRANCH  12  24
ATOM     24  N   UNL A   1      30.903  26.206  26.045  1.00  0.00    -0.361 N 
ATOM     25  H   UNL A   1      30.843  26.828  26.805  1.00  0.00     0.166 HD
BRANCH  24  26
ATOM     26  C   UNL A   1      30.169  26.551  24.869  1.00  0.00     0.038 A 
ATOM     27  C   UNL A   1      30.536  27.719  24.175  1.00  0.00     0.026 A 
ATOM     28  C   UNL A   1      28.897  26.007  24.627  1.00  0.00     0.026 A 
ATOM     29  C   UNL A   1      29.623  28.380  23.344  1.00  0.00     0.002 A 
ATOM     30  C   UNL A   1      27.988  26.666  23.787  1.00  0.00     0.002 A 
ATOM     31  C   UNL A   1      28.341  27.867  23.171  1.00  0.00     0.000 A 
ENDBRANCH  24  26
ENDBRANCH  12  24
ENDBRANCH   5   7
ENDBRANCH   4   5
ENDBRANCH   3   4
ENDBRANCH   2   3
ENDBRANCH   1   2
BRANCH   1  32
ATOM     32  C   UNL A   1      33.634  28.521  25.602  1.00  0.00     0.202 C 
BRANCH  32  33
ATOM     33  C   UNL A   1      33.090  29.942  25.769  1.00  0.00     0.261 C 
BRANCH  33  34
ATOM     34  O   UNL A   1      32.923  30.269  27.157  1.00  0.00    -0.460 OA
BRANCH  34  35
ATOM     35  C   UNL A   1      33.659  31.343  27.505  1.00  0.00     0.338 C 
ATOM     36  O   UNL A   1      33.283  32.493  27.531  1.00  0.00    -0.246 OA
BRANCH  35  37
ATOM     37  C   UNL A   1      34.974  31.037  28.028  1.00  0.00     0.060 A 
ATOM     38  C   UNL A   1      35.123  29.769  28.618  1.00  0.00     0.016 A 
ATOM     39  C   UNL A   1      35.992  31.980  28.014  1.00  0.00     0.016 A 
ATOM     40  C   UNL A   1      36.309  29.441  29.231  1.00  0.00     0.010 A 
ATOM     41  C   UNL A   1      37.188  31.646  28.618  1.00  0.00     0.010 A 
ATOM     42  C   UNL A   1      37.330  30.391  29.234  1.00  0.00    -0.014 A 
BRANCH  42  43
ATOM     43  C   UNL A   1      38.562  30.094  29.956  1.00  0.00     0.031 A 
ATOM     44  C   UNL A   1      39.525  29.142  29.338  1.00  0.00     0.074 A 
ATOM     45  C   UNL A   1      38.738  30.674  31.151  1.00  0.00     0.049 A 
ATOM     46  N   UNL A   1      40.589  28.597  29.858  1.00  0.00    -0.248 NA
ATOM     47  C   UNL A   1      39.243  28.728  27.952  1.00  0.00     0.031 C 
ATOM     48  C   UNL A   1      37.828  31.651  31.756  1.00  0.00     0.029 A 
ATOM     49  N   UNL A   1      39.726  30.514  32.074  1.00  0.00    -0.354 N 
ATOM     50  C   UNL A   1      41.083  27.748  28.879  1.00  0.00     0.074 A 
ATOM     51  C   UNL A   1      40.203  27.841  27.736  1.00  0.00     0.031 C 
ATOM     52  C   UNL A   1      38.298  31.996  32.963  1.00  0.00     0.029 A 
ATOM     53  C   UNL A   1      39.505  31.223  33.227  1.00  0.00     0.049 A 
ATOM     54  H   UNL A   1      40.518  29.947  31.929  1.00  0.00     0.167 HD
ATOM     55  C   UNL A   1      42.178  26.960  28.959  1.00  0.00     0.037 A 
ATOM     56  C   UNL A   1      40.200  31.204  34.374  1.00  0.00     0.037 A 
ATOM     57  C   UNL A   1      43.015  26.915  30.129  1.00  0.00     0.049 A 
ATOM     58  C   UNL A   1      41.401  30.305  34.436  1.00  0.00     0.074 A 
ATOM     59  C   UNL A   1      44.155  26.170  30.354  1.00  0.00     0.029 A 
ATOM     60  N   UNL A   1      42.785  27.662  31.280  1.00  0.00    -0.354 N 
ATOM     61  N   UNL A   1      41.872  29.491  33.520  1.00  0.00    -0.248 NA
ATOM     62  C   UNL A   1      42.169  30.323  35.684  1.00  0.00     0.031 C 
ATOM     63  C   UNL A   1      44.593  26.438  31.656  1.00  0.00     0.029 A 
ATOM     64  C   UNL A   1      43.757  27.389  32.225  1.00  0.00     0.049 A 
ATOM     65  H   UNL A   1      42.040  28.293  31.405  1.00  0.00     0.167 HD
ATOM     66  C   UNL A   1      43.008  28.916  34.064  1.00  0.00     0.074 A 
ATOM     67  C   UNL A   1      43.159  29.491  35.390  1.00  0.00     0.031 C 
ATOM     68  C   UNL A   1      43.855  28.000  33.529  1.00  0.00     0.037 A 
BRANCH  55  69
ATOM     69  C   UNL A   1      42.479  26.071  27.789  1.00  0.00     0.064 A 
ATOM     70  C   UNL A   1      41.878  24.812  27.636  1.00  0.00     0.173 A 
ATOM     71  C   UNL A   1      43.399  26.479  26.811  1.00  0.00     0.173 A 
ATOM     72  F   UNL A   1      41.013  24.360  28.557  1.00  0.00    -0.203 F 
ATOM     73  C   UNL A   1      42.207  23.984  26.564  1.00  0.00     0.198 A 
ATOM     74  C   UNL A   1      43.704  25.661  25.725  1.00  0.00     0.198 A 
ATOM     75  F   UNL A   1      44.012  27.666  26.913  1.00  0.00    -0.203 F 
ATOM     76  F   UNL A   1      41.664  22.763  26.472  1.00  0.00    -0.200 F 
ATOM     77  C   UNL A   1      43.115  24.411  25.607  1.00  0.00     0.200 A 
ATOM     78  F   UNL A   1      44.580  26.076  24.800  1.00  0.00    -0.200 F 
ATOM     79  F   UNL A   1      43.432  23.614  24.578  1.00  0.00    -0.200 F 
ENDBRANCH  55  69
BRANCH  56  80
ATOM     80  C   UNL A   1      39.778  32.060  35.509  1.00  0.00     0.064 A 
ATOM     81  C   UNL A   1      40.320  33.341  35.678  1.00  0.00     0.173 A 
ATOM     82  C   UNL A   1      38.793  31.642  36.418  1.00  0.00     0.173 A 
ATOM     83  F   UNL A   1      41.266  33.783  34.837  1.00  0.00    -0.203 F 
ATOM     84  C   UNL A   1      39.905  34.164  36.723  1.00  0.00     0.198 A 
ATOM     85  C   UNL A   1      38.360  32.478  37.445  1.00  0.00     0.198 A 
ATOM     86  F   UNL A   1      38.228  30.432  36.288  1.00  0.00    -0.203 F 
ATOM     87  F   UNL A   1      40.462  35.374  36.878  1.00  0.00    -0.200 F 
ATOM     88  C   UNL A   1      38.921  33.736  37.600  1.00  0.00     0.200 A 
ATOM     89  F   UNL A   1      37.392  32.069  38.276  1.00  0.00    -0.200 F 
ATOM     90  F   UNL A   1      38.513  34.535  38.596  1.00  0.00    -0.200 F 
ENDBRANCH  56  80
BRANCH  68  91
ATOM     91  C   UNL A   1      45.030  27.617  34.373  1.00  0.00     0.064 A 
ATOM     92  C   UNL A   1      44.978  26.530  35.258  1.00  0.00     0.173 A 
ATOM     93  C   UNL A   1      46.227  28.343  34.282  1.00  0.00     0.173 A 
ATOM     94  F   UNL A   1      43.847  25.821  35.389  1.00  0.00    -0.203 F 
ATOM     95  C   UNL A   1      46.075  26.205  36.048  1.00  0.00     0.198 A 
ATOM     96  C   UNL A   1      47.332  27.994  35.049  1.00  0.00     0.198 A 
ATOM     97  F   UNL A   1      46.323  29.386  33.443  1.00  0.00    -0.203 F 
ATOM     98  F   UNL A   1      45.985  25.201  36.931  1.00  0.00    -0.200 F 
ATOM     99  C   UNL A   1      47.251  26.933  35.939  1.00  0.00     0.200 A 
ATOM    100  F   UNL A   1      48.471  28.688  34.934  1.00  0.00    -0.200 F 
ATOM    101  F   UNL A   1      48.306  26.617  36.702  1.00  0.00    -0.200 F 
ENDBRANCH  68  91
ENDBRANCH  42  43
ENDBRANCH  35  37
ENDBRANCH  34  35
ENDBRANCH  33  34
ENDBRANCH  32  33
ENDBRANCH   1  32
TORSDOF 18
ENDMDL
MODEL 3
REMARK VINA RESULT:     -12.3      2.572      5.472
REMARK SMILES O=C(OCCOCCOC(=O)c1ccc(-c2c3nc(c(-c4c(F)c(F)c(F)c(F)c4F)c4ccc([nH]4)c(-c4c(F)c(F)c(F)c(F)c4F)c4nc(c(-c5c(F)c(F)c(F)c(F)c5F)c5ccc2[nH]5)C=C4)C=C3)cc1)C1=NN(c2ccc(S(=O)(=O)[O-])cc2)C(=O)/C1=C/Nc1ccccc1
REMARK SMILES IDX 6 1 5 2 4 3 3 4 2 5 1 6 75 7 76 8 90 9 77 10 88 11 91 12
REMARK SMILES IDX 89 13 78 14 79 15 87 16 80 17 86 18 81 19 82 20 83 21 84 22
REMARK SMILES IDX 85 23 92 24 93 26 94 27 98 28 95 29 97 30 96 31 7 32 8 33
REMARK SMILES IDX 9 34 10 35 11 36 12 37 13 38 74 39 14 40 73 41 15 42 16 43
REMARK SMILES IDX 17 44 67 45 18 46 72 47 66 48 68 49 19 50 71 51 65 52 64 53
REMARK SMILES IDX 20 55 52 56 32 57 51 58 33 59 36 60 50 61 69 62 34 63 35 64
REMARK SMILES IDX 49 66 70 67 37 68 21 69 22 70 30 71 23 72 24 73 28 74 31 75
REMARK SMILES IDX 25 76 26 77 29 78 27 79 53 80 54 81 62 82 55 83 56 84 60 85
REMARK SMILES IDX 63 86 57 87 58 88 61 89 59 90 38 91 39 92 47 93 40 94 41 95
REMARK SMILES IDX 45 96 48 97 42 98 43 99 46 100 44 101
REMARK H PARENT 92 25 68 54 36 65
REMARK Flexibility Score: inf
ROOT
ATOM      1  O   UNL A   1      34.600  31.142  27.270  1.00  0.00    -0.374 OA
ENDROOT
BRANCH   1   2
ATOM      2  C   UNL A   1      34.825  29.739  27.456  1.00  0.00     0.202 C 
BRANCH   2   3
ATOM      3  C   UNL A   1      34.180  28.936  26.328  1.00  0.00     0.261 C 
BRANCH   3   4
ATOM      4  O   UNL A   1      33.484  27.803  26.856  1.00  0.00    -0.458 OA
BRANCH   4   5
ATOM      5  C   UNL A   1      32.142  27.903  26.973  1.00  0.00     0.359 C 
ATOM      6  O   UNL A   1      31.580  28.878  27.454  1.00  0.00    -0.244 OA
BRANCH   5   7
ATOM      7  C   UNL A   1      31.335  26.956  26.141  1.00  0.00     0.183 C 
ATOM      8  N   UNL A   1      31.438  25.700  26.492  1.00  0.00    -0.157 NA
ATOM      9  C   UNL A   1      30.601  27.137  24.861  1.00  0.00     0.093 C 
ATOM     10  N   UNL A   1      30.949  24.969  25.442  1.00  0.00    -0.196 N 
ATOM     11  C   UNL A   1      30.300  25.725  24.465  1.00  0.00     0.282 C 
ATOM     12  C   UNL A   1      30.214  28.045  23.951  1.00  0.00     0.099 C 
ATOM     13  O   UNL A   1      29.697  25.364  23.469  1.00  0.00    -0.267 OA
BRANCH  10  14
ATOM     14  C   UNL A   1      31.601  23.735  25.223  1.00  0.00     0.069 A 
ATOM     15  C   UNL A   1      31.675  23.205  23.924  1.00  0.00     0.030 A 
ATOM     16  C   UNL A   1      31.999  22.942  26.308  1.00  0.00     0.030 A 
ATOM     17  C   UNL A   1      32.143  21.909  23.712  1.00  0.00     0.021 A 
ATOM     18  C   UNL A   1      32.443  21.636  26.106  1.00  0.00     0.021 A 
ATOM     19  C   UNL A   1      32.522  21.134  24.808  1.00  0.00     0.054 A 
BRANCH  19  20
ATOM     20  S   UNL A   1      33.106  19.492  24.521  1.00  0.00     0.124 S 
ATOM     21  O   UNL A   1      32.487  19.006  23.309  1.00  0.00    -0.237 OA
ATOM     22  O   UNL A   1      34.540  19.509  24.705  1.00  0.00    -0.237 OA
ATOM     23  O   UNL A   1      32.534  18.610  25.745  1.00  0.00    -0.744 OA
ENDBRANCH  19  20
ENDBRANCH  10  14
BRANCH  12  24
ATOM     24  N   UNL A   1      30.371  29.395  23.799  1.00  0.00    -0.361 N 
ATOM     25  H   UNL A   1      31.230  29.779  24.088  1.00  0.00     0.166 HD
BRANCH  24  26
ATOM     26  C   UNL A   1      29.407  30.303  23.261  1.00  0.00     0.038 A 
ATOM     27  C   UNL A   1      29.008  30.132  21.922  1.00  0.00     0.026 A 
ATOM     28  C   UNL A   1      29.164  31.543  23.873  1.00  0.00     0.026 A 
ATOM     29  C   UNL A   1      28.476  31.199  21.187  1.00  0.00     0.002 A 
ATOM     30  C   UNL A   1      28.623  32.607  23.138  1.00  0.00     0.002 A 
ATOM     31  C   UNL A   1      28.307  32.444  21.789  1.00  0.00     0.000 A 
ENDBRANCH  24  26
ENDBRANCH  12  24
ENDBRANCH   5   7
ENDBRANCH   4   5
ENDBRANCH   3   4
ENDBRANCH   2   3
ENDBRANCH   1   2
BRANCH   1  32
ATOM     32  C   UNL A   1      33.327  31.627  27.735  1.00  0.00     0.202 C 
BRANCH  32  33
ATOM     33  C   UNL A   1      33.050  33.052  27.247  1.00  0.00     0.261 C 
BRANCH  33  34
ATOM     34  O   UNL A   1      32.328  33.803  28.234  1.00  0.00    -0.460 OA
BRANCH  34  35
ATOM     35  C   UNL A   1      33.085  34.785  28.761  1.00  0.00     0.338 C 
ATOM     36  O   UNL A   1      32.842  35.971  28.733  1.00  0.00    -0.246 OA
BRANCH  35  37
ATOM     37  C   UNL A   1      34.211  34.332  29.549  1.00  0.00     0.060 A 
ATOM     38  C   UNL A   1      35.484  34.579  29.005  1.00  0.00     0.016 A 
ATOM     39  C   UNL A   1      34.026  33.624  30.729  1.00  0.00     0.016 A 
ATOM     40  C   UNL A   1      36.600  34.088  29.639  1.00  0.00     0.010 A 
ATOM     41  C   UNL A   1      35.148  33.142  31.374  1.00  0.00     0.010 A 
ATOM     42  C   UNL A   1      36.419  33.363  30.817  1.00  0.00    -0.014 A 
BRANCH  42  43
ATOM     43  C   UNL A   1      37.584  32.759  31.454  1.00  0.00     0.031 A 
ATOM     44  C   UNL A   1      38.265  31.637  30.753  1.00  0.00     0.074 A 
ATOM     45  C   UNL A   1      37.953  33.233  32.652  1.00  0.00     0.049 A 
ATOM     46  N   UNL A   1      39.199  30.841  31.191  1.00  0.00    -0.248 NA
ATOM     47  C   UNL A   1      37.823  31.357  29.375  1.00  0.00     0.031 C 
ATOM     48  C   UNL A   1      37.328  34.367  33.339  1.00  0.00     0.029 A 
ATOM     49  N   UNL A   1      38.923  32.811  33.509  1.00  0.00    -0.354 N 
ATOM     50  C   UNL A   1      39.430  29.942  30.160  1.00  0.00     0.074 A 
ATOM     51  C   UNL A   1      38.537  30.283  29.076  1.00  0.00     0.031 C 
ATOM     52  C   UNL A   1      37.928  34.544  34.524  1.00  0.00     0.029 A 
ATOM     53  C   UNL A   1      38.934  33.503  34.692  1.00  0.00     0.049 A 
ATOM     54  H   UNL A   1      39.552  32.083  33.301  1.00  0.00     0.167 HD
ATOM     55  C   UNL A   1      40.314  28.920  30.152  1.00  0.00     0.037 A 
ATOM     56  C   UNL A   1      39.664  33.276  35.795  1.00  0.00     0.037 A 
ATOM     57  C   UNL A   1      41.177  28.634  31.267  1.00  0.00     0.049 A 
ATOM     58  C   UNL A   1      40.625  32.123  35.759  1.00  0.00     0.074 A 
ATOM     59  C   UNL A   1      42.123  27.638  31.401  1.00  0.00     0.029 A 
ATOM     60  N   UNL A   1      41.188  29.365  32.451  1.00  0.00    -0.354 N 
ATOM     61  N   UNL A   1      40.844  31.260  34.792  1.00  0.00    -0.248 NA
ATOM     62  C   UNL A   1      41.440  31.910  36.957  1.00  0.00     0.031 C 
ATOM     63  C   UNL A   1      42.679  27.743  32.682  1.00  0.00     0.029 A 
ATOM     64  C   UNL A   1      42.118  28.837  33.327  1.00  0.00     0.049 A 
ATOM     65  H   UNL A   1      40.618  30.146  32.638  1.00  0.00     0.167 HD
ATOM     66  C   UNL A   1      41.842  30.417  35.250  1.00  0.00     0.074 A 
ATOM     67  C   UNL A   1      42.193  30.886  36.580  1.00  0.00     0.031 C 
ATOM     68  C   UNL A   1      42.424  29.354  34.639  1.00  0.00     0.037 A 
BRANCH  55  69
ATOM     69  C   UNL A   1      40.337  28.035  28.940  1.00  0.00     0.064 A 
ATOM     70  C   UNL A   1      39.626  26.826  28.887  1.00  0.00     0.173 A 
ATOM     71  C   UNL A   1      41.100  28.394  27.819  1.00  0.00     0.173 A 
ATOM     72  F   UNL A   1      38.905  26.419  29.943  1.00  0.00    -0.203 F 
ATOM     73  C   UNL A   1      39.700  25.998  27.768  1.00  0.00     0.198 A 
ATOM     74  C   UNL A   1      41.148  27.579  26.690  1.00  0.00     0.198 A 
ATOM     75  F   UNL A   1      41.809  29.532  27.819  1.00  0.00    -0.203 F 
ATOM     76  F   UNL A   1      39.060  24.821  27.764  1.00  0.00    -0.200 F 
ATOM     77  C   UNL A   1      40.456  26.378  26.669  1.00  0.00     0.200 A 
ATOM     78  F   UNL A   1      41.877  27.948  25.629  1.00  0.00    -0.200 F 
ATOM     79  F   UNL A   1      40.527  25.580  25.595  1.00  0.00    -0.200 F 
ENDBRANCH  55  69
BRANCH  56  80
ATOM     80  C   UNL A   1      39.513  34.158  36.977  1.00  0.00     0.064 A 
ATOM     81  C   UNL A   1      38.721  33.768  38.064  1.00  0.00     0.173 A 
ATOM     82  C   UNL A   1      40.193  35.384  37.070  1.00  0.00     0.173 A 
ATOM     83  F   UNL A   1      38.050  32.608  38.020  1.00  0.00    -0.203 F 
ATOM     84  C   UNL A   1      38.600  34.576  39.192  1.00  0.00     0.198 A 
ATOM     85  C   UNL A   1      40.092  36.177  38.211  1.00  0.00     0.198 A 
ATOM     86  F   UNL A   1      40.980  35.795  36.065  1.00  0.00    -0.203 F 
ATOM     87  F   UNL A   1      37.811  34.191  40.206  1.00  0.00    -0.200 F 
ATOM     88  C   UNL A   1      39.291  35.776  39.269  1.00  0.00     0.200 A 
ATOM     89  F   UNL A   1      40.780  37.324  38.290  1.00  0.00    -0.200 F 
ATOM     90  F   UNL A   1      39.184  36.545  40.360  1.00  0.00    -0.200 F 
ENDBRANCH  56  80
BRANCH  68  91
ATOM     91  C   UNL A   1      43.520  28.674  35.400  1.00  0.00     0.064 A 
ATOM     92  C   UNL A   1      44.866  29.019  35.216  1.00  0.00     0.173 A 
ATOM     93  C   UNL A   1      43.211  27.675  36.334  1.00  0.00     0.173 A 
ATOM     94  F   UNL A   1      45.206  29.957  34.318  1.00  0.00    -0.203 F 
ATOM     95  C   UNL A   1      45.870  28.360  35.917  1.00  0.00     0.198 A 
ATOM     96  C   UNL A   1      44.215  27.042  37.057  1.00  0.00     0.198 A 
ATOM     97  F   UNL A   1      41.935  27.318  36.546  1.00  0.00    -0.203 F 
ATOM     98  F   UNL A   1      47.154  28.662  35.683  1.00  0.00    -0.200 F 
ATOM     99  C   UNL A   1      45.543  27.377  36.840  1.00  0.00     0.200 A 
ATOM    100  F   UNL A   1      43.898  26.102  37.958  1.00  0.00    -0.200 F 
ATOM    101  F   UNL A   1      46.512  26.744  37.514  1.00  0.00    -0.200 F 
ENDBRANCH  68  91
ENDBRANCH  42  43
ENDBRANCH  35  37
ENDBRANCH  34  35
ENDBRANCH  33  34
ENDBRANCH  32  33
ENDBRANCH   1  32
TORSDOF 18
ENDMDL
