MODEL 1
REMARK VINA RESULT:     -10.5      0.000      0.000
REMARK SMILES C[C@@](O)(CNC(=O)c1ccc(Br)cc1N)CC(=O)OCCOCCOC(=O)c1ccc(-c2c3nc(c(-c4c(F)c(F)c(F)c(F)c4F)c4ccc([nH]4)c(-c4c(F)c(F)c(F)c(F)c4F)c4nc(c(-c5c(F)c(F)c(F)c(F)c5F)c5ccc2[nH]5)C=C4)C=C3)cc1
REMARK SMILES IDX 20 1 19 2 17 3 18 4 16 5 2 6 1 7 3 8 4 10 5 11 6 12 7 14
REMARK SMILES IDX 8 15 9 16 14 17 10 18 13 19 11 20 12 21 15 22 21 25 22 26
REMARK SMILES IDX 23 27 24 28 25 29 26 30 27 31 28 32 29 33 90 34 30 35 89 36
REMARK SMILES IDX 31 37 32 38 33 39 83 40 34 41 88 42 82 43 84 44 35 45 87 46
REMARK SMILES IDX 81 47 80 48 36 50 68 51 48 52 67 53 49 54 52 55 66 56 85 57
REMARK SMILES IDX 50 58 51 59 65 61 86 62 53 63 37 64 38 65 46 66 39 67 40 68
REMARK SMILES IDX 44 69 47 70 41 71 42 72 45 73 43 74 69 75 70 76 78 77 71 78
REMARK SMILES IDX 72 79 76 80 79 81 73 82 74 83 77 84 75 85 54 86 55 87 63 88
REMARK SMILES IDX 56 89 57 90 61 91 64 92 58 93 59 94 62 95 60 96
REMARK H PARENT 3 9 5 13 15 23 15 24 84 49 52 60
REMARK Flexibility Score: inf
ROOT
ATOM      1  C   UNL A   1      35.134  23.562  26.075  1.00  0.00     0.261 C 
ENDROOT
BRANCH   1   2
ATOM      2  O   UNL A   1      35.819  24.057  24.904  1.00  0.00    -0.463 OA
BRANCH   2   3
ATOM      3  C   UNL A   1      35.138  24.024  23.739  1.00  0.00     0.308 C 
ATOM      4  O   UNL A   1      35.415  23.292  22.795  1.00  0.00    -0.252 OA
BRANCH   3   5
ATOM      5  C   UNL A   1      34.027  25.046  23.642  1.00  0.00     0.159 C 
BRANCH   5   6
ATOM      6  C   UNL A   1      32.774  24.832  22.774  1.00  0.00     0.090 C 
ATOM      7  C   UNL A   1      31.820  23.734  23.236  1.00  0.00     0.044 C 
BRANCH   6   8
ATOM      8  O   UNL A   1      33.279  24.364  21.490  1.00  0.00    -0.388 OA
ATOM      9  H   UNL A   1      33.914  25.008  21.139  1.00  0.00     0.211 HD
ENDBRANCH   6   8
BRANCH   6  10
ATOM     10  C   UNL A   1      32.000  26.126  22.421  1.00  0.00     0.151 C 
BRANCH  10  11
ATOM     11  N   UNL A   1      30.611  26.215  22.847  1.00  0.00    -0.349 N 
ATOM     12  C   UNL A   1      30.089  26.821  23.970  1.00  0.00     0.253 C 
ATOM     13  H   UNL A   1      29.956  25.783  22.252  1.00  0.00     0.163 HD
ATOM     14  O   UNL A   1      28.898  26.703  24.251  1.00  0.00    -0.269 OA
BRANCH  12  15
ATOM     15  C   UNL A   1      30.991  27.555  24.885  1.00  0.00     0.062 A 
ATOM     16  C   UNL A   1      31.409  28.848  24.538  1.00  0.00     0.017 A 
ATOM     17  C   UNL A   1      31.460  26.933  26.056  1.00  0.00     0.045 A 
ATOM     18  C   UNL A   1      32.429  29.459  25.261  1.00  0.00     0.016 A 
ATOM     19  C   UNL A   1      32.517  27.541  26.741  1.00  0.00     0.042 A 
ATOM     20  C   UNL A   1      33.001  28.787  26.338  1.00  0.00     0.020 A 
ATOM     21  Br  UNL A   1      34.465  29.558  27.251  1.00  0.00    -0.051 Br
BRANCH  17  22
ATOM     22  N   UNL A   1      31.029  25.669  26.456  1.00  0.00    -0.398 N 
ATOM     23  H   UNL A   1      31.470  24.863  26.103  1.00  0.00     0.156 HD
ATOM     24  H   UNL A   1      30.283  25.582  27.093  1.00  0.00     0.156 HD
ENDBRANCH  17  22
ENDBRANCH  12  15
ENDBRANCH  10  11
ENDBRANCH   6  10
ENDBRANCH   5   6
ENDBRANCH   3   5
ENDBRANCH   2   3
ENDBRANCH   1   2
BRANCH   1  25
ATOM     25  C   UNL A   1      34.502  22.196  25.817  1.00  0.00     0.202 C 
BRANCH  25  26
ATOM     26  O   UNL A   1      35.338  21.078  26.116  1.00  0.00    -0.374 OA
BRANCH  26  27
ATOM     27  C   UNL A   1      35.818  20.334  25.001  1.00  0.00     0.202 C 
BRANCH  27  28
ATOM     28  C   UNL A   1      37.346  20.209  24.917  1.00  0.00     0.261 C 
BRANCH  28  29
ATOM     29  O   UNL A   1      38.012  21.405  25.380  1.00  0.00    -0.460 OA
BRANCH  29  30
ATOM     30  C   UNL A   1      39.131  21.188  26.116  1.00  0.00     0.338 C 
ATOM     31  O   UNL A   1      39.736  20.132  26.237  1.00  0.00    -0.246 OA
BRANCH  30  32
ATOM     32  C   UNL A   1      39.654  22.461  26.654  1.00  0.00     0.060 A 
ATOM     33  C   UNL A   1      40.676  22.507  27.605  1.00  0.00     0.016 A 
ATOM     34  C   UNL A   1      39.130  23.647  26.126  1.00  0.00     0.016 A 
ATOM     35  C   UNL A   1      41.191  23.749  28.001  1.00  0.00     0.010 A 
ATOM     36  C   UNL A   1      39.650  24.882  26.516  1.00  0.00     0.010 A 
ATOM     37  C   UNL A   1      40.701  24.946  27.441  1.00  0.00    -0.014 A 
BRANCH  37  38
ATOM     38  C   UNL A   1      41.371  26.248  27.703  1.00  0.00     0.031 A 
ATOM     39  C   UNL A   1      40.671  27.378  28.401  1.00  0.00     0.074 A 
ATOM     40  C   UNL A   1      42.622  26.432  27.239  1.00  0.00     0.049 A 
ATOM     41  N   UNL A   1      41.129  28.569  28.704  1.00  0.00    -0.248 NA
ATOM     42  C   UNL A   1      39.278  27.150  28.804  1.00  0.00     0.031 C 
ATOM     43  C   UNL A   1      43.397  25.433  26.504  1.00  0.00     0.029 A 
ATOM     44  N   UNL A   1      43.461  27.518  27.311  1.00  0.00    -0.354 N 
ATOM     45  C   UNL A   1      40.093  29.224  29.354  1.00  0.00     0.074 A 
ATOM     46  C   UNL A   1      38.962  28.316  29.355  1.00  0.00     0.031 C 
ATOM     47  C   UNL A   1      44.607  25.938  26.220  1.00  0.00     0.029 A 
ATOM     48  C   UNL A   1      44.681  27.308  26.720  1.00  0.00     0.049 A 
ATOM     49  H   UNL A   1      43.209  28.364  27.746  1.00  0.00     0.167 HD
ATOM     50  C   UNL A   1      40.092  30.457  29.917  1.00  0.00     0.037 A 
ATOM     51  C   UNL A   1      45.745  28.125  26.590  1.00  0.00     0.037 A 
ATOM     52  C   UNL A   1      41.207  31.372  29.895  1.00  0.00     0.049 A 
ATOM     53  C   UNL A   1      45.694  29.513  27.165  1.00  0.00     0.074 A 
ATOM     54  C   UNL A   1      41.302  32.630  30.468  1.00  0.00     0.029 A 
ATOM     55  N   UNL A   1      42.415  31.140  29.254  1.00  0.00    -0.354 N 
ATOM     56  N   UNL A   1      44.736  30.092  27.845  1.00  0.00    -0.248 NA
ATOM     57  C   UNL A   1      46.877  30.361  26.956  1.00  0.00     0.031 C 
ATOM     58  C   UNL A   1      42.541  33.180  30.128  1.00  0.00     0.029 A 
ATOM     59  C   UNL A   1      43.247  32.243  29.393  1.00  0.00     0.049 A 
ATOM     60  H   UNL A   1      42.649  30.314  28.771  1.00  0.00     0.167 HD
ATOM     61  C   UNL A   1      45.207  31.358  28.166  1.00  0.00     0.074 A 
ATOM     62  C   UNL A   1      46.544  31.459  27.621  1.00  0.00     0.031 C 
ATOM     63  C   UNL A   1      44.579  32.345  28.851  1.00  0.00     0.037 A 
BRANCH  50  64
ATOM     64  C   UNL A   1      38.845  30.899  30.631  1.00  0.00     0.064 A 
ATOM     65  C   UNL A   1      37.743  31.402  29.921  1.00  0.00     0.173 A 
ATOM     66  C   UNL A   1      38.712  30.737  32.018  1.00  0.00     0.173 A 
ATOM     67  F   UNL A   1      37.817  31.575  28.593  1.00  0.00    -0.203 F 
ATOM     68  C   UNL A   1      36.563  31.743  30.576  1.00  0.00     0.198 A 
ATOM     69  C   UNL A   1      37.520  31.050  32.666  1.00  0.00     0.198 A 
ATOM     70  F   UNL A   1      39.729  30.245  32.743  1.00  0.00    -0.203 F 
ATOM     71  F   UNL A   1      35.535  32.249  29.882  1.00  0.00    -0.200 F 
ATOM     72  C   UNL A   1      36.449  31.558  31.946  1.00  0.00     0.200 A 
ATOM     73  F   UNL A   1      37.403  30.851  33.987  1.00  0.00    -0.200 F 
ATOM     74  F   UNL A   1      35.305  31.867  32.572  1.00  0.00    -0.200 F 
ENDBRANCH  50  64
BRANCH  51  75
ATOM     75  C   UNL A   1      46.973  27.622  25.924  1.00  0.00     0.064 A 
ATOM     76  C   UNL A   1      47.116  27.707  24.533  1.00  0.00     0.173 A 
ATOM     77  C   UNL A   1      48.036  27.074  26.657  1.00  0.00     0.173 A 
ATOM     78  F   UNL A   1      46.117  28.203  23.787  1.00  0.00    -0.203 F 
ATOM     79  C   UNL A   1      48.272  27.260  23.899  1.00  0.00     0.198 A 
ATOM     80  C   UNL A   1      49.205  26.655  26.025  1.00  0.00     0.198 A 
ATOM     81  F   UNL A   1      47.949  26.973  27.992  1.00  0.00    -0.203 F 
ATOM     82  F   UNL A   1      48.369  27.324  22.564  1.00  0.00    -0.200 F 
ATOM     83  C   UNL A   1      49.319  26.743  24.647  1.00  0.00     0.200 A 
ATOM     84  F   UNL A   1      50.220  26.170  26.752  1.00  0.00    -0.200 F 
ATOM     85  F   UNL A   1      50.438  26.328  24.038  1.00  0.00    -0.200 F 
ENDBRANCH  51  75
BRANCH  63  86
ATOM     86  C   UNL A   1      45.331  33.627  29.074  1.00  0.00     0.064 A 
ATOM     87  C   UNL A   1      45.219  34.710  28.189  1.00  0.00     0.173 A 
ATOM     88  C   UNL A   1      46.121  33.800  30.221  1.00  0.00     0.173 A 
ATOM     89  F   UNL A   1      44.489  34.594  27.070  1.00  0.00    -0.203 F 
ATOM     90  C   UNL A   1      45.881  35.911  28.436  1.00  0.00     0.198 A 
ATOM     91  C   UNL A   1      46.757  35.012  30.481  1.00  0.00     0.198 A 
ATOM     92  F   UNL A   1      46.261  32.801  31.105  1.00  0.00    -0.203 F 
ATOM     93  F   UNL A   1      45.789  36.918  27.556  1.00  0.00    -0.200 F 
ATOM     94  C   UNL A   1      46.640  36.064  29.586  1.00  0.00     0.200 A 
ATOM     95  F   UNL A   1      47.478  35.164  31.601  1.00  0.00    -0.200 F 
ATOM     96  F   UNL A   1      47.263  37.226  29.830  1.00  0.00    -0.200 F 
ENDBRANCH  63  86
ENDBRANCH  37  38
ENDBRANCH  30  32
ENDBRANCH  29  30
ENDBRANCH  28  29
ENDBRANCH  27  28
ENDBRANCH  26  27
ENDBRANCH  25  26
ENDBRANCH   1  25
TORSDOF 20
ENDMDL
MODEL 2
REMARK VINA RESULT:     -10.5      4.332      9.520
REMARK SMILES C[C@@](O)(CNC(=O)c1ccc(Br)cc1N)CC(=O)OCCOCCOC(=O)c1ccc(-c2c3nc(c(-c4c(F)c(F)c(F)c(F)c4F)c4ccc([nH]4)c(-c4c(F)c(F)c(F)c(F)c4F)c4nc(c(-c5c(F)c(F)c(F)c(F)c5F)c5ccc2[nH]5)C=C4)C=C3)cc1
REMARK SMILES IDX 20 1 19 2 17 3 18 4 16 5 2 6 1 7 3 8 4 10 5 11 6 12 7 14
REMARK SMILES IDX 8 15 9 16 14 17 10 18 13 19 11 20 12 21 15 22 21 25 22 26
REMARK SMILES IDX 23 27 24 28 25 29 26 30 27 31 28 32 29 33 90 34 30 35 89 36
REMARK SMILES IDX 31 37 32 38 33 39 83 40 34 41 88 42 82 43 84 44 35 45 87 46
REMARK SMILES IDX 81 47 80 48 36 50 68 51 48 52 67 53 49 54 52 55 66 56 85 57
REMARK SMILES IDX 50 58 51 59 65 61 86 62 53 63 37 64 38 65 46 66 39 67 40 68
REMARK SMILES IDX 44 69 47 70 41 71 42 72 45 73 43 74 69 75 70 76 78 77 71 78
REMARK SMILES IDX 72 79 76 80 79 81 73 82 74 83 77 84 75 85 54 86 55 87 63 88
REMARK SMILES IDX 56 89 57 90 61 91 64 92 58 93 59 94 62 95 60 96
REMARK H PARENT 3 9 5 13 15 23 15 24 84 49 52 60
REMARK Flexibility Score: inf
ROOT
ATOM      1  C   UNL A   1      30.918  25.779  25.910  1.00  0.00     0.261 C 
ENDROOT
BRANCH   1   2
ATOM      2  O   UNL A   1      29.907  24.953  26.529  1.00  0.00    -0.463 OA
BRANCH   2   3
ATOM      3  C   UNL A   1      30.202  23.645  26.687  1.00  0.00     0.308 C 
ATOM      4  O   UNL A   1      29.814  22.956  27.626  1.00  0.00    -0.252 OA
BRANCH   3   5
ATOM      5  C   UNL A   1      31.143  23.092  25.641  1.00  0.00     0.159 C 
BRANCH   5   6
ATOM      6  C   UNL A   1      32.489  22.435  25.997  1.00  0.00     0.090 C 
ATOM      7  C   UNL A   1      32.768  21.085  25.343  1.00  0.00     0.044 C 
BRANCH   6   8
ATOM      8  O   UNL A   1      32.402  22.142  27.421  1.00  0.00    -0.388 OA
ATOM      9  H   UNL A   1      33.084  22.643  27.896  1.00  0.00     0.211 HD
ENDBRANCH   6   8
BRANCH   6  10
ATOM     10  C   UNL A   1      33.718  23.370  25.883  1.00  0.00     0.151 C 
BRANCH  10  11
ATOM     11  N   UNL A   1      34.723  23.039  24.884  1.00  0.00    -0.349 N 
ATOM     12  C   UNL A   1      34.858  23.524  23.600  1.00  0.00     0.253 C 
ATOM     13  H   UNL A   1      35.397  22.378  25.162  1.00  0.00     0.163 HD
ATOM     14  O   UNL A   1      35.695  23.051  22.834  1.00  0.00    -0.269 OA
BRANCH  12  15
ATOM     15  C   UNL A   1      33.931  24.573  23.120  1.00  0.00     0.062 A 
ATOM     16  C   UNL A   1      34.179  25.911  23.460  1.00  0.00     0.017 A 
ATOM     17  C   UNL A   1      32.790  24.215  22.378  1.00  0.00     0.045 A 
ATOM     18  C   UNL A   1      33.205  26.875  23.218  1.00  0.00     0.016 A 
ATOM     19  C   UNL A   1      31.804  25.187  22.186  1.00  0.00     0.042 A 
ATOM     20  C   UNL A   1      32.008  26.501  22.613  1.00  0.00     0.020 A 
ATOM     21  Br  UNL A   1      30.634  27.779  22.387  1.00  0.00    -0.051 Br
BRANCH  17  22
ATOM     22  N   UNL A   1      32.538  22.903  21.980  1.00  0.00    -0.398 N 
ATOM     23  H   UNL A   1      33.009  22.157  22.417  1.00  0.00     0.156 HD
ATOM     24  H   UNL A   1      31.888  22.723  21.263  1.00  0.00     0.156 HD
ENDBRANCH  17  22
ENDBRANCH  12  15
ENDBRANCH  10  11
ENDBRANCH   6  10
ENDBRANCH   5   6
ENDBRANCH   3   5
ENDBRANCH   2   3
ENDBRANCH   1   2
BRANCH   1  25
ATOM     25  C   UNL A   1      31.512  26.773  26.906  1.00  0.00     0.202 C 
BRANCH  25  26
ATOM     26  O   UNL A   1      32.265  27.836  26.322  1.00  0.00    -0.374 OA
BRANCH  26  27
ATOM     27  C   UNL A   1      31.516  28.942  25.830  1.00  0.00     0.202 C 
BRANCH  27  28
ATOM     28  C   UNL A   1      31.798  30.277  26.533  1.00  0.00     0.261 C 
BRANCH  28  29
ATOM     29  O   UNL A   1      33.154  30.727  26.316  1.00  0.00    -0.460 OA
BRANCH  29  30
ATOM     30  C   UNL A   1      33.602  31.645  27.208  1.00  0.00     0.338 C 
ATOM     31  O   UNL A   1      32.988  32.614  27.635  1.00  0.00    -0.246 OA
BRANCH  30  32
ATOM     32  C   UNL A   1      34.914  31.242  27.755  1.00  0.00     0.060 A 
ATOM     33  C   UNL A   1      35.929  32.164  28.020  1.00  0.00     0.016 A 
ATOM     34  C   UNL A   1      35.094  29.888  28.065  1.00  0.00     0.016 A 
ATOM     35  C   UNL A   1      37.114  31.726  28.628  1.00  0.00     0.010 A 
ATOM     36  C   UNL A   1      36.271  29.457  28.678  1.00  0.00     0.010 A 
ATOM     37  C   UNL A   1      37.285  30.374  28.985  1.00  0.00    -0.014 A 
BRANCH  37  38
ATOM     38  C   UNL A   1      38.447  29.937  29.805  1.00  0.00     0.031 A 
ATOM     39  C   UNL A   1      39.451  28.942  29.299  1.00  0.00     0.074 A 
ATOM     40  C   UNL A   1      38.559  30.406  31.064  1.00  0.00     0.049 A 
ATOM     41  N   UNL A   1      40.518  28.470  29.898  1.00  0.00    -0.248 NA
ATOM     42  C   UNL A   1      39.227  28.398  27.953  1.00  0.00     0.031 C 
ATOM     43  C   UNL A   1      37.627  31.340  31.693  1.00  0.00     0.029 A 
ATOM     44  N   UNL A   1      39.496  30.161  32.037  1.00  0.00    -0.354 N 
ATOM     45  C   UNL A   1      41.107  27.595  28.996  1.00  0.00     0.074 A 
ATOM     46  C   UNL A   1      40.249  27.560  27.829  1.00  0.00     0.031 C 
ATOM     47  C   UNL A   1      38.054  31.615  32.935  1.00  0.00     0.029 A 
ATOM     48  C   UNL A   1      39.269  30.849  33.203  1.00  0.00     0.049 A 
ATOM     49  H   UNL A   1      40.258  29.550  31.910  1.00  0.00     0.167 HD
ATOM     50  C   UNL A   1      42.266  26.904  29.122  1.00  0.00     0.037 A 
ATOM     51  C   UNL A   1      39.957  30.865  34.361  1.00  0.00     0.037 A 
ATOM     52  C   UNL A   1      43.109  26.917  30.294  1.00  0.00     0.049 A 
ATOM     53  C   UNL A   1      41.203  30.036  34.499  1.00  0.00     0.074 A 
ATOM     54  C   UNL A   1      44.316  26.269  30.495  1.00  0.00     0.029 A 
ATOM     55  N   UNL A   1      42.826  27.597  31.470  1.00  0.00    -0.354 N 
ATOM     56  N   UNL A   1      41.792  29.273  33.613  1.00  0.00    -0.248 NA
ATOM     57  C   UNL A   1      41.883  30.075  35.802  1.00  0.00     0.031 C 
ATOM     58  C   UNL A   1      44.736  26.511  31.806  1.00  0.00     0.029 A 
ATOM     59  C   UNL A   1      43.822  27.359  32.408  1.00  0.00     0.049 A 
ATOM     60  H   UNL A   1      42.036  28.164  31.618  1.00  0.00     0.167 HD
ATOM     61  C   UNL A   1      42.920  28.761  34.238  1.00  0.00     0.074 A 
ATOM     62  C   UNL A   1      42.946  29.313  35.576  1.00  0.00     0.031 C 
ATOM     63  C   UNL A   1      43.849  27.907  33.740  1.00  0.00     0.037 A 
BRANCH  50  64
ATOM     64  C   UNL A   1      42.718  26.075  27.953  1.00  0.00     0.064 A 
ATOM     65  C   UNL A   1      43.587  26.600  26.984  1.00  0.00     0.173 A 
ATOM     66  C   UNL A   1      42.356  24.724  27.845  1.00  0.00     0.173 A 
ATOM     67  F   UNL A   1      43.965  27.886  27.042  1.00  0.00    -0.203 F 
ATOM     68  C   UNL A   1      44.062  25.809  25.942  1.00  0.00     0.198 A 
ATOM     69  C   UNL A   1      42.857  23.926  26.818  1.00  0.00     0.198 A 
ATOM     70  F   UNL A   1      41.540  24.166  28.752  1.00  0.00    -0.203 F 
ATOM     71  F   UNL A   1      44.867  26.341  25.012  1.00  0.00    -0.200 F 
ATOM     72  C   UNL A   1      43.704  24.471  25.865  1.00  0.00     0.200 A 
ATOM     73  F   UNL A   1      42.528  22.628  26.756  1.00  0.00    -0.200 F 
ATOM     74  F   UNL A   1      44.179  23.705  24.872  1.00  0.00    -0.200 F 
ENDBRANCH  50  64
BRANCH  51  75
ATOM     75  C   UNL A   1      39.499  31.742  35.469  1.00  0.00     0.064 A 
ATOM     76  C   UNL A   1      39.998  33.045  35.598  1.00  0.00     0.173 A 
ATOM     77  C   UNL A   1      38.541  31.314  36.398  1.00  0.00     0.173 A 
ATOM     78  F   UNL A   1      40.932  33.492  34.746  1.00  0.00    -0.203 F 
ATOM     79  C   UNL A   1      39.559  33.885  36.619  1.00  0.00     0.198 A 
ATOM     80  C   UNL A   1      38.081  32.165  37.401  1.00  0.00     0.198 A 
ATOM     81  F   UNL A   1      38.031  30.075  36.316  1.00  0.00    -0.203 F 
ATOM     82  F   UNL A   1      40.076  35.116  36.739  1.00  0.00    -0.200 F 
ATOM     83  C   UNL A   1      38.594  33.447  37.513  1.00  0.00     0.200 A 
ATOM     84  F   UNL A   1      37.138  31.744  38.254  1.00  0.00    -0.200 F 
ATOM     85  F   UNL A   1      38.161  34.262  38.485  1.00  0.00    -0.200 F 
ENDBRANCH  51  75
BRANCH  63  86
ATOM     86  C   UNL A   1      44.993  27.521  34.635  1.00  0.00     0.064 A 
ATOM     87  C   UNL A   1      46.146  28.314  34.741  1.00  0.00     0.173 A 
ATOM     88  C   UNL A   1      44.910  26.378  35.447  1.00  0.00     0.173 A 
ATOM     89  F   UNL A   1      46.283  29.409  33.978  1.00  0.00    -0.203 F 
ATOM     90  C   UNL A   1      47.177  27.971  35.613  1.00  0.00     0.198 A 
ATOM     91  C   UNL A   1      45.929  26.055  36.339  1.00  0.00     0.198 A 
ATOM     92  F   UNL A   1      43.830  25.585  35.390  1.00  0.00    -0.203 F 
ATOM     93  F   UNL A   1      48.283  28.725  35.669  1.00  0.00    -0.200 F 
ATOM     94  C   UNL A   1      47.062  26.849  36.419  1.00  0.00     0.200 A 
ATOM     95  F   UNL A   1      45.810  24.978  37.129  1.00  0.00    -0.200 F 
ATOM     96  F   UNL A   1      48.048  26.529  37.270  1.00  0.00    -0.200 F 
ENDBRANCH  63  86
ENDBRANCH  37  38
ENDBRANCH  30  32
ENDBRANCH  29  30
ENDBRANCH  28  29
ENDBRANCH  27  28
ENDBRANCH  26  27
ENDBRANCH  25  26
ENDBRANCH   1  25
TORSDOF 20
ENDMDL
MODEL 3
REMARK VINA RESULT:     -10.5      4.318      7.149
REMARK SMILES C[C@@](O)(CNC(=O)c1ccc(Br)cc1N)CC(=O)OCCOCCOC(=O)c1ccc(-c2c3nc(c(-c4c(F)c(F)c(F)c(F)c4F)c4ccc([nH]4)c(-c4c(F)c(F)c(F)c(F)c4F)c4nc(c(-c5c(F)c(F)c(F)c(F)c5F)c5ccc2[nH]5)C=C4)C=C3)cc1
REMARK SMILES IDX 20 1 19 2 17 3 18 4 16 5 2 6 1 7 3 8 4 10 5 11 6 12 7 14
REMARK SMILES IDX 8 15 9 16 14 17 10 18 13 19 11 20 12 21 15 22 21 25 22 26
REMARK SMILES IDX 23 27 24 28 25 29 26 30 27 31 28 32 29 33 90 34 30 35 89 36
REMARK SMILES IDX 31 37 32 38 33 39 83 40 34 41 88 42 82 43 84 44 35 45 87 46
REMARK SMILES IDX 81 47 80 48 36 50 68 51 48 52 67 53 49 54 52 55 66 56 85 57
REMARK SMILES IDX 50 58 51 59 65 61 86 62 53 63 37 64 38 65 46 66 39 67 40 68
REMARK SMILES IDX 44 69 47 70 41 71 42 72 45 73 43 74 69 75 70 76 78 77 71 78
REMARK SMILES IDX 72 79 76 80 79 81 73 82 74 83 77 84 75 85 54 86 55 87 63 88
REMARK SMILES IDX 56 89 57 90 61 91 64 92 58 93 59 94 62 95 60 96
REMARK H PARENT 3 9 5 13 15 23 15 24 84 49 52 60
REMARK Flexibility Score: inf
ROOT
ATOM      1  C   UNL A   1      30.949  25.839  26.064  1.00  0.00     0.261 C 
ENDROOT
BRANCH   1   2
ATOM      2  O   UNL A   1      29.905  24.991  26.591  1.00  0.00    -0.463 OA
BRANCH   2   3
ATOM      3  C   UNL A   1      30.189  23.677  26.712  1.00  0.00     0.308 C 
ATOM      4  O   UNL A   1      29.777  22.960  27.619  1.00  0.00    -0.252 OA
BRANCH   3   5
ATOM      5  C   UNL A   1      31.150  23.153  25.670  1.00  0.00     0.159 C 
BRANCH   5   6
ATOM      6  C   UNL A   1      32.498  22.502  26.033  1.00  0.00     0.090 C 
ATOM      7  C   UNL A   1      32.789  21.156  25.375  1.00  0.00     0.044 C 
BRANCH   6   8
ATOM      8  O   UNL A   1      32.401  22.202  27.456  1.00  0.00    -0.388 OA
ATOM      9  H   UNL A   1      32.942  21.423  27.659  1.00  0.00     0.211 HD
ENDBRANCH   6   8
BRANCH   6  10
ATOM     10  C   UNL A   1      33.723  23.445  25.933  1.00  0.00     0.151 C 
BRANCH  10  11
ATOM     11  N   UNL A   1      34.717  23.147  24.914  1.00  0.00    -0.349 N 
ATOM     12  C   UNL A   1      34.821  23.653  23.635  1.00  0.00     0.253 C 
ATOM     13  H   UNL A   1      35.408  22.496  25.171  1.00  0.00     0.163 HD
ATOM     14  O   UNL A   1      35.654  23.207  22.849  1.00  0.00    -0.269 OA
BRANCH  12  15
ATOM     15  C   UNL A   1      33.865  24.689  23.184  1.00  0.00     0.062 A 
ATOM     16  C   UNL A   1      34.071  26.021  23.572  1.00  0.00     0.017 A 
ATOM     17  C   UNL A   1      32.739  24.323  22.423  1.00  0.00     0.045 A 
ATOM     18  C   UNL A   1      33.070  26.964  23.356  1.00  0.00     0.016 A 
ATOM     19  C   UNL A   1      31.725  25.271  22.259  1.00  0.00     0.042 A 
ATOM     20  C   UNL A   1      31.888  26.575  22.731  1.00  0.00     0.020 A 
ATOM     21  Br  UNL A   1      30.478  27.819  22.540  1.00  0.00    -0.051 Br
BRANCH  17  22
ATOM     22  N   UNL A   1      32.528  23.018  21.980  1.00  0.00    -0.398 N 
ATOM     23  H   UNL A   1      32.205  22.331  22.607  1.00  0.00     0.156 HD
ATOM     24  H   UNL A   1      32.702  22.784  21.040  1.00  0.00     0.156 HD
ENDBRANCH  17  22
ENDBRANCH  12  15
ENDBRANCH  10  11
ENDBRANCH   6  10
ENDBRANCH   5   6
ENDBRANCH   3   5
ENDBRANCH   2   3
ENDBRANCH   1   2
BRANCH   1  25
ATOM     25  C   UNL A   1      31.238  27.012  26.997  1.00  0.00     0.202 C 
BRANCH  25  26
ATOM     26  O   UNL A   1      32.089  28.021  26.453  1.00  0.00    -0.374 OA
BRANCH  26  27
ATOM     27  C   UNL A   1      31.440  29.157  25.892  1.00  0.00     0.202 C 
BRANCH  27  28
ATOM     28  C   UNL A   1      31.781  30.494  26.564  1.00  0.00     0.261 C 
BRANCH  28  29
ATOM     29  O   UNL A   1      33.164  30.863  26.363  1.00  0.00    -0.460 OA
BRANCH  29  30
ATOM     30  C   UNL A   1      33.650  31.767  27.249  1.00  0.00     0.338 C 
ATOM     31  O   UNL A   1      33.072  32.756  27.680  1.00  0.00    -0.246 OA
BRANCH  30  32
ATOM     32  C   UNL A   1      34.954  31.323  27.783  1.00  0.00     0.060 A 
ATOM     33  C   UNL A   1      36.002  32.212  28.031  1.00  0.00     0.016 A 
ATOM     34  C   UNL A   1      35.092  29.966  28.101  1.00  0.00     0.016 A 
ATOM     35  C   UNL A   1      37.180  31.738  28.628  1.00  0.00     0.010 A 
ATOM     36  C   UNL A   1      36.260  29.498  28.702  1.00  0.00     0.010 A 
ATOM     37  C   UNL A   1      37.309  30.383  28.992  1.00  0.00    -0.014 A 
BRANCH  37  38
ATOM     38  C   UNL A   1      38.465  29.911  29.802  1.00  0.00     0.031 A 
ATOM     39  C   UNL A   1      38.737  30.436  31.182  1.00  0.00     0.074 A 
ATOM     40  C   UNL A   1      39.323  29.034  29.247  1.00  0.00     0.049 A 
ATOM     41  N   UNL A   1      39.702  30.115  32.010  1.00  0.00    -0.248 NA
ATOM     42  C   UNL A   1      37.817  31.457  31.699  1.00  0.00     0.031 C 
ATOM     43  C   UNL A   1      39.200  28.483  27.899  1.00  0.00     0.029 A 
ATOM     44  N   UNL A   1      40.467  28.456  29.742  1.00  0.00    -0.354 N 
ATOM     45  C   UNL A   1      39.493  30.874  33.153  1.00  0.00     0.074 A 
ATOM     46  C   UNL A   1      38.340  31.711  32.893  1.00  0.00     0.031 C 
ATOM     47  C   UNL A   1      40.208  27.623  27.683  1.00  0.00     0.029 A 
ATOM     48  C   UNL A   1      41.068  27.590  28.863  1.00  0.00     0.049 A 
ATOM     49  H   UNL A   1      40.821  28.646  30.641  1.00  0.00     0.167 HD
ATOM     50  C   UNL A   1      40.186  30.856  34.318  1.00  0.00     0.037 A 
ATOM     51  C   UNL A   1      42.187  26.850  28.988  1.00  0.00     0.037 A 
ATOM     52  C   UNL A   1      41.350  30.042  34.571  1.00  0.00     0.049 A 
ATOM     53  C   UNL A   1      42.976  26.900  30.266  1.00  0.00     0.074 A 
ATOM     54  C   UNL A   1      42.095  29.940  35.734  1.00  0.00     0.029 A 
ATOM     55  N   UNL A   1      41.952  29.204  33.643  1.00  0.00    -0.354 N 
ATOM     56  N   UNL A   1      42.724  27.562  31.368  1.00  0.00    -0.248 NA
ATOM     57  C   UNL A   1      44.204  26.094  30.319  1.00  0.00     0.031 C 
ATOM     58  C   UNL A   1      43.176  29.087  35.496  1.00  0.00     0.029 A 
ATOM     59  C   UNL A   1      43.075  28.606  34.201  1.00  0.00     0.049 A 
ATOM     60  H   UNL A   1      41.632  29.055  32.725  1.00  0.00     0.167 HD
ATOM     61  C   UNL A   1      43.745  27.236  32.251  1.00  0.00     0.074 A 
ATOM     62  C   UNL A   1      44.612  26.303  31.564  1.00  0.00     0.031 C 
ATOM     63  C   UNL A   1      43.940  27.677  33.518  1.00  0.00     0.037 A 
BRANCH  50  64
ATOM     64  C   UNL A   1      39.698  31.735  35.436  1.00  0.00     0.064 A 
ATOM     65  C   UNL A   1      40.190  33.039  35.600  1.00  0.00     0.173 A 
ATOM     66  C   UNL A   1      38.671  31.310  36.291  1.00  0.00     0.173 A 
ATOM     67  F   UNL A   1      41.171  33.496  34.807  1.00  0.00    -0.203 F 
ATOM     68  C   UNL A   1      39.685  33.878  36.590  1.00  0.00     0.198 A 
ATOM     69  C   UNL A   1      38.147  32.161  37.261  1.00  0.00     0.198 A 
ATOM     70  F   UNL A   1      38.153  30.078  36.168  1.00  0.00    -0.203 F 
ATOM     71  F   UNL A   1      40.191  35.108  36.747  1.00  0.00    -0.200 F 
ATOM     72  C   UNL A   1      38.657  33.441  37.413  1.00  0.00     0.200 A 
ATOM     73  F   UNL A   1      37.139  31.746  38.043  1.00  0.00    -0.200 F 
ATOM     74  F   UNL A   1      38.158  34.257  38.352  1.00  0.00    -0.200 F 
ENDBRANCH  50  64
BRANCH  51  75
ATOM     75  C   UNL A   1      42.597  25.956  27.875  1.00  0.00     0.064 A 
ATOM     76  C   UNL A   1      42.095  24.652  27.786  1.00  0.00     0.173 A 
ATOM     77  C   UNL A   1      43.471  26.391  26.867  1.00  0.00     0.173 A 
ATOM     78  F   UNL A   1      41.273  24.185  28.738  1.00  0.00    -0.203 F 
ATOM     79  C   UNL A   1      42.454  23.813  26.734  1.00  0.00     0.198 A 
ATOM     80  C   UNL A   1      43.806  25.560  25.800  1.00  0.00     0.198 A 
ATOM     81  F   UNL A   1      43.978  27.632  26.906  1.00  0.00    -0.203 F 
ATOM     82  F   UNL A   1      41.983  22.558  26.691  1.00  0.00    -0.200 F 
ATOM     83  C   UNL A   1      43.302  24.271  25.737  1.00  0.00     0.200 A 
ATOM     84  F   UNL A   1      44.614  26.011  24.831  1.00  0.00    -0.200 F 
ATOM     85  F   UNL A   1      43.634  23.468  24.717  1.00  0.00    -0.200 F 
ENDBRANCH  51  75
BRANCH  63  86
ATOM     86  C   UNL A   1      45.130  27.147  34.267  1.00  0.00     0.064 A 
ATOM     87  C   UNL A   1      45.059  25.967  35.024  1.00  0.00     0.173 A 
ATOM     88  C   UNL A   1      46.375  27.789  34.175  1.00  0.00     0.173 A 
ATOM     89  F   UNL A   1      43.890  25.322  35.157  1.00  0.00    -0.203 F 
ATOM     90  C   UNL A   1      46.183  25.459  35.671  1.00  0.00     0.198 A 
ATOM     91  C   UNL A   1      47.504  27.262  34.798  1.00  0.00     0.198 A 
ATOM     92  F   UNL A   1      46.504  28.918  33.462  1.00  0.00    -0.203 F 
ATOM     93  F   UNL A   1      46.080  24.351  36.418  1.00  0.00    -0.200 F 
ATOM     94  C   UNL A   1      47.406  26.101  35.548  1.00  0.00     0.200 A 
ATOM     95  F   UNL A   1      48.689  27.875  34.666  1.00  0.00    -0.200 F 
ATOM     96  F   UNL A   1      48.491  25.601  36.158  1.00  0.00    -0.200 F 
ENDBRANCH  63  86
ENDBRANCH  37  38
ENDBRANCH  30  32
ENDBRANCH  29  30
ENDBRANCH  28  29
ENDBRANCH  27  28
ENDBRANCH  26  27
ENDBRANCH  25  26
ENDBRANCH   1  25
TORSDOF 20
ENDMDL
