MODEL 1
REMARK VINA RESULT:     -12.2      0.000      0.000
REMARK SMILES O=C(OCCOCCOC(=O)c1ccccc1/N=C/c1coc2ccccc2c1=O)c1ccc(-c2c3nc(c(-c4c(F)c(F)c(F)c(F)c4F)c4ccc([nH]4)c(-c4c(F)c(F)c(F)c(F)c4F)c4nc(c(-c5c(F)c(F)c(F)c(F)c5F)c5ccc2[nH]5)C=C4)C=C3)cc1
REMARK SMILES IDX 6 1 5 2 4 3 3 4 2 5 1 6 31 7 32 8 93 9 33 10 92 11 34 12
REMARK SMILES IDX 35 13 36 14 86 15 37 16 91 17 85 18 87 19 38 20 90 21 84 22
REMARK SMILES IDX 83 23 39 25 71 26 51 27 70 28 52 29 55 30 69 31 88 32 53 33
REMARK SMILES IDX 54 34 68 36 89 37 56 38 40 39 41 40 49 41 42 42 43 43 47 44
REMARK SMILES IDX 50 45 44 46 45 47 48 48 46 49 72 50 73 51 81 52 74 53 75 54
REMARK SMILES IDX 79 55 82 56 76 57 77 58 80 59 78 60 57 61 58 62 66 63 59 64
REMARK SMILES IDX 60 65 64 66 67 67 61 68 62 69 65 70 63 71 7 72 8 73 9 74
REMARK SMILES IDX 10 75 11 76 12 77 13 78 17 79 14 80 16 81 15 82 18 83 19 84
REMARK SMILES IDX 20 85 21 86 29 87 22 88 28 89 30 90 23 91 27 92 24 93 26 94
REMARK SMILES IDX 25 95
REMARK H PARENT 87 24 55 35
REMARK Flexibility Score: inf
ROOT
ATOM      1  O   UNL A   1      33.098  31.025  27.267  1.00  0.00    -0.374 OA
ENDROOT
BRANCH   1   2
ATOM      2  C   UNL A   1      31.861  31.634  26.915  1.00  0.00     0.202 C 
BRANCH   2   3
ATOM      3  C   UNL A   1      31.972  33.152  26.743  1.00  0.00     0.261 C 
BRANCH   3   4
ATOM      4  O   UNL A   1      32.258  33.771  28.013  1.00  0.00    -0.460 OA
BRANCH   4   5
ATOM      5  C   UNL A   1      33.409  34.339  28.440  1.00  0.00     0.338 C 
ATOM      6  O   UNL A   1      33.545  35.557  28.348  1.00  0.00    -0.246 OA
BRANCH   5   7
ATOM      7  C   UNL A   1      34.546  33.552  29.001  1.00  0.00     0.060 A 
ATOM      8  C   UNL A   1      34.405  32.349  29.690  1.00  0.00     0.016 A 
ATOM      9  C   UNL A   1      35.846  34.008  28.728  1.00  0.00     0.016 A 
ATOM     10  C   UNL A   1      35.503  31.647  30.164  1.00  0.00     0.010 A 
ATOM     11  C   UNL A   1      36.963  33.291  29.168  1.00  0.00     0.010 A 
ATOM     12  C   UNL A   1      36.788  32.117  29.909  1.00  0.00    -0.014 A 
BRANCH  12  13
ATOM     13  C   UNL A   1      37.915  31.420  30.552  1.00  0.00     0.031 A 
ATOM     14  C   UNL A   1      38.128  31.632  32.019  1.00  0.00     0.074 A 
ATOM     15  C   UNL A   1      38.619  30.508  29.861  1.00  0.00     0.049 A 
ATOM     16  N   UNL A   1      39.076  31.182  32.794  1.00  0.00    -0.248 NA
ATOM     17  C   UNL A   1      37.118  32.453  32.709  1.00  0.00     0.031 C 
ATOM     18  C   UNL A   1      38.374  30.136  28.466  1.00  0.00     0.029 A 
ATOM     19  N   UNL A   1      39.658  29.703  30.243  1.00  0.00    -0.354 N 
ATOM     20  C   UNL A   1      38.796  31.690  34.054  1.00  0.00     0.074 A 
ATOM     21  C   UNL A   1      37.590  32.480  33.946  1.00  0.00     0.031 C 
ATOM     22  C   UNL A   1      39.222  29.154  28.118  1.00  0.00     0.029 A 
ATOM     23  C   UNL A   1      40.115  28.884  29.239  1.00  0.00     0.049 A 
ATOM     24  H   UNL A   1      40.041  29.710  31.151  1.00  0.00     0.167 HD
ATOM     25  C   UNL A   1      39.499  31.513  35.197  1.00  0.00     0.037 A 
ATOM     26  C   UNL A   1      41.166  28.043  29.231  1.00  0.00     0.037 A 
ATOM     27  C   UNL A   1      40.696  30.722  35.265  1.00  0.00     0.049 A 
ATOM     28  C   UNL A   1      41.991  27.941  30.487  1.00  0.00     0.074 A 
ATOM     29  C   UNL A   1      41.567  30.547  36.322  1.00  0.00     0.029 A 
ATOM     30  N   UNL A   1      41.184  29.960  34.208  1.00  0.00    -0.354 N 
ATOM     31  N   UNL A   1      41.794  28.511  31.653  1.00  0.00    -0.248 NA
ATOM     32  C   UNL A   1      43.193  27.102  30.424  1.00  0.00     0.031 C 
ATOM     33  C   UNL A   1      42.600  29.704  35.895  1.00  0.00     0.029 A 
ATOM     34  C   UNL A   1      42.349  29.318  34.586  1.00  0.00     0.049 A 
ATOM     35  H   UNL A   1      40.762  29.889  33.322  1.00  0.00     0.167 HD
ATOM     36  C   UNL A   1      42.839  28.095  32.465  1.00  0.00     0.074 A 
ATOM     37  C   UNL A   1      43.653  27.202  31.663  1.00  0.00     0.031 C 
ATOM     38  C   UNL A   1      43.115  28.428  33.751  1.00  0.00     0.037 A 
BRANCH  25  39
ATOM     39  C   UNL A   1      39.022  32.255  36.409  1.00  0.00     0.064 A 
ATOM     40  C   UNL A   1      39.501  33.533  36.732  1.00  0.00     0.173 A 
ATOM     41  C   UNL A   1      38.118  31.650  37.295  1.00  0.00     0.173 A 
ATOM     42  F   UNL A   1      40.393  34.143  35.936  1.00  0.00    -0.203 F 
ATOM     43  C   UNL A   1      39.120  34.163  37.916  1.00  0.00     0.198 A 
ATOM     44  C   UNL A   1      37.720  32.292  38.464  1.00  0.00     0.198 A 
ATOM     45  F   UNL A   1      37.638  30.424  37.037  1.00  0.00    -0.203 F 
ATOM     46  F   UNL A   1      39.642  35.354  38.239  1.00  0.00    -0.200 F 
ATOM     47  C   UNL A   1      38.229  33.542  38.780  1.00  0.00     0.200 A 
ATOM     48  F   UNL A   1      36.860  31.690  39.297  1.00  0.00    -0.200 F 
ATOM     49  F   UNL A   1      37.877  34.140  39.926  1.00  0.00    -0.200 F 
ENDBRANCH  25  39
BRANCH  26  50
ATOM     50  C   UNL A   1      41.526  27.293  27.996  1.00  0.00     0.064 A 
ATOM     51  C   UNL A   1      41.044  25.998  27.760  1.00  0.00     0.173 A 
ATOM     52  C   UNL A   1      42.383  27.849  27.031  1.00  0.00     0.173 A 
ATOM     53  F   UNL A   1      40.243  25.407  28.659  1.00  0.00    -0.203 F 
ATOM     54  C   UNL A   1      41.416  25.285  26.621  1.00  0.00     0.198 A 
ATOM     55  C   UNL A   1      42.728  27.148  25.877  1.00  0.00     0.198 A 
ATOM     56  F   UNL A   1      42.883  29.081  27.206  1.00  0.00    -0.203 F 
ATOM     57  F   UNL A   1      40.981  24.029  26.446  1.00  0.00    -0.200 F 
ATOM     58  C   UNL A   1      42.253  25.863  25.677  1.00  0.00     0.200 A 
ATOM     59  F   UNL A   1      43.526  27.718  24.964  1.00  0.00    -0.200 F 
ATOM     60  F   UNL A   1      42.610  25.177  24.583  1.00  0.00    -0.200 F 
ENDBRANCH  26  50
BRANCH  38  61
ATOM     61  C   UNL A   1      44.327  27.796  34.363  1.00  0.00     0.064 A 
ATOM     62  C   UNL A   1      45.575  28.435  34.340  1.00  0.00     0.173 A 
ATOM     63  C   UNL A   1      44.224  26.562  35.021  1.00  0.00     0.173 A 
ATOM     64  F   UNL A   1      45.721  29.609  33.707  1.00  0.00    -0.203 F 
ATOM     65  C   UNL A   1      46.685  27.849  34.939  1.00  0.00     0.198 A 
ATOM     66  C   UNL A   1      45.330  25.992  35.641  1.00  0.00     0.198 A 
ATOM     67  F   UNL A   1      43.048  25.919  35.072  1.00  0.00    -0.203 F 
ATOM     68  F   UNL A   1      47.878  28.454  34.871  1.00  0.00    -0.200 F 
ATOM     69  C   UNL A   1      46.560  26.633  35.595  1.00  0.00     0.200 A 
ATOM     70  F   UNL A   1      45.206  24.824  36.286  1.00  0.00    -0.200 F 
ATOM     71  F   UNL A   1      47.629  26.074  36.181  1.00  0.00    -0.200 F 
ENDBRANCH  38  61
ENDBRANCH  12  13
ENDBRANCH   5   7
ENDBRANCH   4   5
ENDBRANCH   3   4
ENDBRANCH   2   3
ENDBRANCH   1   2
BRANCH   1  72
ATOM     72  C   UNL A   1      33.581  30.023  26.364  1.00  0.00     0.202 C 
BRANCH  72  73
ATOM     73  C   UNL A   1      33.910  28.763  27.179  1.00  0.00     0.261 C 
BRANCH  73  74
ATOM     74  O   UNL A   1      33.157  27.644  26.690  1.00  0.00    -0.460 OA
BRANCH  74  75
ATOM     75  C   UNL A   1      31.840  27.656  27.008  1.00  0.00     0.340 C 
ATOM     76  O   UNL A   1      31.419  27.880  28.125  1.00  0.00    -0.246 OA
BRANCH  75  77
ATOM     77  C   UNL A   1      30.967  27.434  25.807  1.00  0.00     0.085 A 
ATOM     78  C   UNL A   1      30.933  28.504  24.889  1.00  0.00     0.018 A 
ATOM     79  C   UNL A   1      30.328  26.221  25.471  1.00  0.00     0.077 A 
ATOM     80  C   UNL A   1      30.286  28.383  23.657  1.00  0.00     0.001 A 
ATOM     81  C   UNL A   1      29.642  26.140  24.244  1.00  0.00     0.029 A 
ATOM     82  C   UNL A   1      29.625  27.204  23.341  1.00  0.00     0.002 A 
BRANCH  79  83
ATOM     83  N   UNL A   1      30.529  24.995  26.118  1.00  0.00    -0.255 NA
ATOM     84  C   UNL A   1      31.439  24.155  25.741  1.00  0.00     0.127 C 
BRANCH  84  85
ATOM     85  C   UNL A   1      31.499  22.795  26.387  1.00  0.00     0.076 A 
ATOM     86  C   UNL A   1      31.415  21.791  25.495  1.00  0.00     0.209 A 
ATOM     87  C   UNL A   1      32.759  22.606  27.172  1.00  0.00     0.201 A 
ATOM     88  O   UNL A   1      32.528  21.434  24.698  1.00  0.00    -0.463 OA
ATOM     89  C   UNL A   1      33.920  22.656  26.260  1.00  0.00     0.065 A 
ATOM     90  O   UNL A   1      32.813  22.510  28.385  1.00  0.00    -0.288 OA
ATOM     91  C   UNL A   1      33.698  22.115  24.984  1.00  0.00     0.137 A 
ATOM     92  C   UNL A   1      35.000  23.491  26.519  1.00  0.00     0.016 A 
ATOM     93  C   UNL A   1      34.586  22.372  23.953  1.00  0.00     0.048 A 
ATOM     94  C   UNL A   1      35.857  23.801  25.462  1.00  0.00     0.001 A 
ATOM     95  C   UNL A   1      35.653  23.242  24.191  1.00  0.00     0.004 A 
ENDBRANCH  84  85
ENDBRANCH  79  83
ENDBRANCH  75  77
ENDBRANCH  74  75
ENDBRANCH  73  74
ENDBRANCH  72  73
ENDBRANCH   1  72
TORSDOF 16
ENDMDL
MODEL 2
REMARK VINA RESULT:     -12.0      1.009      7.252
REMARK SMILES O=C(OCCOCCOC(=O)c1ccccc1/N=C/c1coc2ccccc2c1=O)c1ccc(-c2c3nc(c(-c4c(F)c(F)c(F)c(F)c4F)c4ccc([nH]4)c(-c4c(F)c(F)c(F)c(F)c4F)c4nc(c(-c5c(F)c(F)c(F)c(F)c5F)c5ccc2[nH]5)C=C4)C=C3)cc1
REMARK SMILES IDX 6 1 5 2 4 3 3 4 2 5 1 6 31 7 32 8 93 9 33 10 92 11 34 12
REMARK SMILES IDX 35 13 36 14 86 15 37 16 91 17 85 18 87 19 38 20 90 21 84 22
REMARK SMILES IDX 83 23 39 25 71 26 51 27 70 28 52 29 55 30 69 31 88 32 53 33
REMARK SMILES IDX 54 34 68 36 89 37 56 38 40 39 41 40 49 41 42 42 43 43 47 44
REMARK SMILES IDX 50 45 44 46 45 47 48 48 46 49 72 50 73 51 81 52 74 53 75 54
REMARK SMILES IDX 79 55 82 56 76 57 77 58 80 59 78 60 57 61 58 62 66 63 59 64
REMARK SMILES IDX 60 65 64 66 67 67 61 68 62 69 65 70 63 71 7 72 8 73 9 74
REMARK SMILES IDX 10 75 11 76 12 77 13 78 17 79 14 80 16 81 15 82 18 83 19 84
REMARK SMILES IDX 20 85 21 86 29 87 22 88 28 89 30 90 23 91 27 92 24 93 26 94
REMARK SMILES IDX 25 95
REMARK H PARENT 87 24 55 35
REMARK Flexibility Score: inf
ROOT
ATOM      1  O   UNL A   1      33.299  31.059  27.436  1.00  0.00    -0.374 OA
ENDROOT
BRANCH   1   2
ATOM      2  C   UNL A   1      32.022  31.616  27.144  1.00  0.00     0.202 C 
BRANCH   2   3
ATOM      3  C   UNL A   1      32.079  33.120  26.860  1.00  0.00     0.261 C 
BRANCH   3   4
ATOM      4  O   UNL A   1      32.214  33.849  28.096  1.00  0.00    -0.460 OA
BRANCH   4   5
ATOM      5  C   UNL A   1      33.286  34.522  28.572  1.00  0.00     0.338 C 
ATOM      6  O   UNL A   1      33.349  35.738  28.410  1.00  0.00    -0.246 OA
BRANCH   5   7
ATOM      7  C   UNL A   1      34.423  33.853  29.270  1.00  0.00     0.060 A 
ATOM      8  C   UNL A   1      34.302  32.699  30.042  1.00  0.00     0.016 A 
ATOM      9  C   UNL A   1      35.711  34.368  29.050  1.00  0.00     0.016 A 
ATOM     10  C   UNL A   1      35.401  32.106  30.644  1.00  0.00     0.010 A 
ATOM     11  C   UNL A   1      36.833  33.759  29.622  1.00  0.00     0.010 A 
ATOM     12  C   UNL A   1      36.672  32.635  30.441  1.00  0.00    -0.014 A 
BRANCH  12  13
ATOM     13  C   UNL A   1      37.787  32.061  31.212  1.00  0.00     0.031 A 
ATOM     14  C   UNL A   1      38.653  31.040  30.542  1.00  0.00     0.074 A 
ATOM     15  C   UNL A   1      38.095  32.565  32.419  1.00  0.00     0.049 A 
ATOM     16  N   UNL A   1      39.650  30.351  31.025  1.00  0.00    -0.248 NA
ATOM     17  C   UNL A   1      38.362  30.773  29.123  1.00  0.00     0.031 C 
ATOM     18  C   UNL A   1      37.388  33.666  33.076  1.00  0.00     0.029 A 
ATOM     19  N   UNL A   1      39.099  32.245  33.292  1.00  0.00    -0.354 N 
ATOM     20  C   UNL A   1      40.084  29.547  29.981  1.00  0.00     0.074 A 
ATOM     21  C   UNL A   1      39.248  29.832  28.837  1.00  0.00     0.031 C 
ATOM     22  C   UNL A   1      38.000  33.949  34.238  1.00  0.00     0.029 A 
ATOM     23  C   UNL A   1      39.091  33.001  34.439  1.00  0.00     0.049 A 
ATOM     24  H   UNL A   1      39.765  31.541  33.115  1.00  0.00     0.167 HD
ATOM     25  C   UNL A   1      41.091  28.644  29.991  1.00  0.00     0.037 A 
ATOM     26  C   UNL A   1      39.861  32.901  35.538  1.00  0.00     0.037 A 
ATOM     27  C   UNL A   1      41.900  28.386  31.150  1.00  0.00     0.049 A 
ATOM     28  C   UNL A   1      40.910  31.820  35.561  1.00  0.00     0.074 A 
ATOM     29  C   UNL A   1      42.876  27.426  31.336  1.00  0.00     0.029 A 
ATOM     30  N   UNL A   1      41.819  29.116  32.331  1.00  0.00    -0.354 N 
ATOM     31  N   UNL A   1      41.249  30.978  34.613  1.00  0.00    -0.248 NA
ATOM     32  C   UNL A   1      41.666  31.656  36.808  1.00  0.00     0.031 C 
ATOM     33  C   UNL A   1      43.363  27.555  32.643  1.00  0.00     0.029 A 
ATOM     34  C   UNL A   1      42.723  28.624  33.255  1.00  0.00     0.049 A 
ATOM     35  H   UNL A   1      41.208  29.872  32.486  1.00  0.00     0.167 HD
ATOM     36  C   UNL A   1      42.262  30.191  35.142  1.00  0.00     0.074 A 
ATOM     37  C   UNL A   1      42.499  30.677  36.488  1.00  0.00     0.031 C 
ATOM     38  C   UNL A   1      42.929  29.153  34.579  1.00  0.00     0.037 A 
BRANCH  25  39
ATOM     39  C   UNL A   1      41.293  27.838  28.743  1.00  0.00     0.064 A 
ATOM     40  C   UNL A   1      42.245  28.193  27.776  1.00  0.00     0.173 A 
ATOM     41  C   UNL A   1      40.475  26.729  28.481  1.00  0.00     0.173 A 
ATOM     42  F   UNL A   1      43.030  29.266  27.961  1.00  0.00    -0.203 F 
ATOM     43  C   UNL A   1      42.346  27.489  26.578  1.00  0.00     0.198 A 
ATOM     44  C   UNL A   1      40.595  26.012  27.294  1.00  0.00     0.198 A 
ATOM     45  F   UNL A   1      39.541  26.354  29.368  1.00  0.00    -0.203 F 
ATOM     46  F   UNL A   1      43.217  27.886  25.639  1.00  0.00    -0.200 F 
ATOM     47  C   UNL A   1      41.522  26.398  26.338  1.00  0.00     0.200 A 
ATOM     48  F   UNL A   1      39.798  24.959  27.065  1.00  0.00    -0.200 F 
ATOM     49  F   UNL A   1      41.609  25.732  25.179  1.00  0.00    -0.200 F 
ENDBRANCH  25  39
BRANCH  26  50
ATOM     50  C   UNL A   1      39.631  33.792  36.709  1.00  0.00     0.064 A 
ATOM     51  C   UNL A   1      40.235  35.055  36.796  1.00  0.00     0.173 A 
ATOM     52  C   UNL A   1      38.818  33.390  37.781  1.00  0.00     0.173 A 
ATOM     53  F   UNL A   1      41.042  35.481  35.813  1.00  0.00    -0.203 F 
ATOM     54  C   UNL A   1      40.048  35.870  37.912  1.00  0.00     0.198 A 
ATOM     55  C   UNL A   1      38.606  34.219  38.881  1.00  0.00     0.198 A 
ATOM     56  F   UNL A   1      38.220  32.189  37.759  1.00  0.00    -0.203 F 
ATOM     57  F   UNL A   1      40.679  37.050  37.992  1.00  0.00    -0.200 F 
ATOM     58  C   UNL A   1      39.228  35.454  38.951  1.00  0.00     0.200 A 
ATOM     59  F   UNL A   1      37.803  33.816  39.875  1.00  0.00    -0.200 F 
ATOM     60  F   UNL A   1      39.049  36.237  40.023  1.00  0.00    -0.200 F 
ENDBRANCH  26  50
BRANCH  38  61
ATOM     61  C   UNL A   1      43.990  28.505  35.413  1.00  0.00     0.064 A 
ATOM     62  C   UNL A   1      45.323  28.937  35.365  1.00  0.00     0.173 A 
ATOM     63  C   UNL A   1      43.657  27.476  36.305  1.00  0.00     0.173 A 
ATOM     64  F   UNL A   1      45.688  29.908  34.513  1.00  0.00    -0.203 F 
ATOM     65  C   UNL A   1      46.292  28.344  36.168  1.00  0.00     0.198 A 
ATOM     66  C   UNL A   1      44.623  26.905  37.126  1.00  0.00     0.198 A 
ATOM     67  F   UNL A   1      42.392  27.036  36.388  1.00  0.00    -0.203 F 
ATOM     68  F   UNL A   1      47.569  28.741  36.077  1.00  0.00    -0.200 F 
ATOM     69  C   UNL A   1      45.940  27.335  37.052  1.00  0.00     0.200 A 
ATOM     70  F   UNL A   1      44.280  25.938  37.989  1.00  0.00    -0.200 F 
ATOM     71  F   UNL A   1      46.873  26.772  37.833  1.00  0.00    -0.200 F 
ENDBRANCH  38  61
ENDBRANCH  12  13
ENDBRANCH   5   7
ENDBRANCH   4   5
ENDBRANCH   3   4
ENDBRANCH   2   3
ENDBRANCH   1   2
BRANCH   1  72
ATOM     72  C   UNL A   1      33.768  30.058  26.524  1.00  0.00     0.202 C 
BRANCH  72  73
ATOM     73  C   UNL A   1      33.954  28.748  27.305  1.00  0.00     0.261 C 
BRANCH  73  74
ATOM     74  O   UNL A   1      33.193  27.695  26.695  1.00  0.00    -0.460 OA
BRANCH  74  75
ATOM     75  C   UNL A   1      31.874  27.687  27.003  1.00  0.00     0.340 C 
ATOM     76  O   UNL A   1      31.442  27.885  28.121  1.00  0.00    -0.246 OA
BRANCH  75  77
ATOM     77  C   UNL A   1      31.013  27.479  25.792  1.00  0.00     0.085 A 
ATOM     78  C   UNL A   1      31.001  28.552  24.876  1.00  0.00     0.018 A 
ATOM     79  C   UNL A   1      30.364  26.275  25.444  1.00  0.00     0.077 A 
ATOM     80  C   UNL A   1      30.367  28.442  23.637  1.00  0.00     0.001 A 
ATOM     81  C   UNL A   1      29.691  26.205  24.209  1.00  0.00     0.029 A 
ATOM     82  C   UNL A   1      29.697  27.272  23.309  1.00  0.00     0.002 A 
BRANCH  79  83
ATOM     83  N   UNL A   1      30.544  25.044  26.089  1.00  0.00    -0.255 NA
ATOM     84  C   UNL A   1      31.441  24.190  25.714  1.00  0.00     0.127 C 
BRANCH  84  85
ATOM     85  C   UNL A   1      31.477  22.828  26.357  1.00  0.00     0.076 A 
ATOM     86  C   UNL A   1      31.397  21.827  25.461  1.00  0.00     0.209 A 
ATOM     87  C   UNL A   1      32.723  22.625  27.161  1.00  0.00     0.201 A 
ATOM     88  O   UNL A   1      32.519  21.461  24.681  1.00  0.00    -0.463 OA
ATOM     89  C   UNL A   1      33.898  22.666  26.268  1.00  0.00     0.065 A 
ATOM     90  O   UNL A   1      32.758  22.526  28.374  1.00  0.00    -0.288 OA
ATOM     91  C   UNL A   1      33.691  22.130  24.987  1.00  0.00     0.137 A 
ATOM     92  C   UNL A   1      34.983  23.489  26.545  1.00  0.00     0.016 A 
ATOM     93  C   UNL A   1      34.598  22.380  23.971  1.00  0.00     0.048 A 
ATOM     94  C   UNL A   1      35.859  23.793  25.503  1.00  0.00     0.001 A 
ATOM     95  C   UNL A   1      35.670  23.239  24.227  1.00  0.00     0.004 A 
ENDBRANCH  84  85
ENDBRANCH  79  83
ENDBRANCH  75  77
ENDBRANCH  74  75
ENDBRANCH  73  74
ENDBRANCH  72  73
ENDBRANCH   1  72
TORSDOF 16
ENDMDL
MODEL 3
REMARK VINA RESULT:     -11.9      3.843      9.491
REMARK SMILES O=C(OCCOCCOC(=O)c1ccccc1/N=C/c1coc2ccccc2c1=O)c1ccc(-c2c3nc(c(-c4c(F)c(F)c(F)c(F)c4F)c4ccc([nH]4)c(-c4c(F)c(F)c(F)c(F)c4F)c4nc(c(-c5c(F)c(F)c(F)c(F)c5F)c5ccc2[nH]5)C=C4)C=C3)cc1
REMARK SMILES IDX 6 1 5 2 4 3 3 4 2 5 1 6 31 7 32 8 93 9 33 10 92 11 34 12
REMARK SMILES IDX 35 13 36 14 86 15 37 16 91 17 85 18 87 19 38 20 90 21 84 22
REMARK SMILES IDX 83 23 39 25 71 26 51 27 70 28 52 29 55 30 69 31 88 32 53 33
REMARK SMILES IDX 54 34 68 36 89 37 56 38 40 39 41 40 49 41 42 42 43 43 47 44
REMARK SMILES IDX 50 45 44 46 45 47 48 48 46 49 72 50 73 51 81 52 74 53 75 54
REMARK SMILES IDX 79 55 82 56 76 57 77 58 80 59 78 60 57 61 58 62 66 63 59 64
REMARK SMILES IDX 60 65 64 66 67 67 61 68 62 69 65 70 63 71 7 72 8 73 9 74
REMARK SMILES IDX 10 75 11 76 12 77 13 78 17 79 14 80 16 81 15 82 18 83 19 84
REMARK SMILES IDX 20 85 21 86 29 87 22 88 28 89 30 90 23 91 27 92 24 93 26 94
REMARK SMILES IDX 25 95
REMARK H PARENT 87 24 55 35
REMARK Flexibility Score: inf
ROOT
ATOM      1  O   UNL A   1      45.298  23.366  23.879  1.00  0.00    -0.374 OA
ENDROOT
BRANCH   1   2
ATOM      2  C   UNL A   1      46.384  23.385  24.799  1.00  0.00     0.202 C 
BRANCH   2   3
ATOM      3  C   UNL A   1      46.980  24.783  24.990  1.00  0.00     0.261 C 
BRANCH   3   4
ATOM      4  O   UNL A   1      45.993  25.785  24.672  1.00  0.00    -0.460 OA
BRANCH   4   5
ATOM      5  C   UNL A   1      45.986  27.099  24.990  1.00  0.00     0.338 C 
ATOM      6  O   UNL A   1      46.651  27.882  24.315  1.00  0.00    -0.246 OA
BRANCH   5   7
ATOM      7  C   UNL A   1      45.225  27.653  26.148  1.00  0.00     0.060 A 
ATOM      8  C   UNL A   1      45.120  29.012  26.443  1.00  0.00     0.016 A 
ATOM      9  C   UNL A   1      44.485  26.750  26.929  1.00  0.00     0.016 A 
ATOM     10  C   UNL A   1      44.373  29.469  27.517  1.00  0.00     0.010 A 
ATOM     11  C   UNL A   1      43.699  27.201  27.993  1.00  0.00     0.010 A 
ATOM     12  C   UNL A   1      43.662  28.566  28.301  1.00  0.00    -0.014 A 
BRANCH  12  13
ATOM     13  C   UNL A   1      43.001  29.079  29.513  1.00  0.00     0.031 A 
ATOM     14  C   UNL A   1      41.564  29.487  29.410  1.00  0.00     0.074 A 
ATOM     15  C   UNL A   1      43.637  29.027  30.695  1.00  0.00     0.049 A 
ATOM     16  N   UNL A   1      40.786  30.020  30.311  1.00  0.00    -0.248 NA
ATOM     17  C   UNL A   1      40.911  29.244  28.112  1.00  0.00     0.031 C 
ATOM     18  C   UNL A   1      44.988  28.501  30.901  1.00  0.00     0.029 A 
ATOM     19  N   UNL A   1      43.224  29.385  31.950  1.00  0.00    -0.354 N 
ATOM     20  C   UNL A   1      39.563  30.204  29.682  1.00  0.00     0.074 A 
ATOM     21  C   UNL A   1      39.697  29.726  28.325  1.00  0.00     0.031 C 
ATOM     22  C   UNL A   1      45.282  28.545  32.211  1.00  0.00     0.029 A 
ATOM     23  C   UNL A   1      44.172  29.171  32.921  1.00  0.00     0.049 A 
ATOM     24  H   UNL A   1      42.333  29.761  32.138  1.00  0.00     0.167 HD
ATOM     25  C   UNL A   1      38.433  30.738  30.201  1.00  0.00     0.037 A 
ATOM     26  C   UNL A   1      44.145  29.487  34.229  1.00  0.00     0.037 A 
ATOM     27  C   UNL A   1      38.339  31.206  31.557  1.00  0.00     0.049 A 
ATOM     28  C   UNL A   1      42.912  30.171  34.759  1.00  0.00     0.074 A 
ATOM     29  C   UNL A   1      37.299  31.866  32.181  1.00  0.00     0.029 A 
ATOM     30  N   UNL A   1      39.345  31.046  32.504  1.00  0.00    -0.354 N 
ATOM     31  N   UNL A   1      41.791  30.451  34.136  1.00  0.00    -0.248 NA
ATOM     32  C   UNL A   1      42.945  30.604  36.161  1.00  0.00     0.031 C 
ATOM     33  C   UNL A   1      37.689  32.136  33.499  1.00  0.00     0.029 A 
ATOM     34  C   UNL A   1      38.954  31.603  33.708  1.00  0.00     0.049 A 
ATOM     35  H   UNL A   1      40.208  30.603  32.341  1.00  0.00     0.167 HD
ATOM     36  C   UNL A   1      40.981  31.084  35.069  1.00  0.00     0.074 A 
ATOM     37  C   UNL A   1      41.733  31.121  36.308  1.00  0.00     0.031 C 
ATOM     38  C   UNL A   1      39.737  31.602  34.918  1.00  0.00     0.037 A 
BRANCH  25  39
ATOM     39  C   UNL A   1      37.272  30.905  29.269  1.00  0.00     0.064 A 
ATOM     40  C   UNL A   1      36.938  32.151  28.715  1.00  0.00     0.173 A 
ATOM     41  C   UNL A   1      36.440  29.814  28.976  1.00  0.00     0.173 A 
ATOM     42  F   UNL A   1      37.681  33.234  28.991  1.00  0.00    -0.203 F 
ATOM     43  C   UNL A   1      35.796  32.303  27.932  1.00  0.00     0.198 A 
ATOM     44  C   UNL A   1      35.313  29.964  28.173  1.00  0.00     0.198 A 
ATOM     45  F   UNL A   1      36.709  28.604  29.489  1.00  0.00    -0.203 F 
ATOM     46  F   UNL A   1      35.459  33.515  27.469  1.00  0.00    -0.200 F 
ATOM     47  C   UNL A   1      34.985  31.211  27.660  1.00  0.00     0.200 A 
ATOM     48  F   UNL A   1      34.532  28.908  27.912  1.00  0.00    -0.200 F 
ATOM     49  F   UNL A   1      33.878  31.362  26.921  1.00  0.00    -0.200 F 
ENDBRANCH  25  39
BRANCH  26  50
ATOM     50  C   UNL A   1      45.325  29.220  35.097  1.00  0.00     0.064 A 
ATOM     51  C   UNL A   1      46.368  30.150  35.219  1.00  0.00     0.173 A 
ATOM     52  C   UNL A   1      45.447  28.016  35.810  1.00  0.00     0.173 A 
ATOM     53  F   UNL A   1      46.318  31.305  34.541  1.00  0.00    -0.203 F 
ATOM     54  C   UNL A   1      47.490  29.878  36.002  1.00  0.00     0.198 A 
ATOM     55  C   UNL A   1      46.553  27.760  36.619  1.00  0.00     0.198 A 
ATOM     56  F   UNL A   1      44.485  27.085  35.728  1.00  0.00    -0.203 F 
ATOM     57  F   UNL A   1      48.496  30.763  36.058  1.00  0.00    -0.200 F 
ATOM     58  C   UNL A   1      47.579  28.687  36.707  1.00  0.00     0.200 A 
ATOM     59  F   UNL A   1      46.625  26.613  37.306  1.00  0.00    -0.200 F 
ATOM     60  F   UNL A   1      48.656  28.427  37.459  1.00  0.00    -0.200 F 
ENDBRANCH  26  50
BRANCH  38  61
ATOM     61  C   UNL A   1      39.115  32.219  36.132  1.00  0.00     0.064 A 
ATOM     62  C   UNL A   1      38.265  31.484  36.971  1.00  0.00     0.173 A 
ATOM     63  C   UNL A   1      39.413  33.543  36.482  1.00  0.00     0.173 A 
ATOM     64  F   UNL A   1      37.940  30.219  36.664  1.00  0.00    -0.203 F 
ATOM     65  C   UNL A   1      37.718  32.063  38.112  1.00  0.00     0.198 A 
ATOM     66  C   UNL A   1      38.886  34.109  37.637  1.00  0.00     0.198 A 
ATOM     67  F   UNL A   1      40.226  34.280  35.711  1.00  0.00    -0.203 F 
ATOM     68  F   UNL A   1      36.875  31.360  38.879  1.00  0.00    -0.200 F 
ATOM     69  C   UNL A   1      38.035  33.372  38.448  1.00  0.00     0.200 A 
ATOM     70  F   UNL A   1      39.202  35.369  37.968  1.00  0.00    -0.200 F 
ATOM     71  F   UNL A   1      37.515  33.925  39.552  1.00  0.00    -0.200 F 
ENDBRANCH  38  61
ENDBRANCH  12  13
ENDBRANCH   5   7
ENDBRANCH   4   5
ENDBRANCH   3   4
ENDBRANCH   2   3
ENDBRANCH   1   2
BRANCH   1  72
ATOM     72  C   UNL A   1      44.196  22.520  24.229  1.00  0.00     0.202 C 
BRANCH  72  73
ATOM     73  C   UNL A   1      43.528  23.098  25.485  1.00  0.00     0.261 C 
BRANCH  73  74
ATOM     74  O   UNL A   1      42.245  22.489  25.691  1.00  0.00    -0.460 OA
BRANCH  74  75
ATOM     75  C   UNL A   1      41.893  22.318  26.988  1.00  0.00     0.340 C 
ATOM     76  O   UNL A   1      42.366  21.461  27.707  1.00  0.00    -0.246 OA
BRANCH  75  77
ATOM     77  C   UNL A   1      40.908  23.353  27.447  1.00  0.00     0.085 A 
ATOM     78  C   UNL A   1      41.460  24.404  28.210  1.00  0.00     0.018 A 
ATOM     79  C   UNL A   1      39.555  23.429  27.055  1.00  0.00     0.077 A 
ATOM     80  C   UNL A   1      40.695  25.513  28.577  1.00  0.00     0.001 A 
ATOM     81  C   UNL A   1      38.792  24.534  27.479  1.00  0.00     0.029 A 
ATOM     82  C   UNL A   1      39.354  25.571  28.225  1.00  0.00     0.002 A 
BRANCH  79  83
ATOM     83  N   UNL A   1      38.955  22.643  26.061  1.00  0.00    -0.255 NA
ATOM     84  C   UNL A   1      37.850  22.986  25.482  1.00  0.00     0.127 C 
BRANCH  84  85
ATOM     85  C   UNL A   1      37.187  22.022  24.532  1.00  0.00     0.076 A 
ATOM     86  C   UNL A   1      36.509  21.048  25.168  1.00  0.00     0.209 A 
ATOM     87  C   UNL A   1      36.234  22.716  23.609  1.00  0.00     0.201 A 
ATOM     88  O   UNL A   1      35.246  21.306  25.750  1.00  0.00    -0.463 OA
ATOM     89  C   UNL A   1      35.134  23.310  24.393  1.00  0.00     0.065 A 
ATOM     90  O   UNL A   1      36.397  22.837  22.408  1.00  0.00    -0.288 OA
ATOM     91  C   UNL A   1      34.741  22.574  25.522  1.00  0.00     0.137 A 
ATOM     92  C   UNL A   1      34.780  24.646  24.237  1.00  0.00     0.016 A 
ATOM     93  C   UNL A   1      33.948  23.158  26.495  1.00  0.00     0.048 A 
ATOM     94  C   UNL A   1      34.037  25.250  25.251  1.00  0.00     0.001 A 
ATOM     95  C   UNL A   1      33.621  24.511  26.369  1.00  0.00     0.004 A 
ENDBRANCH  84  85
ENDBRANCH  79  83
ENDBRANCH  75  77
ENDBRANCH  74  75
ENDBRANCH  73  74
ENDBRANCH  72  73
ENDBRANCH   1  72
TORSDOF 16
ENDMDL
