MODEL 1
REMARK VINA RESULT:     -10.6      0.000      0.000
REMARK SMILES Cc1ccc(C(=O)CCCC(=O)OCCOCCOC(=O)c2ccc(-c3c4nc(c(-c5c(F)c(F)c(F)c(F)c5F)c5ccc([nH]5)c(-c5c(F)c(F)c(F)c(F)c5F)c5nc(c(-c6c(F)c(F)c(F)c(F)c6F)c6ccc3[nH]6)C=C5)C=C4)cc2)s1
REMARK SMILES IDX 15 1 14 2 13 3 11 4 12 5 10 6 9 7 8 8 6 9 7 10 5 11 1 12
REMARK SMILES IDX 2 13 3 14 85 15 4 16 16 17 17 18 18 19 19 20 20 21 21 22
REMARK SMILES IDX 22 23 23 24 84 25 24 26 83 27 25 28 26 29 27 30 77 31 28 32
REMARK SMILES IDX 82 33 76 34 78 35 29 36 81 37 75 38 74 39 30 41 62 42 42 43
REMARK SMILES IDX 61 44 43 45 46 46 60 47 79 48 44 49 45 50 59 52 80 53 47 54
REMARK SMILES IDX 31 55 32 56 40 57 33 58 34 59 38 60 41 61 35 62 36 63 39 64
REMARK SMILES IDX 37 65 63 66 64 67 72 68 65 69 66 70 70 71 73 72 67 73 68 74
REMARK SMILES IDX 71 75 69 76 48 77 49 78 57 79 50 80 51 81 55 82 58 83 52 84
REMARK SMILES IDX 53 85 56 86 54 87
REMARK H PARENT 78 40 46 51
REMARK Flexibility Score: inf
ROOT
ATOM      1  C   UNL A   1      40.552  20.903  26.456  1.00  0.00     0.202 C 
ENDROOT
BRANCH   1   2
ATOM      2  C   UNL A   1      39.526  22.036  26.417  1.00  0.00     0.261 C 
BRANCH   2   3
ATOM      3  O   UNL A   1      38.564  21.831  25.366  1.00  0.00    -0.463 OA
BRANCH   3   4
ATOM      4  C   UNL A   1      37.374  22.466  25.519  1.00  0.00     0.305 C 
ATOM      5  O   UNL A   1      37.247  23.636  25.863  1.00  0.00    -0.252 OA
BRANCH   4   6
ATOM      6  C   UNL A   1      36.182  21.588  25.200  1.00  0.00     0.123 C 
BRANCH   6   7
ATOM      7  C   UNL A   1      35.156  21.302  26.304  1.00  0.00     0.020 C 
BRANCH   7   8
ATOM      8  C   UNL A   1      33.684  21.209  25.893  1.00  0.00     0.082 C 
BRANCH   8   9
ATOM      9  C   UNL A   1      33.472  20.454  24.588  1.00  0.00     0.172 C 
ATOM     10  O   UNL A   1      33.074  21.072  23.600  1.00  0.00    -0.293 OA
BRANCH   9  11
ATOM     11  C   UNL A   1      33.686  19.011  24.617  1.00  0.00     0.070 A 
ATOM     12  C   UNL A   1      32.759  15.255  25.295  1.00  0.00     0.056 C 
ATOM     13  C   UNL A   1      33.347  16.590  24.995  1.00  0.00     0.002 A 
ATOM     14  C   UNL A   1      34.672  16.902  24.778  1.00  0.00     0.016 A 
ATOM     15  S   UNL A   1      32.347  17.970  24.866  1.00  0.00    -0.138 S 
ATOM     16  C   UNL A   1      34.859  18.288  24.510  1.00  0.00     0.024 A 
ENDBRANCH   9  11
ENDBRANCH   8   9
ENDBRANCH   7   8
ENDBRANCH   6   7
ENDBRANCH   4   6
ENDBRANCH   3   4
ENDBRANCH   2   3
ENDBRANCH   1   2
BRANCH   1  17
ATOM     17  O   UNL A   1      41.902  21.287  26.705  1.00  0.00    -0.374 OA
BRANCH  17  18
ATOM     18  C   UNL A   1      42.899  20.873  25.775  1.00  0.00     0.202 C 
BRANCH  18  19
ATOM     19  C   UNL A   1      43.837  21.962  25.235  1.00  0.00     0.261 C 
BRANCH  19  20
ATOM     20  O   UNL A   1      43.151  23.126  24.735  1.00  0.00    -0.460 OA
BRANCH  20  21
ATOM     21  C   UNL A   1      43.817  24.291  24.935  1.00  0.00     0.338 C 
ATOM     22  O   UNL A   1      44.870  24.638  24.430  1.00  0.00    -0.246 OA
BRANCH  21  23
ATOM     23  C   UNL A   1      43.036  25.210  25.787  1.00  0.00     0.060 A 
ATOM     24  C   UNL A   1      43.550  26.496  25.987  1.00  0.00     0.016 A 
ATOM     25  C   UNL A   1      41.921  24.770  26.504  1.00  0.00     0.016 A 
ATOM     26  C   UNL A   1      42.987  27.331  26.952  1.00  0.00     0.010 A 
ATOM     27  C   UNL A   1      41.361  25.609  27.476  1.00  0.00     0.010 A 
ATOM     28  C   UNL A   1      41.918  26.875  27.734  1.00  0.00    -0.014 A 
BRANCH  28  29
ATOM     29  C   UNL A   1      41.490  27.667  28.915  1.00  0.00     0.031 A 
ATOM     30  C   UNL A   1      42.265  27.553  30.200  1.00  0.00     0.074 A 
ATOM     31  C   UNL A   1      40.448  28.514  28.835  1.00  0.00     0.049 A 
ATOM     32  N   UNL A   1      42.063  28.147  31.351  1.00  0.00    -0.248 NA
ATOM     33  C   UNL A   1      43.426  26.649  30.187  1.00  0.00     0.031 C 
ATOM     34  C   UNL A   1      39.640  28.743  27.639  1.00  0.00     0.029 A 
ATOM     35  N   UNL A   1      39.891  29.334  29.783  1.00  0.00    -0.354 N 
ATOM     36  C   UNL A   1      43.066  27.687  32.195  1.00  0.00     0.074 A 
ATOM     37  C   UNL A   1      43.858  26.744  31.436  1.00  0.00     0.031 C 
ATOM     38  C   UNL A   1      38.683  29.642  27.928  1.00  0.00     0.029 A 
ATOM     39  C   UNL A   1      38.795  30.029  29.334  1.00  0.00     0.049 A 
ATOM     40  H   UNL A   1      40.243  29.419  30.698  1.00  0.00     0.167 HD
ATOM     41  C   UNL A   1      43.309  28.029  33.483  1.00  0.00     0.037 A 
ATOM     42  C   UNL A   1      37.966  30.866  29.988  1.00  0.00     0.037 A 
ATOM     43  C   UNL A   1      42.526  28.970  34.239  1.00  0.00     0.049 A 
ATOM     44  C   UNL A   1      38.221  31.179  31.439  1.00  0.00     0.074 A 
ATOM     45  C   UNL A   1      42.709  29.396  35.543  1.00  0.00     0.029 A 
ATOM     46  N   UNL A   1      41.403  29.627  33.758  1.00  0.00    -0.354 N 
ATOM     47  N   UNL A   1      39.187  30.762  32.221  1.00  0.00    -0.248 NA
ATOM     48  C   UNL A   1      37.268  32.085  32.099  1.00  0.00     0.031 C 
ATOM     49  C   UNL A   1      41.670  30.276  35.867  1.00  0.00     0.029 A 
ATOM     50  C   UNL A   1      40.869  30.436  34.748  1.00  0.00     0.049 A 
ATOM     51  H   UNL A   1      41.039  29.532  32.848  1.00  0.00     0.167 HD
ATOM     52  C   UNL A   1      38.977  31.373  33.449  1.00  0.00     0.074 A 
ATOM     53  C   UNL A   1      37.796  32.200  33.309  1.00  0.00     0.031 C 
ATOM     54  C   UNL A   1      39.698  31.261  34.593  1.00  0.00     0.037 A 
BRANCH  41  55
ATOM     55  C   UNL A   1      44.465  27.361  34.170  1.00  0.00     0.064 A 
ATOM     56  C   UNL A   1      44.320  26.131  34.828  1.00  0.00     0.173 A 
ATOM     57  C   UNL A   1      45.742  27.941  34.135  1.00  0.00     0.173 A 
ATOM     58  F   UNL A   1      43.117  25.542  34.900  1.00  0.00    -0.203 F 
ATOM     59  C   UNL A   1      45.407  25.516  35.445  1.00  0.00     0.198 A 
ATOM     60  C   UNL A   1      46.831  27.311  34.730  1.00  0.00     0.198 A 
ATOM     61  F   UNL A   1      45.935  29.114  33.514  1.00  0.00    -0.203 F 
ATOM     62  F   UNL A   1      45.237  24.361  36.103  1.00  0.00    -0.200 F 
ATOM     63  C   UNL A   1      46.662  26.104  35.390  1.00  0.00     0.200 A 
ATOM     64  F   UNL A   1      48.047  27.874  34.665  1.00  0.00    -0.200 F 
ATOM     65  F   UNL A   1      47.709  25.507  35.978  1.00  0.00    -0.200 F 
ENDBRANCH  41  55
BRANCH  42  66
ATOM     66  C   UNL A   1      36.808  31.465  29.276  1.00  0.00     0.064 A 
ATOM     67  C   UNL A   1      36.785  32.827  28.948  1.00  0.00     0.173 A 
ATOM     68  C   UNL A   1      35.694  30.689  28.924  1.00  0.00     0.173 A 
ATOM     69  F   UNL A   1      37.817  33.614  29.288  1.00  0.00    -0.203 F 
ATOM     70  C   UNL A   1      35.685  33.394  28.308  1.00  0.00     0.198 A 
ATOM     71  C   UNL A   1      34.606  31.252  28.260  1.00  0.00     0.198 A 
ATOM     72  F   UNL A   1      35.666  29.380  29.219  1.00  0.00    -0.203 F 
ATOM     73  F   UNL A   1      35.671  34.707  28.045  1.00  0.00    -0.200 F 
ATOM     74  C   UNL A   1      34.599  32.605  27.960  1.00  0.00     0.200 A 
ATOM     75  F   UNL A   1      33.563  30.483  27.917  1.00  0.00    -0.200 F 
ATOM     76  F   UNL A   1      33.543  33.150  27.341  1.00  0.00    -0.200 F 
ENDBRANCH  42  66
BRANCH  54  77
ATOM     77  C   UNL A   1      39.256  32.076  35.772  1.00  0.00     0.064 A 
ATOM     78  C   UNL A   1      39.689  33.396  35.960  1.00  0.00     0.173 A 
ATOM     79  C   UNL A   1      38.353  31.542  36.705  1.00  0.00     0.173 A 
ATOM     80  F   UNL A   1      40.563  33.947  35.105  1.00  0.00    -0.203 F 
ATOM     81  C   UNL A   1      39.252  34.146  37.049  1.00  0.00     0.198 A 
ATOM     82  C   UNL A   1      37.896  32.303  37.778  1.00  0.00     0.198 A 
ATOM     83  F   UNL A   1      37.902  30.286  36.567  1.00  0.00    -0.203 F 
ATOM     84  F   UNL A   1      39.712  35.391  37.233  1.00  0.00    -0.200 F 
ATOM     85  C   UNL A   1      38.351  33.601  37.953  1.00  0.00     0.200 A 
ATOM     86  F   UNL A   1      37.016  31.780  38.643  1.00  0.00    -0.200 F 
ATOM     87  F   UNL A   1      37.926  34.326  38.997  1.00  0.00    -0.200 F 
ENDBRANCH  54  77
ENDBRANCH  28  29
ENDBRANCH  21  23
ENDBRANCH  20  21
ENDBRANCH  19  20
ENDBRANCH  18  19
ENDBRANCH  17  18
ENDBRANCH   1  17
TORSDOF 18
ENDMDL
MODEL 2
REMARK VINA RESULT:     -10.3      1.348      3.049
REMARK SMILES Cc1ccc(C(=O)CCCC(=O)OCCOCCOC(=O)c2ccc(-c3c4nc(c(-c5c(F)c(F)c(F)c(F)c5F)c5ccc([nH]5)c(-c5c(F)c(F)c(F)c(F)c5F)c5nc(c(-c6c(F)c(F)c(F)c(F)c6F)c6ccc3[nH]6)C=C5)C=C4)cc2)s1
REMARK SMILES IDX 15 1 14 2 13 3 11 4 12 5 10 6 9 7 8 8 6 9 7 10 5 11 1 12
REMARK SMILES IDX 2 13 3 14 85 15 4 16 16 17 17 18 18 19 19 20 20 21 21 22
REMARK SMILES IDX 22 23 23 24 84 25 24 26 83 27 25 28 26 29 27 30 77 31 28 32
REMARK SMILES IDX 82 33 76 34 78 35 29 36 81 37 75 38 74 39 30 41 62 42 42 43
REMARK SMILES IDX 61 44 43 45 46 46 60 47 79 48 44 49 45 50 59 52 80 53 47 54
REMARK SMILES IDX 31 55 32 56 40 57 33 58 34 59 38 60 41 61 35 62 36 63 39 64
REMARK SMILES IDX 37 65 63 66 64 67 72 68 65 69 66 70 70 71 73 72 67 73 68 74
REMARK SMILES IDX 71 75 69 76 48 77 49 78 57 79 50 80 51 81 55 82 58 83 52 84
REMARK SMILES IDX 53 85 56 86 54 87
REMARK H PARENT 78 40 46 51
REMARK Flexibility Score: inf
ROOT
ATOM      1  C   UNL A   1      40.424  20.909  26.507  1.00  0.00     0.202 C 
ENDROOT
BRANCH   1   2
ATOM      2  C   UNL A   1      39.328  21.975  26.501  1.00  0.00     0.261 C 
BRANCH   2   3
ATOM      3  O   UNL A   1      38.487  21.851  25.339  1.00  0.00    -0.463 OA
BRANCH   3   4
ATOM      4  C   UNL A   1      37.182  22.178  25.514  1.00  0.00     0.305 C 
ATOM      5  O   UNL A   1      36.777  23.298  25.806  1.00  0.00    -0.252 OA
BRANCH   4   6
ATOM      6  C   UNL A   1      36.238  21.014  25.294  1.00  0.00     0.123 C 
BRANCH   6   7
ATOM      7  C   UNL A   1      34.734  21.231  25.498  1.00  0.00     0.020 C 
BRANCH   7   8
ATOM      8  C   UNL A   1      33.873  21.438  24.249  1.00  0.00     0.082 C 
BRANCH   8   9
ATOM      9  C   UNL A   1      32.798  22.501  24.431  1.00  0.00     0.172 C 
ATOM     10  O   UNL A   1      31.615  22.176  24.319  1.00  0.00    -0.293 OA
BRANCH   9  11
ATOM     11  C   UNL A   1      33.251  23.869  24.654  1.00  0.00     0.070 A 
ATOM     12  C   UNL A   1      33.373  27.367  26.436  1.00  0.00     0.056 C 
ATOM     13  C   UNL A   1      33.473  26.151  25.581  1.00  0.00     0.002 A 
ATOM     14  C   UNL A   1      34.042  26.041  24.331  1.00  0.00     0.016 A 
ATOM     15  S   UNL A   1      32.852  24.655  26.125  1.00  0.00    -0.138 S 
ATOM     16  C   UNL A   1      33.959  24.714  23.820  1.00  0.00     0.024 A 
ENDBRANCH   9  11
ENDBRANCH   8   9
ENDBRANCH   7   8
ENDBRANCH   6   7
ENDBRANCH   4   6
ENDBRANCH   3   4
ENDBRANCH   2   3
ENDBRANCH   1   2
BRANCH   1  17
ATOM     17  O   UNL A   1      41.756  21.379  26.709  1.00  0.00    -0.374 OA
BRANCH  17  18
ATOM     18  C   UNL A   1      42.764  20.949  25.800  1.00  0.00     0.202 C 
BRANCH  18  19
ATOM     19  C   UNL A   1      43.757  22.013  25.312  1.00  0.00     0.261 C 
BRANCH  19  20
ATOM     20  O   UNL A   1      43.129  23.181  24.750  1.00  0.00    -0.460 OA
BRANCH  20  21
ATOM     21  C   UNL A   1      43.788  24.340  25.002  1.00  0.00     0.338 C 
ATOM     22  O   UNL A   1      44.855  24.703  24.536  1.00  0.00    -0.246 OA
BRANCH  21  23
ATOM     23  C   UNL A   1      42.984  25.233  25.860  1.00  0.00     0.060 A 
ATOM     24  C   UNL A   1      43.417  26.557  25.997  1.00  0.00     0.016 A 
ATOM     25  C   UNL A   1      41.934  24.745  26.639  1.00  0.00     0.016 A 
ATOM     26  C   UNL A   1      42.841  27.384  26.960  1.00  0.00     0.010 A 
ATOM     27  C   UNL A   1      41.360  25.576  27.610  1.00  0.00     0.010 A 
ATOM     28  C   UNL A   1      41.840  26.885  27.803  1.00  0.00    -0.014 A 
BRANCH  28  29
ATOM     29  C   UNL A   1      41.410  27.686  28.978  1.00  0.00     0.031 A 
ATOM     30  C   UNL A   1      42.191  27.592  30.260  1.00  0.00     0.074 A 
ATOM     31  C   UNL A   1      40.360  28.523  28.892  1.00  0.00     0.049 A 
ATOM     32  N   UNL A   1      41.989  28.197  31.405  1.00  0.00    -0.248 NA
ATOM     33  C   UNL A   1      43.360  26.698  30.252  1.00  0.00     0.031 C 
ATOM     34  C   UNL A   1      39.546  28.733  27.698  1.00  0.00     0.029 A 
ATOM     35  N   UNL A   1      39.801  29.349  29.834  1.00  0.00    -0.354 N 
ATOM     36  C   UNL A   1      42.999  27.754  32.250  1.00  0.00     0.074 A 
ATOM     37  C   UNL A   1      43.796  26.809  31.498  1.00  0.00     0.031 C 
ATOM     38  C   UNL A   1      38.583  29.627  27.980  1.00  0.00     0.029 A 
ATOM     39  C   UNL A   1      38.697  30.029  29.382  1.00  0.00     0.049 A 
ATOM     40  H   UNL A   1      40.156  29.446  30.746  1.00  0.00     0.167 HD
ATOM     41  C   UNL A   1      43.244  28.112  33.534  1.00  0.00     0.037 A 
ATOM     42  C   UNL A   1      37.864  30.866  30.030  1.00  0.00     0.037 A 
ATOM     43  C   UNL A   1      42.456  29.055  34.283  1.00  0.00     0.049 A 
ATOM     44  C   UNL A   1      38.122  31.198  31.477  1.00  0.00     0.074 A 
ATOM     45  C   UNL A   1      42.641  29.496  35.582  1.00  0.00     0.029 A 
ATOM     46  N   UNL A   1      41.326  29.697  33.799  1.00  0.00    -0.354 N 
ATOM     47  N   UNL A   1      39.095  30.797  32.259  1.00  0.00    -0.248 NA
ATOM     48  C   UNL A   1      37.164  32.102  32.131  1.00  0.00     0.031 C 
ATOM     49  C   UNL A   1      41.596  30.371  35.900  1.00  0.00     0.029 A 
ATOM     50  C   UNL A   1      40.789  30.512  34.783  1.00  0.00     0.049 A 
ATOM     51  H   UNL A   1      40.959  29.589  32.892  1.00  0.00     0.167 HD
ATOM     52  C   UNL A   1      38.884  31.420  33.482  1.00  0.00     0.074 A 
ATOM     53  C   UNL A   1      37.696  32.234  33.338  1.00  0.00     0.031 C 
ATOM     54  C   UNL A   1      39.611  31.325  34.623  1.00  0.00     0.037 A 
BRANCH  41  55
ATOM     55  C   UNL A   1      44.409  27.461  34.223  1.00  0.00     0.064 A 
ATOM     56  C   UNL A   1      45.682  28.050  34.231  1.00  0.00     0.173 A 
ATOM     57  C   UNL A   1      44.237  26.255  34.919  1.00  0.00     0.173 A 
ATOM     58  F   UNL A   1      45.899  29.197  33.570  1.00  0.00    -0.203 F 
ATOM     59  C   UNL A   1      46.748  27.442  34.891  1.00  0.00     0.198 A 
ATOM     60  C   UNL A   1      45.299  25.665  35.600  1.00  0.00     0.198 A 
ATOM     61  F   UNL A   1      43.038  25.655  34.947  1.00  0.00    -0.203 F 
ATOM     62  F   UNL A   1      47.965  28.001  34.851  1.00  0.00    -0.200 F 
ATOM     63  C   UNL A   1      46.553  26.254  35.580  1.00  0.00     0.200 A 
ATOM     64  F   UNL A   1      45.107  24.522  36.275  1.00  0.00    -0.200 F 
ATOM     65  F   UNL A   1      47.578  25.675  36.221  1.00  0.00    -0.200 F 
ENDBRANCH  41  55
BRANCH  42  66
ATOM     66  C   UNL A   1      36.697  31.448  29.317  1.00  0.00     0.064 A 
ATOM     67  C   UNL A   1      35.600  30.655  28.957  1.00  0.00     0.173 A 
ATOM     68  C   UNL A   1      36.665  32.806  28.968  1.00  0.00     0.173 A 
ATOM     69  F   UNL A   1      35.597  29.345  29.247  1.00  0.00    -0.203 F 
ATOM     70  C   UNL A   1      34.520  31.194  28.262  1.00  0.00     0.198 A 
ATOM     71  C   UNL A   1      35.573  33.350  28.295  1.00  0.00     0.198 A 
ATOM     72  F   UNL A   1      37.694  33.606  29.287  1.00  0.00    -0.203 F 
ATOM     73  F   UNL A   1      33.503  30.405  27.892  1.00  0.00    -0.200 F 
ATOM     74  C   UNL A   1      34.505  32.543  27.936  1.00  0.00     0.200 A 
ATOM     75  F   UNL A   1      35.559  34.655  27.992  1.00  0.00    -0.200 F 
ATOM     76  F   UNL A   1      33.465  33.062  27.271  1.00  0.00    -0.200 F 
ENDBRANCH  42  66
BRANCH  54  77
ATOM     77  C   UNL A   1      39.166  32.149  35.796  1.00  0.00     0.064 A 
ATOM     78  C   UNL A   1      38.277  31.646  36.756  1.00  0.00     0.173 A 
ATOM     79  C   UNL A   1      39.670  33.446  35.983  1.00  0.00     0.173 A 
ATOM     80  F   UNL A   1      37.757  30.418  36.614  1.00  0.00    -0.203 F 
ATOM     81  C   UNL A   1      37.891  32.417  37.850  1.00  0.00     0.198 A 
ATOM     82  C   UNL A   1      39.304  34.204  37.093  1.00  0.00     0.198 A 
ATOM     83  F   UNL A   1      40.529  33.973  35.098  1.00  0.00    -0.203 F 
ATOM     84  F   UNL A   1      37.008  31.931  38.732  1.00  0.00    -0.200 F 
ATOM     85  C   UNL A   1      38.410  33.692  38.021  1.00  0.00     0.200 A 
ATOM     86  F   UNL A   1      39.815  35.431  37.263  1.00  0.00    -0.200 F 
ATOM     87  F   UNL A   1      38.043  34.430  39.077  1.00  0.00    -0.200 F 
ENDBRANCH  54  77
ENDBRANCH  28  29
ENDBRANCH  21  23
ENDBRANCH  20  21
ENDBRANCH  19  20
ENDBRANCH  18  19
ENDBRANCH  17  18
ENDBRANCH   1  17
TORSDOF 18
ENDMDL
MODEL 3
REMARK VINA RESULT:     -10.2      4.519      6.784
REMARK SMILES Cc1ccc(C(=O)CCCC(=O)OCCOCCOC(=O)c2ccc(-c3c4nc(c(-c5c(F)c(F)c(F)c(F)c5F)c5ccc([nH]5)c(-c5c(F)c(F)c(F)c(F)c5F)c5nc(c(-c6c(F)c(F)c(F)c(F)c6F)c6ccc3[nH]6)C=C5)C=C4)cc2)s1
REMARK SMILES IDX 15 1 14 2 13 3 11 4 12 5 10 6 9 7 8 8 6 9 7 10 5 11 1 12
REMARK SMILES IDX 2 13 3 14 85 15 4 16 16 17 17 18 18 19 19 20 20 21 21 22
REMARK SMILES IDX 22 23 23 24 84 25 24 26 83 27 25 28 26 29 27 30 77 31 28 32
REMARK SMILES IDX 82 33 76 34 78 35 29 36 81 37 75 38 74 39 30 41 62 42 42 43
REMARK SMILES IDX 61 44 43 45 46 46 60 47 79 48 44 49 45 50 59 52 80 53 47 54
REMARK SMILES IDX 31 55 32 56 40 57 33 58 34 59 38 60 41 61 35 62 36 63 39 64
REMARK SMILES IDX 37 65 63 66 64 67 72 68 65 69 66 70 70 71 73 72 67 73 68 74
REMARK SMILES IDX 71 75 69 76 48 77 49 78 57 79 50 80 51 81 55 82 58 83 52 84
REMARK SMILES IDX 53 85 56 86 54 87
REMARK H PARENT 78 40 46 51
REMARK Flexibility Score: inf
ROOT
ATOM      1  C   UNL A   1      36.352  21.348  25.388  1.00  0.00     0.202 C 
ENDROOT
BRANCH   1   2
ATOM      2  C   UNL A   1      36.189  22.868  25.382  1.00  0.00     0.261 C 
BRANCH   2   3
ATOM      3  O   UNL A   1      35.501  23.321  26.563  1.00  0.00    -0.463 OA
BRANCH   3   4
ATOM      4  C   UNL A   1      34.265  22.798  26.766  1.00  0.00     0.305 C 
ATOM      5  O   UNL A   1      34.002  21.930  27.590  1.00  0.00    -0.252 OA
BRANCH   4   6
ATOM      6  C   UNL A   1      33.203  23.408  25.875  1.00  0.00     0.123 C 
BRANCH   6   7
ATOM      7  C   UNL A   1      32.814  22.683  24.582  1.00  0.00     0.020 C 
BRANCH   7   8
ATOM      8  C   UNL A   1      32.183  21.293  24.712  1.00  0.00     0.082 C 
BRANCH   8   9
ATOM      9  C   UNL A   1      32.293  20.463  23.440  1.00  0.00     0.172 C 
ATOM     10  O   UNL A   1      31.914  20.954  22.375  1.00  0.00    -0.293 OA
BRANCH   9  11
ATOM     11  C   UNL A   1      32.776  19.094  23.583  1.00  0.00     0.070 A 
ATOM     12  C   UNL A   1      34.923  16.185  25.116  1.00  0.00     0.056 C 
ATOM     13  C   UNL A   1      34.047  17.117  24.353  1.00  0.00     0.002 A 
ATOM     14  C   UNL A   1      33.438  16.902  23.136  1.00  0.00     0.016 A 
ATOM     15  S   UNL A   1      33.674  18.664  24.978  1.00  0.00    -0.138 S 
ATOM     16  C   UNL A   1      32.666  18.022  22.718  1.00  0.00     0.024 A 
ENDBRANCH   9  11
ENDBRANCH   8   9
ENDBRANCH   7   8
ENDBRANCH   6   7
ENDBRANCH   4   6
ENDBRANCH   3   4
ENDBRANCH   2   3
ENDBRANCH   1   2
BRANCH   1  17
ATOM     17  O   UNL A   1      37.476  20.835  24.674  1.00  0.00    -0.374 OA
BRANCH  17  18
ATOM     18  C   UNL A   1      37.957  19.540  25.022  1.00  0.00     0.202 C 
BRANCH  18  19
ATOM     19  C   UNL A   1      39.431  19.438  25.441  1.00  0.00     0.261 C 
BRANCH  19  20
ATOM     20  O   UNL A   1      40.008  20.694  25.848  1.00  0.00    -0.460 OA
BRANCH  20  21
ATOM     21  C   UNL A   1      40.580  20.668  27.078  1.00  0.00     0.338 C 
ATOM     22  O   UNL A   1      40.993  19.693  27.683  1.00  0.00    -0.246 OA
BRANCH  21  23
ATOM     23  C   UNL A   1      40.777  22.034  27.602  1.00  0.00     0.060 A 
ATOM     24  C   UNL A   1      40.056  23.068  26.993  1.00  0.00     0.016 A 
ATOM     25  C   UNL A   1      41.763  22.318  28.549  1.00  0.00     0.016 A 
ATOM     26  C   UNL A   1      40.360  24.397  27.283  1.00  0.00     0.010 A 
ATOM     27  C   UNL A   1      42.070  23.654  28.835  1.00  0.00     0.010 A 
ATOM     28  C   UNL A   1      41.400  24.699  28.172  1.00  0.00    -0.014 A 
BRANCH  28  29
ATOM     29  C   UNL A   1      41.877  26.101  28.285  1.00  0.00     0.031 A 
ATOM     30  C   UNL A   1      43.209  26.476  27.693  1.00  0.00     0.074 A 
ATOM     31  C   UNL A   1      41.115  27.042  28.870  1.00  0.00     0.049 A 
ATOM     32  N   UNL A   1      43.819  27.636  27.684  1.00  0.00    -0.248 NA
ATOM     33  C   UNL A   1      43.954  25.401  27.020  1.00  0.00     0.031 C 
ATOM     34  C   UNL A   1      39.792  26.815  29.447  1.00  0.00     0.029 A 
ATOM     35  N   UNL A   1      41.350  28.378  29.076  1.00  0.00    -0.354 N 
ATOM     36  C   UNL A   1      45.016  27.429  27.009  1.00  0.00     0.074 A 
ATOM     37  C   UNL A   1      45.061  26.027  26.650  1.00  0.00     0.031 C 
ATOM     38  C   UNL A   1      39.333  27.974  29.951  1.00  0.00     0.029 A 
ATOM     39  C   UNL A   1      40.341  29.015  29.756  1.00  0.00     0.049 A 
ATOM     40  H   UNL A   1      42.163  28.837  28.767  1.00  0.00     0.167 HD
ATOM     41  C   UNL A   1      45.984  28.328  26.709  1.00  0.00     0.037 A 
ATOM     42  C   UNL A   1      40.251  30.288  30.188  1.00  0.00     0.037 A 
ATOM     43  C   UNL A   1      45.939  29.722  27.061  1.00  0.00     0.049 A 
ATOM     44  C   UNL A   1      41.371  31.252  29.896  1.00  0.00     0.074 A 
ATOM     45  C   UNL A   1      46.863  30.714  26.780  1.00  0.00     0.029 A 
ATOM     46  N   UNL A   1      44.915  30.322  27.778  1.00  0.00    -0.354 N 
ATOM     47  N   UNL A   1      42.485  31.054  29.234  1.00  0.00    -0.248 NA
ATOM     48  C   UNL A   1      41.218  32.621  30.412  1.00  0.00     0.031 C 
ATOM     49  C   UNL A   1      46.420  31.904  27.367  1.00  0.00     0.029 A 
ATOM     50  C   UNL A   1      45.197  31.665  27.972  1.00  0.00     0.049 A 
ATOM     51  H   UNL A   1      44.107  29.861  28.103  1.00  0.00     0.167 HD
ATOM     52  C   UNL A   1      43.148  32.274  29.229  1.00  0.00     0.074 A 
ATOM     53  C   UNL A   1      42.309  33.211  29.944  1.00  0.00     0.031 C 
ATOM     54  C   UNL A   1      44.348  32.589  28.678  1.00  0.00     0.037 A 
BRANCH  41  55
ATOM     55  C   UNL A   1      47.193  27.824  25.975  1.00  0.00     0.064 A 
ATOM     56  C   UNL A   1      48.321  27.345  26.657  1.00  0.00     0.173 A 
ATOM     57  C   UNL A   1      47.205  27.782  24.573  1.00  0.00     0.173 A 
ATOM     58  F   UNL A   1      48.363  27.375  27.997  1.00  0.00    -0.203 F 
ATOM     59  C   UNL A   1      49.428  26.865  25.961  1.00  0.00     0.198 A 
ATOM     60  C   UNL A   1      48.303  27.277  23.881  1.00  0.00     0.198 A 
ATOM     61  F   UNL A   1      46.149  28.223  23.874  1.00  0.00    -0.203 F 
ATOM     62  F   UNL A   1      50.512  26.451  26.632  1.00  0.00    -0.200 F 
ATOM     63  C   UNL A   1      49.415  26.825  24.575  1.00  0.00     0.200 A 
ATOM     64  F   UNL A   1      48.284  27.228  22.542  1.00  0.00    -0.200 F 
ATOM     65  F   UNL A   1      50.478  26.355  23.907  1.00  0.00    -0.200 F 
ENDBRANCH  41  55
BRANCH  42  66
ATOM     66  C   UNL A   1      39.054  30.727  30.951  1.00  0.00     0.064 A 
ATOM     67  C   UNL A   1      39.000  30.604  32.346  1.00  0.00     0.173 A 
ATOM     68  C   UNL A   1      37.934  31.263  30.298  1.00  0.00     0.173 A 
ATOM     69  F   UNL A   1      40.037  30.073  33.012  1.00  0.00    -0.203 F 
ATOM     70  C   UNL A   1      37.866  30.987  33.058  1.00  0.00     0.198 A 
ATOM     71  C   UNL A   1      36.811  31.670  31.014  1.00  0.00     0.198 A 
ATOM     72  F   UNL A   1      37.936  31.397  28.963  1.00  0.00    -0.203 F 
ATOM     73  F   UNL A   1      37.823  30.819  34.386  1.00  0.00    -0.200 F 
ATOM     74  C   UNL A   1      36.774  31.525  32.392  1.00  0.00     0.200 A 
ATOM     75  F   UNL A   1      35.763  32.198  30.367  1.00  0.00    -0.200 F 
ATOM     76  F   UNL A   1      35.685  31.897  33.077  1.00  0.00    -0.200 F 
ENDBRANCH  42  66
BRANCH  54  77
ATOM     77  C   UNL A   1      44.809  34.013  28.795  1.00  0.00     0.064 A 
ATOM     78  C   UNL A   1      44.454  34.982  27.846  1.00  0.00     0.173 A 
ATOM     79  C   UNL A   1      45.581  34.420  29.894  1.00  0.00     0.173 A 
ATOM     80  F   UNL A   1      43.730  34.639  26.770  1.00  0.00    -0.203 F 
ATOM     81  C   UNL A   1      44.873  36.303  27.981  1.00  0.00     0.198 A 
ATOM     82  C   UNL A   1      45.975  35.748  30.040  1.00  0.00     0.198 A 
ATOM     83  F   UNL A   1      45.941  33.534  30.833  1.00  0.00    -0.203 F 
ATOM     84  F   UNL A   1      44.559  37.204  27.040  1.00  0.00    -0.200 F 
ATOM     85  C   UNL A   1      45.627  36.687  29.081  1.00  0.00     0.200 A 
ATOM     86  F   UNL A   1      46.693  36.119  31.109  1.00  0.00    -0.200 F 
ATOM     87  F   UNL A   1      46.024  37.959  29.212  1.00  0.00    -0.200 F 
ENDBRANCH  54  77
ENDBRANCH  28  29
ENDBRANCH  21  23
ENDBRANCH  20  21
ENDBRANCH  19  20
ENDBRANCH  18  19
ENDBRANCH  17  18
ENDBRANCH   1  17
TORSDOF 18
ENDMDL
