MODEL 1
REMARK VINA RESULT:     -10.1      0.000      0.000
REMARK SMILES CC(C)c1cc2c(cc1Cl)C=C(C(=O)OCCOCCOC(=O)c1ccc(-c3c4nc(c(-c5c(F)c(F)c(F)c(F)c5F)c5ccc([nH]5)c(-c5c(F)c(F)c(F)c(F)c5F)c5nc(c(-c6c(F)c(F)c(F)c(F)c6F)c6ccc3[nH]6)C=C5)C=C4)cc1)[C@@H](C(F)(F)F)O2
REMARK SMILES IDX 19 1 18 2 17 3 16 4 15 5 13 6 14 7 12 8 4 9 5 10 9 11 6 12
REMARK SMILES IDX 8 13 10 14 7 15 92 16 11 17 87 18 2 19 1 20 3 21 88 22 89 23
REMARK SMILES IDX 90 24 91 25 20 26 21 27 22 28 23 29 24 30 25 31 86 32 26 33
REMARK SMILES IDX 85 34 27 35 28 36 29 37 79 38 30 39 84 40 78 41 80 42 31 43
REMARK SMILES IDX 83 44 77 45 76 46 32 48 64 49 44 50 63 51 45 52 48 53 62 54
REMARK SMILES IDX 81 55 46 56 47 57 61 59 82 60 49 61 33 62 34 63 42 64 35 65
REMARK SMILES IDX 36 66 40 67 43 68 37 69 38 70 41 71 39 72 65 73 66 74 74 75
REMARK SMILES IDX 67 76 68 77 72 78 75 79 69 80 70 81 73 82 71 83 50 84 51 85
REMARK SMILES IDX 59 86 52 87 53 88 57 89 60 90 54 91 55 92 58 93 56 94
REMARK H PARENT 80 47 48 58
REMARK Flexibility Score: inf
ROOT
ATOM      1  C   UNL A   1      42.069  19.034  26.542  1.00  0.00     0.202 C 
ENDROOT
BRANCH   1   2
ATOM      2  O   UNL A   1      42.673  18.086  25.663  1.00  0.00    -0.374 OA
BRANCH   2   3
ATOM      3  C   UNL A   1      43.928  18.403  25.072  1.00  0.00     0.202 C 
BRANCH   3   4
ATOM      4  C   UNL A   1      44.776  19.497  25.728  1.00  0.00     0.261 C 
BRANCH   4   5
ATOM      5  O   UNL A   1      44.899  20.660  24.896  1.00  0.00    -0.460 OA
BRANCH   5   6
ATOM      6  C   UNL A   1      44.200  21.732  25.338  1.00  0.00     0.338 C 
ATOM      7  O   UNL A   1      43.029  21.986  25.108  1.00  0.00    -0.246 OA
BRANCH   6   8
ATOM      8  C   UNL A   1      45.027  22.523  26.268  1.00  0.00     0.087 C 
ATOM      9  C   UNL A   1      46.398  25.684  29.936  1.00  0.00    -0.023 A 
ATOM     10  C   UNL A   1      47.043  25.131  28.807  1.00  0.00     0.052 A 
ATOM     11  C   UNL A   1      45.119  25.180  30.256  1.00  0.00     0.045 A 
ATOM     12  C   UNL A   1      46.418  24.174  27.999  1.00  0.00     0.128 A 
ATOM     13  C   UNL A   1      44.521  24.180  29.481  1.00  0.00     0.032 A 
ATOM     14  Cl  UNL A   1      44.157  25.807  31.550  1.00  0.00    -0.084 Cl
ATOM     15  C   UNL A   1      45.155  23.703  28.335  1.00  0.00     0.019 A 
ATOM     16  O   UNL A   1      47.106  23.758  26.891  1.00  0.00    -0.475 OA
ATOM     17  C   UNL A   1      44.460  22.791  27.450  1.00  0.00     0.027 C 
ATOM     18  C   UNL A   1      46.387  23.017  25.861  1.00  0.00     0.316 C 
BRANCH   9  19
ATOM     19  C   UNL A   1      47.028  26.827  30.734  1.00  0.00     0.014 C 
ATOM     20  C   UNL A   1      48.561  26.834  30.650  1.00  0.00     0.012 C 
ATOM     21  C   UNL A   1      46.526  28.232  30.366  1.00  0.00     0.012 C 
ENDBRANCH   9  19
BRANCH  18  22
ATOM     22  C   UNL A   1      46.340  23.855  24.574  1.00  0.00     0.430 C 
ATOM     23  F   UNL A   1      46.744  23.136  23.501  1.00  0.00    -0.167 F 
ATOM     24  F   UNL A   1      45.081  24.277  24.301  1.00  0.00    -0.167 F 
ATOM     25  F   UNL A   1      47.125  24.953  24.651  1.00  0.00    -0.167 F 
ENDBRANCH  18  22
ENDBRANCH   6   8
ENDBRANCH   5   6
ENDBRANCH   4   5
ENDBRANCH   3   4
ENDBRANCH   2   3
ENDBRANCH   1   2
BRANCH   1  26
ATOM     26  C   UNL A   1      40.692  19.603  26.176  1.00  0.00     0.261 C 
BRANCH  26  27
ATOM     27  O   UNL A   1      40.264  20.657  27.055  1.00  0.00    -0.460 OA
BRANCH  27  28
ATOM     28  C   UNL A   1      39.509  21.618  26.468  1.00  0.00     0.338 C 
ATOM     29  O   UNL A   1      38.488  21.465  25.815  1.00  0.00    -0.246 OA
BRANCH  28  30
ATOM     30  C   UNL A   1      39.987  22.943  26.899  1.00  0.00     0.060 A 
ATOM     31  C   UNL A   1      40.844  23.081  27.991  1.00  0.00     0.016 A 
ATOM     32  C   UNL A   1      39.592  24.063  26.156  1.00  0.00     0.016 A 
ATOM     33  C   UNL A   1      41.318  24.351  28.330  1.00  0.00     0.010 A 
ATOM     34  C   UNL A   1      40.064  25.329  26.498  1.00  0.00     0.010 A 
ATOM     35  C   UNL A   1      40.943  25.480  27.578  1.00  0.00    -0.014 A 
BRANCH  35  36
ATOM     36  C   UNL A   1      41.550  26.804  27.862  1.00  0.00     0.031 A 
ATOM     37  C   UNL A   1      42.929  27.148  27.384  1.00  0.00     0.074 A 
ATOM     38  C   UNL A   1      40.844  27.696  28.582  1.00  0.00     0.049 A 
ATOM     39  N   UNL A   1      43.587  28.273  27.510  1.00  0.00    -0.248 NA
ATOM     40  C   UNL A   1      43.669  26.090  26.683  1.00  0.00     0.031 C 
ATOM     41  C   UNL A   1      39.509  27.460  29.130  1.00  0.00     0.029 A 
ATOM     42  N   UNL A   1      41.144  28.977  28.971  1.00  0.00    -0.354 N 
ATOM     43  C   UNL A   1      44.808  28.070  26.884  1.00  0.00     0.074 A 
ATOM     44  C   UNL A   1      44.824  26.694  26.430  1.00  0.00     0.031 C 
ATOM     45  C   UNL A   1      39.090  28.570  29.756  1.00  0.00     0.029 A 
ATOM     46  C   UNL A   1      40.139  29.584  29.681  1.00  0.00     0.049 A 
ATOM     47  H   UNL A   1      41.999  29.418  28.760  1.00  0.00     0.167 HD
ATOM     48  C   UNL A   1      45.812  28.958  26.687  1.00  0.00     0.037 A 
ATOM     49  C   UNL A   1      40.068  30.819  30.212  1.00  0.00     0.037 A 
ATOM     50  C   UNL A   1      45.798  30.322  27.158  1.00  0.00     0.049 A 
ATOM     51  C   UNL A   1      41.221  31.766  30.030  1.00  0.00     0.074 A 
ATOM     52  C   UNL A   1      46.755  31.306  26.979  1.00  0.00     0.029 A 
ATOM     53  N   UNL A   1      44.782  30.890  27.914  1.00  0.00    -0.354 N 
ATOM     54  N   UNL A   1      42.342  31.589  29.373  1.00  0.00    -0.248 NA
ATOM     55  C   UNL A   1      41.099  33.088  30.661  1.00  0.00     0.031 C 
ATOM     56  C   UNL A   1      46.347  32.449  27.675  1.00  0.00     0.029 A 
ATOM     57  C   UNL A   1      45.106  32.200  28.238  1.00  0.00     0.049 A 
ATOM     58  H   UNL A   1      43.953  30.431  28.180  1.00  0.00     0.167 HD
ATOM     59  C   UNL A   1      43.050  32.777  29.496  1.00  0.00     0.074 A 
ATOM     60  C   UNL A   1      42.219  33.678  30.268  1.00  0.00     0.031 C 
ATOM     61  C   UNL A   1      44.279  33.088  29.017  1.00  0.00     0.037 A 
BRANCH  48  62
ATOM     62  C   UNL A   1      47.017  28.493  25.918  1.00  0.00     0.064 A 
ATOM     63  C   UNL A   1      48.246  28.264  26.556  1.00  0.00     0.173 A 
ATOM     64  C   UNL A   1      46.926  28.205  24.548  1.00  0.00     0.173 A 
ATOM     65  F   UNL A   1      48.388  28.529  27.863  1.00  0.00    -0.203 F 
ATOM     66  C   UNL A   1      49.343  27.784  25.847  1.00  0.00     0.198 A 
ATOM     67  C   UNL A   1      48.018  27.696  23.849  1.00  0.00     0.198 A 
ATOM     68  F   UNL A   1      45.772  28.396  23.890  1.00  0.00    -0.203 F 
ATOM     69  F   UNL A   1      50.517  27.609  26.470  1.00  0.00    -0.200 F 
ATOM     70  C   UNL A   1      49.226  27.492  24.497  1.00  0.00     0.200 A 
ATOM     71  F   UNL A   1      47.898  27.397  22.548  1.00  0.00    -0.200 F 
ATOM     72  F   UNL A   1      50.280  27.014  23.819  1.00  0.00    -0.200 F 
ENDBRANCH  48  62
BRANCH  49  73
ATOM     73  C   UNL A   1      38.838  31.236  30.933  1.00  0.00     0.064 A 
ATOM     74  C   UNL A   1      37.761  31.807  30.242  1.00  0.00     0.173 A 
ATOM     75  C   UNL A   1      38.700  31.047  32.317  1.00  0.00     0.173 A 
ATOM     76  F   UNL A   1      37.854  32.028  28.922  1.00  0.00    -0.203 F 
ATOM     77  C   UNL A   1      36.595  32.180  30.908  1.00  0.00     0.198 A 
ATOM     78  C   UNL A   1      37.522  31.391  32.976  1.00  0.00     0.198 A 
ATOM     79  F   UNL A   1      39.700  30.501  33.023  1.00  0.00    -0.203 F 
ATOM     80  F   UNL A   1      35.593  32.754  30.228  1.00  0.00    -0.200 F 
ATOM     81  C   UNL A   1      36.472  31.962  32.272  1.00  0.00     0.200 A 
ATOM     82  F   UNL A   1      37.402  31.164  34.291  1.00  0.00    -0.200 F 
ATOM     83  F   UNL A   1      35.345  32.304  32.908  1.00  0.00    -0.200 F 
ENDBRANCH  49  73
BRANCH  61  84
ATOM     84  C   UNL A   1      44.810  34.463  29.314  1.00  0.00     0.064 A 
ATOM     85  C   UNL A   1      44.521  35.556  28.483  1.00  0.00     0.173 A 
ATOM     86  C   UNL A   1      45.571  34.704  30.469  1.00  0.00     0.173 A 
ATOM     87  F   UNL A   1      43.810  35.380  27.359  1.00  0.00    -0.203 F 
ATOM     88  C   UNL A   1      44.992  36.831  28.785  1.00  0.00     0.198 A 
ATOM     89  C   UNL A   1      46.011  35.986  30.785  1.00  0.00     0.198 A 
ATOM     90  F   UNL A   1      45.872  33.696  31.303  1.00  0.00    -0.203 F 
ATOM     91  F   UNL A   1      44.743  37.850  27.950  1.00  0.00    -0.200 F 
ATOM     92  C   UNL A   1      45.728  37.047  29.940  1.00  0.00     0.200 A 
ATOM     93  F   UNL A   1      46.707  36.195  31.911  1.00  0.00    -0.200 F 
ATOM     94  F   UNL A   1      46.169  38.278  30.236  1.00  0.00    -0.200 F 
ENDBRANCH  61  84
ENDBRANCH  35  36
ENDBRANCH  28  30
ENDBRANCH  27  28
ENDBRANCH  26  27
ENDBRANCH   1  26
TORSDOF 16
ENDMDL
MODEL 2
REMARK VINA RESULT:      -9.7      5.695     11.839
REMARK SMILES CC(C)c1cc2c(cc1Cl)C=C(C(=O)OCCOCCOC(=O)c1ccc(-c3c4nc(c(-c5c(F)c(F)c(F)c(F)c5F)c5ccc([nH]5)c(-c5c(F)c(F)c(F)c(F)c5F)c5nc(c(-c6c(F)c(F)c(F)c(F)c6F)c6ccc3[nH]6)C=C5)C=C4)cc1)[C@@H](C(F)(F)F)O2
REMARK SMILES IDX 19 1 18 2 17 3 16 4 15 5 13 6 14 7 12 8 4 9 5 10 9 11 6 12
REMARK SMILES IDX 8 13 10 14 7 15 92 16 11 17 87 18 2 19 1 20 3 21 88 22 89 23
REMARK SMILES IDX 90 24 91 25 20 26 21 27 22 28 23 29 24 30 25 31 86 32 26 33
REMARK SMILES IDX 85 34 27 35 28 36 29 37 79 38 30 39 84 40 78 41 80 42 31 43
REMARK SMILES IDX 83 44 77 45 76 46 32 48 64 49 44 50 63 51 45 52 48 53 62 54
REMARK SMILES IDX 81 55 46 56 47 57 61 59 82 60 49 61 33 62 34 63 42 64 35 65
REMARK SMILES IDX 36 66 40 67 43 68 37 69 38 70 41 71 39 72 65 73 66 74 74 75
REMARK SMILES IDX 67 76 68 77 72 78 75 79 69 80 70 81 73 82 71 83 50 84 51 85
REMARK SMILES IDX 59 86 52 87 53 88 57 89 60 90 54 91 55 92 58 93 56 94
REMARK H PARENT 80 47 48 58
REMARK Flexibility Score: inf
ROOT
ATOM      1  C   UNL A   1      32.106  29.448  24.700  1.00  0.00     0.202 C 
ENDROOT
BRANCH   1   2
ATOM      2  O   UNL A   1      33.448  29.503  24.221  1.00  0.00    -0.374 OA
BRANCH   2   3
ATOM      3  C   UNL A   1      33.968  28.384  23.511  1.00  0.00     0.202 C 
BRANCH   3   4
ATOM      4  C   UNL A   1      33.203  27.060  23.595  1.00  0.00     0.261 C 
BRANCH   4   5
ATOM      5  O   UNL A   1      33.774  26.165  24.562  1.00  0.00    -0.460 OA
BRANCH   5   6
ATOM      6  C   UNL A   1      32.896  25.732  25.497  1.00  0.00     0.338 C 
ATOM      7  O   UNL A   1      32.242  26.422  26.262  1.00  0.00    -0.246 OA
BRANCH   6   8
ATOM      8  C   UNL A   1      32.731  24.270  25.394  1.00  0.00     0.087 C 
ATOM      9  C   UNL A   1      33.711  19.393  24.632  1.00  0.00    -0.023 A 
ATOM     10  C   UNL A   1      32.535  20.175  24.684  1.00  0.00     0.052 A 
ATOM     11  C   UNL A   1      34.918  20.024  25.001  1.00  0.00     0.045 A 
ATOM     12  C   UNL A   1      32.570  21.532  25.023  1.00  0.00     0.128 A 
ATOM     13  C   UNL A   1      34.942  21.366  25.397  1.00  0.00     0.032 A 
ATOM     14  Cl  UNL A   1      36.457  19.238  24.909  1.00  0.00    -0.084 Cl
ATOM     15  C   UNL A   1      33.775  22.128  25.375  1.00  0.00     0.019 A 
ATOM     16  O   UNL A   1      31.382  22.211  24.974  1.00  0.00    -0.475 OA
ATOM     17  C   UNL A   1      33.836  23.553  25.626  1.00  0.00     0.027 C 
ATOM     18  C   UNL A   1      31.410  23.669  25.005  1.00  0.00     0.316 C 
BRANCH   9  19
ATOM     19  C   UNL A   1      33.686  17.949  24.129  1.00  0.00     0.014 C 
ATOM     20  C   UNL A   1      33.121  16.969  25.166  1.00  0.00     0.012 C 
ATOM     21  C   UNL A   1      32.927  17.732  22.809  1.00  0.00     0.012 C 
ENDBRANCH   9  19
BRANCH  18  22
ATOM     22  C   UNL A   1      30.896  24.213  23.663  1.00  0.00     0.430 C 
ATOM     23  F   UNL A   1      29.960  23.396  23.124  1.00  0.00    -0.167 F 
ATOM     24  F   UNL A   1      30.308  25.425  23.811  1.00  0.00    -0.167 F 
ATOM     25  F   UNL A   1      31.888  24.353  22.756  1.00  0.00    -0.167 F 
ENDBRANCH  18  22
ENDBRANCH   6   8
ENDBRANCH   5   6
ENDBRANCH   4   5
ENDBRANCH   3   4
ENDBRANCH   2   3
ENDBRANCH   1   2
BRANCH   1  26
ATOM     26  C   UNL A   1      31.671  30.439  25.788  1.00  0.00     0.261 C 
BRANCH  26  27
ATOM     27  O   UNL A   1      32.484  30.371  26.972  1.00  0.00    -0.460 OA
BRANCH  27  28
ATOM     28  C   UNL A   1      33.181  31.501  27.250  1.00  0.00     0.338 C 
ATOM     29  O   UNL A   1      32.780  32.654  27.195  1.00  0.00    -0.246 OA
BRANCH  28  30
ATOM     30  C   UNL A   1      34.481  31.137  27.839  1.00  0.00     0.060 A 
ATOM     31  C   UNL A   1      35.438  32.108  28.133  1.00  0.00     0.016 A 
ATOM     32  C   UNL A   1      34.718  29.789  28.137  1.00  0.00     0.016 A 
ATOM     33  C   UNL A   1      36.634  31.724  28.744  1.00  0.00     0.010 A 
ATOM     34  C   UNL A   1      35.914  29.408  28.744  1.00  0.00     0.010 A 
ATOM     35  C   UNL A   1      36.874  30.375  29.066  1.00  0.00    -0.014 A 
BRANCH  35  36
ATOM     36  C   UNL A   1      38.087  29.991  29.830  1.00  0.00     0.031 A 
ATOM     37  C   UNL A   1      38.344  30.528  31.205  1.00  0.00     0.074 A 
ATOM     38  C   UNL A   1      38.976  29.160  29.252  1.00  0.00     0.049 A 
ATOM     39  N   UNL A   1      39.331  30.259  32.023  1.00  0.00    -0.248 NA
ATOM     40  C   UNL A   1      37.374  31.499  31.729  1.00  0.00     0.031 C 
ATOM     41  C   UNL A   1      38.849  28.604  27.906  1.00  0.00     0.029 A 
ATOM     42  N   UNL A   1      40.152  28.635  29.724  1.00  0.00    -0.354 N 
ATOM     43  C   UNL A   1      39.091  31.007  33.167  1.00  0.00     0.074 A 
ATOM     44  C   UNL A   1      37.896  31.786  32.916  1.00  0.00     0.031 C 
ATOM     45  C   UNL A   1      39.888  27.789  27.670  1.00  0.00     0.029 A 
ATOM     46  C   UNL A   1      40.770  27.790  28.836  1.00  0.00     0.049 A 
ATOM     47  H   UNL A   1      40.518  28.843  30.614  1.00  0.00     0.167 HD
ATOM     48  C   UNL A   1      39.792  31.022  34.326  1.00  0.00     0.037 A 
ATOM     49  C   UNL A   1      41.916  27.093  28.946  1.00  0.00     0.037 A 
ATOM     50  C   UNL A   1      40.992  30.257  34.563  1.00  0.00     0.049 A 
ATOM     51  C   UNL A   1      42.706  27.174  30.223  1.00  0.00     0.074 A 
ATOM     52  C   UNL A   1      41.753  30.182  35.716  1.00  0.00     0.029 A 
ATOM     53  N   UNL A   1      41.615  29.446  33.624  1.00  0.00    -0.354 N 
ATOM     54  N   UNL A   1      42.432  27.826  31.327  1.00  0.00    -0.248 NA
ATOM     55  C   UNL A   1      43.965  26.417  30.271  1.00  0.00     0.031 C 
ATOM     56  C   UNL A   1      42.866  29.376  35.459  1.00  0.00     0.029 A 
ATOM     57  C   UNL A   1      42.769  28.895  34.163  1.00  0.00     0.049 A 
ATOM     58  H   UNL A   1      41.286  29.285  32.710  1.00  0.00     0.167 HD
ATOM     59  C   UNL A   1      43.471  27.548  32.204  1.00  0.00     0.074 A 
ATOM     60  C   UNL A   1      44.368  26.645  31.514  1.00  0.00     0.031 C 
ATOM     61  C   UNL A   1      43.665  28.006  33.465  1.00  0.00     0.037 A 
BRANCH  48  62
ATOM     62  C   UNL A   1      39.277  31.886  35.443  1.00  0.00     0.064 A 
ATOM     63  C   UNL A   1      38.441  31.365  36.443  1.00  0.00     0.173 A 
ATOM     64  C   UNL A   1      39.678  33.225  35.557  1.00  0.00     0.173 A 
ATOM     65  F   UNL A   1      38.023  30.092  36.377  1.00  0.00    -0.203 F 
ATOM     66  C   UNL A   1      38.009  32.158  37.501  1.00  0.00     0.198 A 
ATOM     67  C   UNL A   1      39.270  34.006  36.635  1.00  0.00     0.198 A 
ATOM     68  F   UNL A   1      40.486  33.771  34.635  1.00  0.00    -0.203 F 
ATOM     69  F   UNL A   1      37.180  31.648  38.424  1.00  0.00    -0.200 F 
ATOM     70  C   UNL A   1      38.431  33.475  37.603  1.00  0.00     0.200 A 
ATOM     71  F   UNL A   1      39.693  35.274  36.741  1.00  0.00    -0.200 F 
ATOM     72  F   UNL A   1      38.029  34.233  38.632  1.00  0.00    -0.200 F 
ENDBRANCH  48  62
BRANCH  49  73
ATOM     73  C   UNL A   1      42.358  26.228  27.822  1.00  0.00     0.064 A 
ATOM     74  C   UNL A   1      41.829  24.942  27.657  1.00  0.00     0.173 A 
ATOM     75  C   UNL A   1      43.293  26.677  26.876  1.00  0.00     0.173 A 
ATOM     76  F   UNL A   1      40.948  24.460  28.547  1.00  0.00    -0.203 F 
ATOM     77  C   UNL A   1      42.221  24.133  26.592  1.00  0.00     0.198 A 
ATOM     78  C   UNL A   1      43.661  25.880  25.795  1.00  0.00     0.198 A 
ATOM     79  F   UNL A   1      43.826  27.902  26.989  1.00  0.00    -0.203 F 
ATOM     80  F   UNL A   1      41.724  22.894  26.476  1.00  0.00    -0.200 F 
ATOM     81  C   UNL A   1      43.129  24.607  25.656  1.00  0.00     0.200 A 
ATOM     82  F   UNL A   1      44.526  26.348  24.885  1.00  0.00    -0.200 F 
ATOM     83  F   UNL A   1      43.493  23.836  24.624  1.00  0.00    -0.200 F 
ENDBRANCH  49  73
BRANCH  61  84
ATOM     84  C   UNL A   1      44.898  27.542  34.189  1.00  0.00     0.064 A 
ATOM     85  C   UNL A   1      44.907  26.355  34.937  1.00  0.00     0.173 A 
ATOM     86  C   UNL A   1      46.101  28.261  34.089  1.00  0.00     0.173 A 
ATOM     87  F   UNL A   1      43.782  25.637  35.076  1.00  0.00    -0.203 F 
ATOM     88  C   UNL A   1      46.064  25.919  35.577  1.00  0.00     0.198 A 
ATOM     89  C   UNL A   1      47.263  27.803  34.702  1.00  0.00     0.198 A 
ATOM     90  F   UNL A   1      46.152  29.399  33.380  1.00  0.00    -0.203 F 
ATOM     91  F   UNL A   1      46.034  24.807  36.326  1.00  0.00    -0.200 F 
ATOM     92  C   UNL A   1      47.243  26.637  35.451  1.00  0.00     0.200 A 
ATOM     93  F   UNL A   1      48.407  28.489  34.564  1.00  0.00    -0.200 F 
ATOM     94  F   UNL A   1      48.359  26.207  36.056  1.00  0.00    -0.200 F 
ENDBRANCH  61  84
ENDBRANCH  35  36
ENDBRANCH  28  30
ENDBRANCH  27  28
ENDBRANCH  26  27
ENDBRANCH   1  26
TORSDOF 16
ENDMDL
MODEL 3
REMARK VINA RESULT:      -9.6      0.504      7.209
REMARK SMILES CC(C)c1cc2c(cc1Cl)C=C(C(=O)OCCOCCOC(=O)c1ccc(-c3c4nc(c(-c5c(F)c(F)c(F)c(F)c5F)c5ccc([nH]5)c(-c5c(F)c(F)c(F)c(F)c5F)c5nc(c(-c6c(F)c(F)c(F)c(F)c6F)c6ccc3[nH]6)C=C5)C=C4)cc1)[C@@H](C(F)(F)F)O2
REMARK SMILES IDX 19 1 18 2 17 3 16 4 15 5 13 6 14 7 12 8 4 9 5 10 9 11 6 12
REMARK SMILES IDX 8 13 10 14 7 15 92 16 11 17 87 18 2 19 1 20 3 21 88 22 89 23
REMARK SMILES IDX 90 24 91 25 20 26 21 27 22 28 23 29 24 30 25 31 86 32 26 33
REMARK SMILES IDX 85 34 27 35 28 36 29 37 79 38 30 39 84 40 78 41 80 42 31 43
REMARK SMILES IDX 83 44 77 45 76 46 32 48 64 49 44 50 63 51 45 52 48 53 62 54
REMARK SMILES IDX 81 55 46 56 47 57 61 59 82 60 49 61 33 62 34 63 42 64 35 65
REMARK SMILES IDX 36 66 40 67 43 68 37 69 38 70 41 71 39 72 65 73 66 74 74 75
REMARK SMILES IDX 67 76 68 77 72 78 75 79 69 80 70 81 73 82 71 83 50 84 51 85
REMARK SMILES IDX 59 86 52 87 53 88 57 89 60 90 54 91 55 92 58 93 56 94
REMARK H PARENT 80 47 48 58
REMARK Flexibility Score: inf
ROOT
ATOM      1  C   UNL A   1      41.903  19.338  26.464  1.00  0.00     0.202 C 
ENDROOT
BRANCH   1   2
ATOM      2  O   UNL A   1      42.445  18.397  25.539  1.00  0.00    -0.374 OA
BRANCH   2   3
ATOM      3  C   UNL A   1      43.821  18.498  25.186  1.00  0.00     0.202 C 
BRANCH   3   4
ATOM      4  C   UNL A   1      44.627  19.664  25.767  1.00  0.00     0.261 C 
BRANCH   4   5
ATOM      5  O   UNL A   1      44.720  20.768  24.855  1.00  0.00    -0.460 OA
BRANCH   5   6
ATOM      6  C   UNL A   1      44.077  21.884  25.272  1.00  0.00     0.338 C 
ATOM      7  O   UNL A   1      42.937  22.219  24.993  1.00  0.00    -0.246 OA
BRANCH   6   8
ATOM      8  C   UNL A   1      44.914  22.613  26.242  1.00  0.00     0.087 C 
ATOM      9  C   UNL A   1      46.338  25.662  29.984  1.00  0.00    -0.023 A 
ATOM     10  C   UNL A   1      46.992  25.068  28.882  1.00  0.00     0.052 A 
ATOM     11  C   UNL A   1      45.013  25.249  30.244  1.00  0.00     0.045 A 
ATOM     12  C   UNL A   1      46.339  24.159  28.042  1.00  0.00     0.128 A 
ATOM     13  C   UNL A   1      44.382  24.295  29.438  1.00  0.00     0.032 A 
ATOM     14  Cl  UNL A   1      44.040  25.938  31.498  1.00  0.00    -0.084 Cl
ATOM     15  C   UNL A   1      45.032  23.777  28.319  1.00  0.00     0.019 A 
ATOM     16  O   UNL A   1      47.044  23.699  26.964  1.00  0.00    -0.475 OA
ATOM     17  C   UNL A   1      44.315  22.917  27.399  1.00  0.00     0.027 C 
ATOM     18  C   UNL A   1      46.322  23.012  25.899  1.00  0.00     0.316 C 
BRANCH   9  19
ATOM     19  C   UNL A   1      47.009  26.757  30.816  1.00  0.00     0.014 C 
ATOM     20  C   UNL A   1      48.542  26.692  30.752  1.00  0.00     0.012 C 
ATOM     21  C   UNL A   1      46.580  28.192  30.471  1.00  0.00     0.012 C 
ENDBRANCH   9  19
BRANCH  18  22
ATOM     22  C   UNL A   1      46.391  23.854  24.615  1.00  0.00     0.430 C 
ATOM     23  F   UNL A   1      46.833  23.121  23.567  1.00  0.00    -0.167 F 
ATOM     24  F   UNL A   1      45.170  24.328  24.265  1.00  0.00    -0.167 F 
ATOM     25  F   UNL A   1      47.214  24.918  24.747  1.00  0.00    -0.167 F 
ENDBRANCH  18  22
ENDBRANCH   6   8
ENDBRANCH   5   6
ENDBRANCH   4   5
ENDBRANCH   3   4
ENDBRANCH   2   3
ENDBRANCH   1   2
BRANCH   1  26
ATOM     26  C   UNL A   1      40.414  19.694  26.363  1.00  0.00     0.261 C 
BRANCH  26  27
ATOM     27  O   UNL A   1      40.055  20.851  27.138  1.00  0.00    -0.460 OA
BRANCH  27  28
ATOM     28  C   UNL A   1      39.407  21.821  26.448  1.00  0.00     0.338 C 
ATOM     29  O   UNL A   1      38.431  21.693  25.724  1.00  0.00    -0.246 OA
BRANCH  28  30
ATOM     30  C   UNL A   1      39.931  23.137  26.852  1.00  0.00     0.060 A 
ATOM     31  C   UNL A   1      40.772  23.271  27.957  1.00  0.00     0.016 A 
ATOM     32  C   UNL A   1      39.597  24.251  26.071  1.00  0.00     0.016 A 
ATOM     33  C   UNL A   1      41.292  24.530  28.270  1.00  0.00     0.010 A 
ATOM     34  C   UNL A   1      40.115  25.506  26.387  1.00  0.00     0.010 A 
ATOM     35  C   UNL A   1      40.978  25.652  27.480  1.00  0.00    -0.014 A 
BRANCH  35  36
ATOM     36  C   UNL A   1      41.634  26.957  27.739  1.00  0.00     0.031 A 
ATOM     37  C   UNL A   1      40.929  28.049  28.487  1.00  0.00     0.074 A 
ATOM     38  C   UNL A   1      42.879  27.158  27.268  1.00  0.00     0.049 A 
ATOM     39  N   UNL A   1      41.375  29.230  28.834  1.00  0.00    -0.248 NA
ATOM     40  C   UNL A   1      39.541  27.785  28.890  1.00  0.00     0.031 C 
ATOM     41  C   UNL A   1      43.649  26.183  26.497  1.00  0.00     0.029 A 
ATOM     42  N   UNL A   1      43.716  28.240  27.373  1.00  0.00    -0.354 N 
ATOM     43  C   UNL A   1      40.335  29.843  29.516  1.00  0.00     0.074 A 
ATOM     44  C   UNL A   1      39.213  28.926  29.484  1.00  0.00     0.031 C 
ATOM     45  C   UNL A   1      44.859  26.696  26.226  1.00  0.00     0.029 A 
ATOM     46  C   UNL A   1      44.937  28.048  26.776  1.00  0.00     0.049 A 
ATOM     47  H   UNL A   1      43.466  29.073  27.833  1.00  0.00     0.167 HD
ATOM     48  C   UNL A   1      40.326  31.050  30.132  1.00  0.00     0.037 A 
ATOM     49  C   UNL A   1      46.001  28.867  26.682  1.00  0.00     0.037 A 
ATOM     50  C   UNL A   1      41.440  31.966  30.146  1.00  0.00     0.049 A 
ATOM     51  C   UNL A   1      45.944  30.224  27.324  1.00  0.00     0.074 A 
ATOM     52  C   UNL A   1      41.537  33.197  30.770  1.00  0.00     0.029 A 
ATOM     53  N   UNL A   1      42.647  31.758  29.491  1.00  0.00    -0.354 N 
ATOM     54  N   UNL A   1      44.982  30.766  28.031  1.00  0.00    -0.248 NA
ATOM     55  C   UNL A   1      47.124  31.085  27.159  1.00  0.00     0.031 C 
ATOM     56  C   UNL A   1      42.776  33.760  30.447  1.00  0.00     0.029 A 
ATOM     57  C   UNL A   1      43.479  32.854  29.670  1.00  0.00     0.049 A 
ATOM     58  H   UNL A   1      42.878  30.951  28.977  1.00  0.00     0.167 HD
ATOM     59  C   UNL A   1      45.443  32.020  28.408  1.00  0.00     0.074 A 
ATOM     60  C   UNL A   1      46.783  32.148  27.875  1.00  0.00     0.031 C 
ATOM     61  C   UNL A   1      44.809  32.979  29.126  1.00  0.00     0.037 A 
BRANCH  48  62
ATOM     62  C   UNL A   1      39.074  31.455  30.859  1.00  0.00     0.064 A 
ATOM     63  C   UNL A   1      38.893  31.163  32.219  1.00  0.00     0.173 A 
ATOM     64  C   UNL A   1      38.080  32.204  30.212  1.00  0.00     0.173 A 
ATOM     65  F   UNL A   1      39.810  30.444  32.883  1.00  0.00    -0.203 F 
ATOM     66  C   UNL A   1      37.753  31.585  32.898  1.00  0.00     0.198 A 
ATOM     67  C   UNL A   1      36.957  32.652  30.902  1.00  0.00     0.198 A 
ATOM     68  F   UNL A   1      38.207  32.521  28.914  1.00  0.00    -0.203 F 
ATOM     69  F   UNL A   1      37.585  31.261  34.188  1.00  0.00    -0.200 F 
ATOM     70  C   UNL A   1      36.791  32.338  32.242  1.00  0.00     0.200 A 
ATOM     71  F   UNL A   1      36.035  33.394  30.272  1.00  0.00    -0.200 F 
ATOM     72  F   UNL A   1      35.703  32.759  32.902  1.00  0.00    -0.200 F 
ENDBRANCH  48  62
BRANCH  49  73
ATOM     73  C   UNL A   1      47.225  28.399  25.981  1.00  0.00     0.064 A 
ATOM     74  C   UNL A   1      47.231  28.222  24.591  1.00  0.00     0.173 A 
ATOM     75  C   UNL A   1      48.418  28.148  26.677  1.00  0.00     0.173 A 
ATOM     76  F   UNL A   1      46.109  28.428  23.885  1.00  0.00    -0.203 F 
ATOM     77  C   UNL A   1      48.381  27.805  23.923  1.00  0.00     0.198 A 
ATOM     78  C   UNL A   1      49.575  27.762  26.005  1.00  0.00     0.198 A 
ATOM     79  F   UNL A   1      48.464  28.307  28.007  1.00  0.00    -0.203 F 
ATOM     80  F   UNL A   1      48.350  27.612  22.598  1.00  0.00    -0.200 F 
ATOM     81  C   UNL A   1      49.555  27.586  24.630  1.00  0.00     0.200 A 
ATOM     82  F   UNL A   1      50.710  27.567  26.689  1.00  0.00    -0.200 F 
ATOM     83  F   UNL A   1      50.664  27.202  23.985  1.00  0.00    -0.200 F 
ENDBRANCH  49  73
BRANCH  61  84
ATOM     84  C   UNL A   1      45.553  34.261  29.379  1.00  0.00     0.064 A 
ATOM     85  C   UNL A   1      46.390  34.415  30.495  1.00  0.00     0.173 A 
ATOM     86  C   UNL A   1      45.473  35.328  28.470  1.00  0.00     0.173 A 
ATOM     87  F   UNL A   1      46.492  33.432  31.402  1.00  0.00    -0.203 F 
ATOM     88  C   UNL A   1      47.099  35.595  30.703  1.00  0.00     0.198 A 
ATOM     89  C   UNL A   1      46.211  36.493  28.663  1.00  0.00     0.198 A 
ATOM     90  F   UNL A   1      44.694  35.233  27.381  1.00  0.00    -0.203 F 
ATOM     91  F   UNL A   1      47.855  35.736  31.801  1.00  0.00    -0.200 F 
ATOM     92  C   UNL A   1      47.017  36.629  29.782  1.00  0.00     0.200 A 
ATOM     93  F   UNL A   1      46.144  37.484  27.763  1.00  0.00    -0.200 F 
ATOM     94  F   UNL A   1      47.712  37.758  29.977  1.00  0.00    -0.200 F 
ENDBRANCH  61  84
ENDBRANCH  35  36
ENDBRANCH  28  30
ENDBRANCH  27  28
ENDBRANCH  26  27
ENDBRANCH   1  26
TORSDOF 16
ENDMDL
