MODEL 1
REMARK VINA RESULT:     -11.7      0.000      0.000
REMARK SMILES CC(C)(Cn1ccc2ccc([N+](=O)[O-])cc21)C(=O)OCCOCCOC(=O)c1ccc(-c2c3nc(c(-c4c(F)c(F)c(F)c(F)c4F)c4ccc([nH]4)c(-c4c(F)c(F)c(F)c(F)c4F)c4nc(c(-c5c(F)c(F)c(F)c(F)c5F)c5ccc2[nH]5)C=C4)C=C3)cc1
REMARK SMILES IDX 21 1 20 2 19 3 17 4 18 5 2 6 1 7 3 8 4 9 5 10 6 11 16 12
REMARK SMILES IDX 7 13 8 14 15 15 9 16 11 17 10 18 12 19 13 20 14 21 22 22
REMARK SMILES IDX 23 23 24 24 25 25 26 26 27 27 28 28 29 29 90 30 30 31 89 32
REMARK SMILES IDX 31 33 32 34 33 35 83 36 34 37 88 38 82 39 84 40 35 41 87 42
REMARK SMILES IDX 81 43 80 44 36 46 68 47 48 48 67 49 49 50 52 51 66 52 85 53
REMARK SMILES IDX 50 54 51 55 65 57 86 58 53 59 37 60 38 61 46 62 39 63 40 64
REMARK SMILES IDX 44 65 47 66 41 67 42 68 45 69 43 70 69 71 70 72 78 73 71 74
REMARK SMILES IDX 72 75 76 76 79 77 73 78 74 79 77 80 75 81 54 82 55 83 63 84
REMARK SMILES IDX 56 85 57 86 61 87 64 88 58 89 59 90 62 91 60 92
REMARK H PARENT 84 45 52 56
REMARK Flexibility Score: inf
ROOT
ATOM      1  C   UNL A   1      38.601  21.825  25.762  1.00  0.00     0.202 C 
ENDROOT
BRANCH   1   2
ATOM      2  C   UNL A   1      37.438  21.110  25.061  1.00  0.00     0.261 C 
BRANCH   2   3
ATOM      3  O   UNL A   1      36.172  21.154  25.751  1.00  0.00    -0.463 OA
BRANCH   3   4
ATOM      4  C   UNL A   1      35.322  22.061  25.206  1.00  0.00     0.313 C 
ATOM      5  O   UNL A   1      35.562  22.652  24.154  1.00  0.00    -0.252 OA
BRANCH   4   6
ATOM      6  C   UNL A   1      34.095  22.419  26.050  1.00  0.00     0.080 C 
ATOM      7  C   UNL A   1      34.074  23.957  26.110  1.00  0.00     0.025 C 
ATOM      8  C   UNL A   1      34.427  21.855  27.451  1.00  0.00     0.025 C 
BRANCH   6   9
ATOM      9  C   UNL A   1      32.696  21.860  25.676  1.00  0.00     0.140 C 
BRANCH   9  10
ATOM     10  N   UNL A   1      32.519  21.118  24.435  1.00  0.00    -0.346 N 
ATOM     11  C   UNL A   1      32.299  21.748  23.238  1.00  0.00     0.087 A 
ATOM     12  C   UNL A   1      32.806  19.785  24.167  1.00  0.00     0.055 A 
ATOM     13  C   UNL A   1      32.060  20.790  22.284  1.00  0.00     0.028 A 
ATOM     14  C   UNL A   1      32.328  19.534  22.872  1.00  0.00     0.000 A 
ATOM     15  C   UNL A   1      33.471  18.781  24.894  1.00  0.00     0.112 A 
ATOM     16  C   UNL A   1      32.307  18.222  22.363  1.00  0.00     0.017 A 
ATOM     17  C   UNL A   1      33.596  17.516  24.277  1.00  0.00     0.271 A 
ATOM     18  C   UNL A   1      32.956  17.212  23.071  1.00  0.00     0.086 A 
BRANCH  17  19
ATOM     19  N   UNL A   1      34.499  16.513  24.863  1.00  0.00     0.062 N 
ATOM     20  O   UNL A   1      34.020  15.408  25.156  1.00  0.00    -0.258 OA
ATOM     21  O   UNL A   1      35.678  16.843  25.065  1.00  0.00    -0.258 OA
ENDBRANCH  17  19
ENDBRANCH   9  10
ENDBRANCH   6   9
ENDBRANCH   4   6
ENDBRANCH   3   4
ENDBRANCH   2   3
ENDBRANCH   1   2
BRANCH   1  22
ATOM     22  O   UNL A   1      39.438  21.098  26.641  1.00  0.00    -0.374 OA
BRANCH  22  23
ATOM     23  C   UNL A   1      40.223  20.049  26.086  1.00  0.00     0.202 C 
BRANCH  23  24
ATOM     24  C   UNL A   1      41.745  20.251  26.100  1.00  0.00     0.261 C 
BRANCH  24  25
ATOM     25  O   UNL A   1      42.067  21.454  26.820  1.00  0.00    -0.460 OA
BRANCH  25  26
ATOM     26  C   UNL A   1      42.368  22.534  26.060  1.00  0.00     0.338 C 
ATOM     27  O   UNL A   1      42.680  22.547  24.881  1.00  0.00    -0.246 OA
BRANCH  26  28
ATOM     28  C   UNL A   1      41.766  23.655  26.806  1.00  0.00     0.060 A 
ATOM     29  C   UNL A   1      41.081  24.689  26.157  1.00  0.00     0.016 A 
ATOM     30  C   UNL A   1      42.277  23.824  28.100  1.00  0.00     0.016 A 
ATOM     31  C   UNL A   1      41.006  25.936  26.778  1.00  0.00     0.010 A 
ATOM     32  C   UNL A   1      42.254  25.084  28.682  1.00  0.00     0.010 A 
ATOM     33  C   UNL A   1      41.665  26.154  28.000  1.00  0.00    -0.014 A 
BRANCH  33  34
ATOM     34  C   UNL A   1      41.602  27.478  28.629  1.00  0.00     0.031 A 
ATOM     35  C   UNL A   1      42.689  28.401  28.214  1.00  0.00     0.074 A 
ATOM     36  C   UNL A   1      40.574  27.951  29.369  1.00  0.00     0.049 A 
ATOM     37  N   UNL A   1      43.498  29.073  28.968  1.00  0.00    -0.248 NA
ATOM     38  C   UNL A   1      42.945  28.537  26.772  1.00  0.00     0.031 C 
ATOM     39  C   UNL A   1      39.312  27.294  29.671  1.00  0.00     0.029 A 
ATOM     40  N   UNL A   1      40.402  29.183  29.939  1.00  0.00    -0.354 N 
ATOM     41  C   UNL A   1      44.280  29.824  28.099  1.00  0.00     0.074 A 
ATOM     42  C   UNL A   1      43.980  29.372  26.765  1.00  0.00     0.031 C 
ATOM     43  C   UNL A   1      38.429  28.174  30.184  1.00  0.00     0.029 A 
ATOM     44  C   UNL A   1      39.095  29.447  30.341  1.00  0.00     0.049 A 
ATOM     45  H   UNL A   1      41.137  29.827  30.054  1.00  0.00     0.167 HD
ATOM     46  C   UNL A   1      45.001  30.901  28.508  1.00  0.00     0.037 A 
ATOM     47  C   UNL A   1      38.566  30.631  30.733  1.00  0.00     0.037 A 
ATOM     48  C   UNL A   1      45.239  30.900  29.922  1.00  0.00     0.049 A 
ATOM     49  C   UNL A   1      39.690  31.496  31.154  1.00  0.00     0.074 A 
ATOM     50  C   UNL A   1      45.913  30.057  30.785  1.00  0.00     0.029 A 
ATOM     51  N   UNL A   1      44.473  31.703  30.726  1.00  0.00    -0.354 N 
ATOM     52  N   UNL A   1      40.409  31.285  32.220  1.00  0.00    -0.248 NA
ATOM     53  C   UNL A   1      40.287  32.361  30.150  1.00  0.00     0.031 C 
ATOM     54  C   UNL A   1      45.153  30.069  31.992  1.00  0.00     0.029 A 
ATOM     55  C   UNL A   1      44.082  30.941  31.800  1.00  0.00     0.049 A 
ATOM     56  H   UNL A   1      44.244  32.648  30.564  1.00  0.00     0.167 HD
ATOM     57  C   UNL A   1      41.698  31.623  31.839  1.00  0.00     0.074 A 
ATOM     58  C   UNL A   1      41.545  32.369  30.594  1.00  0.00     0.031 C 
ATOM     59  C   UNL A   1      42.781  31.031  32.420  1.00  0.00     0.037 A 
BRANCH  46  60
ATOM     60  C   UNL A   1      45.272  32.074  27.615  1.00  0.00     0.064 A 
ATOM     61  C   UNL A   1      46.548  32.280  27.069  1.00  0.00     0.173 A 
ATOM     62  C   UNL A   1      44.352  33.134  27.454  1.00  0.00     0.173 A 
ATOM     63  F   UNL A   1      47.511  31.360  27.224  1.00  0.00    -0.203 F 
ATOM     64  C   UNL A   1      46.877  33.465  26.405  1.00  0.00     0.198 A 
ATOM     65  C   UNL A   1      44.663  34.288  26.742  1.00  0.00     0.198 A 
ATOM     66  F   UNL A   1      43.157  33.125  28.063  1.00  0.00    -0.203 F 
ATOM     67  F   UNL A   1      48.129  33.659  25.971  1.00  0.00    -0.200 F 
ATOM     68  C   UNL A   1      45.932  34.462  26.231  1.00  0.00     0.200 A 
ATOM     69  F   UNL A   1      43.739  35.252  26.608  1.00  0.00    -0.200 F 
ATOM     70  F   UNL A   1      46.253  35.607  25.616  1.00  0.00    -0.200 F 
ENDBRANCH  46  60
BRANCH  47  71
ATOM     71  C   UNL A   1      37.199  31.155  30.487  1.00  0.00     0.064 A 
ATOM     72  C   UNL A   1      36.357  31.517  31.550  1.00  0.00     0.173 A 
ATOM     73  C   UNL A   1      36.796  31.573  29.203  1.00  0.00     0.173 A 
ATOM     74  F   UNL A   1      36.684  31.192  32.810  1.00  0.00    -0.203 F 
ATOM     75  C   UNL A   1      35.203  32.283  31.347  1.00  0.00     0.198 A 
ATOM     76  C   UNL A   1      35.639  32.328  28.999  1.00  0.00     0.198 A 
ATOM     77  F   UNL A   1      37.564  31.343  28.129  1.00  0.00    -0.203 F 
ATOM     78  F   UNL A   1      34.462  32.669  32.395  1.00  0.00    -0.200 F 
ATOM     79  C   UNL A   1      34.852  32.698  30.072  1.00  0.00     0.200 A 
ATOM     80  F   UNL A   1      35.329  32.751  27.765  1.00  0.00    -0.200 F 
ATOM     81  F   UNL A   1      33.786  33.488  29.884  1.00  0.00    -0.200 F 
ENDBRANCH  47  71
BRANCH  59  82
ATOM     82  C   UNL A   1      42.544  30.193  33.648  1.00  0.00     0.064 A 
ATOM     83  C   UNL A   1      42.545  30.706  34.958  1.00  0.00     0.173 A 
ATOM     84  C   UNL A   1      42.168  28.853  33.486  1.00  0.00     0.173 A 
ATOM     85  F   UNL A   1      42.788  32.001  35.192  1.00  0.00    -0.203 F 
ATOM     86  C   UNL A   1      42.232  29.901  36.053  1.00  0.00     0.198 A 
ATOM     87  C   UNL A   1      41.820  28.061  34.579  1.00  0.00     0.198 A 
ATOM     88  F   UNL A   1      42.089  28.322  32.256  1.00  0.00    -0.203 F 
ATOM     89  F   UNL A   1      42.248  30.416  37.292  1.00  0.00    -0.200 F 
ATOM     90  C   UNL A   1      41.863  28.581  35.863  1.00  0.00     0.200 A 
ATOM     91  F   UNL A   1      41.411  26.799  34.384  1.00  0.00    -0.200 F 
ATOM     92  F   UNL A   1      41.517  27.819  36.910  1.00  0.00    -0.200 F 
ENDBRANCH  59  82
ENDBRANCH  33  34
ENDBRANCH  26  28
ENDBRANCH  25  26
ENDBRANCH  24  25
ENDBRANCH  23  24
ENDBRANCH  22  23
ENDBRANCH   1  22
TORSDOF 17
ENDMDL
MODEL 2
REMARK VINA RESULT:     -11.6      1.989      3.836
REMARK SMILES CC(C)(Cn1ccc2ccc([N+](=O)[O-])cc21)C(=O)OCCOCCOC(=O)c1ccc(-c2c3nc(c(-c4c(F)c(F)c(F)c(F)c4F)c4ccc([nH]4)c(-c4c(F)c(F)c(F)c(F)c4F)c4nc(c(-c5c(F)c(F)c(F)c(F)c5F)c5ccc2[nH]5)C=C4)C=C3)cc1
REMARK SMILES IDX 21 1 20 2 19 3 17 4 18 5 2 6 1 7 3 8 4 9 5 10 6 11 16 12
REMARK SMILES IDX 7 13 8 14 15 15 9 16 11 17 10 18 12 19 13 20 14 21 22 22
REMARK SMILES IDX 23 23 24 24 25 25 26 26 27 27 28 28 29 29 90 30 30 31 89 32
REMARK SMILES IDX 31 33 32 34 33 35 83 36 34 37 88 38 82 39 84 40 35 41 87 42
REMARK SMILES IDX 81 43 80 44 36 46 68 47 48 48 67 49 49 50 52 51 66 52 85 53
REMARK SMILES IDX 50 54 51 55 65 57 86 58 53 59 37 60 38 61 46 62 39 63 40 64
REMARK SMILES IDX 44 65 47 66 41 67 42 68 45 69 43 70 69 71 70 72 78 73 71 74
REMARK SMILES IDX 72 75 76 76 79 77 73 78 74 79 77 80 75 81 54 82 55 83 63 84
REMARK SMILES IDX 56 85 57 86 61 87 64 88 58 89 59 90 62 91 60 92
REMARK H PARENT 84 45 52 56
REMARK Flexibility Score: inf
ROOT
ATOM      1  C   UNL A   1      39.163  21.756  26.080  1.00  0.00     0.202 C 
ENDROOT
BRANCH   1   2
ATOM      2  C   UNL A   1      37.915  21.096  25.478  1.00  0.00     0.261 C 
BRANCH   2   3
ATOM      3  O   UNL A   1      36.653  21.535  26.023  1.00  0.00    -0.463 OA
BRANCH   3   4
ATOM      4  C   UNL A   1      35.679  21.593  25.079  1.00  0.00     0.313 C 
ATOM      5  O   UNL A   1      35.136  20.590  24.617  1.00  0.00    -0.252 OA
BRANCH   4   6
ATOM      6  C   UNL A   1      35.382  22.983  24.510  1.00  0.00     0.080 C 
ATOM      7  C   UNL A   1      36.189  23.072  23.202  1.00  0.00     0.025 C 
ATOM      8  C   UNL A   1      35.987  23.952  25.553  1.00  0.00     0.025 C 
BRANCH   6   9
ATOM      9  C   UNL A   1      33.915  23.443  24.288  1.00  0.00     0.140 C 
BRANCH   9  10
ATOM     10  N   UNL A   1      33.634  24.576  23.418  1.00  0.00    -0.346 N 
ATOM     11  C   UNL A   1      33.034  24.421  22.195  1.00  0.00     0.087 A 
ATOM     12  C   UNL A   1      33.627  25.931  23.725  1.00  0.00     0.055 A 
ATOM     13  C   UNL A   1      33.007  25.642  21.570  1.00  0.00     0.028 A 
ATOM     14  C   UNL A   1      33.429  26.607  22.510  1.00  0.00     0.000 A 
ATOM     15  C   UNL A   1      33.726  26.642  24.934  1.00  0.00     0.112 A 
ATOM     16  C   UNL A   1      33.547  28.008  22.449  1.00  0.00     0.017 A 
ATOM     17  C   UNL A   1      33.658  28.052  24.859  1.00  0.00     0.271 A 
ATOM     18  C   UNL A   1      33.652  28.730  23.636  1.00  0.00     0.086 A 
BRANCH  17  19
ATOM     19  N   UNL A   1      33.491  28.833  26.095  1.00  0.00     0.062 N 
ATOM     20  O   UNL A   1      33.343  30.058  25.986  1.00  0.00    -0.258 OA
ATOM     21  O   UNL A   1      33.545  28.226  27.175  1.00  0.00    -0.258 OA
ENDBRANCH  17  19
ENDBRANCH   9  10
ENDBRANCH   6   9
ENDBRANCH   4   6
ENDBRANCH   3   4
ENDBRANCH   2   3
ENDBRANCH   1   2
BRANCH   1  22
ATOM     22  O   UNL A   1      40.027  20.993  26.900  1.00  0.00    -0.374 OA
BRANCH  22  23
ATOM     23  C   UNL A   1      40.817  19.990  26.271  1.00  0.00     0.202 C 
BRANCH  23  24
ATOM     24  C   UNL A   1      42.289  20.340  26.011  1.00  0.00     0.261 C 
BRANCH  24  25
ATOM     25  O   UNL A   1      42.611  21.586  26.653  1.00  0.00    -0.460 OA
BRANCH  25  26
ATOM     26  C   UNL A   1      42.764  22.652  25.830  1.00  0.00     0.338 C 
ATOM     27  O   UNL A   1      43.015  22.637  24.637  1.00  0.00    -0.246 OA
BRANCH  26  28
ATOM     28  C   UNL A   1      42.090  23.744  26.557  1.00  0.00     0.060 A 
ATOM     29  C   UNL A   1      41.523  24.835  25.888  1.00  0.00     0.016 A 
ATOM     30  C   UNL A   1      42.423  23.821  27.916  1.00  0.00     0.016 A 
ATOM     31  C   UNL A   1      41.390  26.045  26.570  1.00  0.00     0.010 A 
ATOM     32  C   UNL A   1      42.347  25.044  28.568  1.00  0.00     0.010 A 
ATOM     33  C   UNL A   1      41.881  26.170  27.881  1.00  0.00    -0.014 A 
BRANCH  33  34
ATOM     34  C   UNL A   1      41.760  27.456  28.578  1.00  0.00     0.031 A 
ATOM     35  C   UNL A   1      42.851  28.417  28.274  1.00  0.00     0.074 A 
ATOM     36  C   UNL A   1      40.686  27.871  29.286  1.00  0.00     0.049 A 
ATOM     37  N   UNL A   1      43.606  29.057  29.107  1.00  0.00    -0.248 NA
ATOM     38  C   UNL A   1      43.181  28.637  26.858  1.00  0.00     0.031 C 
ATOM     39  C   UNL A   1      39.422  27.179  29.482  1.00  0.00     0.029 A 
ATOM     40  N   UNL A   1      40.461  29.067  29.913  1.00  0.00    -0.354 N 
ATOM     41  C   UNL A   1      44.420  29.867  28.325  1.00  0.00     0.074 A 
ATOM     42  C   UNL A   1      44.200  29.486  26.953  1.00  0.00     0.031 C 
ATOM     43  C   UNL A   1      38.496  28.016  29.994  1.00  0.00     0.029 A 
ATOM     44  C   UNL A   1      39.131  29.288  30.257  1.00  0.00     0.049 A 
ATOM     45  H   UNL A   1      41.178  29.714  30.103  1.00  0.00     0.167 HD
ATOM     46  C   UNL A   1      45.100  30.929  28.830  1.00  0.00     0.037 A 
ATOM     47  C   UNL A   1      38.560  30.441  30.684  1.00  0.00     0.037 A 
ATOM     48  C   UNL A   1      45.261  30.854  30.254  1.00  0.00     0.049 A 
ATOM     49  C   UNL A   1      39.644  31.297  31.213  1.00  0.00     0.074 A 
ATOM     50  C   UNL A   1      45.903  29.973  31.104  1.00  0.00     0.029 A 
ATOM     51  N   UNL A   1      44.439  31.599  31.058  1.00  0.00    -0.354 N 
ATOM     52  N   UNL A   1      40.309  31.037  32.303  1.00  0.00    -0.248 NA
ATOM     53  C   UNL A   1      40.279  32.225  30.293  1.00  0.00     0.031 C 
ATOM     54  C   UNL A   1      45.080  29.907  32.267  1.00  0.00     0.029 A 
ATOM     55  C   UNL A   1      44.005  30.771  32.065  1.00  0.00     0.049 A 
ATOM     56  H   UNL A   1      44.203  32.547  30.936  1.00  0.00     0.167 HD
ATOM     57  C   UNL A   1      41.610  31.415  32.012  1.00  0.00     0.074 A 
ATOM     58  C   UNL A   1      41.511  32.228  30.803  1.00  0.00     0.031 C 
ATOM     59  C   UNL A   1      42.671  30.807  32.617  1.00  0.00     0.037 A 
BRANCH  46  60
ATOM     60  C   UNL A   1      45.396  32.154  28.020  1.00  0.00     0.064 A 
ATOM     61  C   UNL A   1      44.377  33.063  27.693  1.00  0.00     0.173 A 
ATOM     62  C   UNL A   1      46.633  32.352  27.365  1.00  0.00     0.173 A 
ATOM     63  F   UNL A   1      43.148  32.922  28.213  1.00  0.00    -0.203 F 
ATOM     64  C   UNL A   1      44.585  34.096  26.776  1.00  0.00     0.198 A 
ATOM     65  C   UNL A   1      46.855  33.417  26.498  1.00  0.00     0.198 A 
ATOM     66  F   UNL A   1      47.632  31.465  27.472  1.00  0.00    -0.203 F 
ATOM     67  F   UNL A   1      43.564  34.891  26.427  1.00  0.00    -0.200 F 
ATOM     68  C   UNL A   1      45.826  34.281  26.189  1.00  0.00     0.200 A 
ATOM     69  F   UNL A   1      48.058  33.561  25.922  1.00  0.00    -0.200 F 
ATOM     70  F   UNL A   1      46.018  35.257  25.293  1.00  0.00    -0.200 F 
ENDBRANCH  46  60
BRANCH  47  71
ATOM     71  C   UNL A   1      37.199  30.957  30.394  1.00  0.00     0.064 A 
ATOM     72  C   UNL A   1      36.342  31.369  31.426  1.00  0.00     0.173 A 
ATOM     73  C   UNL A   1      36.818  31.319  29.086  1.00  0.00     0.173 A 
ATOM     74  F   UNL A   1      36.649  31.100  32.705  1.00  0.00    -0.203 F 
ATOM     75  C   UNL A   1      35.194  32.129  31.171  1.00  0.00     0.198 A 
ATOM     76  C   UNL A   1      35.667  32.067  28.830  1.00  0.00     0.198 A 
ATOM     77  F   UNL A   1      37.602  31.039  28.036  1.00  0.00    -0.203 F 
ATOM     78  F   UNL A   1      34.439  32.563  32.189  1.00  0.00    -0.200 F 
ATOM     79  C   UNL A   1      34.865  32.487  29.874  1.00  0.00     0.200 A 
ATOM     80  F   UNL A   1      35.378  32.435  27.574  1.00  0.00    -0.200 F 
ATOM     81  F   UNL A   1      33.805  33.271  29.634  1.00  0.00    -0.200 F 
ENDBRANCH  47  71
BRANCH  59  82
ATOM     82  C   UNL A   1      42.385  29.899  33.783  1.00  0.00     0.064 A 
ATOM     83  C   UNL A   1      41.991  28.554  33.650  1.00  0.00     0.173 A 
ATOM     84  C   UNL A   1      42.650  30.362  35.078  1.00  0.00     0.173 A 
ATOM     85  F   UNL A   1      41.822  28.001  32.442  1.00  0.00    -0.203 F 
ATOM     86  C   UNL A   1      41.825  27.732  34.764  1.00  0.00     0.198 A 
ATOM     87  C   UNL A   1      42.518  29.528  36.187  1.00  0.00     0.198 A 
ATOM     88  F   UNL A   1      43.086  31.617  35.266  1.00  0.00    -0.203 F 
ATOM     89  F   UNL A   1      41.443  26.456  34.606  1.00  0.00    -0.200 F 
ATOM     90  C   UNL A   1      42.096  28.218  36.032  1.00  0.00     0.200 A 
ATOM     91  F   UNL A   1      42.833  29.986  37.407  1.00  0.00    -0.200 F 
ATOM     92  F   UNL A   1      41.981  27.415  37.099  1.00  0.00    -0.200 F 
ENDBRANCH  59  82
ENDBRANCH  33  34
ENDBRANCH  26  28
ENDBRANCH  25  26
ENDBRANCH  24  25
ENDBRANCH  23  24
ENDBRANCH  22  23
ENDBRANCH   1  22
TORSDOF 17
ENDMDL
MODEL 3
REMARK VINA RESULT:     -11.5      5.028      9.928
REMARK SMILES CC(C)(Cn1ccc2ccc([N+](=O)[O-])cc21)C(=O)OCCOCCOC(=O)c1ccc(-c2c3nc(c(-c4c(F)c(F)c(F)c(F)c4F)c4ccc([nH]4)c(-c4c(F)c(F)c(F)c(F)c4F)c4nc(c(-c5c(F)c(F)c(F)c(F)c5F)c5ccc2[nH]5)C=C4)C=C3)cc1
REMARK SMILES IDX 21 1 20 2 19 3 17 4 18 5 2 6 1 7 3 8 4 9 5 10 6 11 16 12
REMARK SMILES IDX 7 13 8 14 15 15 9 16 11 17 10 18 12 19 13 20 14 21 22 22
REMARK SMILES IDX 23 23 24 24 25 25 26 26 27 27 28 28 29 29 90 30 30 31 89 32
REMARK SMILES IDX 31 33 32 34 33 35 83 36 34 37 88 38 82 39 84 40 35 41 87 42
REMARK SMILES IDX 81 43 80 44 36 46 68 47 48 48 67 49 49 50 52 51 66 52 85 53
REMARK SMILES IDX 50 54 51 55 65 57 86 58 53 59 37 60 38 61 46 62 39 63 40 64
REMARK SMILES IDX 44 65 47 66 41 67 42 68 45 69 43 70 69 71 70 72 78 73 71 74
REMARK SMILES IDX 72 75 76 76 79 77 73 78 74 79 77 80 75 81 54 82 55 83 63 84
REMARK SMILES IDX 56 85 57 86 61 87 64 88 58 89 59 90 62 91 60 92
REMARK H PARENT 84 45 52 56
REMARK Flexibility Score: inf
ROOT
ATOM      1  C   UNL A   1      34.457  28.953  27.251  1.00  0.00     0.202 C 
ENDROOT
BRANCH   1   2
ATOM      2  C   UNL A   1      32.941  28.739  27.144  1.00  0.00     0.261 C 
BRANCH   2   3
ATOM      3  O   UNL A   1      32.499  27.953  26.018  1.00  0.00    -0.463 OA
BRANCH   3   4
ATOM      4  C   UNL A   1      32.654  28.611  24.841  1.00  0.00     0.313 C 
ATOM      5  O   UNL A   1      32.420  29.812  24.712  1.00  0.00    -0.252 OA
BRANCH   4   6
ATOM      6  C   UNL A   1      33.005  27.741  23.630  1.00  0.00     0.080 C 
ATOM      7  C   UNL A   1      33.679  26.485  24.210  1.00  0.00     0.025 C 
ATOM      8  C   UNL A   1      34.053  28.578  22.860  1.00  0.00     0.025 C 
BRANCH   6   9
ATOM      9  C   UNL A   1      31.911  27.357  22.597  1.00  0.00     0.140 C 
BRANCH   9  10
ATOM     10  N   UNL A   1      30.508  27.376  22.985  1.00  0.00    -0.346 N 
ATOM     11  C   UNL A   1      29.963  26.407  23.787  1.00  0.00     0.087 A 
ATOM     12  C   UNL A   1      29.592  28.417  22.897  1.00  0.00     0.055 A 
ATOM     13  C   UNL A   1      28.612  26.632  23.880  1.00  0.00     0.028 A 
ATOM     14  C   UNL A   1      28.351  27.882  23.275  1.00  0.00     0.000 A 
ATOM     15  C   UNL A   1      29.716  29.781  22.574  1.00  0.00     0.112 A 
ATOM     16  C   UNL A   1      27.174  28.638  23.125  1.00  0.00     0.017 A 
ATOM     17  C   UNL A   1      28.539  30.561  22.610  1.00  0.00     0.271 A 
ATOM     18  C   UNL A   1      27.276  29.990  22.800  1.00  0.00     0.086 A 
BRANCH  17  19
ATOM     19  N   UNL A   1      28.641  32.027  22.542  1.00  0.00     0.062 N 
ATOM     20  O   UNL A   1      28.243  32.585  21.510  1.00  0.00    -0.258 OA
ATOM     21  O   UNL A   1      29.155  32.617  23.505  1.00  0.00    -0.258 OA
ENDBRANCH  17  19
ENDBRANCH   9  10
ENDBRANCH   6   9
ENDBRANCH   4   6
ENDBRANCH   3   4
ENDBRANCH   2   3
ENDBRANCH   1   2
BRANCH   1  22
ATOM     22  O   UNL A   1      34.970  30.267  27.352  1.00  0.00    -0.374 OA
BRANCH  22  23
ATOM     23  C   UNL A   1      34.049  31.314  27.636  1.00  0.00     0.202 C 
BRANCH  23  24
ATOM     24  C   UNL A   1      34.492  32.354  28.674  1.00  0.00     0.261 C 
BRANCH  24  25
ATOM     25  O   UNL A   1      34.679  31.716  29.949  1.00  0.00    -0.460 OA
BRANCH  25  26
ATOM     26  C   UNL A   1      35.803  32.060  30.623  1.00  0.00     0.338 C 
ATOM     27  O   UNL A   1      35.880  32.697  31.659  1.00  0.00    -0.246 OA
BRANCH  26  28
ATOM     28  C   UNL A   1      36.808  31.103  30.121  1.00  0.00     0.060 A 
ATOM     29  C   UNL A   1      36.706  29.729  30.368  1.00  0.00     0.016 A 
ATOM     30  C   UNL A   1      38.032  31.688  29.770  1.00  0.00     0.016 A 
ATOM     31  C   UNL A   1      37.869  28.960  30.365  1.00  0.00     0.010 A 
ATOM     32  C   UNL A   1      39.192  30.928  29.832  1.00  0.00     0.010 A 
ATOM     33  C   UNL A   1      39.119  29.575  30.181  1.00  0.00    -0.014 A 
BRANCH  33  34
ATOM     34  C   UNL A   1      40.338  28.759  30.207  1.00  0.00     0.031 A 
ATOM     35  C   UNL A   1      40.894  28.540  31.567  1.00  0.00     0.074 A 
ATOM     36  C   UNL A   1      40.851  28.074  29.161  1.00  0.00     0.049 A 
ATOM     37  N   UNL A   1      42.102  28.749  31.980  1.00  0.00    -0.248 NA
ATOM     38  C   UNL A   1      39.961  28.093  32.613  1.00  0.00     0.031 C 
ATOM     39  C   UNL A   1      40.308  27.955  27.817  1.00  0.00     0.029 A 
ATOM     40  N   UNL A   1      41.938  27.244  29.108  1.00  0.00    -0.354 N 
ATOM     41  C   UNL A   1      42.120  28.332  33.305  1.00  0.00     0.074 A 
ATOM     42  C   UNL A   1      40.758  28.048  33.677  1.00  0.00     0.031 C 
ATOM     43  C   UNL A   1      40.929  26.968  27.139  1.00  0.00     0.029 A 
ATOM     44  C   UNL A   1      41.988  26.442  27.970  1.00  0.00     0.049 A 
ATOM     45  H   UNL A   1      42.624  27.216  29.813  1.00  0.00     0.167 HD
ATOM     46  C   UNL A   1      43.273  28.071  33.975  1.00  0.00     0.037 A 
ATOM     47  C   UNL A   1      42.802  25.387  27.729  1.00  0.00     0.037 A 
ATOM     48  C   UNL A   1      44.417  28.686  33.366  1.00  0.00     0.049 A 
ATOM     49  C   UNL A   1      43.968  25.516  28.631  1.00  0.00     0.074 A 
ATOM     50  C   UNL A   1      44.792  29.994  33.126  1.00  0.00     0.029 A 
ATOM     51  N   UNL A   1      45.249  27.923  32.589  1.00  0.00    -0.354 N 
ATOM     52  N   UNL A   1      44.875  26.444  28.516  1.00  0.00    -0.248 NA
ATOM     53  C   UNL A   1      43.892  24.864  29.927  1.00  0.00     0.031 C 
ATOM     54  C   UNL A   1      45.476  29.965  31.874  1.00  0.00     0.029 A 
ATOM     55  C   UNL A   1      45.500  28.639  31.445  1.00  0.00     0.049 A 
ATOM     56  H   UNL A   1      45.599  27.029  32.810  1.00  0.00     0.167 HD
ATOM     57  C   UNL A   1      45.183  26.790  29.822  1.00  0.00     0.074 A 
ATOM     58  C   UNL A   1      44.623  25.720  30.642  1.00  0.00     0.031 C 
ATOM     59  C   UNL A   1      45.617  28.045  30.133  1.00  0.00     0.037 A 
BRANCH  46  60
ATOM     60  C   UNL A   1      43.358  27.040  35.059  1.00  0.00     0.064 A 
ATOM     61  C   UNL A   1      43.580  27.417  36.393  1.00  0.00     0.173 A 
ATOM     62  C   UNL A   1      43.443  25.656  34.787  1.00  0.00     0.173 A 
ATOM     63  F   UNL A   1      43.585  28.713  36.741  1.00  0.00    -0.203 F 
ATOM     64  C   UNL A   1      43.864  26.473  37.383  1.00  0.00     0.198 A 
ATOM     65  C   UNL A   1      43.667  24.712  35.785  1.00  0.00     0.198 A 
ATOM     66  F   UNL A   1      43.406  25.184  33.532  1.00  0.00    -0.203 F 
ATOM     67  F   UNL A   1      44.153  26.879  38.626  1.00  0.00    -0.200 F 
ATOM     68  C   UNL A   1      43.894  25.121  37.081  1.00  0.00     0.200 A 
ATOM     69  F   UNL A   1      43.717  23.411  35.465  1.00  0.00    -0.200 F 
ATOM     70  F   UNL A   1      44.190  24.219  38.025  1.00  0.00    -0.200 F 
ENDBRANCH  46  60
BRANCH  47  71
ATOM     71  C   UNL A   1      42.494  24.136  26.992  1.00  0.00     0.064 A 
ATOM     72  C   UNL A   1      43.374  23.626  26.025  1.00  0.00     0.173 A 
ATOM     73  C   UNL A   1      41.467  23.269  27.418  1.00  0.00     0.173 A 
ATOM     74  F   UNL A   1      44.403  24.370  25.591  1.00  0.00    -0.203 F 
ATOM     75  C   UNL A   1      43.259  22.317  25.542  1.00  0.00     0.198 A 
ATOM     76  C   UNL A   1      41.346  21.967  26.929  1.00  0.00     0.198 A 
ATOM     77  F   UNL A   1      40.617  23.632  28.390  1.00  0.00    -0.203 F 
ATOM     78  F   UNL A   1      44.161  21.842  24.672  1.00  0.00    -0.200 F 
ATOM     79  C   UNL A   1      42.252  21.485  26.004  1.00  0.00     0.200 A 
ATOM     80  F   UNL A   1      40.386  21.163  27.409  1.00  0.00    -0.200 F 
ATOM     81  F   UNL A   1      42.181  20.211  25.595  1.00  0.00    -0.200 F 
ENDBRANCH  47  71
BRANCH  59  82
ATOM     82  C   UNL A   1      45.989  28.958  28.996  1.00  0.00     0.064 A 
ATOM     83  C   UNL A   1      45.063  29.745  28.287  1.00  0.00     0.173 A 
ATOM     84  C   UNL A   1      47.346  29.149  28.703  1.00  0.00     0.173 A 
ATOM     85  F   UNL A   1      43.757  29.705  28.579  1.00  0.00    -0.203 F 
ATOM     86  C   UNL A   1      45.475  30.641  27.301  1.00  0.00     0.198 A 
ATOM     87  C   UNL A   1      47.758  30.071  27.742  1.00  0.00     0.198 A 
ATOM     88  F   UNL A   1      48.282  28.472  29.386  1.00  0.00    -0.203 F 
ATOM     89  F   UNL A   1      44.568  31.373  26.637  1.00  0.00    -0.200 F 
ATOM     90  C   UNL A   1      46.823  30.808  27.033  1.00  0.00     0.200 A 
ATOM     91  F   UNL A   1      49.066  30.268  27.525  1.00  0.00    -0.200 F 
ATOM     92  F   UNL A   1      47.222  31.702  26.118  1.00  0.00    -0.200 F 
ENDBRANCH  59  82
ENDBRANCH  33  34
ENDBRANCH  26  28
ENDBRANCH  25  26
ENDBRANCH  24  25
ENDBRANCH  23  24
ENDBRANCH  22  23
ENDBRANCH   1  22
TORSDOF 17
ENDMDL
