MODEL 1
REMARK VINA RESULT:     -12.3      0.000      0.000
REMARK SMILES CCc1sc(NC(=O)[C@H]2CC(C)=C(C)C[C@H]2C(=O)OCCOCCOC(=O)c2ccc(-c3c4nc(c(-c5c(F)c(F)c(F)c(F)c5F)c5ccc([nH]5)c(-c5c(F)c(F)c(F)c(F)c5F)c5nc(c(-c6c(F)c(F)c(F)c(F)c6F)c6ccc3[nH]6)C=C5)C=C4)cc2)nc1-c1ccccc1
REMARK SMILES IDX 21 1 20 2 19 3 17 4 18 5 16 6 9 7 10 8 11 9 15 10 12 11
REMARK SMILES IDX 13 12 14 13 7 14 6 15 8 17 5 18 3 19 4 20 92 21 91 22 2 23
REMARK SMILES IDX 1 24 93 25 94 26 98 27 95 28 97 29 96 30 22 31 23 32 24 33
REMARK SMILES IDX 25 34 26 35 27 36 28 37 29 38 90 39 30 40 89 41 31 42 32 43
REMARK SMILES IDX 33 44 83 45 34 46 88 47 82 48 84 49 35 50 87 51 81 52 80 53
REMARK SMILES IDX 36 55 68 56 48 57 67 58 49 59 52 60 66 61 85 62 50 63 51 64
REMARK SMILES IDX 65 66 86 67 53 68 37 69 38 70 46 71 39 72 40 73 44 74 47 75
REMARK SMILES IDX 41 76 42 77 45 78 43 79 69 80 70 81 78 82 71 83 72 84 76 85
REMARK SMILES IDX 79 86 73 87 74 88 77 89 75 90 54 91 55 92 63 93 56 94 57 95
REMARK SMILES IDX 61 96 64 97 58 98 59 99 62 100 60 101
REMARK H PARENT 6 16 84 54 52 65
REMARK Flexibility Score: inf
ROOT
ATOM      1  C   UNL A   1      34.145  31.958  27.812  1.00  0.00     0.202 C 
ENDROOT
BRANCH   1   2
ATOM      2  C   UNL A   1      33.370  30.641  27.608  1.00  0.00     0.261 C 
BRANCH   2   3
ATOM      3  O   UNL A   1      33.338  30.204  26.226  1.00  0.00    -0.463 OA
BRANCH   3   4
ATOM      4  C   UNL A   1      33.362  28.884  25.935  1.00  0.00     0.310 C 
ATOM      5  O   UNL A   1      34.090  28.068  26.485  1.00  0.00    -0.252 OA
BRANCH   4   6
ATOM      6  C   UNL A   1      32.424  28.517  24.779  1.00  0.00     0.116 C 
ATOM      7  C   UNL A   1      31.770  27.125  24.815  1.00  0.00     0.097 C 
ATOM      8  C   UNL A   1      30.490  26.930  23.993  1.00  0.00     0.045 C 
ATOM      9  C   UNL A   1      29.670  28.155  23.686  1.00  0.00    -0.074 C 
ATOM     10  C   UNL A   1      31.511  29.702  24.429  1.00  0.00     0.046 C 
ATOM     11  C   UNL A   1      28.268  27.836  23.211  1.00  0.00     0.039 C 
ATOM     12  C   UNL A   1      30.139  29.405  23.871  1.00  0.00    -0.073 C 
ATOM     13  C   UNL A   1      29.335  30.637  23.537  1.00  0.00     0.039 C 
BRANCH   7  14
ATOM     14  C   UNL A   1      31.715  26.360  26.135  1.00  0.00     0.230 C 
ATOM     15  N   UNL A   1      32.404  25.225  26.408  1.00  0.00    -0.302 N 
ATOM     16  H   UNL A   1      32.493  24.973  27.356  1.00  0.00     0.172 HD
ATOM     17  O   UNL A   1      31.000  26.806  27.044  1.00  0.00    -0.274 OA
BRANCH  15  18
ATOM     18  C   UNL A   1      32.982  24.404  25.494  1.00  0.00     0.190 A 
ATOM     19  C   UNL A   1      34.588  23.268  24.095  1.00  0.00     0.034 A 
ATOM     20  S   UNL A   1      34.574  24.725  25.029  1.00  0.00    -0.101 S 
ATOM     21  C   UNL A   1      33.450  22.539  24.421  1.00  0.00     0.087 A 
ATOM     22  N   UNL A   1      32.586  23.181  25.280  1.00  0.00    -0.220 NA
BRANCH  19  23
ATOM     23  C   UNL A   1      35.823  22.969  23.305  1.00  0.00     0.046 C 
ATOM     24  C   UNL A   1      36.930  22.303  24.098  1.00  0.00     0.010 C 
ENDBRANCH  19  23
BRANCH  21  25
ATOM     25  C   UNL A   1      33.310  21.100  24.297  1.00  0.00     0.001 A 
ATOM     26  C   UNL A   1      32.415  20.684  23.329  1.00  0.00     0.010 A 
ATOM     27  C   UNL A   1      34.102  20.137  24.912  1.00  0.00     0.010 A 
ATOM     28  C   UNL A   1      32.227  19.340  23.018  1.00  0.00     0.001 A 
ATOM     29  C   UNL A   1      33.942  18.779  24.574  1.00  0.00     0.001 A 
ATOM     30  C   UNL A   1      32.994  18.379  23.636  1.00  0.00     0.000 A 
ENDBRANCH  21  25
ENDBRANCH  15  18
ENDBRANCH   7  14
ENDBRANCH   4   6
ENDBRANCH   3   4
ENDBRANCH   2   3
ENDBRANCH   1   2
BRANCH   1  31
ATOM     31  O   UNL A   1      33.308  33.110  27.938  1.00  0.00    -0.374 OA
BRANCH  31  32
ATOM     32  C   UNL A   1      33.831  34.125  28.789  1.00  0.00     0.202 C 
BRANCH  32  33
ATOM     33  C   UNL A   1      32.801  35.186  29.215  1.00  0.00     0.261 C 
BRANCH  33  34
ATOM     34  O   UNL A   1      33.311  36.144  30.186  1.00  0.00    -0.460 OA
BRANCH  34  35
ATOM     35  C   UNL A   1      32.947  35.897  31.476  1.00  0.00     0.338 C 
ATOM     36  O   UNL A   1      31.902  36.245  31.999  1.00  0.00    -0.246 OA
BRANCH  35  37
ATOM     37  C   UNL A   1      33.949  35.090  32.240  1.00  0.00     0.060 A 
ATOM     38  C   UNL A   1      35.234  35.634  32.352  1.00  0.00     0.016 A 
ATOM     39  C   UNL A   1      33.726  33.801  32.745  1.00  0.00     0.016 A 
ATOM     40  C   UNL A   1      36.271  34.912  32.964  1.00  0.00     0.010 A 
ATOM     41  C   UNL A   1      34.774  33.077  33.378  1.00  0.00     0.010 A 
ATOM     42  C   UNL A   1      36.057  33.631  33.516  1.00  0.00    -0.014 A 
BRANCH  42  43
ATOM     43  C   UNL A   1      37.257  32.884  34.041  1.00  0.00     0.031 A 
ATOM     44  C   UNL A   1      37.965  32.001  33.066  1.00  0.00     0.074 A 
ATOM     45  C   UNL A   1      37.796  33.017  35.277  1.00  0.00     0.049 A 
ATOM     46  N   UNL A   1      39.062  31.310  33.220  1.00  0.00    -0.248 NA
ATOM     47  C   UNL A   1      37.288  31.802  31.778  1.00  0.00     0.031 C 
ATOM     48  C   UNL A   1      37.156  33.654  36.409  1.00  0.00     0.029 A 
ATOM     49  N   UNL A   1      39.044  32.702  35.782  1.00  0.00    -0.354 N 
ATOM     50  C   UNL A   1      39.174  30.544  32.074  1.00  0.00     0.074 A 
ATOM     51  C   UNL A   1      38.033  30.853  31.240  1.00  0.00     0.031 C 
ATOM     52  C   UNL A   1      38.062  33.946  37.352  1.00  0.00     0.029 A 
ATOM     53  C   UNL A   1      39.313  33.288  37.010  1.00  0.00     0.049 A 
ATOM     54  H   UNL A   1      39.682  32.116  35.315  1.00  0.00     0.167 HD
ATOM     55  C   UNL A   1      40.131  29.638  31.765  1.00  0.00     0.037 A 
ATOM     56  C   UNL A   1      40.405  33.251  37.808  1.00  0.00     0.037 A 
ATOM     57  C   UNL A   1      41.231  29.312  32.632  1.00  0.00     0.049 A 
ATOM     58  C   UNL A   1      41.484  32.273  37.432  1.00  0.00     0.074 A 
ATOM     59  C   UNL A   1      42.251  28.401  32.428  1.00  0.00     0.029 A 
ATOM     60  N   UNL A   1      41.449  29.882  33.883  1.00  0.00    -0.354 N 
ATOM     61  N   UNL A   1      41.565  31.524  36.360  1.00  0.00    -0.248 NA
ATOM     62  C   UNL A   1      42.558  32.049  38.408  1.00  0.00     0.031 C 
ATOM     63  C   UNL A   1      43.063  28.394  33.569  1.00  0.00     0.029 A 
ATOM     64  C   UNL A   1      42.592  29.347  34.459  1.00  0.00     0.049 A 
ATOM     65  H   UNL A   1      40.875  30.566  34.299  1.00  0.00     0.167 HD
ATOM     66  C   UNL A   1      42.676  30.718  36.539  1.00  0.00     0.074 A 
ATOM     67  C   UNL A   1      43.264  31.098  37.811  1.00  0.00     0.031 C 
ATOM     68  C   UNL A   1      43.152  29.740  35.730  1.00  0.00     0.037 A 
BRANCH  55  69
ATOM     69  C   UNL A   1      39.940  28.908  30.468  1.00  0.00     0.064 A 
ATOM     70  C   UNL A   1      39.343  27.636  30.418  1.00  0.00     0.173 A 
ATOM     71  C   UNL A   1      40.472  29.428  29.278  1.00  0.00     0.173 A 
ATOM     72  F   UNL A   1      38.854  27.078  31.536  1.00  0.00    -0.203 F 
ATOM     73  C   UNL A   1      39.354  26.885  29.247  1.00  0.00     0.198 A 
ATOM     74  C   UNL A   1      40.439  28.691  28.098  1.00  0.00     0.198 A 
ATOM     75  F   UNL A   1      41.062  30.633  29.270  1.00  0.00    -0.203 F 
ATOM     76  F   UNL A   1      38.886  25.629  29.255  1.00  0.00    -0.200 F 
ATOM     77  C   UNL A   1      39.899  27.413  28.087  1.00  0.00     0.200 A 
ATOM     78  F   UNL A   1      40.964  29.204  26.976  1.00  0.00    -0.200 F 
ATOM     79  F   UNL A   1      39.932  26.679  26.966  1.00  0.00    -0.200 F 
ENDBRANCH  55  69
BRANCH  56  80
ATOM     80  C   UNL A   1      40.487  34.045  39.079  1.00  0.00     0.064 A 
ATOM     81  C   UNL A   1      41.093  35.314  39.120  1.00  0.00     0.173 A 
ATOM     82  C   UNL A   1      39.946  33.569  40.285  1.00  0.00     0.173 A 
ATOM     83  F   UNL A   1      41.692  35.807  38.026  1.00  0.00    -0.203 F 
ATOM     84  C   UNL A   1      41.115  36.077  40.293  1.00  0.00     0.198 A 
ATOM     85  C   UNL A   1      39.924  34.351  41.441  1.00  0.00     0.198 A 
ATOM     86  F   UNL A   1      39.403  32.344  40.339  1.00  0.00    -0.203 F 
ATOM     87  F   UNL A   1      41.726  37.271  40.307  1.00  0.00    -0.200 F 
ATOM     88  C   UNL A   1      40.507  35.606  41.445  1.00  0.00     0.200 A 
ATOM     89  F   UNL A   1      39.323  33.887  42.545  1.00  0.00    -0.200 F 
ATOM     90  F   UNL A   1      40.489  36.353  42.558  1.00  0.00    -0.200 F 
ENDBRANCH  56  80
BRANCH  68  91
ATOM     91  C   UNL A   1      44.415  29.067  36.174  1.00  0.00     0.064 A 
ATOM     92  C   UNL A   1      45.682  29.613  35.923  1.00  0.00     0.173 A 
ATOM     93  C   UNL A   1      44.343  27.848  36.865  1.00  0.00     0.173 A 
ATOM     94  F   UNL A   1      45.801  30.765  35.246  1.00  0.00    -0.203 F 
ATOM     95  C   UNL A   1      46.836  28.942  36.323  1.00  0.00     0.198 A 
ATOM     96  C   UNL A   1      45.496  27.198  37.289  1.00  0.00     0.198 A 
ATOM     97  F   UNL A   1      43.152  27.290  37.127  1.00  0.00    -0.203 F 
ATOM     98  F   UNL A   1      48.040  29.448  36.023  1.00  0.00    -0.200 F 
ATOM     99  C   UNL A   1      46.742  27.740  37.009  1.00  0.00     0.200 A 
ATOM    100  F   UNL A   1      45.401  26.041  37.957  1.00  0.00    -0.200 F 
ATOM    101  F   UNL A   1      47.853  27.094  37.388  1.00  0.00    -0.200 F 
ENDBRANCH  68  91
ENDBRANCH  42  43
ENDBRANCH  35  37
ENDBRANCH  34  35
ENDBRANCH  33  34
ENDBRANCH  32  33
ENDBRANCH  31  32
ENDBRANCH   1  31
TORSDOF 18
ENDMDL
MODEL 2
REMARK VINA RESULT:     -12.1      6.956     12.573
REMARK SMILES CCc1sc(NC(=O)[C@H]2CC(C)=C(C)C[C@H]2C(=O)OCCOCCOC(=O)c2ccc(-c3c4nc(c(-c5c(F)c(F)c(F)c(F)c5F)c5ccc([nH]5)c(-c5c(F)c(F)c(F)c(F)c5F)c5nc(c(-c6c(F)c(F)c(F)c(F)c6F)c6ccc3[nH]6)C=C5)C=C4)cc2)nc1-c1ccccc1
REMARK SMILES IDX 21 1 20 2 19 3 17 4 18 5 16 6 9 7 10 8 11 9 15 10 12 11
REMARK SMILES IDX 13 12 14 13 7 14 6 15 8 17 5 18 3 19 4 20 92 21 91 22 2 23
REMARK SMILES IDX 1 24 93 25 94 26 98 27 95 28 97 29 96 30 22 31 23 32 24 33
REMARK SMILES IDX 25 34 26 35 27 36 28 37 29 38 90 39 30 40 89 41 31 42 32 43
REMARK SMILES IDX 33 44 83 45 34 46 88 47 82 48 84 49 35 50 87 51 81 52 80 53
REMARK SMILES IDX 36 55 68 56 48 57 67 58 49 59 52 60 66 61 85 62 50 63 51 64
REMARK SMILES IDX 65 66 86 67 53 68 37 69 38 70 46 71 39 72 40 73 44 74 47 75
REMARK SMILES IDX 41 76 42 77 45 78 43 79 69 80 70 81 78 82 71 83 72 84 76 85
REMARK SMILES IDX 79 86 73 87 74 88 77 89 75 90 54 91 55 92 63 93 56 94 57 95
REMARK SMILES IDX 61 96 64 97 58 98 59 99 62 100 60 101
REMARK H PARENT 6 16 84 54 52 65
REMARK Flexibility Score: inf
ROOT
ATOM      1  C   UNL A   1      39.664  21.102  26.127  1.00  0.00     0.202 C 
ENDROOT
BRANCH   1   2
ATOM      2  C   UNL A   1      38.654  22.266  26.096  1.00  0.00     0.261 C 
BRANCH   2   3
ATOM      3  O   UNL A   1      37.322  21.858  25.691  1.00  0.00    -0.463 OA
BRANCH   3   4
ATOM      4  C   UNL A   1      36.299  22.739  25.752  1.00  0.00     0.310 C 
ATOM      5  O   UNL A   1      36.427  23.930  26.004  1.00  0.00    -0.252 OA
BRANCH   4   6
ATOM      6  C   UNL A   1      34.934  22.073  25.543  1.00  0.00     0.116 C 
ATOM      7  C   UNL A   1      33.975  22.731  24.536  1.00  0.00     0.097 C 
ATOM      8  C   UNL A   1      32.866  21.850  23.946  1.00  0.00     0.045 C 
ATOM      9  C   UNL A   1      33.101  20.363  23.923  1.00  0.00    -0.074 C 
ATOM     10  C   UNL A   1      35.086  20.547  25.459  1.00  0.00     0.046 C 
ATOM     11  C   UNL A   1      32.153  19.619  23.006  1.00  0.00     0.039 C 
ATOM     12  C   UNL A   1      34.095  19.777  24.619  1.00  0.00    -0.073 C 
ATOM     13  C   UNL A   1      34.317  18.284  24.626  1.00  0.00     0.039 C 
BRANCH   7  14
ATOM     14  C   UNL A   1      34.530  23.707  23.503  1.00  0.00     0.230 C 
ATOM     15  N   UNL A   1      34.192  25.016  23.405  1.00  0.00    -0.302 N 
ATOM     16  H   UNL A   1      34.795  25.596  22.884  1.00  0.00     0.172 HD
ATOM     17  O   UNL A   1      35.370  23.289  22.691  1.00  0.00    -0.274 OA
BRANCH  15  18
ATOM     18  C   UNL A   1      33.099  25.600  23.958  1.00  0.00     0.190 A 
ATOM     19  C   UNL A   1      31.626  26.822  25.429  1.00  0.00     0.034 A 
ATOM     20  S   UNL A   1      33.196  26.107  25.567  1.00  0.00    -0.101 S 
ATOM     21  C   UNL A   1      31.271  26.820  24.084  1.00  0.00     0.087 A 
ATOM     22  N   UNL A   1      32.167  26.181  23.257  1.00  0.00    -0.220 NA
BRANCH  19  23
ATOM     23  C   UNL A   1      31.046  27.451  26.656  1.00  0.00     0.046 C 
ATOM     24  C   UNL A   1      31.805  28.663  27.159  1.00  0.00     0.010 C 
ENDBRANCH  19  23
BRANCH  21  25
ATOM     25  C   UNL A   1      30.336  27.739  23.461  1.00  0.00     0.001 A 
ATOM     26  C   UNL A   1      29.004  27.389  23.588  1.00  0.00     0.010 A 
ATOM     27  C   UNL A   1      30.636  28.987  22.929  1.00  0.00     0.010 A 
ATOM     28  C   UNL A   1      27.974  28.203  23.126  1.00  0.00     0.001 A 
ATOM     29  C   UNL A   1      29.594  29.832  22.496  1.00  0.00     0.001 A 
ATOM     30  C   UNL A   1      28.263  29.433  22.582  1.00  0.00     0.000 A 
ENDBRANCH  21  25
ENDBRANCH  15  18
ENDBRANCH   7  14
ENDBRANCH   4   6
ENDBRANCH   3   4
ENDBRANCH   2   3
ENDBRANCH   1   2
BRANCH   1  31
ATOM     31  O   UNL A   1      40.557  21.139  27.243  1.00  0.00    -0.374 OA
BRANCH  31  32
ATOM     32  C   UNL A   1      41.452  20.034  27.315  1.00  0.00     0.202 C 
BRANCH  32  33
ATOM     33  C   UNL A   1      42.003  19.576  25.953  1.00  0.00     0.261 C 
BRANCH  33  34
ATOM     34  O   UNL A   1      43.360  19.052  26.014  1.00  0.00    -0.460 OA
BRANCH  34  35
ATOM     35  C   UNL A   1      44.161  19.419  24.975  1.00  0.00     0.338 C 
ATOM     36  O   UNL A   1      44.517  18.694  24.061  1.00  0.00    -0.246 OA
BRANCH  35  37
ATOM     37  C   UNL A   1      44.563  20.860  25.005  1.00  0.00     0.060 A 
ATOM     38  C   UNL A   1      45.290  21.281  26.125  1.00  0.00     0.016 A 
ATOM     39  C   UNL A   1      44.174  21.823  24.064  1.00  0.00     0.016 A 
ATOM     40  C   UNL A   1      45.629  22.633  26.296  1.00  0.00     0.010 A 
ATOM     41  C   UNL A   1      44.531  23.189  24.231  1.00  0.00     0.010 A 
ATOM     42  C   UNL A   1      45.285  23.611  25.340  1.00  0.00    -0.014 A 
BRANCH  42  43
ATOM     43  C   UNL A   1      45.583  25.052  25.670  1.00  0.00     0.031 A 
ATOM     44  C   UNL A   1      44.526  25.792  26.422  1.00  0.00     0.074 A 
ATOM     45  C   UNL A   1      46.752  25.694  25.428  1.00  0.00     0.049 A 
ATOM     46  N   UNL A   1      44.548  27.005  26.902  1.00  0.00    -0.248 NA
ATOM     47  C   UNL A   1      43.240  25.096  26.564  1.00  0.00     0.031 C 
ATOM     48  C   UNL A   1      47.803  25.225  24.550  1.00  0.00     0.029 A 
ATOM     49  N   UNL A   1      47.304  26.844  25.962  1.00  0.00    -0.354 N 
ATOM     50  C   UNL A   1      43.261  27.244  27.348  1.00  0.00     0.074 A 
ATOM     51  C   UNL A   1      42.486  26.052  27.075  1.00  0.00     0.031 C 
ATOM     52  C   UNL A   1      48.947  25.876  24.805  1.00  0.00     0.029 A 
ATOM     53  C   UNL A   1      48.655  26.993  25.690  1.00  0.00     0.049 A 
ATOM     54  H   UNL A   1      46.786  27.497  26.486  1.00  0.00     0.167 HD
ATOM     55  C   UNL A   1      42.766  28.374  27.904  1.00  0.00     0.037 A 
ATOM     56  C   UNL A   1      49.548  27.946  26.044  1.00  0.00     0.037 A 
ATOM     57  C   UNL A   1      43.544  29.564  28.121  1.00  0.00     0.049 A 
ATOM     58  C   UNL A   1      48.995  29.179  26.703  1.00  0.00     0.074 A 
ATOM     59  C   UNL A   1      43.143  30.770  28.665  1.00  0.00     0.029 A 
ATOM     60  N   UNL A   1      44.889  29.702  27.791  1.00  0.00    -0.354 N 
ATOM     61  N   UNL A   1      47.764  29.412  27.090  1.00  0.00    -0.248 NA
ATOM     62  C   UNL A   1      49.908  30.316  26.876  1.00  0.00     0.031 C 
ATOM     63  C   UNL A   1      44.234  31.647  28.630  1.00  0.00     0.029 A 
ATOM     64  C   UNL A   1      45.336  30.971  28.128  1.00  0.00     0.049 A 
ATOM     65  H   UNL A   1      45.444  28.999  27.380  1.00  0.00     0.167 HD
ATOM     66  C   UNL A   1      47.741  30.726  27.526  1.00  0.00     0.074 A 
ATOM     67  C   UNL A   1      49.096  31.230  27.391  1.00  0.00     0.031 C 
ATOM     68  C   UNL A   1      46.689  31.450  27.978  1.00  0.00     0.037 A 
BRANCH  55  69
ATOM     69  C   UNL A   1      41.299  28.353  28.222  1.00  0.00     0.064 A 
ATOM     70  C   UNL A   1      40.344  28.871  27.330  1.00  0.00     0.173 A 
ATOM     71  C   UNL A   1      40.853  27.927  29.482  1.00  0.00     0.173 A 
ATOM     72  F   UNL A   1      40.724  29.329  26.127  1.00  0.00    -0.203 F 
ATOM     73  C   UNL A   1      39.017  29.032  27.716  1.00  0.00     0.198 A 
ATOM     74  C   UNL A   1      39.516  28.047  29.847  1.00  0.00     0.198 A 
ATOM     75  F   UNL A   1      41.723  27.433  30.377  1.00  0.00    -0.203 F 
ATOM     76  F   UNL A   1      38.151  29.639  26.891  1.00  0.00    -0.200 F 
ATOM     77  C   UNL A   1      38.603  28.618  28.972  1.00  0.00     0.200 A 
ATOM     78  F   UNL A   1      39.116  27.643  31.060  1.00  0.00    -0.200 F 
ATOM     79  F   UNL A   1      37.330  28.797  29.352  1.00  0.00    -0.200 F 
ENDBRANCH  55  69
BRANCH  56  80
ATOM     80  C   UNL A   1      51.001  27.845  25.683  1.00  0.00     0.064 A 
ATOM     81  C   UNL A   1      51.969  27.442  26.620  1.00  0.00     0.173 A 
ATOM     82  C   UNL A   1      51.464  28.132  24.387  1.00  0.00     0.173 A 
ATOM     83  F   UNL A   1      51.617  27.216  27.895  1.00  0.00    -0.203 F 
ATOM     84  C   UNL A   1      53.315  27.292  26.265  1.00  0.00     0.198 A 
ATOM     85  C   UNL A   1      52.796  27.935  24.021  1.00  0.00     0.198 A 
ATOM     86  F   UNL A   1      50.610  28.579  23.455  1.00  0.00    -0.203 F 
ATOM     87  F   UNL A   1      54.218  26.933  27.189  1.00  0.00    -0.200 F 
ATOM     88  C   UNL A   1      53.722  27.513  24.959  1.00  0.00     0.200 A 
ATOM     89  F   UNL A   1      53.173  28.142  22.752  1.00  0.00    -0.200 F 
ATOM     90  F   UNL A   1      55.002  27.329  24.606  1.00  0.00    -0.200 F 
ENDBRANCH  56  80
BRANCH  68  91
ATOM     91  C   UNL A   1      46.989  32.848  28.426  1.00  0.00     0.064 A 
ATOM     92  C   UNL A   1      47.418  33.140  29.729  1.00  0.00     0.173 A 
ATOM     93  C   UNL A   1      46.838  33.911  27.523  1.00  0.00     0.173 A 
ATOM     94  F   UNL A   1      47.554  32.159  30.633  1.00  0.00    -0.203 F 
ATOM     95  C   UNL A   1      47.656  34.456  30.120  1.00  0.00     0.198 A 
ATOM     96  C   UNL A   1      47.106  35.219  27.909  1.00  0.00     0.198 A 
ATOM     97  F   UNL A   1      46.430  33.677  26.267  1.00  0.00    -0.203 F 
ATOM     98  F   UNL A   1      48.008  34.723  31.385  1.00  0.00    -0.200 F 
ATOM     99  C   UNL A   1      47.505  35.492  29.209  1.00  0.00     0.200 A 
ATOM    100  F   UNL A   1      46.967  36.216  27.026  1.00  0.00    -0.200 F 
ATOM    101  F   UNL A   1      47.730  36.757  29.589  1.00  0.00    -0.200 F 
ENDBRANCH  68  91
ENDBRANCH  42  43
ENDBRANCH  35  37
ENDBRANCH  34  35
ENDBRANCH  33  34
ENDBRANCH  32  33
ENDBRANCH  31  32
ENDBRANCH   1  31
TORSDOF 18
ENDMDL
MODEL 3
REMARK VINA RESULT:     -11.8      6.976     12.216
REMARK SMILES CCc1sc(NC(=O)[C@H]2CC(C)=C(C)C[C@H]2C(=O)OCCOCCOC(=O)c2ccc(-c3c4nc(c(-c5c(F)c(F)c(F)c(F)c5F)c5ccc([nH]5)c(-c5c(F)c(F)c(F)c(F)c5F)c5nc(c(-c6c(F)c(F)c(F)c(F)c6F)c6ccc3[nH]6)C=C5)C=C4)cc2)nc1-c1ccccc1
REMARK SMILES IDX 21 1 20 2 19 3 17 4 18 5 16 6 9 7 10 8 11 9 15 10 12 11
REMARK SMILES IDX 13 12 14 13 7 14 6 15 8 17 5 18 3 19 4 20 92 21 91 22 2 23
REMARK SMILES IDX 1 24 93 25 94 26 98 27 95 28 97 29 96 30 22 31 23 32 24 33
REMARK SMILES IDX 25 34 26 35 27 36 28 37 29 38 90 39 30 40 89 41 31 42 32 43
REMARK SMILES IDX 33 44 83 45 34 46 88 47 82 48 84 49 35 50 87 51 81 52 80 53
REMARK SMILES IDX 36 55 68 56 48 57 67 58 49 59 52 60 66 61 85 62 50 63 51 64
REMARK SMILES IDX 65 66 86 67 53 68 37 69 38 70 46 71 39 72 40 73 44 74 47 75
REMARK SMILES IDX 41 76 42 77 45 78 43 79 69 80 70 81 78 82 71 83 72 84 76 85
REMARK SMILES IDX 79 86 73 87 74 88 77 89 75 90 54 91 55 92 63 93 56 94 57 95
REMARK SMILES IDX 61 96 64 97 58 98 59 99 62 100 60 101
REMARK H PARENT 6 16 84 54 52 65
REMARK Flexibility Score: inf
ROOT
ATOM      1  C   UNL A   1      48.575  27.440  23.435  1.00  0.00     0.202 C 
ENDROOT
BRANCH   1   2
ATOM      2  C   UNL A   1      47.464  28.070  24.298  1.00  0.00     0.261 C 
BRANCH   2   3
ATOM      3  O   UNL A   1      46.193  27.381  24.188  1.00  0.00    -0.463 OA
BRANCH   3   4
ATOM      4  C   UNL A   1      45.928  26.324  24.989  1.00  0.00     0.310 C 
ATOM      5  O   UNL A   1      46.017  25.154  24.642  1.00  0.00    -0.252 OA
BRANCH   4   6
ATOM      6  C   UNL A   1      45.425  26.747  26.375  1.00  0.00     0.116 C 
ATOM      7  C   UNL A   1      44.004  27.331  26.462  1.00  0.00     0.097 C 
ATOM      8  C   UNL A   1      43.309  27.284  27.828  1.00  0.00     0.045 C 
ATOM      9  C   UNL A   1      43.767  26.231  28.803  1.00  0.00    -0.074 C 
ATOM     10  C   UNL A   1      45.808  25.698  27.430  1.00  0.00     0.046 C 
ATOM     11  C   UNL A   1      42.802  26.013  29.949  1.00  0.00     0.039 C 
ATOM     12  C   UNL A   1      44.903  25.527  28.627  1.00  0.00    -0.073 C 
ATOM     13  C   UNL A   1      45.384  24.493  29.614  1.00  0.00     0.039 C 
BRANCH   7  14
ATOM     14  C   UNL A   1      43.022  27.080  25.321  1.00  0.00     0.230 C 
ATOM     15  N   UNL A   1      42.285  25.954  25.159  1.00  0.00    -0.302 N 
ATOM     16  H   UNL A   1      41.511  26.009  24.553  1.00  0.00     0.172 HD
ATOM     17  O   UNL A   1      42.862  27.973  24.475  1.00  0.00    -0.274 OA
BRANCH  15  18
ATOM     18  C   UNL A   1      42.517  24.757  25.756  1.00  0.00     0.190 A 
ATOM     19  C   UNL A   1      42.235  22.656  26.911  1.00  0.00     0.034 A 
ATOM     20  S   UNL A   1      41.293  24.093  26.712  1.00  0.00    -0.101 S 
ATOM     21  C   UNL A   1      43.303  22.718  26.021  1.00  0.00     0.087 A 
ATOM     22  N   UNL A   1      43.397  23.900  25.321  1.00  0.00    -0.220 NA
BRANCH  19  23
ATOM     23  C   UNL A   1      41.679  21.584  27.794  1.00  0.00     0.046 C 
ATOM     24  C   UNL A   1      40.528  20.806  27.187  1.00  0.00     0.010 C 
ENDBRANCH  19  23
BRANCH  21  25
ATOM     25  C   UNL A   1      44.015  21.573  25.484  1.00  0.00     0.001 A 
ATOM     26  C   UNL A   1      45.354  21.794  25.218  1.00  0.00     0.010 A 
ATOM     27  C   UNL A   1      43.537  20.272  25.391  1.00  0.00     0.010 A 
ATOM     28  C   UNL A   1      46.203  20.780  24.783  1.00  0.00     0.001 A 
ATOM     29  C   UNL A   1      44.402  19.235  24.989  1.00  0.00     0.001 A 
ATOM     30  C   UNL A   1      45.733  19.492  24.671  1.00  0.00     0.000 A 
ENDBRANCH  21  25
ENDBRANCH  15  18
ENDBRANCH   7  14
ENDBRANCH   4   6
ENDBRANCH   3   4
ENDBRANCH   2   3
ENDBRANCH   1   2
BRANCH   1  31
ATOM     31  O   UNL A   1      49.691  26.959  24.187  1.00  0.00    -0.374 OA
BRANCH  31  32
ATOM     32  C   UNL A   1      50.959  27.266  23.616  1.00  0.00     0.202 C 
BRANCH  32  33
ATOM     33  C   UNL A   1      52.157  26.688  24.390  1.00  0.00     0.261 C 
BRANCH  33  34
ATOM     34  O   UNL A   1      51.863  25.440  25.081  1.00  0.00    -0.460 OA
BRANCH  34  35
ATOM     35  C   UNL A   1      52.333  25.370  26.358  1.00  0.00     0.338 C 
ATOM     36  O   UNL A   1      53.443  24.988  26.688  1.00  0.00    -0.246 OA
BRANCH  35  37
ATOM     37  C   UNL A   1      51.360  25.861  27.384  1.00  0.00     0.060 A 
ATOM     38  C   UNL A   1      50.108  25.236  27.406  1.00  0.00     0.016 A 
ATOM     39  C   UNL A   1      51.572  26.956  28.233  1.00  0.00     0.016 A 
ATOM     40  C   UNL A   1      49.093  25.689  28.263  1.00  0.00     0.010 A 
ATOM     41  C   UNL A   1      50.548  27.404  29.112  1.00  0.00     0.010 A 
ATOM     42  C   UNL A   1      49.299  26.762  29.156  1.00  0.00    -0.014 A 
BRANCH  42  43
ATOM     43  C   UNL A   1      48.114  27.254  29.947  1.00  0.00     0.031 A 
ATOM     44  C   UNL A   1      47.310  28.348  29.324  1.00  0.00     0.074 A 
ATOM     45  C   UNL A   1      47.668  26.731  31.114  1.00  0.00     0.049 A 
ATOM     46  N   UNL A   1      46.204  28.902  29.740  1.00  0.00    -0.248 NA
ATOM     47  C   UNL A   1      47.889  28.957  28.119  1.00  0.00     0.031 C 
ATOM     48  C   UNL A   1      48.406  25.821  31.965  1.00  0.00     0.029 A 
ATOM     49  N   UNL A   1      46.447  26.814  31.761  1.00  0.00    -0.354 N 
ATOM     50  C   UNL A   1      45.987  29.968  28.885  1.00  0.00     0.074 A 
ATOM     51  C   UNL A   1      47.077  29.982  27.934  1.00  0.00     0.031 C 
ATOM     52  C   UNL A   1      47.578  25.214  32.826  1.00  0.00     0.029 A 
ATOM     53  C   UNL A   1      46.284  25.876  32.769  1.00  0.00     0.049 A 
ATOM     54  H   UNL A   1      45.759  27.478  31.527  1.00  0.00     0.167 HD
ATOM     55  C   UNL A   1      44.980  30.872  28.917  1.00  0.00     0.037 A 
ATOM     56  C   UNL A   1      45.250  25.616  33.602  1.00  0.00     0.037 A 
ATOM     57  C   UNL A   1      43.932  30.867  29.903  1.00  0.00     0.049 A 
ATOM     58  C   UNL A   1      44.116  26.603  33.598  1.00  0.00     0.074 A 
ATOM     59  C   UNL A   1      42.871  31.742  30.039  1.00  0.00     0.029 A 
ATOM     60  N   UNL A   1      43.822  29.940  30.935  1.00  0.00    -0.354 N 
ATOM     61  N   UNL A   1      43.934  27.632  32.807  1.00  0.00    -0.248 NA
ATOM     62  C   UNL A   1      43.105  26.469  34.655  1.00  0.00     0.031 C 
ATOM     63  C   UNL A   1      42.140  31.366  31.173  1.00  0.00     0.029 A 
ATOM     64  C   UNL A   1      42.705  30.217  31.708  1.00  0.00     0.049 A 
ATOM     65  H   UNL A   1      44.446  29.194  31.093  1.00  0.00     0.167 HD
ATOM     66  C   UNL A   1      42.811  28.288  33.281  1.00  0.00     0.074 A 
ATOM     67  C   UNL A   1      42.328  27.515  34.411  1.00  0.00     0.031 C 
ATOM     68  C   UNL A   1      42.248  29.435  32.832  1.00  0.00     0.037 A 
BRANCH  55  69
ATOM     69  C   UNL A   1      45.055  31.965  27.890  1.00  0.00     0.064 A 
ATOM     70  C   UNL A   1      45.796  33.138  28.115  1.00  0.00     0.173 A 
ATOM     71  C   UNL A   1      44.279  31.894  26.724  1.00  0.00     0.173 A 
ATOM     72  F   UNL A   1      46.524  33.271  29.234  1.00  0.00    -0.203 F 
ATOM     73  C   UNL A   1      45.696  34.224  27.250  1.00  0.00     0.198 A 
ATOM     74  C   UNL A   1      44.218  32.966  25.839  1.00  0.00     0.198 A 
ATOM     75  F   UNL A   1      43.544  30.802  26.464  1.00  0.00    -0.203 F 
ATOM     76  F   UNL A   1      46.318  35.374  27.549  1.00  0.00    -0.200 F 
ATOM     77  C   UNL A   1      44.910  34.137  26.112  1.00  0.00     0.200 A 
ATOM     78  F   UNL A   1      43.460  32.880  24.737  1.00  0.00    -0.200 F 
ATOM     79  F   UNL A   1      44.794  35.192  25.294  1.00  0.00    -0.200 F 
ENDBRANCH  55  69
BRANCH  56  80
ATOM     80  C   UNL A   1      45.285  24.477  34.578  1.00  0.00     0.064 A 
ATOM     81  C   UNL A   1      44.884  23.179  34.213  1.00  0.00     0.173 A 
ATOM     82  C   UNL A   1      45.735  24.647  35.898  1.00  0.00     0.173 A 
ATOM     83  F   UNL A   1      44.378  22.951  32.991  1.00  0.00    -0.203 F 
ATOM     84  C   UNL A   1      44.973  22.106  35.108  1.00  0.00     0.198 A 
ATOM     85  C   UNL A   1      45.870  23.568  36.774  1.00  0.00     0.198 A 
ATOM     86  F   UNL A   1      46.078  25.866  36.337  1.00  0.00    -0.203 F 
ATOM     87  F   UNL A   1      44.556  20.886  34.738  1.00  0.00    -0.200 F 
ATOM     88  C   UNL A   1      45.490  22.297  36.378  1.00  0.00     0.200 A 
ATOM     89  F   UNL A   1      46.383  23.766  37.996  1.00  0.00    -0.200 F 
ATOM     90  F   UNL A   1      45.617  21.264  37.223  1.00  0.00    -0.200 F 
ENDBRANCH  56  80
BRANCH  68  91
ATOM     91  C   UNL A   1      40.997  29.877  33.528  1.00  0.00     0.064 A 
ATOM     92  C   UNL A   1      39.720  29.525  33.068  1.00  0.00     0.173 A 
ATOM     93  C   UNL A   1      41.091  30.672  34.680  1.00  0.00     0.173 A 
ATOM     94  F   UNL A   1      39.580  28.785  31.958  1.00  0.00    -0.203 F 
ATOM     95  C   UNL A   1      38.578  29.981  33.723  1.00  0.00     0.198 A 
ATOM     96  C   UNL A   1      39.949  31.101  35.348  1.00  0.00     0.198 A 
ATOM     97  F   UNL A   1      42.292  31.033  35.155  1.00  0.00    -0.203 F 
ATOM     98  F   UNL A   1      37.366  29.685  33.236  1.00  0.00    -0.200 F 
ATOM     99  C   UNL A   1      38.694  30.763  34.863  1.00  0.00     0.200 A 
ATOM    100  F   UNL A   1      40.065  31.849  36.452  1.00  0.00    -0.200 F 
ATOM    101  F   UNL A   1      37.594  31.206  35.489  1.00  0.00    -0.200 F 
ENDBRANCH  68  91
ENDBRANCH  42  43
ENDBRANCH  35  37
ENDBRANCH  34  35
ENDBRANCH  33  34
ENDBRANCH  32  33
ENDBRANCH  31  32
ENDBRANCH   1  31
TORSDOF 18
ENDMDL
