MODEL 1
REMARK VINA RESULT:     -12.6      0.000      0.000
REMARK SMILES Cc1cccc2c1N=CN1C2=[NH+]NC(=O)[C@@H]1CC(=O)OCCOCCOC(=O)c1ccc(-c2c3nc(c(-c4c(F)c(F)c(F)c(F)c4F)c4ccc([nH]4)c(-c4c(F)c(F)c(F)c(F)c4F)c4nc(c(-c5c(F)c(F)c(F)c(F)c5F)c5ccc2[nH]5)C=C4)C=C3)cc1
REMARK SMILES IDX 24 1 23 2 22 3 21 4 20 5 18 6 19 7 17 8 16 9 1 10 2 11 3 12
REMARK SMILES IDX 7 13 4 14 6 15 8 16 5 17 11 18 9 19 10 20 12 21 13 22 14 24
REMARK SMILES IDX 15 26 25 27 26 28 27 29 28 30 29 31 30 32 91 33 31 34 90 35
REMARK SMILES IDX 32 36 33 37 34 38 84 39 35 40 89 41 83 42 85 43 36 44 88 45
REMARK SMILES IDX 82 46 81 47 37 49 69 50 49 51 68 52 50 53 53 54 67 55 86 56
REMARK SMILES IDX 51 57 52 58 66 60 87 61 54 62 38 63 39 64 47 65 40 66 41 67
REMARK SMILES IDX 45 68 48 69 42 70 43 71 46 72 44 73 70 74 71 75 79 76 72 77
REMARK SMILES IDX 73 78 77 79 80 80 74 81 75 82 78 83 76 84 55 85 56 86 64 87
REMARK SMILES IDX 57 88 58 89 62 90 65 91 59 92 60 93 63 94 61 95
REMARK H PARENT 12 23 13 25 85 48 53 59
REMARK Flexibility Score: inf
ROOT
ATOM      1  C   UNL A   1      42.597  21.072  26.129  1.00  0.00     0.202 C 
ENDROOT
BRANCH   1   2
ATOM      2  O   UNL A   1      41.247  21.186  25.668  1.00  0.00    -0.374 OA
BRANCH   2   3
ATOM      3  C   UNL A   1      40.243  21.476  26.639  1.00  0.00     0.202 C 
BRANCH   3   4
ATOM      4  C   UNL A   1      38.912  22.002  26.088  1.00  0.00     0.261 C 
BRANCH   4   5
ATOM      5  O   UNL A   1      38.093  20.948  25.555  1.00  0.00    -0.463 OA
BRANCH   5   6
ATOM      6  C   UNL A   1      36.986  21.380  24.908  1.00  0.00     0.310 C 
ATOM      7  O   UNL A   1      36.974  21.869  23.784  1.00  0.00    -0.252 OA
BRANCH   6   8
ATOM      8  C   UNL A   1      35.721  21.099  25.670  1.00  0.00     0.183 C 
BRANCH   8   9
ATOM      9  C   UNL A   1      34.401  21.524  25.028  1.00  0.00     0.286 C 
ATOM     10  C   UNL A   1      33.447  27.854  26.199  1.00  0.00     0.047 C 
ATOM     11  C   UNL A   1      32.486  26.702  26.107  1.00  0.00    -0.024 A 
ATOM     12  C   UNL A   1      31.107  26.960  26.194  1.00  0.00     0.006 A 
ATOM     13  C   UNL A   1      32.937  25.393  25.861  1.00  0.00     0.085 A 
ATOM     14  C   UNL A   1      30.177  25.935  26.034  1.00  0.00     0.001 A 
ATOM     15  C   UNL A   1      31.985  24.364  25.739  1.00  0.00     0.092 A 
ATOM     16  N   UNL A   1      34.323  25.163  25.696  1.00  0.00    -0.215 NA
ATOM     17  C   UNL A   1      30.614  24.635  25.798  1.00  0.00     0.019 A 
ATOM     18  C   UNL A   1      32.488  22.972  25.532  1.00  0.00     0.309 C 
ATOM     19  C   UNL A   1      34.687  23.944  25.468  1.00  0.00     0.317 C 
ATOM     20  N   UNL A   1      33.868  22.838  25.419  1.00  0.00    -0.202 N 
ATOM     21  N   UNL A   1      31.612  22.012  25.466  1.00  0.00    -0.169 N 
ATOM     22  N   UNL A   1      32.069  20.752  25.290  1.00  0.00    -0.193 N 
ATOM     23  H   UNL A   1      30.649  22.198  25.543  1.00  0.00     0.340 HD
ATOM     24  C   UNL A   1      33.380  20.394  25.142  1.00  0.00     0.300 C 
ATOM     25  H   UNL A   1      31.400  20.030  25.267  1.00  0.00     0.216 HD
ATOM     26  O   UNL A   1      33.684  19.206  25.024  1.00  0.00    -0.267 OA
ENDBRANCH   8   9
ENDBRANCH   6   8
ENDBRANCH   5   6
ENDBRANCH   4   5
ENDBRANCH   3   4
ENDBRANCH   2   3
ENDBRANCH   1   2
BRANCH   1  27
ATOM     27  C   UNL A   1      43.623  21.995  25.458  1.00  0.00     0.261 C 
BRANCH  27  28
ATOM     28  O   UNL A   1      43.003  23.138  24.834  1.00  0.00    -0.460 OA
BRANCH  28  29
ATOM     29  C   UNL A   1      43.710  24.288  24.951  1.00  0.00     0.338 C 
ATOM     30  O   UNL A   1      44.789  24.547  24.448  1.00  0.00    -0.246 OA
BRANCH  29  31
ATOM     31  C   UNL A   1      42.992  25.257  25.799  1.00  0.00     0.060 A 
ATOM     32  C   UNL A   1      43.420  26.586  25.894  1.00  0.00     0.016 A 
ATOM     33  C   UNL A   1      42.007  24.777  26.656  1.00  0.00     0.016 A 
ATOM     34  C   UNL A   1      42.869  27.433  26.867  1.00  0.00     0.010 A 
ATOM     35  C   UNL A   1      41.454  25.628  27.615  1.00  0.00     0.010 A 
ATOM     36  C   UNL A   1      41.893  26.956  27.754  1.00  0.00    -0.014 A 
BRANCH  36  37
ATOM     37  C   UNL A   1      41.425  27.765  28.919  1.00  0.00     0.031 A 
ATOM     38  C   UNL A   1      42.150  27.643  30.237  1.00  0.00     0.074 A 
ATOM     39  C   UNL A   1      40.356  28.581  28.837  1.00  0.00     0.049 A 
ATOM     40  N   UNL A   1      41.848  28.150  31.407  1.00  0.00    -0.248 NA
ATOM     41  C   UNL A   1      43.370  26.820  30.241  1.00  0.00     0.031 C 
ATOM     42  C   UNL A   1      39.554  28.815  27.640  1.00  0.00     0.029 A 
ATOM     43  N   UNL A   1      39.754  29.360  29.800  1.00  0.00    -0.354 N 
ATOM     44  C   UNL A   1      42.824  27.689  32.282  1.00  0.00     0.074 A 
ATOM     45  C   UNL A   1      43.693  26.816  31.526  1.00  0.00     0.031 C 
ATOM     46  C   UNL A   1      38.565  29.676  27.937  1.00  0.00     0.029 A 
ATOM     47  C   UNL A   1      38.642  30.031  29.352  1.00  0.00     0.049 A 
ATOM     48  H   UNL A   1      40.089  29.427  30.723  1.00  0.00     0.167 HD
ATOM     49  C   UNL A   1      43.009  27.992  33.589  1.00  0.00     0.037 A 
ATOM     50  C   UNL A   1      37.776  30.828  30.009  1.00  0.00     0.037 A 
ATOM     51  C   UNL A   1      42.197  28.906  34.343  1.00  0.00     0.049 A 
ATOM     52  C   UNL A   1      37.978  31.124  31.472  1.00  0.00     0.074 A 
ATOM     53  C   UNL A   1      42.356  29.320  35.655  1.00  0.00     0.029 A 
ATOM     54  N   UNL A   1      41.081  29.562  33.848  1.00  0.00    -0.354 N 
ATOM     55  N   UNL A   1      38.920  30.704  32.279  1.00  0.00    -0.248 NA
ATOM     56  C   UNL A   1      36.997  32.015  32.114  1.00  0.00     0.031 C 
ATOM     57  C   UNL A   1      41.320  30.207  35.963  1.00  0.00     0.029 A 
ATOM     58  C   UNL A   1      40.536  30.370  34.833  1.00  0.00     0.049 A 
ATOM     59  H   UNL A   1      40.729  29.468  32.934  1.00  0.00     0.167 HD
ATOM     60  C   UNL A   1      38.670  31.306  33.506  1.00  0.00     0.074 A 
ATOM     61  C   UNL A   1      37.485  32.119  33.343  1.00  0.00     0.031 C 
ATOM     62  C   UNL A   1      39.370  31.195  34.661  1.00  0.00     0.037 A 
BRANCH  49  63
ATOM     63  C   UNL A   1      44.167  27.344  34.288  1.00  0.00     0.064 A 
ATOM     64  C   UNL A   1      44.035  26.096  34.914  1.00  0.00     0.173 A 
ATOM     65  C   UNL A   1      45.430  27.954  34.296  1.00  0.00     0.173 A 
ATOM     66  F   UNL A   1      42.844  25.478  34.941  1.00  0.00    -0.203 F 
ATOM     67  C   UNL A   1      45.117  25.494  35.549  1.00  0.00     0.198 A 
ATOM     68  C   UNL A   1      46.518  27.337  34.908  1.00  0.00     0.198 A 
ATOM     69  F   UNL A   1      45.610  29.144  33.703  1.00  0.00    -0.203 F 
ATOM     70  F   UNL A   1      44.956  24.324  36.181  1.00  0.00    -0.200 F 
ATOM     71  C   UNL A   1      46.359  26.112  35.539  1.00  0.00     0.200 A 
ATOM     72  F   UNL A   1      47.721  27.928  34.887  1.00  0.00    -0.200 F 
ATOM     73  F   UNL A   1      47.403  25.529  36.145  1.00  0.00    -0.200 F 
ENDBRANCH  49  63
BRANCH  50  74
ATOM     74  C   UNL A   1      36.626  31.426  29.283  1.00  0.00     0.064 A 
ATOM     75  C   UNL A   1      35.536  30.638  28.892  1.00  0.00     0.173 A 
ATOM     76  C   UNL A   1      36.606  32.786  28.947  1.00  0.00     0.173 A 
ATOM     77  F   UNL A   1      35.529  29.325  29.164  1.00  0.00    -0.203 F 
ATOM     78  C   UNL A   1      34.472  31.186  28.180  1.00  0.00     0.198 A 
ATOM     79  C   UNL A   1      35.531  33.339  28.253  1.00  0.00     0.198 A 
ATOM     80  F   UNL A   1      37.633  33.578  29.290  1.00  0.00    -0.203 F 
ATOM     81  F   UNL A   1      33.461  30.402  27.780  1.00  0.00    -0.200 F 
ATOM     82  C   UNL A   1      34.467  32.536  27.865  1.00  0.00     0.200 A 
ATOM     83  F   UNL A   1      35.529  34.645  27.954  1.00  0.00    -0.200 F 
ATOM     84  F   UNL A   1      33.445  33.063  27.177  1.00  0.00    -0.200 F 
ENDBRANCH  50  74
BRANCH  62  85
ATOM     85  C   UNL A   1      38.915  32.002  35.841  1.00  0.00     0.064 A 
ATOM     86  C   UNL A   1      38.165  31.427  36.877  1.00  0.00     0.173 A 
ATOM     87  C   UNL A   1      39.310  33.341  35.978  1.00  0.00     0.173 A 
ATOM     88  F   UNL A   1      37.753  30.155  36.785  1.00  0.00    -0.203 F 
ATOM     89  C   UNL A   1      37.822  32.167  38.006  1.00  0.00     0.198 A 
ATOM     90  C   UNL A   1      38.986  34.071  37.119  1.00  0.00     0.198 A 
ATOM     91  F   UNL A   1      40.033  33.935  35.017  1.00  0.00    -0.203 F 
ATOM     92  F   UNL A   1      37.087  31.605  38.976  1.00  0.00    -0.200 F 
ATOM     93  C   UNL A   1      38.242  33.484  38.131  1.00  0.00     0.200 A 
ATOM     94  F   UNL A   1      39.403  35.338  37.244  1.00  0.00    -0.200 F 
ATOM     95  F   UNL A   1      37.928  34.187  39.228  1.00  0.00    -0.200 F 
ENDBRANCH  62  85
ENDBRANCH  36  37
ENDBRANCH  29  31
ENDBRANCH  28  29
ENDBRANCH  27  28
ENDBRANCH   1  27
TORSDOF 15
ENDMDL
MODEL 2
REMARK VINA RESULT:     -12.4      3.727      8.645
REMARK SMILES Cc1cccc2c1N=CN1C2=[NH+]NC(=O)[C@@H]1CC(=O)OCCOCCOC(=O)c1ccc(-c2c3nc(c(-c4c(F)c(F)c(F)c(F)c4F)c4ccc([nH]4)c(-c4c(F)c(F)c(F)c(F)c4F)c4nc(c(-c5c(F)c(F)c(F)c(F)c5F)c5ccc2[nH]5)C=C4)C=C3)cc1
REMARK SMILES IDX 24 1 23 2 22 3 21 4 20 5 18 6 19 7 17 8 16 9 1 10 2 11 3 12
REMARK SMILES IDX 7 13 4 14 6 15 8 16 5 17 11 18 9 19 10 20 12 21 13 22 14 24
REMARK SMILES IDX 15 26 25 27 26 28 27 29 28 30 29 31 30 32 91 33 31 34 90 35
REMARK SMILES IDX 32 36 33 37 34 38 84 39 35 40 89 41 83 42 85 43 36 44 88 45
REMARK SMILES IDX 82 46 81 47 37 49 69 50 49 51 68 52 50 53 53 54 67 55 86 56
REMARK SMILES IDX 51 57 52 58 66 60 87 61 54 62 38 63 39 64 47 65 40 66 41 67
REMARK SMILES IDX 45 68 48 69 42 70 43 71 46 72 44 73 70 74 71 75 79 76 72 77
REMARK SMILES IDX 73 78 77 79 80 80 74 81 75 82 78 83 76 84 55 85 56 86 64 87
REMARK SMILES IDX 57 88 58 89 62 90 65 91 59 92 60 93 63 94 61 95
REMARK H PARENT 12 23 13 25 85 48 53 59
REMARK Flexibility Score: inf
ROOT
ATOM      1  C   UNL A   1      31.351  31.869  26.491  1.00  0.00     0.202 C 
ENDROOT
BRANCH   1   2
ATOM      2  O   UNL A   1      32.049  30.688  26.903  1.00  0.00    -0.374 OA
BRANCH   2   3
ATOM      3  C   UNL A   1      32.721  29.936  25.894  1.00  0.00     0.202 C 
BRANCH   3   4
ATOM      4  C   UNL A   1      32.967  28.457  26.216  1.00  0.00     0.261 C 
BRANCH   4   5
ATOM      5  O   UNL A   1      33.916  27.859  25.316  1.00  0.00    -0.463 OA
BRANCH   5   6
ATOM      6  C   UNL A   1      33.826  26.511  25.231  1.00  0.00     0.310 C 
ATOM      7  O   UNL A   1      33.767  25.750  26.189  1.00  0.00    -0.252 OA
BRANCH   6   8
ATOM      8  C   UNL A   1      33.691  26.026  23.815  1.00  0.00     0.183 C 
BRANCH   8   9
ATOM      9  C   UNL A   1      32.284  25.720  23.304  1.00  0.00     0.286 C 
ATOM     10  C   UNL A   1      29.161  31.338  22.285  1.00  0.00     0.047 C 
ATOM     11  C   UNL A   1      28.676  30.004  22.778  1.00  0.00    -0.024 A 
ATOM     12  C   UNL A   1      27.300  29.823  23.004  1.00  0.00     0.006 A 
ATOM     13  C   UNL A   1      29.558  28.921  22.940  1.00  0.00     0.085 A 
ATOM     14  C   UNL A   1      26.796  28.581  23.384  1.00  0.00     0.001 A 
ATOM     15  C   UNL A   1      29.037  27.684  23.360  1.00  0.00     0.092 A 
ATOM     16  N   UNL A   1      30.927  29.097  22.631  1.00  0.00    -0.215 NA
ATOM     17  C   UNL A   1      27.662  27.506  23.555  1.00  0.00     0.019 A 
ATOM     18  C   UNL A   1      29.998  26.561  23.580  1.00  0.00     0.309 C 
ATOM     19  C   UNL A   1      31.697  28.072  22.794  1.00  0.00     0.317 C 
ATOM     20  N   UNL A   1      31.329  26.838  23.285  1.00  0.00    -0.202 N 
ATOM     21  N   UNL A   1      29.524  25.429  24.014  1.00  0.00    -0.169 N 
ATOM     22  N   UNL A   1      30.397  24.419  24.223  1.00  0.00    -0.193 N 
ATOM     23  H   UNL A   1      28.562  25.314  24.185  1.00  0.00     0.340 HD
ATOM     24  C   UNL A   1      31.743  24.468  23.988  1.00  0.00     0.300 C 
ATOM     25  H   UNL A   1      30.032  23.575  24.575  1.00  0.00     0.216 HD
ATOM     26  O   UNL A   1      32.450  23.493  24.251  1.00  0.00    -0.267 OA
ENDBRANCH   8   9
ENDBRANCH   6   8
ENDBRANCH   5   6
ENDBRANCH   4   5
ENDBRANCH   3   4
ENDBRANCH   2   3
ENDBRANCH   1   2
BRANCH   1  27
ATOM     27  C   UNL A   1      32.008  33.207  26.853  1.00  0.00     0.261 C 
BRANCH  27  28
ATOM     28  O   UNL A   1      32.875  33.096  28.001  1.00  0.00    -0.460 OA
BRANCH  28  29
ATOM     29  C   UNL A   1      34.050  33.759  27.878  1.00  0.00     0.338 C 
ATOM     30  O   UNL A   1      34.213  34.920  27.544  1.00  0.00    -0.246 OA
BRANCH  29  31
ATOM     31  C   UNL A   1      35.183  32.879  28.213  1.00  0.00     0.060 A 
ATOM     32  C   UNL A   1      34.975  31.541  28.569  1.00  0.00     0.016 A 
ATOM     33  C   UNL A   1      36.440  33.455  28.365  1.00  0.00     0.016 A 
ATOM     34  C   UNL A   1      36.031  30.783  29.097  1.00  0.00     0.010 A 
ATOM     35  C   UNL A   1      37.491  32.692  28.881  1.00  0.00     0.010 A 
ATOM     36  C   UNL A   1      37.297  31.358  29.279  1.00  0.00    -0.014 A 
BRANCH  36  37
ATOM     37  C   UNL A   1      38.387  30.646  30.012  1.00  0.00     0.031 A 
ATOM     38  C   UNL A   1      38.636  30.980  31.463  1.00  0.00     0.074 A 
ATOM     39  C   UNL A   1      39.173  29.733  29.410  1.00  0.00     0.049 A 
ATOM     40  N   UNL A   1      39.599  30.582  32.259  1.00  0.00    -0.248 NA
ATOM     41  C   UNL A   1      37.682  31.904  32.097  1.00  0.00     0.031 C 
ATOM     42  C   UNL A   1      39.059  29.296  28.022  1.00  0.00     0.029 A 
ATOM     43  N   UNL A   1      40.243  29.018  29.899  1.00  0.00    -0.354 N 
ATOM     44  C   UNL A   1      39.377  31.224  33.471  1.00  0.00     0.074 A 
ATOM     45  C   UNL A   1      38.226  32.081  33.291  1.00  0.00     0.031 C 
ATOM     46  C   UNL A   1      40.019  28.389  27.769  1.00  0.00     0.029 A 
ATOM     47  C   UNL A   1      40.837  28.204  28.966  1.00  0.00     0.049 A 
ATOM     48  H   UNL A   1      40.553  29.084  30.831  1.00  0.00     0.167 HD
ATOM     49  C   UNL A   1      40.042  31.088  34.642  1.00  0.00     0.037 A 
ATOM     50  C   UNL A   1      41.924  27.411  29.058  1.00  0.00     0.037 A 
ATOM     51  C   UNL A   1      41.147  30.196  34.860  1.00  0.00     0.049 A 
ATOM     52  C   UNL A   1      42.672  27.300  30.360  1.00  0.00     0.074 A 
ATOM     53  C   UNL A   1      41.836  29.948  36.035  1.00  0.00     0.029 A 
ATOM     54  N   UNL A   1      41.714  29.391  33.885  1.00  0.00    -0.354 N 
ATOM     55  N   UNL A   1      42.435  27.892  31.504  1.00  0.00    -0.248 NA
ATOM     56  C   UNL A   1      43.840  26.403  30.384  1.00  0.00     0.031 C 
ATOM     57  C   UNL A   1      42.839  29.012  35.765  1.00  0.00     0.029 A 
ATOM     58  C   UNL A   1      42.752  28.653  34.431  1.00  0.00     0.049 A 
ATOM     59  H   UNL A   1      41.423  29.350  32.946  1.00  0.00     0.167 HD
ATOM     60  C   UNL A   1      43.392  27.411  32.390  1.00  0.00     0.074 A 
ATOM     61  C   UNL A   1      44.220  26.482  31.653  1.00  0.00     0.031 C 
ATOM     62  C   UNL A   1      43.559  27.713  33.700  1.00  0.00     0.037 A 
BRANCH  49  63
ATOM     63  C   UNL A   1      39.568  31.912  35.803  1.00  0.00     0.064 A 
ATOM     64  C   UNL A   1      40.126  33.168  36.081  1.00  0.00     0.173 A 
ATOM     65  C   UNL A   1      38.519  31.462  36.618  1.00  0.00     0.173 A 
ATOM     66  F   UNL A   1      41.138  33.636  35.336  1.00  0.00    -0.203 F 
ATOM     67  C   UNL A   1      39.671  33.932  37.152  1.00  0.00     0.198 A 
ATOM     68  C   UNL A   1      38.047  32.241  37.670  1.00  0.00     0.198 A 
ATOM     69  F   UNL A   1      37.945  30.271  36.386  1.00  0.00    -0.203 F 
ATOM     70  F   UNL A   1      40.252  35.108  37.427  1.00  0.00    -0.200 F 
ATOM     71  C   UNL A   1      38.628  33.471  37.940  1.00  0.00     0.200 A 
ATOM     72  F   UNL A   1      37.030  31.801  38.424  1.00  0.00    -0.200 F 
ATOM     73  F   UNL A   1      38.186  34.211  38.967  1.00  0.00    -0.200 F 
ENDBRANCH  49  63
BRANCH  50  74
ATOM     74  C   UNL A   1      42.374  26.635  27.875  1.00  0.00     0.064 A 
ATOM     75  C   UNL A   1      43.286  27.182  26.962  1.00  0.00     0.173 A 
ATOM     76  C   UNL A   1      41.886  25.346  27.621  1.00  0.00     0.173 A 
ATOM     77  F   UNL A   1      43.753  28.425  27.148  1.00  0.00    -0.203 F 
ATOM     78  C   UNL A   1      43.684  26.473  25.832  1.00  0.00     0.198 A 
ATOM     79  C   UNL A   1      42.302  24.628  26.502  1.00  0.00     0.198 A 
ATOM     80  F   UNL A   1      41.003  24.785  28.460  1.00  0.00    -0.203 F 
ATOM     81  F   UNL A   1      44.525  27.035  24.952  1.00  0.00    -0.200 F 
ATOM     82  C   UNL A   1      43.197  25.194  25.604  1.00  0.00     0.200 A 
ATOM     83  F   UNL A   1      41.831  23.392  26.287  1.00  0.00    -0.200 F 
ATOM     84  F   UNL A   1      43.578  24.513  24.515  1.00  0.00    -0.200 F 
ENDBRANCH  50  74
BRANCH  62  85
ATOM     85  C   UNL A   1      44.648  27.006  34.452  1.00  0.00     0.064 A 
ATOM     86  C   UNL A   1      45.919  27.577  34.610  1.00  0.00     0.173 A 
ATOM     87  C   UNL A   1      44.388  25.787  35.097  1.00  0.00     0.173 A 
ATOM     88  F   UNL A   1      46.220  28.734  34.003  1.00  0.00    -0.203 F 
ATOM     89  C   UNL A   1      46.893  26.948  35.383  1.00  0.00     0.198 A 
ATOM     90  C   UNL A   1      45.356  25.174  35.887  1.00  0.00     0.198 A 
ATOM     91  F   UNL A   1      43.186  25.205  34.981  1.00  0.00    -0.203 F 
ATOM     92  F   UNL A   1      48.109  27.500  35.504  1.00  0.00    -0.200 F 
ATOM     93  C   UNL A   1      46.607  25.754  36.029  1.00  0.00     0.200 A 
ATOM     94  F   UNL A   1      45.074  24.027  36.521  1.00  0.00    -0.200 F 
ATOM     95  F   UNL A   1      47.540  25.162  36.788  1.00  0.00    -0.200 F 
ENDBRANCH  62  85
ENDBRANCH  36  37
ENDBRANCH  29  31
ENDBRANCH  28  29
ENDBRANCH  27  28
ENDBRANCH   1  27
TORSDOF 15
ENDMDL
MODEL 3
REMARK VINA RESULT:     -12.2      3.514      8.535
REMARK SMILES Cc1cccc2c1N=CN1C2=[NH+]NC(=O)[C@@H]1CC(=O)OCCOCCOC(=O)c1ccc(-c2c3nc(c(-c4c(F)c(F)c(F)c(F)c4F)c4ccc([nH]4)c(-c4c(F)c(F)c(F)c(F)c4F)c4nc(c(-c5c(F)c(F)c(F)c(F)c5F)c5ccc2[nH]5)C=C4)C=C3)cc1
REMARK SMILES IDX 24 1 23 2 22 3 21 4 20 5 18 6 19 7 17 8 16 9 1 10 2 11 3 12
REMARK SMILES IDX 7 13 4 14 6 15 8 16 5 17 11 18 9 19 10 20 12 21 13 22 14 24
REMARK SMILES IDX 15 26 25 27 26 28 27 29 28 30 29 31 30 32 91 33 31 34 90 35
REMARK SMILES IDX 32 36 33 37 34 38 84 39 35 40 89 41 83 42 85 43 36 44 88 45
REMARK SMILES IDX 82 46 81 47 37 49 69 50 49 51 68 52 50 53 53 54 67 55 86 56
REMARK SMILES IDX 51 57 52 58 66 60 87 61 54 62 38 63 39 64 47 65 40 66 41 67
REMARK SMILES IDX 45 68 48 69 42 70 43 71 46 72 44 73 70 74 71 75 79 76 72 77
REMARK SMILES IDX 73 78 77 79 80 80 74 81 75 82 78 83 76 84 55 85 56 86 64 87
REMARK SMILES IDX 57 88 58 89 62 90 65 91 59 92 60 93 63 94 61 95
REMARK H PARENT 12 23 13 25 85 48 53 59
REMARK Flexibility Score: inf
ROOT
ATOM      1  C   UNL A   1      31.423  32.094  26.871  1.00  0.00     0.202 C 
ENDROOT
BRANCH   1   2
ATOM      2  O   UNL A   1      31.779  30.845  26.269  1.00  0.00    -0.374 OA
BRANCH   2   3
ATOM      3  C   UNL A   1      33.053  30.294  26.602  1.00  0.00     0.202 C 
BRANCH   3   4
ATOM      4  C   UNL A   1      33.431  28.998  25.877  1.00  0.00     0.261 C 
BRANCH   4   5
ATOM      5  O   UNL A   1      33.390  27.857  26.752  1.00  0.00    -0.463 OA
BRANCH   5   6
ATOM      6  C   UNL A   1      32.154  27.333  26.922  1.00  0.00     0.310 C 
ATOM      7  O   UNL A   1      31.316  27.753  27.711  1.00  0.00    -0.252 OA
BRANCH   6   8
ATOM      8  C   UNL A   1      31.854  26.226  25.951  1.00  0.00     0.183 C 
BRANCH   8   9
ATOM      9  C   UNL A   1      31.726  24.810  26.512  1.00  0.00     0.286 C 
ATOM     10  C   UNL A   1      36.959  21.376  24.731  1.00  0.00     0.047 C 
ATOM     11  C   UNL A   1      35.519  20.980  24.901  1.00  0.00    -0.024 A 
ATOM     12  C   UNL A   1      35.163  19.628  24.751  1.00  0.00     0.006 A 
ATOM     13  C   UNL A   1      34.544  21.920  25.282  1.00  0.00     0.085 A 
ATOM     14  C   UNL A   1      33.856  19.204  24.978  1.00  0.00     0.001 A 
ATOM     15  C   UNL A   1      33.222  21.481  25.471  1.00  0.00     0.092 A 
ATOM     16  N   UNL A   1      34.934  23.261  25.507  1.00  0.00    -0.215 NA
ATOM     17  C   UNL A   1      32.883  20.128  25.347  1.00  0.00     0.019 A 
ATOM     18  C   UNL A   1      32.190  22.505  25.821  1.00  0.00     0.309 C 
ATOM     19  C   UNL A   1      34.003  24.086  25.858  1.00  0.00     0.317 C 
ATOM     20  N   UNL A   1      32.660  23.803  25.986  1.00  0.00    -0.202 N 
ATOM     21  N   UNL A   1      30.958  22.108  25.950  1.00  0.00    -0.169 N 
ATOM     22  N   UNL A   1      30.025  23.038  26.256  1.00  0.00    -0.193 N 
ATOM     23  H   UNL A   1      30.714  21.163  25.829  1.00  0.00     0.340 HD
ATOM     24  C   UNL A   1      30.267  24.365  26.474  1.00  0.00     0.300 C 
ATOM     25  H   UNL A   1      29.092  22.732  26.326  1.00  0.00     0.216 HD
ATOM     26  O   UNL A   1      29.330  25.130  26.711  1.00  0.00    -0.267 OA
ENDBRANCH   8   9
ENDBRANCH   6   8
ENDBRANCH   5   6
ENDBRANCH   4   5
ENDBRANCH   3   4
ENDBRANCH   2   3
ENDBRANCH   1   2
BRANCH   1  27
ATOM     27  C   UNL A   1      32.532  33.151  26.946  1.00  0.00     0.261 C 
BRANCH  27  28
ATOM     28  O   UNL A   1      32.450  33.944  28.149  1.00  0.00    -0.460 OA
BRANCH  28  29
ATOM     29  C   UNL A   1      33.594  34.598  28.463  1.00  0.00     0.338 C 
ATOM     30  O   UNL A   1      33.764  35.803  28.526  1.00  0.00    -0.246 OA
BRANCH  29  31
ATOM     31  C   UNL A   1      34.681  33.643  28.744  1.00  0.00     0.060 A 
ATOM     32  C   UNL A   1      34.407  32.375  29.269  1.00  0.00     0.016 A 
ATOM     33  C   UNL A   1      35.993  34.100  28.668  1.00  0.00     0.016 A 
ATOM     34  C   UNL A   1      35.454  31.567  29.736  1.00  0.00     0.010 A 
ATOM     35  C   UNL A   1      37.033  33.287  29.125  1.00  0.00     0.010 A 
ATOM     36  C   UNL A   1      36.779  32.024  29.689  1.00  0.00    -0.014 A 
BRANCH  36  37
ATOM     37  C   UNL A   1      37.893  31.279  30.349  1.00  0.00     0.031 A 
ATOM     38  C   UNL A   1      38.235  31.590  31.786  1.00  0.00     0.074 A 
ATOM     39  C   UNL A   1      38.621  30.355  29.692  1.00  0.00     0.049 A 
ATOM     40  N   UNL A   1      39.234  31.161  32.519  1.00  0.00    -0.248 NA
ATOM     41  C   UNL A   1      37.343  32.529  32.485  1.00  0.00     0.031 C 
ATOM     42  C   UNL A   1      38.415  29.936  28.309  1.00  0.00     0.029 A 
ATOM     43  N   UNL A   1      39.701  29.609  30.110  1.00  0.00    -0.354 N 
ATOM     44  C   UNL A   1      39.099  31.794  33.749  1.00  0.00     0.074 A 
ATOM     45  C   UNL A   1      37.960  32.679  33.647  1.00  0.00     0.031 C 
ATOM     46  C   UNL A   1      39.336  29.011  27.990  1.00  0.00     0.029 A 
ATOM     47  C   UNL A   1      40.219  28.793  29.134  1.00  0.00     0.049 A 
ATOM     48  H   UNL A   1      40.066  29.658  31.022  1.00  0.00     0.167 HD
ATOM     49  C   UNL A   1      39.829  31.629  34.877  1.00  0.00     0.037 A 
ATOM     50  C   UNL A   1      41.290  27.974  29.154  1.00  0.00     0.037 A 
ATOM     51  C   UNL A   1      40.923  30.709  35.020  1.00  0.00     0.049 A 
ATOM     52  C   UNL A   1      42.111  27.831  30.409  1.00  0.00     0.074 A 
ATOM     53  C   UNL A   1      41.674  30.431  36.150  1.00  0.00     0.029 A 
ATOM     54  N   UNL A   1      41.412  29.903  34.005  1.00  0.00    -0.354 N 
ATOM     55  N   UNL A   1      41.955  28.415  31.571  1.00  0.00    -0.248 NA
ATOM     56  C   UNL A   1      43.257  26.907  30.354  1.00  0.00     0.031 C 
ATOM     57  C   UNL A   1      42.637  29.476  35.811  1.00  0.00     0.029 A 
ATOM     58  C   UNL A   1      42.463  29.134  34.480  1.00  0.00     0.049 A 
ATOM     59  H   UNL A   1      41.066  29.879  33.084  1.00  0.00     0.167 HD
ATOM     60  C   UNL A   1      42.951  27.902  32.393  1.00  0.00     0.074 A 
ATOM     61  C   UNL A   1      43.712  26.962  31.598  1.00  0.00     0.031 C 
ATOM     62  C   UNL A   1      43.203  28.184  33.694  1.00  0.00     0.037 A 
BRANCH  49  63
ATOM     63  C   UNL A   1      39.444  32.450  36.072  1.00  0.00     0.064 A 
ATOM     64  C   UNL A   1      38.474  32.003  36.982  1.00  0.00     0.173 A 
ATOM     65  C   UNL A   1      40.079  33.672  36.334  1.00  0.00     0.173 A 
ATOM     66  F   UNL A   1      37.832  30.845  36.768  1.00  0.00    -0.203 F 
ATOM     67  C   UNL A   1      38.132  32.764  38.095  1.00  0.00     0.198 A 
ATOM     68  C   UNL A   1      39.755  34.418  37.464  1.00  0.00     0.198 A 
ATOM     69  F   UNL A   1      41.021  34.138  35.500  1.00  0.00    -0.203 F 
ATOM     70  F   UNL A   1      37.169  32.340  38.925  1.00  0.00    -0.200 F 
ATOM     71  C   UNL A   1      38.777  33.967  38.339  1.00  0.00     0.200 A 
ATOM     72  F   UNL A   1      40.389  35.574  37.706  1.00  0.00    -0.200 F 
ATOM     73  F   UNL A   1      38.453  34.696  39.416  1.00  0.00    -0.200 F 
ENDBRANCH  49  63
BRANCH  50  74
ATOM     74  C   UNL A   1      41.651  27.202  27.938  1.00  0.00     0.064 A 
ATOM     75  C   UNL A   1      41.143  25.912  27.729  1.00  0.00     0.173 A 
ATOM     76  C   UNL A   1      42.526  27.725  26.976  1.00  0.00     0.173 A 
ATOM     77  F   UNL A   1      40.329  25.359  28.641  1.00  0.00    -0.203 F 
ATOM     78  C   UNL A   1      41.507  25.169  26.609  1.00  0.00     0.198 A 
ATOM     79  C   UNL A   1      42.872  26.990  25.845  1.00  0.00     0.198 A 
ATOM     80  F   UNL A   1      43.047  28.950  27.139  1.00  0.00    -0.203 F 
ATOM     81  F   UNL A   1      41.041  23.922  26.455  1.00  0.00    -0.200 F 
ATOM     82  C   UNL A   1      42.367  25.710  25.665  1.00  0.00     0.200 A 
ATOM     83  F   UNL A   1      43.701  27.517  24.933  1.00  0.00    -0.200 F 
ATOM     84  F   UNL A   1      42.719  24.994  24.588  1.00  0.00    -0.200 F 
ENDBRANCH  50  74
BRANCH  62  85
ATOM     85  C   UNL A   1      44.318  27.444  34.373  1.00  0.00     0.064 A 
ATOM     86  C   UNL A   1      45.603  27.993  34.482  1.00  0.00     0.173 A 
ATOM     87  C   UNL A   1      44.072  26.212  34.998  1.00  0.00     0.173 A 
ATOM     88  F   UNL A   1      45.890  29.162  33.890  1.00  0.00    -0.203 F 
ATOM     89  C   UNL A   1      46.604  27.332  35.189  1.00  0.00     0.198 A 
ATOM     90  C   UNL A   1      45.069  25.566  35.724  1.00  0.00     0.198 A 
ATOM     91  F   UNL A   1      42.857  25.649  34.927  1.00  0.00    -0.203 F 
ATOM     92  F   UNL A   1      47.832  27.864  35.264  1.00  0.00    -0.200 F 
ATOM     93  C   UNL A   1      46.334  26.125  35.818  1.00  0.00     0.200 A 
ATOM     94  F   UNL A   1      44.801  24.406  36.341  1.00  0.00    -0.200 F 
ATOM     95  F   UNL A   1      47.294  25.501  36.515  1.00  0.00    -0.200 F 
ENDBRANCH  62  85
ENDBRANCH  36  37
ENDBRANCH  29  31
ENDBRANCH  28  29
ENDBRANCH  27  28
ENDBRANCH   1  27
TORSDOF 15
ENDMDL
