MODEL 1
REMARK VINA RESULT:     -12.2      0.000      0.000
REMARK SMILES CCn1ncc(NC(=O)[C@@H]2CCCC[C@@H]2C(=O)OCCOCCOC(=O)c2ccc(-c3c4nc(c(-c5c(F)c(F)c(F)c(F)c5F)c5ccc([nH]5)c(-c5c(F)c(F)c(F)c(F)c5F)c5nc(c(-c6c(F)c(F)c(F)c(F)c6F)c6ccc3[nH]6)C=C5)C=C4)cc2)c1C(=O)Nc1cnn(C)c1C
REMARK SMILES IDX 20 1 19 2 18 3 16 4 17 5 15 6 10 7 11 8 12 9 14 10 13 11
REMARK SMILES IDX 8 12 7 13 9 15 6 16 3 17 4 18 90 19 5 20 2 21 1 22 91 23
REMARK SMILES IDX 92 24 93 25 94 27 95 28 99 29 96 30 97 31 100 32 98 33 21 34
REMARK SMILES IDX 22 35 23 36 24 37 25 38 26 39 27 40 28 41 89 42 29 43 88 44
REMARK SMILES IDX 30 45 31 46 32 47 82 48 33 49 87 50 81 51 83 52 34 53 86 54
REMARK SMILES IDX 80 55 79 56 35 58 67 59 47 60 66 61 48 62 51 63 65 64 84 65
REMARK SMILES IDX 49 66 50 67 64 69 85 70 52 71 36 72 37 73 45 74 38 75 39 76
REMARK SMILES IDX 43 77 46 78 40 79 41 80 44 81 42 82 68 83 69 84 77 85 70 86
REMARK SMILES IDX 71 87 75 88 78 89 72 90 73 91 76 92 74 93 53 94 54 95 62 96
REMARK SMILES IDX 55 97 56 98 60 99 63 100 57 101 58 102 61 103 59 104
REMARK H PARENT 7 14 93 26 83 57 51 68
REMARK Flexibility Score: inf
ROOT
ATOM      1  C   UNL A   1      39.936  19.900  25.877  1.00  0.00     0.202 C 
ENDROOT
BRANCH   1   2
ATOM      2  C   UNL A   1      38.963  21.081  26.003  1.00  0.00     0.261 C 
BRANCH   2   3
ATOM      3  O   UNL A   1      38.053  21.234  24.902  1.00  0.00    -0.463 OA
BRANCH   3   4
ATOM      4  C   UNL A   1      36.763  21.272  25.319  1.00  0.00     0.309 C 
ATOM      5  O   UNL A   1      36.056  20.273  25.323  1.00  0.00    -0.252 OA
BRANCH   4   6
ATOM      6  C   UNL A   1      36.292  22.683  25.711  1.00  0.00     0.111 C 
ATOM      7  C   UNL A   1      34.827  23.017  25.263  1.00  0.00     0.093 C 
ATOM      8  C   UNL A   1      34.694  22.601  23.828  1.00  0.00     0.014 C 
ATOM      9  C   UNL A   1      35.727  23.242  22.919  1.00  0.00     0.001 C 
ATOM     10  C   UNL A   1      37.220  23.652  24.954  1.00  0.00     0.016 C 
ATOM     11  C   UNL A   1      37.143  23.426  23.444  1.00  0.00     0.001 C 
BRANCH   7  12
ATOM     12  C   UNL A   1      33.721  22.630  26.254  1.00  0.00     0.228 C 
ATOM     13  N   UNL A   1      32.380  22.843  26.137  1.00  0.00    -0.322 N 
ATOM     14  H   UNL A   1      31.893  22.568  26.948  1.00  0.00     0.170 HD
ATOM     15  O   UNL A   1      34.068  22.069  27.306  1.00  0.00    -0.274 OA
BRANCH  13  16
ATOM     16  C   UNL A   1      31.522  23.351  25.167  1.00  0.00     0.092 A 
ATOM     17  N   UNL A   1      30.577  24.562  23.649  1.00  0.00    -0.258 N 
ATOM     18  N   UNL A   1      30.490  23.312  23.135  1.00  0.00    -0.178 NA
ATOM     19  C   UNL A   1      30.773  24.532  25.023  1.00  0.00     0.150 A 
ATOM     20  C   UNL A   1      31.143  22.583  24.036  1.00  0.00     0.162 A 
BRANCH  17  21
ATOM     21  C   UNL A   1      31.005  25.588  22.709  1.00  0.00     0.142 C 
ATOM     22  C   UNL A   1      32.287  25.231  21.981  1.00  0.00     0.029 C 
ENDBRANCH  17  21
BRANCH  19  23
ATOM     23  C   UNL A   1      30.350  25.468  26.077  1.00  0.00     0.276 C 
ATOM     24  O   UNL A   1      29.404  25.183  26.816  1.00  0.00    -0.267 OA
ATOM     25  N   UNL A   1      31.173  26.497  26.521  1.00  0.00    -0.318 N 
ATOM     26  H   UNL A   1      31.322  26.510  27.494  1.00  0.00     0.170 HD
BRANCH  25  27
ATOM     27  C   UNL A   1      31.814  27.497  25.830  1.00  0.00     0.082 A 
ATOM     28  C   UNL A   1      31.431  28.840  25.688  1.00  0.00     0.161 A 
ATOM     29  C   UNL A   1      33.042  27.402  25.189  1.00  0.00     0.059 A 
ATOM     30  N   UNL A   1      32.280  29.526  24.922  1.00  0.00    -0.179 NA
ATOM     31  N   UNL A   1      33.203  28.616  24.563  1.00  0.00    -0.271 N 
ATOM     32  C   UNL A   1      33.998  26.288  24.968  1.00  0.00     0.068 C 
ATOM     33  C   UNL A   1      34.132  28.958  23.508  1.00  0.00     0.174 C 
ENDBRANCH  25  27
ENDBRANCH  19  23
ENDBRANCH  13  16
ENDBRANCH   7  12
ENDBRANCH   4   6
ENDBRANCH   3   4
ENDBRANCH   2   3
ENDBRANCH   1   2
BRANCH   1  34
ATOM     34  O   UNL A   1      41.342  20.062  26.025  1.00  0.00    -0.374 OA
BRANCH  34  35
ATOM     35  C   UNL A   1      42.225  18.982  26.285  1.00  0.00     0.202 C 
BRANCH  35  36
ATOM     36  C   UNL A   1      43.483  18.757  25.459  1.00  0.00     0.261 C 
BRANCH  36  37
ATOM     37  O   UNL A   1      43.672  19.688  24.413  1.00  0.00    -0.460 OA
BRANCH  37  38
ATOM     38  C   UNL A   1      44.943  20.133  24.361  1.00  0.00     0.338 C 
ATOM     39  O   UNL A   1      45.955  19.469  24.232  1.00  0.00    -0.246 OA
BRANCH  38  40
ATOM     40  C   UNL A   1      44.962  21.550  24.702  1.00  0.00     0.060 A 
ATOM     41  C   UNL A   1      45.754  21.885  25.799  1.00  0.00     0.016 A 
ATOM     42  C   UNL A   1      43.994  22.420  24.172  1.00  0.00     0.016 A 
ATOM     43  C   UNL A   1      45.441  23.025  26.490  1.00  0.00     0.010 A 
ATOM     44  C   UNL A   1      43.683  23.563  24.866  1.00  0.00     0.010 A 
ATOM     45  C   UNL A   1      44.368  23.814  26.050  1.00  0.00    -0.014 A 
BRANCH  45  46
ATOM     46  C   UNL A   1      44.135  25.036  26.782  1.00  0.00     0.031 A 
ATOM     47  C   UNL A   1      45.226  26.001  26.551  1.00  0.00     0.074 A 
ATOM     48  C   UNL A   1      43.053  25.256  27.548  1.00  0.00     0.049 A 
ATOM     49  N   UNL A   1      46.144  26.338  27.389  1.00  0.00    -0.248 NA
ATOM     50  C   UNL A   1      45.457  26.473  25.176  1.00  0.00     0.031 C 
ATOM     51  C   UNL A   1      41.827  24.459  27.599  1.00  0.00     0.029 A 
ATOM     52  N   UNL A   1      42.785  26.301  28.380  1.00  0.00    -0.354 N 
ATOM     53  C   UNL A   1      46.927  27.265  26.716  1.00  0.00     0.074 A 
ATOM     54  C   UNL A   1      46.602  27.144  25.321  1.00  0.00     0.031 C 
ATOM     55  C   UNL A   1      40.868  25.168  28.238  1.00  0.00     0.029 A 
ATOM     56  C   UNL A   1      41.452  26.396  28.752  1.00  0.00     0.049 A 
ATOM     57  H   UNL A   1      43.476  26.932  28.690  1.00  0.00     0.167 HD
ATOM     58  C   UNL A   1      47.482  28.289  27.415  1.00  0.00     0.037 A 
ATOM     59  C   UNL A   1      40.870  27.442  29.389  1.00  0.00     0.037 A 
ATOM     60  C   UNL A   1      47.512  27.981  28.825  1.00  0.00     0.049 A 
ATOM     61  C   UNL A   1      41.937  28.212  30.070  1.00  0.00     0.074 A 
ATOM     62  C   UNL A   1      48.244  27.167  29.660  1.00  0.00     0.029 A 
ATOM     63  N   UNL A   1      46.352  28.297  29.480  1.00  0.00    -0.354 N 
ATOM     64  N   UNL A   1      42.582  27.774  31.115  1.00  0.00    -0.248 NA
ATOM     65  C   UNL A   1      42.542  29.359  29.401  1.00  0.00     0.031 C 
ATOM     66  C   UNL A   1      47.421  26.915  30.801  1.00  0.00     0.029 A 
ATOM     67  C   UNL A   1      46.221  27.606  30.652  1.00  0.00     0.049 A 
ATOM     68  H   UNL A   1      45.691  28.946  29.146  1.00  0.00     0.167 HD
ATOM     69  C   UNL A   1      43.857  28.279  30.958  1.00  0.00     0.074 A 
ATOM     70  C   UNL A   1      43.721  29.388  30.025  1.00  0.00     0.031 C 
ATOM     71  C   UNL A   1      44.941  27.533  31.317  1.00  0.00     0.037 A 
BRANCH  58  72
ATOM     72  C   UNL A   1      47.451  29.728  26.941  1.00  0.00     0.064 A 
ATOM     73  C   UNL A   1      48.607  30.515  27.114  1.00  0.00     0.173 A 
ATOM     74  C   UNL A   1      46.268  30.448  26.650  1.00  0.00     0.173 A 
ATOM     75  F   UNL A   1      49.781  29.943  27.420  1.00  0.00    -0.203 F 
ATOM     76  C   UNL A   1      48.563  31.912  27.074  1.00  0.00     0.198 A 
ATOM     77  C   UNL A   1      46.240  31.838  26.560  1.00  0.00     0.198 A 
ATOM     78  F   UNL A   1      45.071  29.862  26.556  1.00  0.00    -0.203 F 
ATOM     79  F   UNL A   1      49.660  32.621  27.369  1.00  0.00    -0.200 F 
ATOM     80  C   UNL A   1      47.378  32.571  26.803  1.00  0.00     0.200 A 
ATOM     81  F   UNL A   1      45.074  32.455  26.324  1.00  0.00    -0.200 F 
ATOM     82  F   UNL A   1      47.319  33.908  26.824  1.00  0.00    -0.200 F 
ENDBRANCH  58  72
BRANCH  59  83
ATOM     83  C   UNL A   1      39.484  27.951  29.295  1.00  0.00     0.064 A 
ATOM     84  C   UNL A   1      38.684  28.071  30.445  1.00  0.00     0.173 A 
ATOM     85  C   UNL A   1      39.021  28.602  28.137  1.00  0.00     0.173 A 
ATOM     86  F   UNL A   1      39.069  27.508  31.599  1.00  0.00    -0.203 F 
ATOM     87  C   UNL A   1      37.517  28.841  30.448  1.00  0.00     0.198 A 
ATOM     88  C   UNL A   1      37.851  29.362  28.139  1.00  0.00     0.198 A 
ATOM     89  F   UNL A   1      39.745  28.598  27.009  1.00  0.00    -0.203 F 
ATOM     90  F   UNL A   1      36.825  28.998  31.585  1.00  0.00    -0.200 F 
ATOM     91  C   UNL A   1      37.110  29.498  29.300  1.00  0.00     0.200 A 
ATOM     92  F   UNL A   1      37.484  30.020  27.031  1.00  0.00    -0.200 F 
ATOM     93  F   UNL A   1      36.034  30.296  29.322  1.00  0.00    -0.200 F 
ENDBRANCH  59  83
BRANCH  71  94
ATOM     94  C   UNL A   1      44.727  26.493  32.372  1.00  0.00     0.064 A 
ATOM     95  C   UNL A   1      44.462  25.138  32.117  1.00  0.00     0.173 A 
ATOM     96  C   UNL A   1      44.812  26.898  33.710  1.00  0.00     0.173 A 
ATOM     97  F   UNL A   1      44.452  24.658  30.865  1.00  0.00    -0.203 F 
ATOM     98  C   UNL A   1      44.225  24.245  33.163  1.00  0.00     0.198 A 
ATOM     99  C   UNL A   1      44.618  25.997  34.752  1.00  0.00     0.198 A 
ATOM    100  F   UNL A   1      45.102  28.174  34.011  1.00  0.00    -0.203 F 
ATOM    101  F   UNL A   1      43.929  22.965  32.899  1.00  0.00    -0.200 F 
ATOM    102  C   UNL A   1      44.306  24.676  34.478  1.00  0.00     0.200 A 
ATOM    103  F   UNL A   1      44.741  26.411  36.020  1.00  0.00    -0.200 F 
ATOM    104  F   UNL A   1      44.100  23.815  35.484  1.00  0.00    -0.200 F 
ENDBRANCH  71  94
ENDBRANCH  45  46
ENDBRANCH  38  40
ENDBRANCH  37  38
ENDBRANCH  36  37
ENDBRANCH  35  36
ENDBRANCH  34  35
ENDBRANCH   1  34
TORSDOF 19
ENDMDL
MODEL 2
REMARK VINA RESULT:     -11.8      3.163      8.807
REMARK SMILES CCn1ncc(NC(=O)[C@@H]2CCCC[C@@H]2C(=O)OCCOCCOC(=O)c2ccc(-c3c4nc(c(-c5c(F)c(F)c(F)c(F)c5F)c5ccc([nH]5)c(-c5c(F)c(F)c(F)c(F)c5F)c5nc(c(-c6c(F)c(F)c(F)c(F)c6F)c6ccc3[nH]6)C=C5)C=C4)cc2)c1C(=O)Nc1cnn(C)c1C
REMARK SMILES IDX 20 1 19 2 18 3 16 4 17 5 15 6 10 7 11 8 12 9 14 10 13 11
REMARK SMILES IDX 8 12 7 13 9 15 6 16 3 17 4 18 90 19 5 20 2 21 1 22 91 23
REMARK SMILES IDX 92 24 93 25 94 27 95 28 99 29 96 30 97 31 100 32 98 33 21 34
REMARK SMILES IDX 22 35 23 36 24 37 25 38 26 39 27 40 28 41 89 42 29 43 88 44
REMARK SMILES IDX 30 45 31 46 32 47 82 48 33 49 87 50 81 51 83 52 34 53 86 54
REMARK SMILES IDX 80 55 79 56 35 58 67 59 47 60 66 61 48 62 51 63 65 64 84 65
REMARK SMILES IDX 49 66 50 67 64 69 85 70 52 71 36 72 37 73 45 74 38 75 39 76
REMARK SMILES IDX 43 77 46 78 40 79 41 80 44 81 42 82 68 83 69 84 77 85 70 86
REMARK SMILES IDX 71 87 75 88 78 89 72 90 73 91 76 92 74 93 53 94 54 95 62 96
REMARK SMILES IDX 55 97 56 98 60 99 63 100 57 101 58 102 61 103 59 104
REMARK H PARENT 7 14 93 26 83 57 51 68
REMARK Flexibility Score: inf
ROOT
ATOM      1  C   UNL A   1      33.434  28.427  26.801  1.00  0.00     0.202 C 
ENDROOT
BRANCH   1   2
ATOM      2  C   UNL A   1      31.993  27.905  26.873  1.00  0.00     0.261 C 
BRANCH   2   3
ATOM      3  O   UNL A   1      31.328  27.788  25.605  1.00  0.00    -0.463 OA
BRANCH   3   4
ATOM      4  C   UNL A   1      30.661  26.613  25.495  1.00  0.00     0.309 C 
ATOM      5  O   UNL A   1      30.133  26.077  26.461  1.00  0.00    -0.252 OA
BRANCH   4   6
ATOM      6  C   UNL A   1      30.699  26.022  24.075  1.00  0.00     0.111 C 
ATOM      7  C   UNL A   1      31.143  27.040  22.969  1.00  0.00     0.093 C 
ATOM      8  C   UNL A   1      30.366  28.304  23.187  1.00  0.00     0.014 C 
ATOM      9  C   UNL A   1      28.862  28.089  23.193  1.00  0.00     0.001 C 
ATOM     10  C   UNL A   1      29.246  25.624  23.756  1.00  0.00     0.016 C 
ATOM     11  C   UNL A   1      28.310  26.831  23.845  1.00  0.00     0.001 C 
BRANCH   7  12
ATOM     12  C   UNL A   1      32.654  27.133  22.715  1.00  0.00     0.228 C 
ATOM     13  N   UNL A   1      33.582  26.139  22.810  1.00  0.00    -0.322 N 
ATOM     14  H   UNL A   1      34.496  26.477  22.670  1.00  0.00     0.170 HD
ATOM     15  O   UNL A   1      33.113  28.244  22.401  1.00  0.00    -0.274 OA
BRANCH  13  16
ATOM     16  C   UNL A   1      33.568  24.770  23.054  1.00  0.00     0.092 A 
ATOM     17  N   UNL A   1      33.127  22.789  23.793  1.00  0.00    -0.258 N 
ATOM     18  N   UNL A   1      33.237  22.595  22.457  1.00  0.00    -0.178 NA
ATOM     19  C   UNL A   1      33.759  23.961  24.188  1.00  0.00     0.150 A 
ATOM     20  C   UNL A   1      33.430  23.829  22.000  1.00  0.00     0.162 A 
BRANCH  17  21
ATOM     21  C   UNL A   1      31.989  22.134  24.421  1.00  0.00     0.142 C 
ATOM     22  C   UNL A   1      32.237  20.668  24.720  1.00  0.00     0.029 C 
ENDBRANCH  17  21
BRANCH  19  23
ATOM     23  C   UNL A   1      34.435  24.313  25.446  1.00  0.00     0.276 C 
ATOM     24  O   UNL A   1      34.136  25.352  26.041  1.00  0.00    -0.267 OA
ATOM     25  N   UNL A   1      35.141  23.374  26.191  1.00  0.00    -0.318 N 
ATOM     26  H   UNL A   1      34.863  23.308  27.133  1.00  0.00     0.170 HD
BRANCH  25  27
ATOM     27  C   UNL A   1      36.158  22.524  25.833  1.00  0.00     0.082 A 
ATOM     28  C   UNL A   1      36.064  21.254  25.241  1.00  0.00     0.161 A 
ATOM     29  C   UNL A   1      37.519  22.787  25.907  1.00  0.00     0.059 A 
ATOM     30  N   UNL A   1      37.260  20.696  25.056  1.00  0.00    -0.179 NA
ATOM     31  N   UNL A   1      38.123  21.607  25.541  1.00  0.00    -0.271 N 
ATOM     32  C   UNL A   1      38.314  23.937  26.409  1.00  0.00     0.068 C 
ATOM     33  C   UNL A   1      39.500  21.212  25.742  1.00  0.00     0.174 C 
ENDBRANCH  25  27
ENDBRANCH  19  23
ENDBRANCH  13  16
ENDBRANCH   7  12
ENDBRANCH   4   6
ENDBRANCH   3   4
ENDBRANCH   2   3
ENDBRANCH   1   2
BRANCH   1  34
ATOM     34  O   UNL A   1      33.730  29.786  26.499  1.00  0.00    -0.374 OA
BRANCH  34  35
ATOM     35  C   UNL A   1      32.982  30.877  27.014  1.00  0.00     0.202 C 
BRANCH  35  36
ATOM     36  C   UNL A   1      33.641  32.011  27.786  1.00  0.00     0.261 C 
BRANCH  36  37
ATOM     37  O   UNL A   1      35.053  31.994  27.759  1.00  0.00    -0.460 OA
BRANCH  37  38
ATOM     38  C   UNL A   1      35.573  31.636  28.950  1.00  0.00     0.338 C 
ATOM     39  O   UNL A   1      35.138  31.900  30.056  1.00  0.00    -0.246 OA
BRANCH  38  40
ATOM     40  C   UNL A   1      36.888  31.045  28.733  1.00  0.00     0.060 A 
ATOM     41  C   UNL A   1      36.878  29.708  28.342  1.00  0.00     0.016 A 
ATOM     42  C   UNL A   1      38.041  31.687  29.214  1.00  0.00     0.016 A 
ATOM     43  C   UNL A   1      37.988  28.954  28.615  1.00  0.00     0.010 A 
ATOM     44  C   UNL A   1      39.153  30.929  29.487  1.00  0.00     0.010 A 
ATOM     45  C   UNL A   1      39.086  29.561  29.242  1.00  0.00    -0.014 A 
BRANCH  45  46
ATOM     46  C   UNL A   1      40.247  28.727  29.441  1.00  0.00     0.031 A 
ATOM     47  C   UNL A   1      40.522  28.548  30.879  1.00  0.00     0.074 A 
ATOM     48  C   UNL A   1      40.956  28.178  28.441  1.00  0.00     0.049 A 
ATOM     49  N   UNL A   1      41.486  29.078  31.549  1.00  0.00    -0.248 NA
ATOM     50  C   UNL A   1      39.495  27.897  31.708  1.00  0.00     0.031 C 
ATOM     51  C   UNL A   1      40.579  28.096  27.029  1.00  0.00     0.029 A 
ATOM     52  N   UNL A   1      42.130  27.488  28.495  1.00  0.00    -0.354 N 
ATOM     53  C   UNL A   1      41.324  28.614  32.847  1.00  0.00     0.074 A 
ATOM     54  C   UNL A   1      39.989  28.089  32.933  1.00  0.00     0.031 C 
ATOM     55  C   UNL A   1      41.388  27.206  26.410  1.00  0.00     0.029 A 
ATOM     56  C   UNL A   1      42.412  26.768  27.344  1.00  0.00     0.049 A 
ATOM     57  H   UNL A   1      42.725  27.501  29.281  1.00  0.00     0.167 HD
ATOM     58  C   UNL A   1      42.427  28.372  33.602  1.00  0.00     0.037 A 
ATOM     59  C   UNL A   1      43.387  25.837  27.200  1.00  0.00     0.037 A 
ATOM     60  C   UNL A   1      43.574  29.059  33.057  1.00  0.00     0.049 A 
ATOM     61  C   UNL A   1      44.404  26.075  28.252  1.00  0.00     0.074 A 
ATOM     62  C   UNL A   1      44.037  30.354  33.005  1.00  0.00     0.029 A 
ATOM     63  N   UNL A   1      44.217  28.358  32.074  1.00  0.00    -0.354 N 
ATOM     64  N   UNL A   1      45.209  27.100  28.253  1.00  0.00    -0.248 NA
ATOM     65  C   UNL A   1      44.325  25.344  29.512  1.00  0.00     0.031 C 
ATOM     66  C   UNL A   1      44.904  30.427  31.871  1.00  0.00     0.029 A 
ATOM     67  C   UNL A   1      44.976  29.169  31.278  1.00  0.00     0.049 A 
ATOM     68  H   UNL A   1      44.142  27.383  31.954  1.00  0.00     0.167 HD
ATOM     69  C   UNL A   1      45.370  27.399  29.590  1.00  0.00     0.074 A 
ATOM     70  C   UNL A   1      44.985  26.191  30.305  1.00  0.00     0.031 C 
ATOM     71  C   UNL A   1      45.456  28.697  30.000  1.00  0.00     0.037 A 
BRANCH  58  72
ATOM     72  C   UNL A   1      42.603  27.115  34.430  1.00  0.00     0.064 A 
ATOM     73  C   UNL A   1      42.378  27.192  35.819  1.00  0.00     0.173 A 
ATOM     74  C   UNL A   1      43.293  25.960  33.993  1.00  0.00     0.173 A 
ATOM     75  F   UNL A   1      41.756  28.255  36.351  1.00  0.00    -0.203 F 
ATOM     76  C   UNL A   1      42.873  26.228  36.703  1.00  0.00     0.198 A 
ATOM     77  C   UNL A   1      43.740  24.976  34.872  1.00  0.00     0.198 A 
ATOM     78  F   UNL A   1      43.673  25.783  32.724  1.00  0.00    -0.203 F 
ATOM     79  F   UNL A   1      42.744  26.407  38.024  1.00  0.00    -0.200 F 
ATOM     80  C   UNL A   1      43.558  25.124  36.228  1.00  0.00     0.200 A 
ATOM     81  F   UNL A   1      44.426  23.930  34.392  1.00  0.00    -0.200 F 
ATOM     82  F   UNL A   1      44.086  24.231  37.074  1.00  0.00    -0.200 F 
ENDBRANCH  58  72
BRANCH  59  83
ATOM     83  C   UNL A   1      43.420  24.628  26.348  1.00  0.00     0.064 A 
ATOM     84  C   UNL A   1      44.303  24.541  25.258  1.00  0.00     0.173 A 
ATOM     85  C   UNL A   1      42.806  23.430  26.756  1.00  0.00     0.173 A 
ATOM     86  F   UNL A   1      44.954  25.630  24.826  1.00  0.00    -0.203 F 
ATOM     87  C   UNL A   1      44.595  23.317  24.648  1.00  0.00     0.198 A 
ATOM     88  C   UNL A   1      43.091  22.210  26.140  1.00  0.00     0.198 A 
ATOM     89  F   UNL A   1      41.998  23.400  27.825  1.00  0.00    -0.203 F 
ATOM     90  F   UNL A   1      45.504  23.263  23.664  1.00  0.00    -0.200 F 
ATOM     91  C   UNL A   1      44.000  22.152  25.099  1.00  0.00     0.200 A 
ATOM     92  F   UNL A   1      42.534  21.084  26.606  1.00  0.00    -0.200 F 
ATOM     93  F   UNL A   1      44.335  20.970  24.564  1.00  0.00    -0.200 F 
ENDBRANCH  59  83
BRANCH  71  94
ATOM     94  C   UNL A   1      45.956  29.690  28.998  1.00  0.00     0.064 A 
ATOM     95  C   UNL A   1      45.146  30.374  28.077  1.00  0.00     0.173 A 
ATOM     96  C   UNL A   1      47.329  29.968  28.988  1.00  0.00     0.173 A 
ATOM     97  F   UNL A   1      43.814  30.227  28.084  1.00  0.00    -0.203 F 
ATOM     98  C   UNL A   1      45.704  31.248  27.143  1.00  0.00     0.198 A 
ATOM     99  C   UNL A   1      47.877  30.872  28.084  1.00  0.00     0.198 A 
ATOM    100  F   UNL A   1      48.144  29.371  29.873  1.00  0.00    -0.203 F 
ATOM    101  F   UNL A   1      44.921  31.858  26.243  1.00  0.00    -0.200 F 
ATOM    102  C   UNL A   1      47.068  31.497  27.150  1.00  0.00     0.200 A 
ATOM    103  F   UNL A   1      49.189  31.140  28.125  1.00  0.00    -0.200 F 
ATOM    104  F   UNL A   1      47.602  32.351  26.267  1.00  0.00    -0.200 F 
ENDBRANCH  71  94
ENDBRANCH  45  46
ENDBRANCH  38  40
ENDBRANCH  37  38
ENDBRANCH  36  37
ENDBRANCH  35  36
ENDBRANCH  34  35
ENDBRANCH   1  34
TORSDOF 19
ENDMDL
MODEL 3
REMARK VINA RESULT:     -11.6      2.613      3.949
REMARK SMILES CCn1ncc(NC(=O)[C@@H]2CCCC[C@@H]2C(=O)OCCOCCOC(=O)c2ccc(-c3c4nc(c(-c5c(F)c(F)c(F)c(F)c5F)c5ccc([nH]5)c(-c5c(F)c(F)c(F)c(F)c5F)c5nc(c(-c6c(F)c(F)c(F)c(F)c6F)c6ccc3[nH]6)C=C5)C=C4)cc2)c1C(=O)Nc1cnn(C)c1C
REMARK SMILES IDX 20 1 19 2 18 3 16 4 17 5 15 6 10 7 11 8 12 9 14 10 13 11
REMARK SMILES IDX 8 12 7 13 9 15 6 16 3 17 4 18 90 19 5 20 2 21 1 22 91 23
REMARK SMILES IDX 92 24 93 25 94 27 95 28 99 29 96 30 97 31 100 32 98 33 21 34
REMARK SMILES IDX 22 35 23 36 24 37 25 38 26 39 27 40 28 41 89 42 29 43 88 44
REMARK SMILES IDX 30 45 31 46 32 47 82 48 33 49 87 50 81 51 83 52 34 53 86 54
REMARK SMILES IDX 80 55 79 56 35 58 67 59 47 60 66 61 48 62 51 63 65 64 84 65
REMARK SMILES IDX 49 66 50 67 64 69 85 70 52 71 36 72 37 73 45 74 38 75 39 76
REMARK SMILES IDX 43 77 46 78 40 79 41 80 44 81 42 82 68 83 69 84 77 85 70 86
REMARK SMILES IDX 71 87 75 88 78 89 72 90 73 91 76 92 74 93 53 94 54 95 62 96
REMARK SMILES IDX 55 97 56 98 60 99 63 100 57 101 58 102 61 103 59 104
REMARK H PARENT 7 14 93 26 83 57 51 68
REMARK Flexibility Score: inf
ROOT
ATOM      1  C   UNL A   1      36.983  21.746  25.390  1.00  0.00     0.202 C 
ENDROOT
BRANCH   1   2
ATOM      2  C   UNL A   1      36.152  23.013  25.143  1.00  0.00     0.261 C 
BRANCH   2   3
ATOM      3  O   UNL A   1      34.737  22.856  25.338  1.00  0.00    -0.463 OA
BRANCH   3   4
ATOM      4  C   UNL A   1      34.064  22.869  24.161  1.00  0.00     0.309 C 
ATOM      5  O   UNL A   1      34.647  22.901  23.084  1.00  0.00    -0.252 OA
BRANCH   4   6
ATOM      6  C   UNL A   1      32.536  22.902  24.334  1.00  0.00     0.111 C 
ATOM      7  C   UNL A   1      32.028  22.256  25.668  1.00  0.00     0.093 C 
ATOM      8  C   UNL A   1      32.727  20.938  25.821  1.00  0.00     0.014 C 
ATOM      9  C   UNL A   1      32.533  20.015  24.631  1.00  0.00     0.001 C 
ATOM     10  C   UNL A   1      31.974  22.047  23.182  1.00  0.00     0.016 C 
ATOM     11  C   UNL A   1      32.521  20.620  23.235  1.00  0.00     0.001 C 
BRANCH   7  12
ATOM     12  C   UNL A   1      31.947  23.197  26.877  1.00  0.00     0.228 C 
ATOM     13  N   UNL A   1      31.698  24.538  26.880  1.00  0.00    -0.322 N 
ATOM     14  H   UNL A   1      31.777  24.923  27.783  1.00  0.00     0.170 HD
ATOM     15  O   UNL A   1      32.147  22.705  28.000  1.00  0.00    -0.274 OA
BRANCH  13  16
ATOM     16  C   UNL A   1      31.363  25.501  25.934  1.00  0.00     0.092 A 
ATOM     17  N   UNL A   1      31.166  26.668  24.128  1.00  0.00    -0.258 N 
ATOM     18  N   UNL A   1      29.896  26.623  24.597  1.00  0.00    -0.178 NA
ATOM     19  C   UNL A   1      32.087  26.400  25.132  1.00  0.00     0.150 A 
ATOM     20  C   UNL A   1      30.011  25.838  25.665  1.00  0.00     0.162 A 
BRANCH  17  21
ATOM     21  C   UNL A   1      31.307  26.421  22.700  1.00  0.00     0.142 C 
ATOM     22  C   UNL A   1      32.629  25.772  22.336  1.00  0.00     0.029 C 
ENDBRANCH  17  21
BRANCH  19  23
ATOM     23  C   UNL A   1      33.463  26.884  25.331  1.00  0.00     0.276 C 
ATOM     24  O   UNL A   1      34.412  26.100  25.251  1.00  0.00    -0.267 OA
ATOM     25  N   UNL A   1      33.787  28.233  25.255  1.00  0.00    -0.318 N 
ATOM     26  H   UNL A   1      34.513  28.444  24.624  1.00  0.00     0.170 HD
BRANCH  25  27
ATOM     27  C   UNL A   1      33.265  29.321  25.910  1.00  0.00     0.082 A 
ATOM     28  C   UNL A   1      32.006  29.919  25.740  1.00  0.00     0.161 A 
ATOM     29  C   UNL A   1      33.855  30.016  26.958  1.00  0.00     0.059 A 
ATOM     30  N   UNL A   1      31.843  30.982  26.529  1.00  0.00    -0.179 NA
ATOM     31  N   UNL A   1      33.006  31.071  27.199  1.00  0.00    -0.271 N 
ATOM     32  C   UNL A   1      35.163  29.905  27.653  1.00  0.00     0.068 C 
ATOM     33  C   UNL A   1      33.275  32.276  27.953  1.00  0.00     0.174 C 
ENDBRANCH  25  27
ENDBRANCH  19  23
ENDBRANCH  13  16
ENDBRANCH   7  12
ENDBRANCH   4   6
ENDBRANCH   3   4
ENDBRANCH   2   3
ENDBRANCH   1   2
BRANCH   1  34
ATOM     34  O   UNL A   1      38.404  21.750  25.320  1.00  0.00    -0.374 OA
BRANCH  34  35
ATOM     35  C   UNL A   1      39.210  20.704  25.840  1.00  0.00     0.202 C 
BRANCH  35  36
ATOM     36  C   UNL A   1      40.425  20.984  26.713  1.00  0.00     0.261 C 
BRANCH  36  37
ATOM     37  O   UNL A   1      40.698  22.356  26.914  1.00  0.00    -0.460 OA
BRANCH  37  38
ATOM     38  C   UNL A   1      41.687  22.792  26.109  1.00  0.00     0.338 C 
ATOM     39  O   UNL A   1      42.400  22.124  25.383  1.00  0.00    -0.246 OA
BRANCH  38  40
ATOM     40  C   UNL A   1      41.936  24.201  26.389  1.00  0.00     0.060 A 
ATOM     41  C   UNL A   1      42.727  24.451  27.509  1.00  0.00     0.016 A 
ATOM     42  C   UNL A   1      41.157  25.195  25.773  1.00  0.00     0.016 A 
ATOM     43  C   UNL A   1      42.587  25.662  28.133  1.00  0.00     0.010 A 
ATOM     44  C   UNL A   1      41.019  26.409  26.400  1.00  0.00     0.010 A 
ATOM     45  C   UNL A   1      41.687  26.599  27.605  1.00  0.00    -0.014 A 
BRANCH  45  46
ATOM     46  C   UNL A   1      41.637  27.879  28.272  1.00  0.00     0.031 A 
ATOM     47  C   UNL A   1      42.829  28.685  27.945  1.00  0.00     0.074 A 
ATOM     48  C   UNL A   1      40.624  28.275  29.060  1.00  0.00     0.049 A 
ATOM     49  N   UNL A   1      43.817  28.949  28.730  1.00  0.00    -0.248 NA
ATOM     50  C   UNL A   1      43.060  29.048  26.538  1.00  0.00     0.031 C 
ATOM     51  C   UNL A   1      39.312  27.643  29.201  1.00  0.00     0.029 A 
ATOM     52  N   UNL A   1      40.524  29.390  29.837  1.00  0.00    -0.354 N 
ATOM     53  C   UNL A   1      44.680  29.731  27.976  1.00  0.00     0.074 A 
ATOM     54  C   UNL A   1      44.284  29.576  26.603  1.00  0.00     0.031 C 
ATOM     55  C   UNL A   1      38.476  28.501  29.829  1.00  0.00     0.029 A 
ATOM     56  C   UNL A   1      39.229  29.672  30.249  1.00  0.00     0.049 A 
ATOM     57  H   UNL A   1      41.299  29.945  30.085  1.00  0.00     0.167 HD
ATOM     58  C   UNL A   1      45.386  30.713  28.593  1.00  0.00     0.037 A 
ATOM     59  C   UNL A   1      38.808  30.816  30.842  1.00  0.00     0.037 A 
ATOM     60  C   UNL A   1      45.437  30.482  30.017  1.00  0.00     0.049 A 
ATOM     61  C   UNL A   1      39.990  31.482  31.439  1.00  0.00     0.074 A 
ATOM     62  C   UNL A   1      46.096  29.629  30.873  1.00  0.00     0.029 A 
ATOM     63  N   UNL A   1      44.353  30.977  30.692  1.00  0.00    -0.354 N 
ATOM     64  N   UNL A   1      40.619  31.024  32.485  1.00  0.00    -0.248 NA
ATOM     65  C   UNL A   1      40.704  32.505  30.682  1.00  0.00     0.031 C 
ATOM     66  C   UNL A   1      45.297  29.546  32.055  1.00  0.00     0.029 A 
ATOM     67  C   UNL A   1      44.187  30.373  31.907  1.00  0.00     0.049 A 
ATOM     68  H   UNL A   1      43.764  31.684  30.343  1.00  0.00     0.167 HD
ATOM     69  C   UNL A   1      41.939  31.354  32.254  1.00  0.00     0.074 A 
ATOM     70  C   UNL A   1      41.903  32.419  31.262  1.00  0.00     0.031 C 
ATOM     71  C   UNL A   1      42.936  30.499  32.619  1.00  0.00     0.037 A 
BRANCH  58  72
ATOM     72  C   UNL A   1      45.513  32.117  28.036  1.00  0.00     0.064 A 
ATOM     73  C   UNL A   1      44.335  32.856  27.810  1.00  0.00     0.173 A 
ATOM     74  C   UNL A   1      46.675  32.626  27.409  1.00  0.00     0.173 A 
ATOM     75  F   UNL A   1      43.167  32.453  28.332  1.00  0.00    -0.203 F 
ATOM     76  C   UNL A   1      44.311  33.969  26.963  1.00  0.00     0.198 A 
ATOM     77  C   UNL A   1      46.656  33.765  26.608  1.00  0.00     0.198 A 
ATOM     78  F   UNL A   1      47.850  31.990  27.440  1.00  0.00    -0.203 F 
ATOM     79  F   UNL A   1      43.145  34.564  26.680  1.00  0.00    -0.200 F 
ATOM     80  C   UNL A   1      45.472  34.418  26.359  1.00  0.00     0.200 A 
ATOM     81  F   UNL A   1      47.788  34.165  26.010  1.00  0.00    -0.200 F 
ATOM     82  F   UNL A   1      45.441  35.445  25.501  1.00  0.00    -0.200 F 
ENDBRANCH  58  72
BRANCH  59  83
ATOM     83  C   UNL A   1      37.493  31.491  30.766  1.00  0.00     0.064 A 
ATOM     84  C   UNL A   1      36.607  31.459  31.857  1.00  0.00     0.173 A 
ATOM     85  C   UNL A   1      37.205  32.418  29.749  1.00  0.00     0.173 A 
ATOM     86  F   UNL A   1      36.827  30.626  32.884  1.00  0.00    -0.203 F 
ATOM     87  C   UNL A   1      35.526  32.341  31.947  1.00  0.00     0.198 A 
ATOM     88  C   UNL A   1      36.120  33.292  29.836  1.00  0.00     0.198 A 
ATOM     89  F   UNL A   1      38.026  32.567  28.700  1.00  0.00    -0.203 F 
ATOM     90  F   UNL A   1      34.751  32.335  33.041  1.00  0.00    -0.200 F 
ATOM     91  C   UNL A   1      35.292  33.266  30.945  1.00  0.00     0.200 A 
ATOM     92  F   UNL A   1      35.923  34.204  28.875  1.00  0.00    -0.200 F 
ATOM     93  F   UNL A   1      34.302  34.160  31.066  1.00  0.00    -0.200 F 
ENDBRANCH  59  83
BRANCH  71  94
ATOM     94  C   UNL A   1      42.639  29.553  33.741  1.00  0.00     0.064 A 
ATOM     95  C   UNL A   1      42.027  28.298  33.589  1.00  0.00     0.173 A 
ATOM     96  C   UNL A   1      43.012  29.941  35.034  1.00  0.00     0.173 A 
ATOM     97  F   UNL A   1      41.720  27.820  32.374  1.00  0.00    -0.203 F 
ATOM     98  C   UNL A   1      41.742  27.502  34.698  1.00  0.00     0.198 A 
ATOM     99  C   UNL A   1      42.766  29.126  36.133  1.00  0.00     0.198 A 
ATOM    100  F   UNL A   1      43.637  31.114  35.232  1.00  0.00    -0.203 F 
ATOM    101  F   UNL A   1      41.116  26.327  34.538  1.00  0.00    -0.200 F 
ATOM    102  C   UNL A   1      42.114  27.916  35.967  1.00  0.00     0.200 A 
ATOM    103  F   UNL A   1      43.168  29.513  37.351  1.00  0.00    -0.200 F 
ATOM    104  F   UNL A   1      41.859  27.141  37.031  1.00  0.00    -0.200 F 
ENDBRANCH  71  94
ENDBRANCH  45  46
ENDBRANCH  38  40
ENDBRANCH  37  38
ENDBRANCH  36  37
ENDBRANCH  35  36
ENDBRANCH  34  35
ENDBRANCH   1  34
TORSDOF 19
ENDMDL
