MODEL 1
REMARK VINA RESULT:     -11.8      0.000      0.000
REMARK SMILES O=C(OCCOCCOC(=O)c1ccccc1Nc1nc(Cl)nc(Nc2ccc(N3CCOCC3=O)cc2)n1)c1ccc(-c2c3nc(c(-c4c(F)c(F)c(F)c(F)c4F)c4ccc([nH]4)c(-c4c(F)c(F)c(F)c(F)c4F)c4nc(c(-c5c(F)c(F)c(F)c(F)c5F)c5ccc2[nH]5)C=C4)C=C3)cc1
REMARK SMILES IDX 7 1 6 2 5 3 4 4 3 5 2 6 1 7 40 8 41 9 102 10 42 11 101 12
REMARK SMILES IDX 43 13 44 14 45 15 95 16 46 17 100 18 94 19 96 20 47 21 99 22
REMARK SMILES IDX 93 23 92 24 48 26 80 27 60 28 79 29 61 30 64 31 78 32 97 33
REMARK SMILES IDX 62 34 63 35 77 37 98 38 65 39 49 40 50 41 58 42 51 43 52 44
REMARK SMILES IDX 56 45 59 46 53 47 54 48 57 49 55 50 81 51 82 52 90 53 83 54
REMARK SMILES IDX 84 55 88 56 91 57 85 58 86 59 89 60 87 61 66 62 67 63 75 64
REMARK SMILES IDX 68 65 69 66 73 67 76 68 70 69 71 70 74 71 72 72 8 73 9 74
REMARK SMILES IDX 10 75 11 76 12 77 13 78 17 79 14 80 16 81 15 82 18 83 19 85
REMARK SMILES IDX 20 86 39 87 21 88 24 89 22 90 23 91 25 92 26 94 27 95 38 96
REMARK SMILES IDX 28 97 37 98 29 99 30 100 31 101 35 102 32 103 34 104 36 105
REMARK SMILES IDX 33 106
REMARK H PARENT 96 25 64 36 18 84 25 93
REMARK Flexibility Score: inf
ROOT
ATOM      1  C   UNL A   1      34.853  33.624  28.475  1.00  0.00     0.202 C 
ENDROOT
BRANCH   1   2
ATOM      2  O   UNL A   1      34.720  34.909  29.088  1.00  0.00    -0.374 OA
BRANCH   2   3
ATOM      3  C   UNL A   1      33.600  35.694  28.684  1.00  0.00     0.202 C 
BRANCH   3   4
ATOM      4  C   UNL A   1      32.931  36.440  29.839  1.00  0.00     0.261 C 
BRANCH   4   5
ATOM      5  O   UNL A   1      32.557  35.516  30.874  1.00  0.00    -0.460 OA
BRANCH   5   6
ATOM      6  C   UNL A   1      32.984  35.463  32.155  1.00  0.00     0.338 C 
ATOM      7  O   UNL A   1      32.331  36.053  33.016  1.00  0.00    -0.246 OA
BRANCH   6   8
ATOM      8  C   UNL A   1      34.213  34.737  32.602  1.00  0.00     0.060 A 
ATOM      9  C   UNL A   1      34.237  33.436  33.106  1.00  0.00     0.016 A 
ATOM     10  C   UNL A   1      35.445  35.382  32.396  1.00  0.00     0.016 A 
ATOM     11  C   UNL A   1      35.424  32.796  33.419  1.00  0.00     0.010 A 
ATOM     12  C   UNL A   1      36.653  34.738  32.684  1.00  0.00     0.010 A 
ATOM     13  C   UNL A   1      36.636  33.439  33.200  1.00  0.00    -0.014 A 
BRANCH  13  14
ATOM     14  C   UNL A   1      37.856  32.737  33.625  1.00  0.00     0.031 A 
ATOM     15  C   UNL A   1      38.483  31.774  32.670  1.00  0.00     0.074 A 
ATOM     16  C   UNL A   1      38.455  33.100  34.772  1.00  0.00     0.049 A 
ATOM     17  N   UNL A   1      39.551  31.040  32.818  1.00  0.00    -0.248 NA
ATOM     18  C   UNL A   1      37.827  31.634  31.360  1.00  0.00     0.031 C 
ATOM     19  C   UNL A   1      37.970  34.141  35.681  1.00  0.00     0.029 A 
ATOM     20  N   UNL A   1      39.617  32.667  35.350  1.00  0.00    -0.354 N 
ATOM     21  C   UNL A   1      39.683  30.335  31.630  1.00  0.00     0.074 A 
ATOM     22  C   UNL A   1      38.589  30.726  30.770  1.00  0.00     0.031 C 
ATOM     23  C   UNL A   1      38.841  34.280  36.693  1.00  0.00     0.029 A 
ATOM     24  C   UNL A   1      39.903  33.294  36.539  1.00  0.00     0.049 A 
ATOM     25  H   UNL A   1      40.193  31.974  34.952  1.00  0.00     0.167 HD
ATOM     26  C   UNL A   1      40.636  29.433  31.304  1.00  0.00     0.037 A 
ATOM     27  C   UNL A   1      40.897  33.057  37.414  1.00  0.00     0.037 A 
ATOM     28  C   UNL A   1      41.704  29.066  32.193  1.00  0.00     0.049 A 
ATOM     29  C   UNL A   1      41.882  31.970  37.072  1.00  0.00     0.074 A 
ATOM     30  C   UNL A   1      42.687  28.111  32.022  1.00  0.00     0.029 A 
ATOM     31  N   UNL A   1      41.921  29.653  33.435  1.00  0.00    -0.354 N 
ATOM     32  N   UNL A   1      41.964  31.242  35.982  1.00  0.00    -0.248 NA
ATOM     33  C   UNL A   1      42.898  31.656  38.083  1.00  0.00     0.031 C 
ATOM     34  C   UNL A   1      43.471  28.087  33.182  1.00  0.00     0.029 A 
ATOM     35  C   UNL A   1      43.011  29.066  34.052  1.00  0.00     0.049 A 
ATOM     36  H   UNL A   1      41.377  30.378  33.820  1.00  0.00     0.167 HD
ATOM     37  C   UNL A   1      43.045  30.394  36.167  1.00  0.00     0.074 A 
ATOM     38  C   UNL A   1      43.603  30.717  37.467  1.00  0.00     0.031 C 
ATOM     39  C   UNL A   1      43.533  29.430  35.347  1.00  0.00     0.037 A 
BRANCH  26  40
ATOM     40  C   UNL A   1      40.494  28.740  29.982  1.00  0.00     0.064 A 
ATOM     41  C   UNL A   1      39.737  27.568  29.832  1.00  0.00     0.173 A 
ATOM     42  C   UNL A   1      41.168  29.234  28.856  1.00  0.00     0.173 A 
ATOM     43  F   UNL A   1      39.100  27.035  30.885  1.00  0.00    -0.203 F 
ATOM     44  C   UNL A   1      39.689  26.899  28.610  1.00  0.00     0.198 A 
ATOM     45  C   UNL A   1      41.095  28.578  27.630  1.00  0.00     0.198 A 
ATOM     46  F   UNL A   1      41.913  30.346  28.948  1.00  0.00    -0.203 F 
ATOM     47  F   UNL A   1      39.015  25.746  28.505  1.00  0.00    -0.200 F 
ATOM     48  C   UNL A   1      40.366  27.406  27.510  1.00  0.00     0.200 A 
ATOM     49  F   UNL A   1      41.749  29.071  26.569  1.00  0.00    -0.200 F 
ATOM     50  F   UNL A   1      40.328  26.755  26.339  1.00  0.00    -0.200 F 
ENDBRANCH  26  40
BRANCH  27  51
ATOM     51  C   UNL A   1      40.972  33.808  38.695  1.00  0.00     0.064 A 
ATOM     52  C   UNL A   1      41.836  34.899  38.856  1.00  0.00     0.173 A 
ATOM     53  C   UNL A   1      40.189  33.436  39.801  1.00  0.00     0.173 A 
ATOM     54  F   UNL A   1      42.625  35.285  37.842  1.00  0.00    -0.203 F 
ATOM     55  C   UNL A   1      41.928  35.577  40.073  1.00  0.00     0.198 A 
ATOM     56  C   UNL A   1      40.256  34.134  41.005  1.00  0.00     0.198 A 
ATOM     57  F   UNL A   1      39.346  32.397  39.709  1.00  0.00    -0.203 F 
ATOM     58  F   UNL A   1      42.799  36.585  40.213  1.00  0.00    -0.200 F 
ATOM     59  C   UNL A   1      41.132  35.197  41.143  1.00  0.00     0.200 A 
ATOM     60  F   UNL A   1      39.475  33.770  42.031  1.00  0.00    -0.200 F 
ATOM     61  F   UNL A   1      41.219  35.849  42.312  1.00  0.00    -0.200 F 
ENDBRANCH  27  51
BRANCH  39  62
ATOM     62  C   UNL A   1      44.743  28.686  35.826  1.00  0.00     0.064 A 
ATOM     63  C   UNL A   1      44.630  27.517  36.589  1.00  0.00     0.173 A 
ATOM     64  C   UNL A   1      46.026  29.127  35.471  1.00  0.00     0.173 A 
ATOM     65  F   UNL A   1      43.423  27.069  36.965  1.00  0.00    -0.203 F 
ATOM     66  C   UNL A   1      45.764  26.823  37.000  1.00  0.00     0.198 A 
ATOM     67  C   UNL A   1      47.156  28.414  35.856  1.00  0.00     0.198 A 
ATOM     68  F   UNL A   1      46.182  30.238  34.736  1.00  0.00    -0.203 F 
ATOM     69  F   UNL A   1      45.638  25.732  37.767  1.00  0.00    -0.200 F 
ATOM     70  C   UNL A   1      47.024  27.267  36.626  1.00  0.00     0.200 A 
ATOM     71  F   UNL A   1      48.371  28.835  35.483  1.00  0.00    -0.200 F 
ATOM     72  F   UNL A   1      48.115  26.592  37.013  1.00  0.00    -0.200 F 
ENDBRANCH  39  62
ENDBRANCH  13  14
ENDBRANCH   6   8
ENDBRANCH   5   6
ENDBRANCH   4   5
ENDBRANCH   3   4
ENDBRANCH   2   3
ENDBRANCH   1   2
BRANCH   1  73
ATOM     73  C   UNL A   1      33.496  33.237  27.882  1.00  0.00     0.261 C 
BRANCH  73  74
ATOM     74  O   UNL A   1      33.422  31.801  27.850  1.00  0.00    -0.460 OA
BRANCH  74  75
ATOM     75  C   UNL A   1      32.494  31.267  27.013  1.00  0.00     0.340 C 
ATOM     76  O   UNL A   1      31.453  31.801  26.666  1.00  0.00    -0.246 OA
BRANCH  75  77
ATOM     77  C   UNL A   1      33.015  29.981  26.448  1.00  0.00     0.083 A 
ATOM     78  C   UNL A   1      34.000  29.325  27.202  1.00  0.00     0.018 A 
ATOM     79  C   UNL A   1      32.540  29.409  25.240  1.00  0.00     0.055 A 
ATOM     80  C   UNL A   1      34.512  28.102  26.777  1.00  0.00     0.001 A 
ATOM     81  C   UNL A   1      33.078  28.184  24.829  1.00  0.00     0.027 A 
ATOM     82  C   UNL A   1      34.054  27.536  25.591  1.00  0.00     0.002 A 
BRANCH  79  83
ATOM     83  N   UNL A   1      31.574  30.085  24.483  1.00  0.00    -0.323 N 
ATOM     84  H   UNL A   1      31.789  31.036  24.344  1.00  0.00     0.170 HD
BRANCH  83  85
ATOM     85  C   UNL A   1      30.388  29.705  23.891  1.00  0.00     0.233 A 
ATOM     86  N   UNL A   1      29.547  30.561  23.348  1.00  0.00    -0.182 NA
ATOM     87  N   UNL A   1      30.217  28.388  23.914  1.00  0.00    -0.176 NA
ATOM     88  C   UNL A   1      28.517  29.965  22.767  1.00  0.00     0.228 A 
ATOM     89  C   UNL A   1      29.100  27.920  23.390  1.00  0.00     0.233 A 
ATOM     90  Cl  UNL A   1      27.415  30.992  21.960  1.00  0.00    -0.041 Cl
ATOM     91  N   UNL A   1      28.224  28.675  22.750  1.00  0.00    -0.182 NA
BRANCH  89  92
ATOM     92  N   UNL A   1      28.854  26.583  23.665  1.00  0.00    -0.324 N 
ATOM     93  H   UNL A   1      27.932  26.277  23.503  1.00  0.00     0.170 HD
BRANCH  92  94
ATOM     94  C   UNL A   1      29.734  25.616  24.137  1.00  0.00     0.041 A 
ATOM     95  C   UNL A   1      30.474  24.847  23.234  1.00  0.00     0.028 A 
ATOM     96  C   UNL A   1      29.969  25.473  25.504  1.00  0.00     0.028 A 
ATOM     97  C   UNL A   1      31.461  23.972  23.694  1.00  0.00     0.028 A 
ATOM     98  C   UNL A   1      30.907  24.557  25.968  1.00  0.00     0.028 A 
ATOM     99  C   UNL A   1      31.676  23.818  25.065  1.00  0.00     0.044 A 
BRANCH  99 100
ATOM    100  N   UNL A   1      32.720  22.987  25.549  1.00  0.00    -0.308 N 
ATOM    101  C   UNL A   1      33.842  23.672  26.202  1.00  0.00     0.154 C 
ATOM    102  C   UNL A   1      32.498  21.620  25.743  1.00  0.00     0.253 C 
ATOM    103  C   UNL A   1      34.988  22.738  26.563  1.00  0.00     0.183 C 
ATOM    104  C   UNL A   1      33.602  20.869  26.498  1.00  0.00     0.260 C 
ATOM    105  O   UNL A   1      31.538  20.998  25.283  1.00  0.00    -0.272 OA
ATOM    106  O   UNL A   1      34.484  21.632  27.307  1.00  0.00    -0.370 OA
ENDBRANCH  99 100
ENDBRANCH  92  94
ENDBRANCH  89  92
ENDBRANCH  83  85
ENDBRANCH  79  83
ENDBRANCH  75  77
ENDBRANCH  74  75
ENDBRANCH  73  74
ENDBRANCH   1  73
TORSDOF 19
ENDMDL
MODEL 2
REMARK VINA RESULT:     -11.4      5.064      8.909
REMARK SMILES O=C(OCCOCCOC(=O)c1ccccc1Nc1nc(Cl)nc(Nc2ccc(N3CCOCC3=O)cc2)n1)c1ccc(-c2c3nc(c(-c4c(F)c(F)c(F)c(F)c4F)c4ccc([nH]4)c(-c4c(F)c(F)c(F)c(F)c4F)c4nc(c(-c5c(F)c(F)c(F)c(F)c5F)c5ccc2[nH]5)C=C4)C=C3)cc1
REMARK SMILES IDX 7 1 6 2 5 3 4 4 3 5 2 6 1 7 40 8 41 9 102 10 42 11 101 12
REMARK SMILES IDX 43 13 44 14 45 15 95 16 46 17 100 18 94 19 96 20 47 21 99 22
REMARK SMILES IDX 93 23 92 24 48 26 80 27 60 28 79 29 61 30 64 31 78 32 97 33
REMARK SMILES IDX 62 34 63 35 77 37 98 38 65 39 49 40 50 41 58 42 51 43 52 44
REMARK SMILES IDX 56 45 59 46 53 47 54 48 57 49 55 50 81 51 82 52 90 53 83 54
REMARK SMILES IDX 84 55 88 56 91 57 85 58 86 59 89 60 87 61 66 62 67 63 75 64
REMARK SMILES IDX 68 65 69 66 73 67 76 68 70 69 71 70 74 71 72 72 8 73 9 74
REMARK SMILES IDX 10 75 11 76 12 77 13 78 17 79 14 80 16 81 15 82 18 83 19 85
REMARK SMILES IDX 20 86 39 87 21 88 24 89 22 90 23 91 25 92 26 94 27 95 38 96
REMARK SMILES IDX 28 97 37 98 29 99 30 100 31 101 35 102 32 103 34 104 36 105
REMARK SMILES IDX 33 106
REMARK H PARENT 96 25 64 36 18 84 25 93
REMARK Flexibility Score: inf
ROOT
ATOM      1  C   UNL A   1      34.794  34.431  28.190  1.00  0.00     0.202 C 
ENDROOT
BRANCH   1   2
ATOM      2  O   UNL A   1      35.019  34.713  29.573  1.00  0.00    -0.374 OA
BRANCH   2   3
ATOM      3  C   UNL A   1      33.888  34.610  30.435  1.00  0.00     0.202 C 
BRANCH   3   4
ATOM      4  C   UNL A   1      34.259  34.403  31.905  1.00  0.00     0.261 C 
BRANCH   4   5
ATOM      5  O   UNL A   1      35.539  33.757  32.005  1.00  0.00    -0.460 OA
BRANCH   5   6
ATOM      6  C   UNL A   1      35.828  32.438  31.939  1.00  0.00     0.338 C 
ATOM      7  O   UNL A   1      35.062  31.642  32.483  1.00  0.00    -0.246 OA
BRANCH   6   8
ATOM      8  C   UNL A   1      37.031  31.876  31.252  1.00  0.00     0.060 A 
ATOM      9  C   UNL A   1      37.354  32.075  29.909  1.00  0.00     0.016 A 
ATOM     10  C   UNL A   1      37.957  31.182  32.051  1.00  0.00     0.016 A 
ATOM     11  C   UNL A   1      38.531  31.594  29.361  1.00  0.00     0.010 A 
ATOM     12  C   UNL A   1      39.161  30.712  31.517  1.00  0.00     0.010 A 
ATOM     13  C   UNL A   1      39.443  30.919  30.164  1.00  0.00    -0.014 A 
BRANCH  13  14
ATOM     14  C   UNL A   1      40.636  30.366  29.507  1.00  0.00     0.031 A 
ATOM     15  C   UNL A   1      41.862  31.218  29.438  1.00  0.00     0.074 A 
ATOM     16  C   UNL A   1      40.644  29.072  29.144  1.00  0.00     0.049 A 
ATOM     17  N   UNL A   1      43.025  30.953  28.912  1.00  0.00    -0.248 NA
ATOM     18  C   UNL A   1      41.770  32.545  30.069  1.00  0.00     0.031 C 
ATOM     19  C   UNL A   1      39.524  28.144  29.319  1.00  0.00     0.029 A 
ATOM     20  N   UNL A   1      41.632  28.304  28.593  1.00  0.00    -0.354 N 
ATOM     21  C   UNL A   1      43.796  32.086  29.127  1.00  0.00     0.074 A 
ATOM     22  C   UNL A   1      42.973  33.043  29.830  1.00  0.00     0.031 C 
ATOM     23  C   UNL A   1      39.897  26.924  28.901  1.00  0.00     0.029 A 
ATOM     24  C   UNL A   1      41.251  27.002  28.368  1.00  0.00     0.049 A 
ATOM     25  H   UNL A   1      42.528  28.649  28.377  1.00  0.00     0.167 HD
ATOM     26  C   UNL A   1      45.077  32.299  28.752  1.00  0.00     0.037 A 
ATOM     27  C   UNL A   1      41.923  26.007  27.761  1.00  0.00     0.037 A 
ATOM     28  C   UNL A   1      45.860  31.323  28.045  1.00  0.00     0.049 A 
ATOM     29  C   UNL A   1      43.310  26.308  27.257  1.00  0.00     0.074 A 
ATOM     30  C   UNL A   1      47.139  31.437  27.537  1.00  0.00     0.029 A 
ATOM     31  N   UNL A   1      45.419  30.037  27.748  1.00  0.00    -0.354 N 
ATOM     32  N   UNL A   1      44.015  27.408  27.387  1.00  0.00    -0.248 NA
ATOM     33  C   UNL A   1      43.988  25.243  26.509  1.00  0.00     0.031 C 
ATOM     34  C   UNL A   1      47.453  30.236  26.890  1.00  0.00     0.029 A 
ATOM     35  C   UNL A   1      46.393  29.353  27.044  1.00  0.00     0.049 A 
ATOM     36  H   UNL A   1      44.541  29.669  28.000  1.00  0.00     0.167 HD
ATOM     37  C   UNL A   1      45.224  27.166  26.751  1.00  0.00     0.074 A 
ATOM     38  C   UNL A   1      45.162  25.803  26.257  1.00  0.00     0.031 C 
ATOM     39  C   UNL A   1      46.287  27.992  26.580  1.00  0.00     0.037 A 
BRANCH  26  40
ATOM     40  C   UNL A   1      45.650  33.658  29.026  1.00  0.00     0.064 A 
ATOM     41  C   UNL A   1      45.517  34.720  28.119  1.00  0.00     0.173 A 
ATOM     42  C   UNL A   1      46.387  33.884  30.198  1.00  0.00     0.173 A 
ATOM     43  F   UNL A   1      44.852  34.547  26.968  1.00  0.00    -0.203 F 
ATOM     44  C   UNL A   1      46.130  35.948  28.361  1.00  0.00     0.198 A 
ATOM     45  C   UNL A   1      46.975  35.121  30.449  1.00  0.00     0.198 A 
ATOM     46  F   UNL A   1      46.552  32.899  31.093  1.00  0.00    -0.203 F 
ATOM     47  F   UNL A   1      46.046  36.929  27.452  1.00  0.00    -0.200 F 
ATOM     48  C   UNL A   1      46.855  36.148  29.527  1.00  0.00     0.200 A 
ATOM     49  F   UNL A   1      47.674  35.312  31.577  1.00  0.00    -0.200 F 
ATOM     50  F   UNL A   1      47.453  37.326  29.753  1.00  0.00    -0.200 F 
ENDBRANCH  26  40
BRANCH  27  51
ATOM     51  C   UNL A   1      41.282  24.682  27.548  1.00  0.00     0.064 A 
ATOM     52  C   UNL A   1      41.727  23.536  28.222  1.00  0.00     0.173 A 
ATOM     53  C   UNL A   1      40.215  24.528  26.647  1.00  0.00     0.173 A 
ATOM     54  F   UNL A   1      42.757  23.619  29.077  1.00  0.00    -0.203 F 
ATOM     55  C   UNL A   1      41.145  22.289  27.991  1.00  0.00     0.198 A 
ATOM     56  C   UNL A   1      39.612  23.288  26.442  1.00  0.00     0.198 A 
ATOM     57  F   UNL A   1      39.749  25.587  25.970  1.00  0.00    -0.203 F 
ATOM     58  F   UNL A   1      41.624  21.202  28.611  1.00  0.00    -0.200 F 
ATOM     59  C   UNL A   1      40.083  22.168  27.106  1.00  0.00     0.200 A 
ATOM     60  F   UNL A   1      38.579  23.182  25.595  1.00  0.00    -0.200 F 
ATOM     61  F   UNL A   1      39.523  20.971  26.885  1.00  0.00    -0.200 F 
ENDBRANCH  27  51
BRANCH  39  62
ATOM     62  C   UNL A   1      47.470  27.425  25.856  1.00  0.00     0.064 A 
ATOM     63  C   UNL A   1      47.633  27.592  24.475  1.00  0.00     0.173 A 
ATOM     64  C   UNL A   1      48.474  26.752  26.567  1.00  0.00     0.173 A 
ATOM     65  F   UNL A   1      46.690  28.215  23.752  1.00  0.00    -0.203 F 
ATOM     66  C   UNL A   1      48.754  27.084  23.824  1.00  0.00     0.198 A 
ATOM     67  C   UNL A   1      49.607  26.274  25.919  1.00  0.00     0.198 A 
ATOM     68  F   UNL A   1      48.363  26.574  27.892  1.00  0.00    -0.203 F 
ATOM     69  F   UNL A   1      48.871  27.215  22.495  1.00  0.00    -0.200 F 
ATOM     70  C   UNL A   1      49.743  26.434  24.548  1.00  0.00     0.200 A 
ATOM     71  F   UNL A   1      50.569  25.659  26.620  1.00  0.00    -0.200 F 
ATOM     72  F   UNL A   1      50.827  25.957  23.922  1.00  0.00    -0.200 F 
ENDBRANCH  39  62
ENDBRANCH  13  14
ENDBRANCH   6   8
ENDBRANCH   5   6
ENDBRANCH   4   5
ENDBRANCH   3   4
ENDBRANCH   2   3
ENDBRANCH   1   2
BRANCH   1  73
ATOM     73  C   UNL A   1      33.470  33.674  28.067  1.00  0.00     0.261 C 
BRANCH  73  74
ATOM     74  O   UNL A   1      33.699  32.511  27.255  1.00  0.00    -0.460 OA
BRANCH  74  75
ATOM     75  C   UNL A   1      32.611  31.742  26.986  1.00  0.00     0.340 C 
ATOM     76  O   UNL A   1      31.457  32.134  26.923  1.00  0.00    -0.246 OA
BRANCH  75  77
ATOM     77  C   UNL A   1      33.056  30.359  26.619  1.00  0.00     0.083 A 
ATOM     78  C   UNL A   1      34.150  29.848  27.335  1.00  0.00     0.018 A 
ATOM     79  C   UNL A   1      32.412  29.566  25.634  1.00  0.00     0.055 A 
ATOM     80  C   UNL A   1      34.606  28.555  27.092  1.00  0.00     0.001 A 
ATOM     81  C   UNL A   1      32.897  28.274  25.402  1.00  0.00     0.027 A 
ATOM     82  C   UNL A   1      33.982  27.772  26.125  1.00  0.00     0.002 A 
BRANCH  79  83
ATOM     83  N   UNL A   1      31.337  30.096  24.910  1.00  0.00    -0.323 N 
ATOM     84  H   UNL A   1      31.239  31.069  25.021  1.00  0.00     0.170 HD
BRANCH  83  85
ATOM     85  C   UNL A   1      30.387  29.547  24.074  1.00  0.00     0.233 A 
ATOM     86  N   UNL A   1      29.699  30.256  23.202  1.00  0.00    -0.182 NA
ATOM     87  N   UNL A   1      30.274  28.235  24.238  1.00  0.00    -0.176 NA
ATOM     88  C   UNL A   1      28.905  29.509  22.451  1.00  0.00     0.228 A 
ATOM     89  C   UNL A   1      29.375  27.614  23.499  1.00  0.00     0.233 A 
ATOM     90  Cl  UNL A   1      28.035  30.331  21.231  1.00  0.00    -0.041 Cl
ATOM     91  N   UNL A   1      28.686  28.206  22.540  1.00  0.00    -0.182 NA
BRANCH  89  92
ATOM     92  N   UNL A   1      29.119  26.306  23.885  1.00  0.00    -0.324 N 
ATOM     93  H   UNL A   1      28.168  26.054  23.936  1.00  0.00     0.170 HD
BRANCH  92  94
ATOM     94  C   UNL A   1      30.025  25.302  24.209  1.00  0.00     0.041 A 
ATOM     95  C   UNL A   1      30.602  24.531  23.195  1.00  0.00     0.028 A 
ATOM     96  C   UNL A   1      30.447  25.121  25.525  1.00  0.00     0.028 A 
ATOM     97  C   UNL A   1      31.614  23.617  23.493  1.00  0.00     0.028 A 
ATOM     98  C   UNL A   1      31.410  24.166  25.833  1.00  0.00     0.028 A 
ATOM     99  C   UNL A   1      32.018  23.424  24.816  1.00  0.00     0.044 A 
BRANCH  99 100
ATOM    100  N   UNL A   1      33.092  22.551  25.130  1.00  0.00    -0.308 N 
ATOM    101  C   UNL A   1      33.042  21.219  24.515  1.00  0.00     0.154 C 
ATOM    102  C   UNL A   1      34.284  23.062  25.650  1.00  0.00     0.253 C 
ATOM    103  C   UNL A   1      34.141  20.288  25.008  1.00  0.00     0.183 C 
ATOM    104  C   UNL A   1      35.456  22.074  25.717  1.00  0.00     0.260 C 
ATOM    105  O   UNL A   1      34.412  24.196  26.116  1.00  0.00    -0.272 OA
ATOM    106  O   UNL A   1      35.405  20.933  24.875  1.00  0.00    -0.370 OA
ENDBRANCH  99 100
ENDBRANCH  92  94
ENDBRANCH  89  92
ENDBRANCH  83  85
ENDBRANCH  79  83
ENDBRANCH  75  77
ENDBRANCH  74  75
ENDBRANCH  73  74
ENDBRANCH   1  73
TORSDOF 19
ENDMDL
MODEL 3
REMARK VINA RESULT:     -11.1      3.452      5.497
REMARK SMILES O=C(OCCOCCOC(=O)c1ccccc1Nc1nc(Cl)nc(Nc2ccc(N3CCOCC3=O)cc2)n1)c1ccc(-c2c3nc(c(-c4c(F)c(F)c(F)c(F)c4F)c4ccc([nH]4)c(-c4c(F)c(F)c(F)c(F)c4F)c4nc(c(-c5c(F)c(F)c(F)c(F)c5F)c5ccc2[nH]5)C=C4)C=C3)cc1
REMARK SMILES IDX 7 1 6 2 5 3 4 4 3 5 2 6 1 7 40 8 41 9 102 10 42 11 101 12
REMARK SMILES IDX 43 13 44 14 45 15 95 16 46 17 100 18 94 19 96 20 47 21 99 22
REMARK SMILES IDX 93 23 92 24 48 26 80 27 60 28 79 29 61 30 64 31 78 32 97 33
REMARK SMILES IDX 62 34 63 35 77 37 98 38 65 39 49 40 50 41 58 42 51 43 52 44
REMARK SMILES IDX 56 45 59 46 53 47 54 48 57 49 55 50 81 51 82 52 90 53 83 54
REMARK SMILES IDX 84 55 88 56 91 57 85 58 86 59 89 60 87 61 66 62 67 63 75 64
REMARK SMILES IDX 68 65 69 66 73 67 76 68 70 69 71 70 74 71 72 72 8 73 9 74
REMARK SMILES IDX 10 75 11 76 12 77 13 78 17 79 14 80 16 81 15 82 18 83 19 85
REMARK SMILES IDX 20 86 39 87 21 88 24 89 22 90 23 91 25 92 26 94 27 95 38 96
REMARK SMILES IDX 28 97 37 98 29 99 30 100 31 101 35 102 32 103 34 104 36 105
REMARK SMILES IDX 33 106
REMARK H PARENT 96 25 64 36 18 84 25 93
REMARK Flexibility Score: inf
ROOT
ATOM      1  C   UNL A   1      36.810  30.492  28.451  1.00  0.00     0.202 C 
ENDROOT
BRANCH   1   2
ATOM      2  O   UNL A   1      35.725  30.298  27.540  1.00  0.00    -0.374 OA
BRANCH   2   3
ATOM      3  C   UNL A   1      34.529  31.024  27.813  1.00  0.00     0.202 C 
BRANCH   3   4
ATOM      4  C   UNL A   1      34.691  32.539  27.675  1.00  0.00     0.261 C 
BRANCH   4   5
ATOM      5  O   UNL A   1      33.811  33.215  28.589  1.00  0.00    -0.460 OA
BRANCH   5   6
ATOM      6  C   UNL A   1      34.090  33.728  29.808  1.00  0.00     0.338 C 
ATOM      7  O   UNL A   1      33.306  34.544  30.294  1.00  0.00    -0.246 OA
BRANCH   6   8
ATOM      8  C   UNL A   1      35.301  33.375  30.611  1.00  0.00     0.060 A 
ATOM      9  C   UNL A   1      36.445  34.165  30.728  1.00  0.00     0.016 A 
ATOM     10  C   UNL A   1      35.231  32.205  31.389  1.00  0.00     0.016 A 
ATOM     11  C   UNL A   1      37.494  33.814  31.559  1.00  0.00     0.010 A 
ATOM     12  C   UNL A   1      36.273  31.851  32.251  1.00  0.00     0.010 A 
ATOM     13  C   UNL A   1      37.409  32.661  32.332  1.00  0.00    -0.014 A 
BRANCH  13  14
ATOM     14  C   UNL A   1      38.587  32.302  33.134  1.00  0.00     0.031 A 
ATOM     15  C   UNL A   1      39.722  31.610  32.450  1.00  0.00     0.074 A 
ATOM     16  C   UNL A   1      38.680  32.748  34.398  1.00  0.00     0.049 A 
ATOM     17  N   UNL A   1      40.855  31.195  32.943  1.00  0.00    -0.248 NA
ATOM     18  C   UNL A   1      39.564  31.372  31.006  1.00  0.00     0.031 C 
ATOM     19  C   UNL A   1      37.667  33.557  35.081  1.00  0.00     0.029 A 
ATOM     20  N   UNL A   1      39.683  32.623  35.320  1.00  0.00    -0.354 N 
ATOM     21  C   UNL A   1      41.537  30.627  31.876  1.00  0.00     0.074 A 
ATOM     22  C   UNL A   1      40.694  30.748  30.709  1.00  0.00     0.031 C 
ATOM     23  C   UNL A   1      38.111  33.872  36.307  1.00  0.00     0.029 A 
ATOM     24  C   UNL A   1      39.403  33.232  36.519  1.00  0.00     0.049 A 
ATOM     25  H   UNL A   1      40.524  32.142  35.141  1.00  0.00     0.167 HD
ATOM     26  C   UNL A   1      42.758  30.047  31.889  1.00  0.00     0.037 A 
ATOM     27  C   UNL A   1      40.107  33.229  37.665  1.00  0.00     0.037 A 
ATOM     28  C   UNL A   1      43.563  29.939  33.075  1.00  0.00     0.049 A 
ATOM     29  C   UNL A   1      41.415  32.482  37.679  1.00  0.00     0.074 A 
ATOM     30  C   UNL A   1      44.779  29.308  33.245  1.00  0.00     0.029 A 
ATOM     31  N   UNL A   1      43.215  30.488  34.305  1.00  0.00    -0.354 N 
ATOM     32  N   UNL A   1      42.027  31.872  36.690  1.00  0.00    -0.248 NA
ATOM     33  C   UNL A   1      42.120  32.403  38.963  1.00  0.00     0.031 C 
ATOM     34  C   UNL A   1      45.144  29.434  34.591  1.00  0.00     0.029 A 
ATOM     35  C   UNL A   1      44.184  30.192  35.246  1.00  0.00     0.049 A 
ATOM     36  H   UNL A   1      42.398  31.009  34.480  1.00  0.00     0.167 HD
ATOM     37  C   UNL A   1      43.195  31.349  37.226  1.00  0.00     0.074 A 
ATOM     38  C   UNL A   1      43.214  31.737  38.624  1.00  0.00     0.031 C 
ATOM     39  C   UNL A   1      44.161  30.609  36.627  1.00  0.00     0.037 A 
BRANCH  26  40
ATOM     40  C   UNL A   1      43.228  29.422  30.609  1.00  0.00     0.064 A 
ATOM     41  C   UNL A   1      42.915  28.097  30.268  1.00  0.00     0.173 A 
ATOM     42  C   UNL A   1      44.046  30.149  29.733  1.00  0.00     0.173 A 
ATOM     43  F   UNL A   1      42.164  27.347  31.087  1.00  0.00    -0.203 F 
ATOM     44  C   UNL A   1      43.433  27.515  29.112  1.00  0.00     0.198 A 
ATOM     45  C   UNL A   1      44.540  29.573  28.566  1.00  0.00     0.198 A 
ATOM     46  F   UNL A   1      44.383  31.416  30.018  1.00  0.00    -0.203 F 
ATOM     47  F   UNL A   1      43.177  26.229  28.838  1.00  0.00    -0.200 F 
ATOM     48  C   UNL A   1      44.243  28.254  28.261  1.00  0.00     0.200 A 
ATOM     49  F   UNL A   1      45.321  30.290  27.745  1.00  0.00    -0.200 F 
ATOM     50  F   UNL A   1      44.750  27.689  27.157  1.00  0.00    -0.200 F 
ENDBRANCH  26  40
BRANCH  27  51
ATOM     51  C   UNL A   1      39.572  33.894  38.884  1.00  0.00     0.064 A 
ATOM     52  C   UNL A   1      39.989  35.177  39.262  1.00  0.00     0.173 A 
ATOM     53  C   UNL A   1      38.639  33.248  39.712  1.00  0.00     0.173 A 
ATOM     54  F   UNL A   1      40.895  35.833  38.521  1.00  0.00    -0.203 F 
ATOM     55  C   UNL A   1      39.510  35.780  40.426  1.00  0.00     0.198 A 
ATOM     56  C   UNL A   1      38.136  33.864  40.856  1.00  0.00     0.198 A 
ATOM     57  F   UNL A   1      38.207  32.016  39.405  1.00  0.00    -0.203 F 
ATOM     58  F   UNL A   1      39.964  36.987  40.789  1.00  0.00    -0.200 F 
ATOM     59  C   UNL A   1      38.579  35.125  41.218  1.00  0.00     0.200 A 
ATOM     60  F   UNL A   1      37.226  33.230  41.610  1.00  0.00    -0.200 F 
ATOM     61  F   UNL A   1      38.117  35.704  42.335  1.00  0.00    -0.200 F 
ENDBRANCH  27  51
BRANCH  39  62
ATOM     62  C   UNL A   1      45.326  30.205  37.479  1.00  0.00     0.064 A 
ATOM     63  C   UNL A   1      45.401  28.933  38.062  1.00  0.00     0.173 A 
ATOM     64  C   UNL A   1      46.399  31.087  37.669  1.00  0.00     0.173 A 
ATOM     65  F   UNL A   1      44.390  28.063  37.920  1.00  0.00    -0.203 F 
ATOM     66  C   UNL A   1      46.504  28.564  38.826  1.00  0.00     0.198 A 
ATOM     67  C   UNL A   1      47.513  30.704  38.407  1.00  0.00     0.198 A 
ATOM     68  F   UNL A   1      46.373  32.313  37.125  1.00  0.00    -0.203 F 
ATOM     69  F   UNL A   1      46.538  27.359  39.412  1.00  0.00    -0.200 F 
ATOM     70  C   UNL A   1      47.562  29.446  38.990  1.00  0.00     0.200 A 
ATOM     71  F   UNL A   1      48.541  31.551  38.553  1.00  0.00    -0.200 F 
ATOM     72  F   UNL A   1      48.629  29.086  39.716  1.00  0.00    -0.200 F 
ENDBRANCH  39  62
ENDBRANCH  13  14
ENDBRANCH   6   8
ENDBRANCH   5   6
ENDBRANCH   4   5
ENDBRANCH   3   4
ENDBRANCH   2   3
ENDBRANCH   1   2
BRANCH   1  73
ATOM     73  C   UNL A   1      37.414  29.122  28.770  1.00  0.00     0.261 C 
BRANCH  73  74
ATOM     74  O   UNL A   1      38.731  29.076  28.197  1.00  0.00    -0.460 OA
BRANCH  74  75
ATOM     75  C   UNL A   1      39.416  27.913  28.359  1.00  0.00     0.340 C 
ATOM     76  O   UNL A   1      39.209  27.076  29.223  1.00  0.00    -0.246 OA
BRANCH  75  77
ATOM     77  C   UNL A   1      40.366  27.730  27.215  1.00  0.00     0.083 A 
ATOM     78  C   UNL A   1      40.957  28.898  26.707  1.00  0.00     0.018 A 
ATOM     79  C   UNL A   1      40.703  26.463  26.673  1.00  0.00     0.055 A 
ATOM     80  C   UNL A   1      41.886  28.821  25.673  1.00  0.00     0.001 A 
ATOM     81  C   UNL A   1      41.632  26.415  25.627  1.00  0.00     0.027 A 
ATOM     82  C   UNL A   1      42.219  27.582  25.132  1.00  0.00     0.002 A 
BRANCH  79  83
ATOM     83  N   UNL A   1      40.089  25.308  27.173  1.00  0.00    -0.323 N 
ATOM     84  H   UNL A   1      39.468  25.492  27.915  1.00  0.00     0.170 HD
BRANCH  83  85
ATOM     85  C   UNL A   1      40.166  23.970  26.848  1.00  0.00     0.233 A 
ATOM     86  N   UNL A   1      41.291  23.284  26.880  1.00  0.00    -0.182 NA
ATOM     87  N   UNL A   1      38.981  23.463  26.531  1.00  0.00    -0.176 NA
ATOM     88  C   UNL A   1      41.112  22.000  26.611  1.00  0.00     0.228 A 
ATOM     89  C   UNL A   1      38.946  22.191  26.182  1.00  0.00     0.233 A 
ATOM     90  Cl  UNL A   1      42.504  21.013  26.713  1.00  0.00    -0.041 Cl
ATOM     91  N   UNL A   1      39.994  21.389  26.253  1.00  0.00    -0.182 NA
BRANCH  89  92
ATOM     92  N   UNL A   1      37.746  21.782  25.620  1.00  0.00    -0.324 N 
ATOM     93  H   UNL A   1      37.650  20.813  25.478  1.00  0.00     0.170 HD
BRANCH  92  94
ATOM     94  C   UNL A   1      36.660  22.557  25.230  1.00  0.00     0.041 A 
ATOM     95  C   UNL A   1      36.475  22.868  23.880  1.00  0.00     0.028 A 
ATOM     96  C   UNL A   1      35.691  22.944  26.156  1.00  0.00     0.028 A 
ATOM     97  C   UNL A   1      35.318  23.526  23.458  1.00  0.00     0.028 A 
ATOM     98  C   UNL A   1      34.568  23.654  25.748  1.00  0.00     0.028 A 
ATOM     99  C   UNL A   1      34.362  23.929  24.393  1.00  0.00     0.044 A 
BRANCH  99 100
ATOM    100  N   UNL A   1      33.148  24.537  23.977  1.00  0.00    -0.308 N 
ATOM    101  C   UNL A   1      31.966  23.666  23.950  1.00  0.00     0.154 C 
ATOM    102  C   UNL A   1      33.019  25.929  23.987  1.00  0.00     0.253 C 
ATOM    103  C   UNL A   1      30.737  24.341  23.357  1.00  0.00     0.183 C 
ATOM    104  C   UNL A   1      31.600  26.465  23.762  1.00  0.00     0.260 C 
ATOM    105  O   UNL A   1      33.963  26.715  24.079  1.00  0.00    -0.272 OA
ATOM    106  O   UNL A   1      30.514  25.585  24.014  1.00  0.00    -0.370 OA
ENDBRANCH  99 100
ENDBRANCH  92  94
ENDBRANCH  89  92
ENDBRANCH  83  85
ENDBRANCH  79  83
ENDBRANCH  75  77
ENDBRANCH  74  75
ENDBRANCH  73  74
ENDBRANCH   1  73
TORSDOF 19
ENDMDL
