MODEL 1
REMARK VINA RESULT:     -12.8      0.000      0.000
REMARK SMILES Cc1ccc(C(=O)N2CCC3(CCC(=O)N(CC(=O)OCCOCCOC(=O)c4ccc(-c5c6nc(c(-c7c(F)c(F)c(F)c(F)c7F)c7ccc([nH]7)c(-c7c(F)c(F)c(F)c(F)c7F)c7nc(c(-c8c(F)c(F)c(F)c(F)c8F)c8ccc5[nH]8)C=C7)C=C6)cc4)C3)CC2)cc1O
REMARK SMILES IDX 22 1 21 2 20 3 18 4 19 5 17 6 16 7 6 8 7 9 8 10 9 11 94 12
REMARK SMILES IDX 10 13 93 14 11 15 12 16 92 17 13 18 14 19 15 20 5 21 1 22
REMARK SMILES IDX 2 23 3 24 96 25 4 26 95 27 97 28 23 30 24 31 25 32 26 33
REMARK SMILES IDX 27 34 28 35 29 36 30 37 91 38 31 39 90 40 32 41 33 42 34 43
REMARK SMILES IDX 84 44 35 45 89 46 83 47 85 48 36 49 88 50 82 51 81 52 37 54
REMARK SMILES IDX 69 55 49 56 68 57 50 58 53 59 67 60 86 61 51 62 52 63 66 65
REMARK SMILES IDX 87 66 54 67 38 68 39 69 47 70 40 71 41 72 45 73 48 74 42 75
REMARK SMILES IDX 43 76 46 77 44 78 70 79 71 80 79 81 72 82 73 83 77 84 80 85
REMARK SMILES IDX 74 86 75 87 78 88 76 89 55 90 56 91 64 92 57 93 58 94 62 95
REMARK SMILES IDX 65 96 59 97 60 98 63 99 61 100
REMARK H PARENT 97 29 85 53 53 64
REMARK Flexibility Score: inf
ROOT
ATOM      1  C   UNL A   1      40.415  21.336  26.804  1.00  0.00     0.202 C 
ENDROOT
BRANCH   1   2
ATOM      2  C   UNL A   1      39.286  22.227  26.273  1.00  0.00     0.261 C 
BRANCH   2   3
ATOM      3  O   UNL A   1      38.202  21.488  25.684  1.00  0.00    -0.462 OA
BRANCH   3   4
ATOM      4  C   UNL A   1      37.097  22.218  25.381  1.00  0.00     0.325 C 
ATOM      5  O   UNL A   1      36.980  23.425  25.576  1.00  0.00    -0.250 OA
BRANCH   4   6
ATOM      6  C   UNL A   1      36.021  21.441  24.625  1.00  0.00     0.242 C 
BRANCH   6   7
ATOM      7  N   UNL A   1      34.689  21.244  25.201  1.00  0.00    -0.331 N 
ATOM      8  C   UNL A   1      31.766  26.037  21.874  1.00  0.00     0.253 C 
ATOM      9  O   UNL A   1      31.856  26.127  20.651  1.00  0.00    -0.269 OA
ATOM     10  N   UNL A   1      31.892  24.822  22.534  1.00  0.00    -0.339 N 
ATOM     11  C   UNL A   1      32.744  23.807  21.946  1.00  0.00     0.120 C 
ATOM     12  C   UNL A   1      31.027  24.378  23.620  1.00  0.00     0.120 C 
ATOM     13  C   UNL A   1      33.660  23.251  23.034  1.00  0.00     0.030 C 
ATOM     14  C   UNL A   1      31.838  23.730  24.741  1.00  0.00     0.030 C 
ATOM     15  C   UNL A   1      32.876  22.684  24.250  1.00  0.00    -0.008 C 
ATOM     16  C   UNL A   1      32.156  21.358  23.875  1.00  0.00     0.019 C 
ATOM     17  C   UNL A   1      33.850  22.404  25.430  1.00  0.00     0.127 C 
ATOM     18  C   UNL A   1      33.128  20.195  23.694  1.00  0.00     0.101 C 
ATOM     19  C   UNL A   1      33.991  20.080  24.927  1.00  0.00     0.223 C 
ATOM     20  O   UNL A   1      34.009  19.082  25.630  1.00  0.00    -0.275 OA
BRANCH   8  21
ATOM     21  C   UNL A   1      31.705  27.289  22.682  1.00  0.00     0.043 A 
ATOM     22  C   UNL A   1      31.420  30.498  25.565  1.00  0.00     0.048 C 
ATOM     23  C   UNL A   1      31.554  29.409  24.540  1.00  0.00    -0.009 A 
ATOM     24  C   UNL A   1      30.419  29.002  23.828  1.00  0.00     0.008 A 
ATOM     25  C   UNL A   1      32.760  28.736  24.307  1.00  0.00     0.119 A 
ATOM     26  C   UNL A   1      30.491  27.941  22.924  1.00  0.00     0.014 A 
ATOM     27  C   UNL A   1      32.844  27.697  23.380  1.00  0.00     0.060 A 
BRANCH  25  28
ATOM     28  O   UNL A   1      33.907  29.025  24.990  1.00  0.00    -0.508 OA
ATOM     29  H   UNL A   1      33.981  28.800  25.897  1.00  0.00     0.293 HD
ENDBRANCH  25  28
ENDBRANCH   8  21
ENDBRANCH   6   7
ENDBRANCH   4   6
ENDBRANCH   3   4
ENDBRANCH   2   3
ENDBRANCH   1   2
BRANCH   1  30
ATOM     30  O   UNL A   1      41.390  20.920  25.845  1.00  0.00    -0.374 OA
BRANCH  30  31
ATOM     31  C   UNL A   1      42.769  21.071  26.199  1.00  0.00     0.202 C 
BRANCH  31  32
ATOM     32  C   UNL A   1      43.632  21.824  25.185  1.00  0.00     0.261 C 
BRANCH  32  33
ATOM     33  O   UNL A   1      43.005  23.067  24.842  1.00  0.00    -0.460 OA
BRANCH  33  34
ATOM     34  C   UNL A   1      43.761  24.160  25.010  1.00  0.00     0.338 C 
ATOM     35  O   UNL A   1      44.845  24.411  24.492  1.00  0.00    -0.246 OA
BRANCH  34  36
ATOM     36  C   UNL A   1      43.015  25.125  25.827  1.00  0.00     0.060 A 
ATOM     37  C   UNL A   1      43.520  26.423  25.954  1.00  0.00     0.016 A 
ATOM     38  C   UNL A   1      41.901  24.715  26.561  1.00  0.00     0.016 A 
ATOM     39  C   UNL A   1      42.950  27.299  26.880  1.00  0.00     0.010 A 
ATOM     40  C   UNL A   1      41.331  25.595  27.487  1.00  0.00     0.010 A 
ATOM     41  C   UNL A   1      41.882  26.874  27.684  1.00  0.00    -0.014 A 
BRANCH  41  42
ATOM     42  C   UNL A   1      41.455  27.699  28.843  1.00  0.00     0.031 A 
ATOM     43  C   UNL A   1      42.228  27.602  30.131  1.00  0.00     0.074 A 
ATOM     44  C   UNL A   1      40.410  28.540  28.752  1.00  0.00     0.049 A 
ATOM     45  N   UNL A   1      42.011  28.196  31.278  1.00  0.00    -0.248 NA
ATOM     46  C   UNL A   1      43.404  26.717  30.124  1.00  0.00     0.031 C 
ATOM     47  C   UNL A   1      39.604  28.759  27.554  1.00  0.00     0.029 A 
ATOM     48  N   UNL A   1      39.845  29.364  29.695  1.00  0.00    -0.354 N 
ATOM     49  C   UNL A   1      43.018  27.755  32.127  1.00  0.00     0.074 A 
ATOM     50  C   UNL A   1      43.833  26.827  31.374  1.00  0.00     0.031 C 
ATOM     51  C   UNL A   1      38.637  29.649  27.838  1.00  0.00     0.029 A 
ATOM     52  C   UNL A   1      38.739  30.039  29.243  1.00  0.00     0.049 A 
ATOM     53  H   UNL A   1      40.200  29.459  30.609  1.00  0.00     0.167 HD
ATOM     54  C   UNL A   1      43.247  28.099  33.416  1.00  0.00     0.037 A 
ATOM     55  C   UNL A   1      37.895  30.861  29.897  1.00  0.00     0.037 A 
ATOM     56  C   UNL A   1      42.445  29.025  34.171  1.00  0.00     0.049 A 
ATOM     57  C   UNL A   1      38.132  31.176  31.352  1.00  0.00     0.074 A 
ATOM     58  C   UNL A   1      42.614  29.445  35.478  1.00  0.00     0.029 A 
ATOM     59  N   UNL A   1      41.320  29.670  33.683  1.00  0.00    -0.354 N 
ATOM     60  N   UNL A   1      39.099  30.771  32.139  1.00  0.00    -0.248 NA
ATOM     61  C   UNL A   1      37.158  32.062  32.009  1.00  0.00     0.031 C 
ATOM     62  C   UNL A   1      41.565  30.315  35.795  1.00  0.00     0.029 A 
ATOM     63  C   UNL A   1      40.770  30.469  34.672  1.00  0.00     0.049 A 
ATOM     64  H   UNL A   1      40.964  29.575  32.769  1.00  0.00     0.167 HD
ATOM     65  C   UNL A   1      38.870  31.376  33.368  1.00  0.00     0.074 A 
ATOM     66  C   UNL A   1      37.673  32.178  33.226  1.00  0.00     0.031 C 
ATOM     67  C   UNL A   1      39.590  31.278  34.511  1.00  0.00     0.037 A 
BRANCH  54  68
ATOM     68  C   UNL A   1      44.409  27.453  34.109  1.00  0.00     0.064 A 
ATOM     69  C   UNL A   1      44.286  26.209  34.743  1.00  0.00     0.173 A 
ATOM     70  C   UNL A   1      45.672  28.064  34.092  1.00  0.00     0.173 A 
ATOM     71  F   UNL A   1      43.096  25.592  34.795  1.00  0.00    -0.203 F 
ATOM     72  C   UNL A   1      45.384  25.605  35.350  1.00  0.00     0.198 A 
ATOM     73  C   UNL A   1      46.773  27.447  34.680  1.00  0.00     0.198 A 
ATOM     74  F   UNL A   1      45.840  29.252  33.493  1.00  0.00    -0.203 F 
ATOM     75  F   UNL A   1      45.240  24.430  35.977  1.00  0.00    -0.200 F 
ATOM     76  C   UNL A   1      46.627  26.221  35.311  1.00  0.00     0.200 A 
ATOM     77  F   UNL A   1      47.974  28.037  34.632  1.00  0.00    -0.200 F 
ATOM     78  F   UNL A   1      47.685  25.633  35.886  1.00  0.00    -0.200 F 
ENDBRANCH  54  68
BRANCH  55  79
ATOM     79  C   UNL A   1      36.727  31.438  29.183  1.00  0.00     0.064 A 
ATOM     80  C   UNL A   1      36.699  32.790  28.814  1.00  0.00     0.173 A 
ATOM     81  C   UNL A   1      35.607  30.653  28.876  1.00  0.00     0.173 A 
ATOM     82  F   UNL A   1      37.736  33.586  29.113  1.00  0.00    -0.203 F 
ATOM     83  C   UNL A   1      35.589  33.337  28.174  1.00  0.00     0.198 A 
ATOM     84  C   UNL A   1      34.507  31.195  28.215  1.00  0.00     0.198 A 
ATOM     85  F   UNL A   1      35.582  29.355  29.215  1.00  0.00    -0.203 F 
ATOM     86  F   UNL A   1      35.570  34.642  27.869  1.00  0.00    -0.200 F 
ATOM     87  C   UNL A   1      34.497  32.538  27.870  1.00  0.00     0.200 A 
ATOM     88  F   UNL A   1      33.457  30.419  27.916  1.00  0.00    -0.200 F 
ATOM     89  F   UNL A   1      33.429  33.065  27.254  1.00  0.00    -0.200 F 
ENDBRANCH  55  79
BRANCH  67  90
ATOM     90  C   UNL A   1      39.140  32.087  35.691  1.00  0.00     0.064 A 
ATOM     91  C   UNL A   1      38.304  31.545  36.678  1.00  0.00     0.173 A 
ATOM     92  C   UNL A   1      39.608  33.398  35.870  1.00  0.00     0.173 A 
ATOM     93  F   UNL A   1      37.822  30.301  36.544  1.00  0.00    -0.203 F 
ATOM     94  C   UNL A   1      37.943  32.292  37.796  1.00  0.00     0.198 A 
ATOM     95  C   UNL A   1      39.263  34.132  37.000  1.00  0.00     0.198 A 
ATOM     96  F   UNL A   1      40.416  33.957  34.957  1.00  0.00    -0.203 F 
ATOM     97  F   UNL A   1      37.119  31.765  38.713  1.00  0.00    -0.200 F 
ATOM     98  C   UNL A   1      38.429  33.581  37.960  1.00  0.00     0.200 A 
ATOM     99  F   UNL A   1      39.742  35.374  37.162  1.00  0.00    -0.200 F 
ATOM    100  F   UNL A   1      38.089  34.293  39.043  1.00  0.00    -0.200 F 
ENDBRANCH  67  90
ENDBRANCH  41  42
ENDBRANCH  34  36
ENDBRANCH  33  34
ENDBRANCH  32  33
ENDBRANCH  31  32
ENDBRANCH  30  31
ENDBRANCH   1  30
TORSDOF 17
ENDMDL
MODEL 2
REMARK VINA RESULT:     -12.1      2.823      9.160
REMARK SMILES Cc1ccc(C(=O)N2CCC3(CCC(=O)N(CC(=O)OCCOCCOC(=O)c4ccc(-c5c6nc(c(-c7c(F)c(F)c(F)c(F)c7F)c7ccc([nH]7)c(-c7c(F)c(F)c(F)c(F)c7F)c7nc(c(-c8c(F)c(F)c(F)c(F)c8F)c8ccc5[nH]8)C=C7)C=C6)cc4)C3)CC2)cc1O
REMARK SMILES IDX 22 1 21 2 20 3 18 4 19 5 17 6 16 7 6 8 7 9 8 10 9 11 94 12
REMARK SMILES IDX 10 13 93 14 11 15 12 16 92 17 13 18 14 19 15 20 5 21 1 22
REMARK SMILES IDX 2 23 3 24 96 25 4 26 95 27 97 28 23 30 24 31 25 32 26 33
REMARK SMILES IDX 27 34 28 35 29 36 30 37 91 38 31 39 90 40 32 41 33 42 34 43
REMARK SMILES IDX 84 44 35 45 89 46 83 47 85 48 36 49 88 50 82 51 81 52 37 54
REMARK SMILES IDX 69 55 49 56 68 57 50 58 53 59 67 60 86 61 51 62 52 63 66 65
REMARK SMILES IDX 87 66 54 67 38 68 39 69 47 70 40 71 41 72 45 73 48 74 42 75
REMARK SMILES IDX 43 76 46 77 44 78 70 79 71 80 79 81 72 82 73 83 77 84 80 85
REMARK SMILES IDX 74 86 75 87 78 88 76 89 55 90 56 91 64 92 57 93 58 94 62 95
REMARK SMILES IDX 65 96 59 97 60 98 63 99 61 100
REMARK H PARENT 97 29 85 53 53 64
REMARK Flexibility Score: inf
ROOT
ATOM      1  C   UNL A   1      34.917  32.167  27.778  1.00  0.00     0.202 C 
ENDROOT
BRANCH   1   2
ATOM      2  C   UNL A   1      33.678  31.272  27.654  1.00  0.00     0.261 C 
BRANCH   2   3
ATOM      3  O   UNL A   1      33.719  30.393  26.516  1.00  0.00    -0.462 OA
BRANCH   3   4
ATOM      4  C   UNL A   1      32.981  29.258  26.630  1.00  0.00     0.325 C 
ATOM      5  O   UNL A   1      33.154  28.394  27.486  1.00  0.00    -0.250 OA
BRANCH   4   6
ATOM      6  C   UNL A   1      31.786  29.189  25.681  1.00  0.00     0.242 C 
BRANCH   6   7
ATOM      7  N   UNL A   1      31.963  28.821  24.274  1.00  0.00    -0.331 N 
ATOM      8  C   UNL A   1      33.934  22.701  25.391  1.00  0.00     0.253 C 
ATOM      9  O   UNL A   1      33.296  21.934  26.111  1.00  0.00    -0.269 OA
ATOM     10  N   UNL A   1      33.329  23.754  24.718  1.00  0.00    -0.339 N 
ATOM     11  C   UNL A   1      32.159  24.369  25.316  1.00  0.00     0.120 C 
ATOM     12  C   UNL A   1      33.600  24.113  23.332  1.00  0.00     0.120 C 
ATOM     13  C   UNL A   1      32.338  25.885  25.285  1.00  0.00     0.030 C 
ATOM     14  C   UNL A   1      33.723  25.627  23.169  1.00  0.00     0.030 C 
ATOM     15  C   UNL A   1      32.585  26.433  23.853  1.00  0.00    -0.008 C 
ATOM     16  C   UNL A   1      31.289  26.350  22.997  1.00  0.00     0.019 C 
ATOM     17  C   UNL A   1      33.042  27.918  23.920  1.00  0.00     0.127 C 
ATOM     18  C   UNL A   1      30.236  27.367  23.430  1.00  0.00     0.101 C 
ATOM     19  C   UNL A   1      30.857  28.742  23.444  1.00  0.00     0.223 C 
ATOM     20  O   UNL A   1      30.454  29.656  22.743  1.00  0.00    -0.275 OA
BRANCH   8  21
ATOM     21  C   UNL A   1      35.422  22.610  25.389  1.00  0.00     0.043 A 
ATOM     22  C   UNL A   1      39.666  22.064  26.014  1.00  0.00     0.048 C 
ATOM     23  C   UNL A   1      38.199  22.242  25.750  1.00  0.00    -0.009 A 
ATOM     24  C   UNL A   1      37.591  23.460  26.080  1.00  0.00     0.008 A 
ATOM     25  C   UNL A   1      37.393  21.216  25.241  1.00  0.00     0.119 A 
ATOM     26  C   UNL A   1      36.215  23.634  25.919  1.00  0.00     0.014 A 
ATOM     27  C   UNL A   1      36.023  21.396  25.047  1.00  0.00     0.060 A 
BRANCH  25  28
ATOM     28  O   UNL A   1      37.883  19.976  24.941  1.00  0.00    -0.508 OA
ATOM     29  H   UNL A   1      38.563  19.883  24.303  1.00  0.00     0.293 HD
ENDBRANCH  25  28
ENDBRANCH   8  21
ENDBRANCH   6   7
ENDBRANCH   4   6
ENDBRANCH   3   4
ENDBRANCH   2   3
ENDBRANCH   1   2
BRANCH   1  30
ATOM     30  O   UNL A   1      34.675  33.575  27.797  1.00  0.00    -0.374 OA
BRANCH  30  31
ATOM     31  C   UNL A   1      33.360  34.013  28.154  1.00  0.00     0.202 C 
BRANCH  31  32
ATOM     32  C   UNL A   1      33.299  35.207  29.109  1.00  0.00     0.261 C 
BRANCH  32  33
ATOM     33  O   UNL A   1      32.592  34.841  30.300  1.00  0.00    -0.460 OA
BRANCH  33  34
ATOM     34  C   UNL A   1      32.857  35.587  31.381  1.00  0.00     0.338 C 
ATOM     35  O   UNL A   1      32.240  36.567  31.788  1.00  0.00    -0.246 OA
BRANCH  34  36
ATOM     36  C   UNL A   1      33.953  34.958  32.127  1.00  0.00     0.060 A 
ATOM     37  C   UNL A   1      35.192  35.607  32.167  1.00  0.00     0.016 A 
ATOM     38  C   UNL A   1      33.795  33.682  32.670  1.00  0.00     0.016 A 
ATOM     39  C   UNL A   1      36.303  34.944  32.691  1.00  0.00     0.010 A 
ATOM     40  C   UNL A   1      34.910  33.021  33.196  1.00  0.00     0.010 A 
ATOM     41  C   UNL A   1      36.177  33.629  33.165  1.00  0.00    -0.014 A 
BRANCH  41  42
ATOM     42  C   UNL A   1      37.395  32.834  33.469  1.00  0.00     0.031 A 
ATOM     43  C   UNL A   1      38.148  33.113  34.742  1.00  0.00     0.074 A 
ATOM     44  C   UNL A   1      37.818  31.864  32.640  1.00  0.00     0.049 A 
ATOM     45  N   UNL A   1      39.254  32.573  35.189  1.00  0.00    -0.248 NA
ATOM     46  C   UNL A   1      37.576  34.137  35.630  1.00  0.00     0.031 C 
ATOM     47  C   UNL A   1      37.159  31.467  31.399  1.00  0.00     0.029 A 
ATOM     48  N   UNL A   1      38.914  31.039  32.720  1.00  0.00    -0.354 N 
ATOM     49  C   UNL A   1      39.512  33.193  36.405  1.00  0.00     0.074 A 
ATOM     50  C   UNL A   1      38.462  34.165  36.617  1.00  0.00     0.031 C 
ATOM     51  C   UNL A   1      37.872  30.482  30.825  1.00  0.00     0.029 A 
ATOM     52  C   UNL A   1      39.051  30.202  31.643  1.00  0.00     0.049 A 
ATOM     53  H   UNL A   1      39.542  31.050  33.480  1.00  0.00     0.167 HD
ATOM     54  C   UNL A   1      40.528  32.967  37.270  1.00  0.00     0.037 A 
ATOM     55  C   UNL A   1      40.029  29.324  31.342  1.00  0.00     0.037 A 
ATOM     56  C   UNL A   1      41.573  31.998  37.069  1.00  0.00     0.049 A 
ATOM     57  C   UNL A   1      41.186  29.138  32.289  1.00  0.00     0.074 A 
ATOM     58  C   UNL A   1      42.634  31.690  37.902  1.00  0.00     0.029 A 
ATOM     59  N   UNL A   1      41.689  31.186  35.953  1.00  0.00    -0.354 N 
ATOM     60  N   UNL A   1      41.409  29.712  33.447  1.00  0.00    -0.248 NA
ATOM     61  C   UNL A   1      42.229  28.182  31.888  1.00  0.00     0.031 C 
ATOM     62  C   UNL A   1      43.416  30.717  37.271  1.00  0.00     0.029 A 
ATOM     63  C   UNL A   1      42.817  30.390  36.066  1.00  0.00     0.049 A 
ATOM     64  H   UNL A   1      41.062  31.174  35.194  1.00  0.00     0.167 HD
ATOM     65  C   UNL A   1      42.593  29.166  33.924  1.00  0.00     0.074 A 
ATOM     66  C   UNL A   1      43.044  28.212  32.933  1.00  0.00     0.031 C 
ATOM     67  C   UNL A   1      43.245  29.430  35.082  1.00  0.00     0.037 A 
BRANCH  54  68
ATOM     68  C   UNL A   1      40.574  33.798  38.516  1.00  0.00     0.064 A 
ATOM     69  C   UNL A   1      39.864  33.431  39.669  1.00  0.00     0.173 A 
ATOM     70  C   UNL A   1      41.377  34.946  38.574  1.00  0.00     0.173 A 
ATOM     71  F   UNL A   1      39.073  32.348  39.659  1.00  0.00    -0.203 F 
ATOM     72  C   UNL A   1      39.946  34.193  40.831  1.00  0.00     0.198 A 
ATOM     73  C   UNL A   1      41.476  35.693  39.744  1.00  0.00     0.198 A 
ATOM     74  F   UNL A   1      42.080  35.334  37.498  1.00  0.00    -0.203 F 
ATOM     75  F   UNL A   1      39.237  33.843  41.913  1.00  0.00    -0.200 F 
ATOM     76  C   UNL A   1      40.757  35.319  40.869  1.00  0.00     0.200 A 
ATOM     77  F   UNL A   1      42.268  36.773  39.783  1.00  0.00    -0.200 F 
ATOM     78  F   UNL A   1      40.844  36.046  41.992  1.00  0.00    -0.200 F 
ENDBRANCH  54  68
BRANCH  55  79
ATOM     79  C   UNL A   1      39.968  28.558  30.071  1.00  0.00     0.064 A 
ATOM     80  C   UNL A   1      39.390  27.282  30.021  1.00  0.00     0.173 A 
ATOM     81  C   UNL A   1      40.505  29.080  28.886  1.00  0.00     0.173 A 
ATOM     82  F   UNL A   1      38.889  26.731  31.136  1.00  0.00    -0.203 F 
ATOM     83  C   UNL A   1      39.363  26.551  28.835  1.00  0.00     0.198 A 
ATOM     84  C   UNL A   1      40.456  28.358  27.695  1.00  0.00     0.198 A 
ATOM     85  F   UNL A   1      41.075  30.294  28.882  1.00  0.00    -0.203 F 
ATOM     86  F   UNL A   1      38.843  25.316  28.823  1.00  0.00    -0.200 F 
ATOM     87  C   UNL A   1      39.891  27.092  27.672  1.00  0.00     0.200 A 
ATOM     88  F   UNL A   1      40.960  28.888  26.572  1.00  0.00    -0.200 F 
ATOM     89  F   UNL A   1      39.864  26.389  26.531  1.00  0.00    -0.200 F 
ENDBRANCH  55  79
BRANCH  67  90
ATOM     90  C   UNL A   1      44.492  28.650  35.373  1.00  0.00     0.064 A 
ATOM     91  C   UNL A   1      45.759  29.125  35.004  1.00  0.00     0.173 A 
ATOM     92  C   UNL A   1      44.423  27.446  36.091  1.00  0.00     0.173 A 
ATOM     93  F   UNL A   1      45.875  30.264  34.306  1.00  0.00    -0.203 F 
ATOM     94  C   UNL A   1      46.911  28.416  35.334  1.00  0.00     0.198 A 
ATOM     95  C   UNL A   1      45.578  26.752  36.438  1.00  0.00     0.198 A 
ATOM     96  F   UNL A   1      43.234  26.954  36.472  1.00  0.00    -0.203 F 
ATOM     97  F   UNL A   1      48.110  28.873  34.946  1.00  0.00    -0.200 F 
ATOM     98  C   UNL A   1      46.819  27.235  36.057  1.00  0.00     0.200 A 
ATOM     99  F   UNL A   1      45.488  25.617  37.146  1.00  0.00    -0.200 F 
ATOM    100  F   UNL A   1      47.931  26.561  36.383  1.00  0.00    -0.200 F 
ENDBRANCH  67  90
ENDBRANCH  41  42
ENDBRANCH  34  36
ENDBRANCH  33  34
ENDBRANCH  32  33
ENDBRANCH  31  32
ENDBRANCH  30  31
ENDBRANCH   1  30
TORSDOF 17
ENDMDL
MODEL 3
REMARK VINA RESULT:     -12.0      4.328      6.462
REMARK SMILES Cc1ccc(C(=O)N2CCC3(CCC(=O)N(CC(=O)OCCOCCOC(=O)c4ccc(-c5c6nc(c(-c7c(F)c(F)c(F)c(F)c7F)c7ccc([nH]7)c(-c7c(F)c(F)c(F)c(F)c7F)c7nc(c(-c8c(F)c(F)c(F)c(F)c8F)c8ccc5[nH]8)C=C7)C=C6)cc4)C3)CC2)cc1O
REMARK SMILES IDX 22 1 21 2 20 3 18 4 19 5 17 6 16 7 6 8 7 9 8 10 9 11 94 12
REMARK SMILES IDX 10 13 93 14 11 15 12 16 92 17 13 18 14 19 15 20 5 21 1 22
REMARK SMILES IDX 2 23 3 24 96 25 4 26 95 27 97 28 23 30 24 31 25 32 26 33
REMARK SMILES IDX 27 34 28 35 29 36 30 37 91 38 31 39 90 40 32 41 33 42 34 43
REMARK SMILES IDX 84 44 35 45 89 46 83 47 85 48 36 49 88 50 82 51 81 52 37 54
REMARK SMILES IDX 69 55 49 56 68 57 50 58 53 59 67 60 86 61 51 62 52 63 66 65
REMARK SMILES IDX 87 66 54 67 38 68 39 69 47 70 40 71 41 72 45 73 48 74 42 75
REMARK SMILES IDX 43 76 46 77 44 78 70 79 71 80 79 81 72 82 73 83 77 84 80 85
REMARK SMILES IDX 74 86 75 87 78 88 76 89 55 90 56 91 64 92 57 93 58 94 62 95
REMARK SMILES IDX 65 96 59 97 60 98 63 99 61 100
REMARK H PARENT 97 29 85 53 53 64
REMARK Flexibility Score: inf
ROOT
ATOM      1  C   UNL A   1      36.205  20.345  24.992  1.00  0.00     0.202 C 
ENDROOT
BRANCH   1   2
ATOM      2  C   UNL A   1      36.085  21.508  25.985  1.00  0.00     0.261 C 
BRANCH   2   3
ATOM      3  O   UNL A   1      34.838  21.521  26.702  1.00  0.00    -0.462 OA
BRANCH   3   4
ATOM      4  C   UNL A   1      34.198  22.719  26.735  1.00  0.00     0.325 C 
ATOM      5  O   UNL A   1      34.746  23.810  26.595  1.00  0.00    -0.250 OA
BRANCH   4   6
ATOM      6  C   UNL A   1      32.676  22.614  26.815  1.00  0.00     0.242 C 
BRANCH   6   7
ATOM      7  N   UNL A   1      31.884  22.243  25.639  1.00  0.00    -0.331 N 
ATOM      8  C   UNL A   1      32.226  28.055  22.694  1.00  0.00     0.253 C 
ATOM      9  O   UNL A   1      33.299  28.628  22.507  1.00  0.00    -0.269 OA
ATOM     10  N   UNL A   1      32.138  26.674  22.806  1.00  0.00    -0.339 N 
ATOM     11  C   UNL A   1      33.272  25.956  23.353  1.00  0.00     0.120 C 
ATOM     12  C   UNL A   1      31.114  25.858  22.166  1.00  0.00     0.120 C 
ATOM     13  C   UNL A   1      32.765  24.982  24.414  1.00  0.00     0.030 C 
ATOM     14  C   UNL A   1      30.585  24.790  23.120  1.00  0.00     0.030 C 
ATOM     15  C   UNL A   1      31.695  23.998  23.866  1.00  0.00    -0.008 C 
ATOM     16  C   UNL A   1      32.339  22.958  22.906  1.00  0.00     0.019 C 
ATOM     17  C   UNL A   1      31.016  23.238  25.040  1.00  0.00     0.127 C 
ATOM     18  C   UNL A   1      33.201  21.937  23.644  1.00  0.00     0.101 C 
ATOM     19  C   UNL A   1      32.384  21.309  24.746  1.00  0.00     0.223 C 
ATOM     20  O   UNL A   1      32.145  20.113  24.793  1.00  0.00    -0.275 OA
BRANCH   8  21
ATOM     21  C   UNL A   1      31.019  28.878  22.992  1.00  0.00     0.043 A 
ATOM     22  C   UNL A   1      27.843  31.767  23.506  1.00  0.00     0.048 C 
ATOM     23  C   UNL A   1      28.912  30.729  23.323  1.00  0.00    -0.009 A 
ATOM     24  C   UNL A   1      29.902  30.592  24.303  1.00  0.00     0.008 A 
ATOM     25  C   UNL A   1      28.997  29.927  22.178  1.00  0.00     0.119 A 
ATOM     26  C   UNL A   1      30.954  29.691  24.130  1.00  0.00     0.014 A 
ATOM     27  C   UNL A   1      30.028  29.001  22.015  1.00  0.00     0.060 A 
BRANCH  25  28
ATOM     28  O   UNL A   1      28.110  30.024  21.143  1.00  0.00    -0.508 OA
ATOM     29  H   UNL A   1      27.278  29.596  21.198  1.00  0.00     0.293 HD
ENDBRANCH  25  28
ENDBRANCH   8  21
ENDBRANCH   6   7
ENDBRANCH   4   6
ENDBRANCH   3   4
ENDBRANCH   2   3
ENDBRANCH   1   2
BRANCH   1  30
ATOM     30  O   UNL A   1      37.446  19.637  25.001  1.00  0.00    -0.374 OA
BRANCH  30  31
ATOM     31  C   UNL A   1      38.583  20.307  25.555  1.00  0.00     0.202 C 
BRANCH  31  32
ATOM     32  C   UNL A   1      39.849  19.459  25.684  1.00  0.00     0.261 C 
BRANCH  32  33
ATOM     33  O   UNL A   1      40.979  20.307  25.927  1.00  0.00    -0.460 OA
BRANCH  33  34
ATOM     34  C   UNL A   1      41.383  20.377  27.203  1.00  0.00     0.338 C 
ATOM     35  O   UNL A   1      41.798  19.465  27.912  1.00  0.00    -0.246 OA
BRANCH  34  36
ATOM     36  C   UNL A   1      41.396  21.786  27.614  1.00  0.00     0.060 A 
ATOM     37  C   UNL A   1      40.694  22.715  26.837  1.00  0.00     0.016 A 
ATOM     38  C   UNL A   1      42.196  22.204  28.678  1.00  0.00     0.016 A 
ATOM     39  C   UNL A   1      40.851  24.080  27.080  1.00  0.00     0.010 A 
ATOM     40  C   UNL A   1      42.351  23.573  28.921  1.00  0.00     0.010 A 
ATOM     41  C   UNL A   1      41.718  24.518  28.093  1.00  0.00    -0.014 A 
BRANCH  41  42
ATOM     42  C   UNL A   1      42.092  25.953  28.177  1.00  0.00     0.031 A 
ATOM     43  C   UNL A   1      43.410  26.396  27.601  1.00  0.00     0.074 A 
ATOM     44  C   UNL A   1      41.268  26.856  28.736  1.00  0.00     0.049 A 
ATOM     45  N   UNL A   1      43.958  27.586  27.598  1.00  0.00    -0.248 NA
ATOM     46  C   UNL A   1      44.218  25.360  26.939  1.00  0.00     0.031 C 
ATOM     47  C   UNL A   1      39.950  26.566  29.293  1.00  0.00     0.029 A 
ATOM     48  N   UNL A   1      41.429  28.206  28.932  1.00  0.00    -0.354 N 
ATOM     49  C   UNL A   1      45.172  27.440  26.940  1.00  0.00     0.074 A 
ATOM     50  C   UNL A   1      45.294  26.045  26.577  1.00  0.00     0.031 C 
ATOM     51  C   UNL A   1      39.425  27.703  29.782  1.00  0.00     0.029 A 
ATOM     52  C   UNL A   1      40.382  28.793  29.598  1.00  0.00     0.049 A 
ATOM     53  H   UNL A   1      42.220  28.705  28.624  1.00  0.00     0.167 HD
ATOM     54  C   UNL A   1      46.099  28.385  26.656  1.00  0.00     0.037 A 
ATOM     55  C   UNL A   1      40.226  30.061  30.028  1.00  0.00     0.037 A 
ATOM     56  C   UNL A   1      45.983  29.776  27.008  1.00  0.00     0.049 A 
ATOM     57  C   UNL A   1      41.303  31.081  29.760  1.00  0.00     0.074 A 
ATOM     58  C   UNL A   1      46.866  30.808  26.746  1.00  0.00     0.029 A 
ATOM     59  N   UNL A   1      44.918  30.325  27.703  1.00  0.00    -0.354 N 
ATOM     60  N   UNL A   1      42.436  30.938  29.117  1.00  0.00    -0.248 NA
ATOM     61  C   UNL A   1      41.077  32.439  30.277  1.00  0.00     0.031 C 
ATOM     62  C   UNL A   1      46.354  31.977  27.319  1.00  0.00     0.029 A 
ATOM     63  C   UNL A   1      45.132  31.680  27.898  1.00  0.00     0.049 A 
ATOM     64  H   UNL A   1      44.125  29.827  28.012  1.00  0.00     0.167 HD
ATOM     65  C   UNL A   1      43.041  32.188  29.126  1.00  0.00     0.074 A 
ATOM     66  C   UNL A   1      42.150  33.081  29.835  1.00  0.00     0.031 C 
ATOM     67  C   UNL A   1      44.227  32.562  28.589  1.00  0.00     0.037 A 
BRANCH  54  68
ATOM     68  C   UNL A   1      47.340  27.946  25.940  1.00  0.00     0.064 A 
ATOM     69  C   UNL A   1      48.510  27.612  26.638  1.00  0.00     0.173 A 
ATOM     70  C   UNL A   1      47.341  27.807  24.545  1.00  0.00     0.173 A 
ATOM     71  F   UNL A   1      48.560  27.740  27.972  1.00  0.00    -0.203 F 
ATOM     72  C   UNL A   1      49.643  27.170  25.961  1.00  0.00     0.198 A 
ATOM     73  C   UNL A   1      48.468  27.343  23.873  1.00  0.00     0.198 A 
ATOM     74  F   UNL A   1      46.243  28.109  23.834  1.00  0.00    -0.203 F 
ATOM     75  F   UNL A   1      50.761  26.884  26.642  1.00  0.00    -0.200 F 
ATOM     76  C   UNL A   1      49.619  27.029  24.581  1.00  0.00     0.200 A 
ATOM     77  F   UNL A   1      48.440  27.196  22.541  1.00  0.00    -0.200 F 
ATOM     78  F   UNL A   1      50.706  26.592  23.931  1.00  0.00    -0.200 F 
ENDBRANCH  54  68
BRANCH  55  79
ATOM     79  C   UNL A   1      39.001  30.440  30.778  1.00  0.00     0.064 A 
ATOM     80  C   UNL A   1      37.881  30.965  30.119  1.00  0.00     0.173 A 
ATOM     81  C   UNL A   1      38.936  30.304  32.172  1.00  0.00     0.173 A 
ATOM     82  F   UNL A   1      37.909  31.140  28.790  1.00  0.00    -0.203 F 
ATOM     83  C   UNL A   1      36.746  31.351  30.828  1.00  0.00     0.198 A 
ATOM     84  C   UNL A   1      37.791  30.667  32.878  1.00  0.00     0.198 A 
ATOM     85  F   UNL A   1      39.984  29.812  32.850  1.00  0.00    -0.203 F 
ATOM     86  F   UNL A   1      35.704  31.889  30.180  1.00  0.00    -0.200 F 
ATOM     87  C   UNL A   1      36.699  31.196  32.206  1.00  0.00     0.200 A 
ATOM     88  F   UNL A   1      37.747  30.509  34.207  1.00  0.00    -0.200 F 
ATOM     89  F   UNL A   1      35.607  31.567  32.887  1.00  0.00    -0.200 F 
ENDBRANCH  55  79
BRANCH  67  90
ATOM     90  C   UNL A   1      44.620  34.005  28.701  1.00  0.00     0.064 A 
ATOM     91  C   UNL A   1      45.432  34.466  29.748  1.00  0.00     0.173 A 
ATOM     92  C   UNL A   1      44.236  34.922  27.712  1.00  0.00     0.173 A 
ATOM     93  F   UNL A   1      45.814  33.629  30.724  1.00  0.00    -0.203 F 
ATOM     94  C   UNL A   1      45.835  35.797  29.805  1.00  0.00     0.198 A 
ATOM     95  C   UNL A   1      44.659  36.247  27.761  1.00  0.00     0.198 A 
ATOM     96  F   UNL A   1      43.465  34.527  26.687  1.00  0.00    -0.203 F 
ATOM     97  F   UNL A   1      46.586  36.224  30.830  1.00  0.00    -0.200 F 
ATOM     98  C   UNL A   1      45.454  36.684  28.808  1.00  0.00     0.200 A 
ATOM     99  F   UNL A   1      44.300  37.100  26.790  1.00  0.00    -0.200 F 
ATOM    100  F   UNL A   1      45.853  37.963  28.859  1.00  0.00    -0.200 F 
ENDBRANCH  67  90
ENDBRANCH  41  42
ENDBRANCH  34  36
ENDBRANCH  33  34
ENDBRANCH  32  33
ENDBRANCH  31  32
ENDBRANCH  30  31
ENDBRANCH   1  30
TORSDOF 17
ENDMDL
