MODEL 1
REMARK VINA RESULT:     -11.0      0.000      0.000
REMARK SMILES Cc1ccc(-c2cnnc(-n3nc(C)c4c3NC(=O)C[C@@H]4c3ccc(C(=O)OCCOCCOC(=O)c4ccc(-c5c6nc(c(-c7c(F)c(F)c(F)c(F)c7F)c7ccc([nH]7)c(-c7c(F)c(F)c(F)c(F)c7F)c7nc(c(-c8c(F)c(F)c(F)c(F)c8F)c8ccc5[nH]8)C=C7)C=C6)cc4)cc3)n2)cc1
REMARK SMILES IDX 30 1 29 2 28 3 26 4 27 5 25 6 22 7 23 8 101 9 24 10 100 11
REMARK SMILES IDX 21 12 11 13 12 14 16 15 13 16 15 17 17 18 14 19 18 20 20 22
REMARK SMILES IDX 19 23 10 24 6 25 7 26 102 27 8 28 9 29 5 30 1 31 2 32 3 33
REMARK SMILES IDX 104 34 4 35 103 36 31 37 32 38 33 39 34 40 35 41 36 42 37 43
REMARK SMILES IDX 38 44 99 45 39 46 98 47 40 48 41 49 42 50 92 51 43 52 97 53
REMARK SMILES IDX 91 54 93 55 44 56 96 57 90 58 89 59 45 61 77 62 57 63 76 64
REMARK SMILES IDX 58 65 61 66 75 67 94 68 59 69 60 70 74 72 95 73 62 74 46 75
REMARK SMILES IDX 47 76 55 77 48 78 49 79 53 80 56 81 50 82 51 83 54 84 52 85
REMARK SMILES IDX 78 86 79 87 87 88 80 89 81 90 85 91 88 92 82 93 83 94 86 95
REMARK SMILES IDX 84 96 63 97 64 98 72 99 65 100 66 101 70 102 73 103 67 104
REMARK SMILES IDX 68 105 71 106 69 107
REMARK H PARENT 17 21 93 60 61 71
REMARK Flexibility Score: inf
ROOT
ATOM      1  C   UNL A   1      45.869  23.071  24.564  1.00  0.00     0.202 C 
ENDROOT
BRANCH   1   2
ATOM      2  C   UNL A   1      44.685  22.494  23.875  1.00  0.00     0.261 C 
BRANCH   2   3
ATOM      3  O   UNL A   1      43.452  23.074  24.334  1.00  0.00    -0.460 OA
BRANCH   3   4
ATOM      4  C   UNL A   1      42.732  22.549  25.375  1.00  0.00     0.338 C 
ATOM      5  O   UNL A   1      42.372  21.425  25.584  1.00  0.00    -0.246 OA
BRANCH   4   6
ATOM      6  C   UNL A   1      42.397  23.735  26.174  1.00  0.00     0.060 A 
ATOM      7  C   UNL A   1      42.264  25.855  27.930  1.00  0.00    -0.040 A 
ATOM      8  C   UNL A   1      42.396  26.091  26.547  1.00  0.00     0.005 A 
ATOM      9  C   UNL A   1      41.982  24.564  28.376  1.00  0.00     0.005 A 
ATOM     10  C   UNL A   1      42.453  25.022  25.654  1.00  0.00     0.016 A 
ATOM     11  C   UNL A   1      42.085  23.514  27.515  1.00  0.00     0.016 A 
BRANCH   7  12
ATOM     12  C   UNL A   1      42.431  26.991  28.906  1.00  0.00     0.064 C 
ATOM     13  N   UNL A   1      39.869  29.542  28.894  1.00  0.00    -0.180 N 
ATOM     14  N   UNL A   1      38.984  28.519  29.016  1.00  0.00    -0.168 NA
ATOM     15  C   UNL A   1      41.050  29.037  28.388  1.00  0.00     0.143 A 
ATOM     16  C   UNL A   1      39.766  27.442  29.178  1.00  0.00     0.066 A 
ATOM     17  C   UNL A   1      41.147  27.775  28.949  1.00  0.00     0.026 A 
ATOM     18  N   UNL A   1      41.970  29.466  27.446  1.00  0.00    -0.310 N 
ATOM     19  C   UNL A   1      39.074  26.135  29.339  1.00  0.00     0.069 C 
ATOM     20  C   UNL A   1      43.169  28.697  27.278  1.00  0.00     0.226 C 
ATOM     21  H   UNL A   1      41.805  30.275  26.910  1.00  0.00     0.171 HD
ATOM     22  C   UNL A   1      43.596  27.879  28.471  1.00  0.00     0.113 C 
ATOM     23  O   UNL A   1      43.776  28.811  26.227  1.00  0.00    -0.275 OA
BRANCH  13  24
ATOM     24  C   UNL A   1      39.780  30.683  29.740  1.00  0.00     0.272 A 
ATOM     25  C   UNL A   1      38.601  32.381  30.696  1.00  0.00     0.095 A 
ATOM     26  C   UNL A   1      39.784  33.070  30.902  1.00  0.00     0.164 A 
ATOM     27  N   UNL A   1      38.569  31.186  30.049  1.00  0.00    -0.208 NA
ATOM     28  N   UNL A   1      40.962  32.542  30.543  1.00  0.00    -0.153 NA
ATOM     29  N   UNL A   1      40.959  31.312  29.993  1.00  0.00    -0.109 NA
BRANCH  25  30
ATOM     30  C   UNL A   1      37.338  32.843  31.270  1.00  0.00     0.002 A 
ATOM     31  C   UNL A   1      33.630  34.386  32.872  1.00  0.00     0.044 C 
ATOM     32  C   UNL A   1      34.916  33.866  32.304  1.00  0.00    -0.051 A 
ATOM     33  C   UNL A   1      34.929  32.668  31.579  1.00  0.00     0.004 A 
ATOM     34  C   UNL A   1      36.113  34.554  32.503  1.00  0.00     0.004 A 
ATOM     35  C   UNL A   1      36.128  32.163  31.065  1.00  0.00     0.011 A 
ATOM     36  C   UNL A   1      37.308  34.046  31.996  1.00  0.00     0.011 A 
ENDBRANCH  25  30
ENDBRANCH  13  24
ENDBRANCH   7  12
ENDBRANCH   4   6
ENDBRANCH   3   4
ENDBRANCH   2   3
ENDBRANCH   1   2
BRANCH   1  37
ATOM     37  O   UNL A   1      45.600  24.458  24.599  1.00  0.00    -0.374 OA
BRANCH  37  38
ATOM     38  C   UNL A   1      46.698  25.282  24.908  1.00  0.00     0.202 C 
BRANCH  38  39
ATOM     39  C   UNL A   1      47.529  24.705  26.057  1.00  0.00     0.261 C 
BRANCH  39  40
ATOM     40  O   UNL A   1      48.048  25.789  26.860  1.00  0.00    -0.460 OA
BRANCH  40  41
ATOM     41  C   UNL A   1      47.135  26.518  27.567  1.00  0.00     0.338 C 
ATOM     42  O   UNL A   1      46.830  27.676  27.338  1.00  0.00    -0.246 OA
BRANCH  41  43
ATOM     43  C   UNL A   1      46.806  25.817  28.849  1.00  0.00     0.060 A 
ATOM     44  C   UNL A   1      45.648  25.015  28.945  1.00  0.00     0.016 A 
ATOM     45  C   UNL A   1      47.438  26.251  30.008  1.00  0.00     0.016 A 
ATOM     46  C   UNL A   1      45.028  24.799  30.190  1.00  0.00     0.010 A 
ATOM     47  C   UNL A   1      46.766  26.132  31.206  1.00  0.00     0.010 A 
ATOM     48  C   UNL A   1      45.541  25.445  31.312  1.00  0.00    -0.014 A 
BRANCH  48  49
ATOM     49  C   UNL A   1      44.890  25.582  32.625  1.00  0.00     0.031 A 
ATOM     50  C   UNL A   1      44.154  26.837  32.876  1.00  0.00     0.074 A 
ATOM     51  C   UNL A   1      44.703  24.526  33.459  1.00  0.00     0.049 A 
ATOM     52  N   UNL A   1      43.724  27.203  34.032  1.00  0.00    -0.248 NA
ATOM     53  C   UNL A   1      43.899  27.837  31.845  1.00  0.00     0.031 C 
ATOM     54  C   UNL A   1      43.638  24.319  34.449  1.00  0.00     0.029 A 
ATOM     55  N   UNL A   1      45.412  23.321  33.541  1.00  0.00    -0.354 N 
ATOM     56  C   UNL A   1      42.865  28.261  33.840  1.00  0.00     0.074 A 
ATOM     57  C   UNL A   1      43.140  28.711  32.505  1.00  0.00     0.031 C 
ATOM     58  C   UNL A   1      43.914  23.234  35.200  1.00  0.00     0.029 A 
ATOM     59  C   UNL A   1      45.232  22.758  34.810  1.00  0.00     0.049 A 
ATOM     60  H   UNL A   1      45.953  22.931  32.816  1.00  0.00     0.167 HD
ATOM     61  C   UNL A   1      41.927  28.503  34.800  1.00  0.00     0.037 A 
ATOM     62  C   UNL A   1      46.306  22.482  35.595  1.00  0.00     0.037 A 
ATOM     63  C   UNL A   1      42.133  27.585  35.941  1.00  0.00     0.049 A 
ATOM     64  C   UNL A   1      46.246  23.429  36.752  1.00  0.00     0.074 A 
ATOM     65  C   UNL A   1      41.463  26.451  36.373  1.00  0.00     0.029 A 
ATOM     66  N   UNL A   1      43.371  27.568  36.597  1.00  0.00    -0.354 N 
ATOM     67  N   UNL A   1      45.550  24.531  36.694  1.00  0.00    -0.248 NA
ATOM     68  C   UNL A   1      46.829  23.197  38.065  1.00  0.00     0.031 C 
ATOM     69  C   UNL A   1      42.339  25.719  37.230  1.00  0.00     0.029 A 
ATOM     70  C   UNL A   1      43.534  26.415  37.349  1.00  0.00     0.049 A 
ATOM     71  H   UNL A   1      44.042  28.286  36.531  1.00  0.00     0.167 HD
ATOM     72  C   UNL A   1      45.483  25.091  37.922  1.00  0.00     0.074 A 
ATOM     73  C   UNL A   1      46.339  24.250  38.745  1.00  0.00     0.031 C 
ATOM     74  C   UNL A   1      44.734  26.204  38.161  1.00  0.00     0.037 A 
BRANCH  61  75
ATOM     75  C   UNL A   1      40.681  29.371  34.623  1.00  0.00     0.064 A 
ATOM     76  C   UNL A   1      40.409  30.417  35.534  1.00  0.00     0.173 A 
ATOM     77  C   UNL A   1      39.687  29.221  33.629  1.00  0.00     0.173 A 
ATOM     78  F   UNL A   1      41.268  30.728  36.513  1.00  0.00    -0.203 F 
ATOM     79  C   UNL A   1      39.242  31.193  35.481  1.00  0.00     0.198 A 
ATOM     80  C   UNL A   1      38.515  29.985  33.583  1.00  0.00     0.198 A 
ATOM     81  F   UNL A   1      39.793  28.357  32.623  1.00  0.00    -0.203 F 
ATOM     82  F   UNL A   1      39.046  32.159  36.388  1.00  0.00    -0.200 F 
ATOM     83  C   UNL A   1      38.288  30.971  34.511  1.00  0.00     0.200 A 
ATOM     84  F   UNL A   1      37.611  29.750  32.619  1.00  0.00    -0.200 F 
ATOM     85  F   UNL A   1      37.170  31.706  34.461  1.00  0.00    -0.200 F 
ENDBRANCH  61  75
BRANCH  62  86
ATOM     86  C   UNL A   1      47.481  22.024  34.791  1.00  0.00     0.064 A 
ATOM     87  C   UNL A   1      48.478  22.990  34.513  1.00  0.00     0.173 A 
ATOM     88  C   UNL A   1      47.879  20.678  34.764  1.00  0.00     0.173 A 
ATOM     89  F   UNL A   1      48.179  24.299  34.580  1.00  0.00    -0.203 F 
ATOM     90  C   UNL A   1      49.819  22.635  34.350  1.00  0.00     0.198 A 
ATOM     91  C   UNL A   1      49.229  20.330  34.624  1.00  0.00     0.198 A 
ATOM     92  F   UNL A   1      46.993  19.709  35.034  1.00  0.00    -0.203 F 
ATOM     93  F   UNL A   1      50.760  23.591  34.281  1.00  0.00    -0.200 F 
ATOM     94  C   UNL A   1      50.199  21.308  34.451  1.00  0.00     0.200 A 
ATOM     95  F   UNL A   1      49.610  19.052  34.778  1.00  0.00    -0.200 F 
ATOM     96  F   UNL A   1      51.501  20.988  34.497  1.00  0.00    -0.200 F 
ENDBRANCH  62  86
BRANCH  74  97
ATOM     97  C   UNL A   1      45.068  27.148  39.269  1.00  0.00     0.064 A 
ATOM     98  C   UNL A   1      44.771  26.869  40.615  1.00  0.00     0.173 A 
ATOM     99  C   UNL A   1      45.867  28.284  39.032  1.00  0.00     0.173 A 
ATOM    100  F   UNL A   1      44.153  25.735  40.980  1.00  0.00    -0.203 F 
ATOM    101  C   UNL A   1      45.153  27.724  41.640  1.00  0.00     0.198 A 
ATOM    102  C   UNL A   1      46.319  29.089  40.069  1.00  0.00     0.198 A 
ATOM    103  F   UNL A   1      46.262  28.621  37.795  1.00  0.00    -0.203 F 
ATOM    104  F   UNL A   1      44.780  27.453  42.899  1.00  0.00    -0.200 F 
ATOM    105  C   UNL A   1      45.937  28.827  41.369  1.00  0.00     0.200 A 
ATOM    106  F   UNL A   1      47.145  30.110  39.801  1.00  0.00    -0.200 F 
ATOM    107  F   UNL A   1      46.343  29.625  42.364  1.00  0.00    -0.200 F 
ENDBRANCH  74  97
ENDBRANCH  48  49
ENDBRANCH  41  43
ENDBRANCH  40  41
ENDBRANCH  39  40
ENDBRANCH  38  39
ENDBRANCH  37  38
ENDBRANCH   1  37
TORSDOF 17
ENDMDL
MODEL 2
REMARK VINA RESULT:     -10.4      4.491     11.154
REMARK SMILES Cc1ccc(-c2cnnc(-n3nc(C)c4c3NC(=O)C[C@@H]4c3ccc(C(=O)OCCOCCOC(=O)c4ccc(-c5c6nc(c(-c7c(F)c(F)c(F)c(F)c7F)c7ccc([nH]7)c(-c7c(F)c(F)c(F)c(F)c7F)c7nc(c(-c8c(F)c(F)c(F)c(F)c8F)c8ccc5[nH]8)C=C7)C=C6)cc4)cc3)n2)cc1
REMARK SMILES IDX 30 1 29 2 28 3 26 4 27 5 25 6 22 7 23 8 101 9 24 10 100 11
REMARK SMILES IDX 21 12 11 13 12 14 16 15 13 16 15 17 17 18 14 19 18 20 20 22
REMARK SMILES IDX 19 23 10 24 6 25 7 26 102 27 8 28 9 29 5 30 1 31 2 32 3 33
REMARK SMILES IDX 104 34 4 35 103 36 31 37 32 38 33 39 34 40 35 41 36 42 37 43
REMARK SMILES IDX 38 44 99 45 39 46 98 47 40 48 41 49 42 50 92 51 43 52 97 53
REMARK SMILES IDX 91 54 93 55 44 56 96 57 90 58 89 59 45 61 77 62 57 63 76 64
REMARK SMILES IDX 58 65 61 66 75 67 94 68 59 69 60 70 74 72 95 73 62 74 46 75
REMARK SMILES IDX 47 76 55 77 48 78 49 79 53 80 56 81 50 82 51 83 54 84 52 85
REMARK SMILES IDX 78 86 79 87 87 88 80 89 81 90 85 91 88 92 82 93 83 94 86 95
REMARK SMILES IDX 84 96 63 97 64 98 72 99 65 100 66 101 70 102 73 103 67 104
REMARK SMILES IDX 68 105 71 106 69 107
REMARK H PARENT 17 21 93 60 61 71
REMARK Flexibility Score: inf
ROOT
ATOM      1  C   UNL A   1      34.430  35.151  28.326  1.00  0.00     0.202 C 
ENDROOT
BRANCH   1   2
ATOM      2  C   UNL A   1      33.784  33.853  28.653  1.00  0.00     0.261 C 
BRANCH   2   3
ATOM      3  O   UNL A   1      34.740  32.849  29.034  1.00  0.00    -0.460 OA
BRANCH   3   4
ATOM      4  C   UNL A   1      34.801  32.332  30.302  1.00  0.00     0.338 C 
ATOM      5  O   UNL A   1      34.133  32.562  31.270  1.00  0.00    -0.246 OA
BRANCH   4   6
ATOM      6  C   UNL A   1      35.982  31.460  30.244  1.00  0.00     0.060 A 
ATOM      7  C   UNL A   1      37.814  29.402  30.157  1.00  0.00    -0.040 A 
ATOM      8  C   UNL A   1      37.646  30.246  29.040  1.00  0.00     0.005 A 
ATOM      9  C   UNL A   1      37.214  29.749  31.368  1.00  0.00     0.005 A 
ATOM     10  C   UNL A   1      36.727  31.295  29.083  1.00  0.00     0.016 A 
ATOM     11  C   UNL A   1      36.281  30.741  31.400  1.00  0.00     0.016 A 
BRANCH   7  12
ATOM     12  C   UNL A   1      38.632  28.143  30.032  1.00  0.00     0.064 C 
ATOM     13  N   UNL A   1      42.150  28.397  30.827  1.00  0.00    -0.180 N 
ATOM     14  N   UNL A   1      41.747  28.965  31.993  1.00  0.00    -0.168 NA
ATOM     15  C   UNL A   1      41.123  28.513  29.910  1.00  0.00     0.143 A 
ATOM     16  C   UNL A   1      40.412  28.843  31.960  1.00  0.00     0.066 A 
ATOM     17  C   UNL A   1      39.973  28.381  30.670  1.00  0.00     0.026 A 
ATOM     18  N   UNL A   1      41.051  28.821  28.562  1.00  0.00    -0.310 N 
ATOM     19  C   UNL A   1      39.665  29.388  33.126  1.00  0.00     0.069 C 
ATOM     20  C   UNL A   1      39.773  28.721  27.917  1.00  0.00     0.226 C 
ATOM     21  H   UNL A   1      41.852  29.099  28.062  1.00  0.00     0.171 HD
ATOM     22  C   UNL A   1      38.789  27.774  28.557  1.00  0.00     0.113 C 
ATOM     23  O   UNL A   1      39.606  29.345  26.884  1.00  0.00    -0.275 OA
BRANCH  13  24
ATOM     24  C   UNL A   1      43.115  27.351  30.824  1.00  0.00     0.272 A 
ATOM     25  C   UNL A   1      43.905  25.356  30.061  1.00  0.00     0.095 A 
ATOM     26  C   UNL A   1      44.646  25.218  31.221  1.00  0.00     0.164 A 
ATOM     27  N   UNL A   1      43.069  26.409  29.862  1.00  0.00    -0.208 NA
ATOM     28  N   UNL A   1      44.630  26.169  32.167  1.00  0.00    -0.153 NA
ATOM     29  N   UNL A   1      43.885  27.269  31.941  1.00  0.00    -0.109 NA
BRANCH  25  30
ATOM     30  C   UNL A   1      44.074  24.439  28.933  1.00  0.00     0.002 A 
ATOM     31  C   UNL A   1      44.430  21.833  25.502  1.00  0.00     0.044 C 
ATOM     32  C   UNL A   1      44.297  22.749  26.681  1.00  0.00    -0.051 A 
ATOM     33  C   UNL A   1      45.419  23.423  27.177  1.00  0.00     0.004 A 
ATOM     34  C   UNL A   1      43.063  22.928  27.308  1.00  0.00     0.004 A 
ATOM     35  C   UNL A   1      45.308  24.262  28.291  1.00  0.00     0.011 A 
ATOM     36  C   UNL A   1      42.956  23.760  28.422  1.00  0.00     0.011 A 
ENDBRANCH  25  30
ENDBRANCH  13  24
ENDBRANCH   7  12
ENDBRANCH   4   6
ENDBRANCH   3   4
ENDBRANCH   2   3
ENDBRANCH   1   2
BRANCH   1  37
ATOM     37  O   UNL A   1      33.906  36.045  29.287  1.00  0.00    -0.374 OA
BRANCH  37  38
ATOM     38  C   UNL A   1      32.807  35.569  30.024  1.00  0.00     0.202 C 
BRANCH  38  39
ATOM     39  C   UNL A   1      32.670  36.297  31.364  1.00  0.00     0.261 C 
BRANCH  39  40
ATOM     40  O   UNL A   1      33.987  36.614  31.871  1.00  0.00    -0.460 OA
BRANCH  40  41
ATOM     41  C   UNL A   1      34.288  36.156  33.122  1.00  0.00     0.338 C 
ATOM     42  O   UNL A   1      33.967  36.700  34.165  1.00  0.00    -0.246 OA
BRANCH  41  43
ATOM     43  C   UNL A   1      35.332  35.087  33.036  1.00  0.00     0.060 A 
ATOM     44  C   UNL A   1      35.616  34.277  34.157  1.00  0.00     0.016 A 
ATOM     45  C   UNL A   1      36.242  35.150  31.987  1.00  0.00     0.016 A 
ATOM     46  C   UNL A   1      36.880  33.675  34.304  1.00  0.00     0.010 A 
ATOM     47  C   UNL A   1      37.512  34.654  32.189  1.00  0.00     0.010 A 
ATOM     48  C   UNL A   1      37.864  33.950  33.357  1.00  0.00    -0.014 A 
BRANCH  48  49
ATOM     49  C   UNL A   1      39.303  33.662  33.471  1.00  0.00     0.031 A 
ATOM     50  C   UNL A   1      39.950  33.028  32.305  1.00  0.00     0.074 A 
ATOM     51  C   UNL A   1      40.078  34.201  34.448  1.00  0.00     0.049 A 
ATOM     52  N   UNL A   1      41.131  32.517  32.324  1.00  0.00    -0.248 NA
ATOM     53  C   UNL A   1      39.286  32.849  31.018  1.00  0.00     0.031 C 
ATOM     54  C   UNL A   1      41.511  34.520  34.407  1.00  0.00     0.029 A 
ATOM     55  N   UNL A   1      39.712  34.676  35.713  1.00  0.00    -0.354 N 
ATOM     56  C   UNL A   1      41.500  32.276  31.021  1.00  0.00     0.074 A 
ATOM     57  C   UNL A   1      40.272  32.342  30.280  1.00  0.00     0.031 C 
ATOM     58  C   UNL A   1      41.939  34.866  35.637  1.00  0.00     0.029 A 
ATOM     59  C   UNL A   1      40.829  34.668  36.557  1.00  0.00     0.049 A 
ATOM     60  H   UNL A   1      38.807  34.969  35.970  1.00  0.00     0.167 HD
ATOM     61  C   UNL A   1      42.833  32.208  30.737  1.00  0.00     0.037 A 
ATOM     62  C   UNL A   1      40.801  33.975  37.724  1.00  0.00     0.037 A 
ATOM     63  C   UNL A   1      43.614  32.309  31.990  1.00  0.00     0.049 A 
ATOM     64  C   UNL A   1      41.759  32.835  37.569  1.00  0.00     0.074 A 
ATOM     65  C   UNL A   1      44.362  33.329  32.556  1.00  0.00     0.029 A 
ATOM     66  N   UNL A   1      43.384  31.388  33.020  1.00  0.00    -0.354 N 
ATOM     67  N   UNL A   1      42.136  32.419  36.391  1.00  0.00    -0.248 NA
ATOM     68  C   UNL A   1      42.448  32.157  38.656  1.00  0.00     0.031 C 
ATOM     69  C   UNL A   1      44.511  33.047  33.947  1.00  0.00     0.029 A 
ATOM     70  C   UNL A   1      43.881  31.844  34.231  1.00  0.00     0.049 A 
ATOM     71  H   UNL A   1      42.926  30.525  32.900  1.00  0.00     0.167 HD
ATOM     72  C   UNL A   1      43.154  31.540  36.524  1.00  0.00     0.074 A 
ATOM     73  C   UNL A   1      43.287  31.364  37.962  1.00  0.00     0.031 C 
ATOM     74  C   UNL A   1      43.799  31.024  35.441  1.00  0.00     0.037 A 
BRANCH  61  75
ATOM     75  C   UNL A   1      43.449  32.309  29.342  1.00  0.00     0.064 A 
ATOM     76  C   UNL A   1      43.483  33.553  28.670  1.00  0.00     0.173 A 
ATOM     77  C   UNL A   1      43.981  31.244  28.579  1.00  0.00     0.173 A 
ATOM     78  F   UNL A   1      43.060  34.676  29.264  1.00  0.00    -0.203 F 
ATOM     79  C   UNL A   1      43.954  33.699  27.357  1.00  0.00     0.198 A 
ATOM     80  C   UNL A   1      44.437  31.386  27.263  1.00  0.00     0.198 A 
ATOM     81  F   UNL A   1      44.126  30.012  29.058  1.00  0.00    -0.203 F 
ATOM     82  F   UNL A   1      43.942  34.908  26.779  1.00  0.00    -0.200 F 
ATOM     83  C   UNL A   1      44.422  32.613  26.648  1.00  0.00     0.200 A 
ATOM     84  F   UNL A   1      44.897  30.311  26.605  1.00  0.00    -0.200 F 
ATOM     85  F   UNL A   1      44.866  32.749  25.392  1.00  0.00    -0.200 F 
ENDBRANCH  61  75
BRANCH  62  86
ATOM     86  C   UNL A   1      39.449  34.010  38.362  1.00  0.00     0.064 A 
ATOM     87  C   UNL A   1      38.618  32.884  38.154  1.00  0.00     0.173 A 
ATOM     88  C   UNL A   1      39.190  34.787  39.502  1.00  0.00     0.173 A 
ATOM     89  F   UNL A   1      38.848  32.064  37.114  1.00  0.00    -0.203 F 
ATOM     90  C   UNL A   1      37.670  32.485  39.101  1.00  0.00     0.198 A 
ATOM     91  C   UNL A   1      38.256  34.370  40.460  1.00  0.00     0.198 A 
ATOM     92  F   UNL A   1      39.947  35.859  39.773  1.00  0.00    -0.203 F 
ATOM     93  F   UNL A   1      37.039  31.308  38.960  1.00  0.00    -0.200 F 
ATOM     94  C   UNL A   1      37.524  33.204  40.275  1.00  0.00     0.200 A 
ATOM     95  F   UNL A   1      38.150  35.030  41.624  1.00  0.00    -0.200 F 
ATOM     96  F   UNL A   1      36.766  32.714  41.268  1.00  0.00    -0.200 F 
ENDBRANCH  62  86
BRANCH  74  97
ATOM     97  C   UNL A   1      44.479  29.695  35.496  1.00  0.00     0.064 A 
ATOM     98  C   UNL A   1      45.834  29.553  35.842  1.00  0.00     0.173 A 
ATOM     99  C   UNL A   1      43.738  28.501  35.383  1.00  0.00     0.173 A 
ATOM    100  F   UNL A   1      46.603  30.614  36.132  1.00  0.00    -0.203 F 
ATOM    101  C   UNL A   1      46.432  28.305  35.960  1.00  0.00     0.198 A 
ATOM    102  C   UNL A   1      44.320  27.257  35.586  1.00  0.00     0.198 A 
ATOM    103  F   UNL A   1      42.424  28.511  35.112  1.00  0.00    -0.203 F 
ATOM    104  F   UNL A   1      47.745  28.223  36.217  1.00  0.00    -0.200 F 
ATOM    105  C   UNL A   1      45.673  27.157  35.843  1.00  0.00     0.200 A 
ATOM    106  F   UNL A   1      43.558  26.157  35.550  1.00  0.00    -0.200 F 
ATOM    107  F   UNL A   1      46.241  25.956  36.002  1.00  0.00    -0.200 F 
ENDBRANCH  74  97
ENDBRANCH  48  49
ENDBRANCH  41  43
ENDBRANCH  40  41
ENDBRANCH  39  40
ENDBRANCH  38  39
ENDBRANCH  37  38
ENDBRANCH   1  37
TORSDOF 17
ENDMDL
MODEL 3
REMARK VINA RESULT:     -10.3      4.489     12.208
REMARK SMILES Cc1ccc(-c2cnnc(-n3nc(C)c4c3NC(=O)C[C@@H]4c3ccc(C(=O)OCCOCCOC(=O)c4ccc(-c5c6nc(c(-c7c(F)c(F)c(F)c(F)c7F)c7ccc([nH]7)c(-c7c(F)c(F)c(F)c(F)c7F)c7nc(c(-c8c(F)c(F)c(F)c(F)c8F)c8ccc5[nH]8)C=C7)C=C6)cc4)cc3)n2)cc1
REMARK SMILES IDX 30 1 29 2 28 3 26 4 27 5 25 6 22 7 23 8 101 9 24 10 100 11
REMARK SMILES IDX 21 12 11 13 12 14 16 15 13 16 15 17 17 18 14 19 18 20 20 22
REMARK SMILES IDX 19 23 10 24 6 25 7 26 102 27 8 28 9 29 5 30 1 31 2 32 3 33
REMARK SMILES IDX 104 34 4 35 103 36 31 37 32 38 33 39 34 40 35 41 36 42 37 43
REMARK SMILES IDX 38 44 99 45 39 46 98 47 40 48 41 49 42 50 92 51 43 52 97 53
REMARK SMILES IDX 91 54 93 55 44 56 96 57 90 58 89 59 45 61 77 62 57 63 76 64
REMARK SMILES IDX 58 65 61 66 75 67 94 68 59 69 60 70 74 72 95 73 62 74 46 75
REMARK SMILES IDX 47 76 55 77 48 78 49 79 53 80 56 81 50 82 51 83 54 84 52 85
REMARK SMILES IDX 78 86 79 87 87 88 80 89 81 90 85 91 88 92 82 93 83 94 86 95
REMARK SMILES IDX 84 96 63 97 64 98 72 99 65 100 66 101 70 102 73 103 67 104
REMARK SMILES IDX 68 105 71 106 69 107
REMARK H PARENT 17 21 93 60 61 71
REMARK Flexibility Score: inf
ROOT
ATOM      1  C   UNL A   1      39.174  31.195  35.658  1.00  0.00     0.202 C 
ENDROOT
BRANCH   1   2
ATOM      2  C   UNL A   1      40.221  30.797  34.680  1.00  0.00     0.261 C 
BRANCH   2   3
ATOM      3  O   UNL A   1      40.566  29.405  34.788  1.00  0.00    -0.460 OA
BRANCH   3   4
ATOM      4  C   UNL A   1      40.362  28.514  33.767  1.00  0.00     0.338 C 
ATOM      5  O   UNL A   1      39.480  28.445  32.958  1.00  0.00    -0.246 OA
BRANCH   4   6
ATOM      6  C   UNL A   1      41.461  27.556  33.943  1.00  0.00     0.060 A 
ATOM      7  C   UNL A   1      43.787  26.195  34.523  1.00  0.00    -0.040 A 
ATOM      8  C   UNL A   1      42.582  25.838  35.162  1.00  0.00     0.005 A 
ATOM      9  C   UNL A   1      43.749  27.082  33.447  1.00  0.00     0.005 A 
ATOM     10  C   UNL A   1      41.401  26.517  34.864  1.00  0.00     0.016 A 
ATOM     11  C   UNL A   1      42.609  27.781  33.187  1.00  0.00     0.016 A 
BRANCH   7  12
ATOM     12  C   UNL A   1      45.093  25.621  35.007  1.00  0.00     0.064 C 
ATOM     13  N   UNL A   1      45.141  22.087  35.766  1.00  0.00    -0.180 N 
ATOM     14  N   UNL A   1      44.611  21.911  34.528  1.00  0.00    -0.168 NA
ATOM     15  C   UNL A   1      44.900  23.388  36.161  1.00  0.00     0.143 A 
ATOM     16  C   UNL A   1      44.633  23.142  33.997  1.00  0.00     0.066 A 
ATOM     17  C   UNL A   1      44.990  24.120  34.990  1.00  0.00     0.026 A 
ATOM     18  N   UNL A   1      44.513  23.990  37.346  1.00  0.00    -0.310 N 
ATOM     19  C   UNL A   1      44.101  23.280  32.614  1.00  0.00     0.069 C 
ATOM     20  C   UNL A   1      44.484  25.424  37.394  1.00  0.00     0.226 C 
ATOM     21  H   UNL A   1      44.266  23.451  38.132  1.00  0.00     0.171 HD
ATOM     22  C   UNL A   1      45.390  26.131  36.417  1.00  0.00     0.113 C 
ATOM     23  O   UNL A   1      43.792  25.952  38.247  1.00  0.00    -0.275 OA
BRANCH  13  24
ATOM     24  C   UNL A   1      46.253  21.309  36.197  1.00  0.00     0.272 A 
ATOM     25  C   UNL A   1      47.303  19.993  37.730  1.00  0.00     0.095 A 
ATOM     26  C   UNL A   1      48.520  20.313  37.155  1.00  0.00     0.164 A 
ATOM     27  N   UNL A   1      46.136  20.537  37.295  1.00  0.00    -0.208 NA
ATOM     28  N   UNL A   1      48.587  21.116  36.083  1.00  0.00    -0.153 NA
ATOM     29  N   UNL A   1      47.430  21.584  35.574  1.00  0.00    -0.109 NA
BRANCH  25  30
ATOM     30  C   UNL A   1      47.193  18.957  38.758  1.00  0.00     0.002 A 
ATOM     31  C   UNL A   1      46.900  16.040  41.935  1.00  0.00     0.044 C 
ATOM     32  C   UNL A   1      47.000  17.066  40.846  1.00  0.00    -0.051 A 
ATOM     33  C   UNL A   1      45.958  17.214  39.924  1.00  0.00     0.004 A 
ATOM     34  C   UNL A   1      48.134  17.871  40.727  1.00  0.00     0.004 A 
ATOM     35  C   UNL A   1      46.052  18.152  38.891  1.00  0.00     0.011 A 
ATOM     36  C   UNL A   1      48.229  18.801  39.693  1.00  0.00     0.011 A 
ENDBRANCH  25  30
ENDBRANCH  13  24
ENDBRANCH   7  12
ENDBRANCH   4   6
ENDBRANCH   3   4
ENDBRANCH   2   3
ENDBRANCH   1   2
BRANCH   1  37
ATOM     37  O   UNL A   1      37.962  30.999  34.957  1.00  0.00    -0.374 OA
BRANCH  37  38
ATOM     38  C   UNL A   1      37.860  31.662  33.721  1.00  0.00     0.202 C 
BRANCH  38  39
ATOM     39  C   UNL A   1      36.734  31.079  32.862  1.00  0.00     0.261 C 
BRANCH  39  40
ATOM     40  O   UNL A   1      37.015  31.343  31.468  1.00  0.00    -0.460 OA
BRANCH  40  41
ATOM     41  C   UNL A   1      37.026  30.263  30.632  1.00  0.00     0.338 C 
ATOM     42  O   UNL A   1      36.317  29.278  30.745  1.00  0.00    -0.246 OA
BRANCH  41  43
ATOM     43  C   UNL A   1      38.241  30.308  29.758  1.00  0.00     0.060 A 
ATOM     44  C   UNL A   1      38.258  29.621  28.525  1.00  0.00     0.016 A 
ATOM     45  C   UNL A   1      39.439  30.718  30.331  1.00  0.00     0.016 A 
ATOM     46  C   UNL A   1      39.474  29.192  27.961  1.00  0.00     0.010 A 
ATOM     47  C   UNL A   1      40.616  30.198  29.835  1.00  0.00     0.010 A 
ATOM     48  C   UNL A   1      40.652  29.400  28.675  1.00  0.00    -0.014 A 
BRANCH  48  49
ATOM     49  C   UNL A   1      41.964  28.791  28.408  1.00  0.00     0.031 A 
ATOM     50  C   UNL A   1      42.030  27.315  28.425  1.00  0.00     0.074 A 
ATOM     51  C   UNL A   1      43.001  29.494  27.882  1.00  0.00     0.049 A 
ATOM     52  N   UNL A   1      43.125  26.641  28.430  1.00  0.00    -0.248 NA
ATOM     53  C   UNL A   1      40.849  26.462  28.510  1.00  0.00     0.031 C 
ATOM     54  C   UNL A   1      44.101  29.009  27.038  1.00  0.00     0.029 A 
ATOM     55  N   UNL A   1      43.253  30.871  27.924  1.00  0.00    -0.354 N 
ATOM     56  C   UNL A   1      42.807  25.328  28.170  1.00  0.00     0.074 A 
ATOM     57  C   UNL A   1      41.390  25.250  28.393  1.00  0.00     0.031 C 
ATOM     58  C   UNL A   1      45.021  29.981  26.881  1.00  0.00     0.029 A 
ATOM     59  C   UNL A   1      44.619  31.102  27.717  1.00  0.00     0.049 A 
ATOM     60  H   UNL A   1      42.574  31.568  28.076  1.00  0.00     0.167 HD
ATOM     61  C   UNL A   1      43.779  24.527  27.646  1.00  0.00     0.037 A 
ATOM     62  C   UNL A   1      45.346  31.781  28.641  1.00  0.00     0.037 A 
ATOM     63  C   UNL A   1      45.054  25.273  27.577  1.00  0.00     0.049 A 
ATOM     64  C   UNL A   1      46.298  30.797  29.246  1.00  0.00     0.074 A 
ATOM     65  C   UNL A   1      45.754  25.850  26.529  1.00  0.00     0.029 A 
ATOM     66  N   UNL A   1      45.590  25.830  28.746  1.00  0.00    -0.354 N 
ATOM     67  N   UNL A   1      46.087  29.511  29.169  1.00  0.00    -0.248 NA
ATOM     68  C   UNL A   1      47.575  31.125  29.861  1.00  0.00     0.031 C 
ATOM     69  C   UNL A   1      46.658  26.809  27.077  1.00  0.00     0.029 A 
ATOM     70  C   UNL A   1      46.535  26.803  28.459  1.00  0.00     0.049 A 
ATOM     71  H   UNL A   1      45.329  25.564  29.656  1.00  0.00     0.167 HD
ATOM     72  C   UNL A   1      47.184  28.845  29.593  1.00  0.00     0.074 A 
ATOM     73  C   UNL A   1      48.077  29.893  30.065  1.00  0.00     0.031 C 
ATOM     74  C   UNL A   1      47.266  27.487  29.528  1.00  0.00     0.037 A 
BRANCH  61  75
ATOM     75  C   UNL A   1      43.545  23.180  26.964  1.00  0.00     0.064 A 
ATOM     76  C   UNL A   1      42.795  22.174  27.616  1.00  0.00     0.173 A 
ATOM     77  C   UNL A   1      44.051  22.775  25.706  1.00  0.00     0.173 A 
ATOM     78  F   UNL A   1      42.205  22.402  28.796  1.00  0.00    -0.203 F 
ATOM     79  C   UNL A   1      42.617  20.888  27.085  1.00  0.00     0.198 A 
ATOM     80  C   UNL A   1      43.886  21.488  25.182  1.00  0.00     0.198 A 
ATOM     81  F   UNL A   1      44.705  23.597  24.891  1.00  0.00    -0.203 F 
ATOM     82  F   UNL A   1      41.905  19.982  27.768  1.00  0.00    -0.200 F 
ATOM     83  C   UNL A   1      43.171  20.541  25.872  1.00  0.00     0.200 A 
ATOM     84  F   UNL A   1      44.430  21.185  23.993  1.00  0.00    -0.200 F 
ATOM     85  F   UNL A   1      43.008  19.312  25.366  1.00  0.00    -0.200 F 
ENDBRANCH  61  75
BRANCH  62  86
ATOM     86  C   UNL A   1      44.548  32.866  29.291  1.00  0.00     0.064 A 
ATOM     87  C   UNL A   1      44.263  34.006  28.502  1.00  0.00     0.173 A 
ATOM     88  C   UNL A   1      43.681  32.605  30.363  1.00  0.00     0.173 A 
ATOM     89  F   UNL A   1      45.019  34.281  27.425  1.00  0.00    -0.203 F 
ATOM     90  C   UNL A   1      43.104  34.762  28.695  1.00  0.00     0.198 A 
ATOM     91  C   UNL A   1      42.507  33.352  30.538  1.00  0.00     0.198 A 
ATOM     92  F   UNL A   1      43.878  31.534  31.144  1.00  0.00    -0.203 F 
ATOM     93  F   UNL A   1      42.771  35.714  27.808  1.00  0.00    -0.200 F 
ATOM     94  C   UNL A   1      42.204  34.405  29.685  1.00  0.00     0.200 A 
ATOM     95  F   UNL A   1      41.605  32.976  31.457  1.00  0.00    -0.200 F 
ATOM     96  F   UNL A   1      41.003  34.999  29.741  1.00  0.00    -0.200 F 
ENDBRANCH  62  86
BRANCH  74  97
ATOM     97  C   UNL A   1      48.136  26.710  30.460  1.00  0.00     0.064 A 
ATOM     98  C   UNL A   1      47.634  26.078  31.612  1.00  0.00     0.173 A 
ATOM     99  C   UNL A   1      49.473  26.420  30.125  1.00  0.00     0.173 A 
ATOM    100  F   UNL A   1      46.337  26.151  31.947  1.00  0.00    -0.203 F 
ATOM    101  C   UNL A   1      48.442  25.299  32.429  1.00  0.00     0.198 A 
ATOM    102  C   UNL A   1      50.253  25.571  30.899  1.00  0.00     0.198 A 
ATOM    103  F   UNL A   1      50.047  26.919  29.019  1.00  0.00    -0.203 F 
ATOM    104  F   UNL A   1      47.936  24.781  33.557  1.00  0.00    -0.200 F 
ATOM    105  C   UNL A   1      49.748  25.036  32.067  1.00  0.00     0.200 A 
ATOM    106  F   UNL A   1      51.491  25.259  30.495  1.00  0.00    -0.200 F 
ATOM    107  F   UNL A   1      50.512  24.247  32.832  1.00  0.00    -0.200 F 
ENDBRANCH  74  97
ENDBRANCH  48  49
ENDBRANCH  41  43
ENDBRANCH  40  41
ENDBRANCH  39  40
ENDBRANCH  38  39
ENDBRANCH  37  38
ENDBRANCH   1  37
TORSDOF 17
ENDMDL
