MODEL 1
REMARK VINA RESULT:     -12.6      0.000      0.000
REMARK SMILES NS(=O)(=O)c1ccc(-n2nc(C(F)F)cc2-c2ccc(C(=O)OCCOCCOC(=O)c3ccc(-c4c5nc(c(-c6c(F)c(F)c(F)c(F)c6F)c6ccc([nH]6)c(-c6c(F)c(F)c(F)c(F)c6F)c6nc(c(-c7c(F)c(F)c(F)c(F)c7F)c7ccc4[nH]7)C=C6)C=C5)cc3)cc2)cc1
REMARK SMILES IDX 25 1 24 2 23 3 21 4 22 5 20 6 17 7 18 8 96 9 19 10 95 11
REMARK SMILES IDX 16 12 9 13 10 14 11 15 15 16 8 17 5 18 6 19 98 20 7 21 97 22
REMARK SMILES IDX 2 23 3 24 4 25 1 26 12 29 13 30 14 31 26 32 27 33 28 34
REMARK SMILES IDX 29 35 30 36 31 37 32 38 33 39 94 40 34 41 93 42 35 43 36 44
REMARK SMILES IDX 37 45 87 46 38 47 92 48 86 49 88 50 39 51 91 52 85 53 84 54
REMARK SMILES IDX 40 56 72 57 52 58 71 59 53 60 56 61 70 62 89 63 54 64 55 65
REMARK SMILES IDX 69 67 90 68 57 69 41 70 42 71 50 72 43 73 44 74 48 75 51 76
REMARK SMILES IDX 45 77 46 78 49 79 47 80 73 81 74 82 82 83 75 84 76 85 80 86
REMARK SMILES IDX 83 87 77 88 78 89 81 90 79 91 58 92 59 93 67 94 60 95 61 96
REMARK SMILES IDX 65 97 68 98 62 99 63 100 66 101 64 102
REMARK H PARENT 1 27 1 28 88 55 56 66
REMARK Flexibility Score: inf
ROOT
ATOM      1  C   UNL A   1      41.817  21.369  27.310  1.00  0.00     0.202 C 
ENDROOT
BRANCH   1   2
ATOM      2  C   UNL A   1      40.395  21.874  27.561  1.00  0.00     0.261 C 
BRANCH   2   3
ATOM      3  O   UNL A   1      39.839  22.556  26.427  1.00  0.00    -0.460 OA
BRANCH   3   4
ATOM      4  C   UNL A   1      38.926  21.827  25.739  1.00  0.00     0.338 C 
ATOM      5  O   UNL A   1      38.945  20.623  25.546  1.00  0.00    -0.246 OA
BRANCH   4   6
ATOM      6  C   UNL A   1      37.769  22.664  25.363  1.00  0.00     0.060 A 
ATOM      7  C   UNL A   1      35.384  24.046  24.896  1.00  0.00     0.000 A 
ATOM      8  C   UNL A   1      36.054  24.194  26.117  1.00  0.00     0.011 A 
ATOM      9  C   UNL A   1      35.965  23.270  23.882  1.00  0.00     0.011 A 
ATOM     10  C   UNL A   1      37.240  23.502  26.351  1.00  0.00     0.016 A 
ATOM     11  C   UNL A   1      37.164  22.585  24.108  1.00  0.00     0.016 A 
BRANCH   7  12
ATOM     12  C   UNL A   1      34.014  24.541  24.750  1.00  0.00     0.075 A 
ATOM     13  N   UNL A   1      32.912  23.826  24.298  1.00  0.00    -0.233 N 
ATOM     14  N   UNL A   1      31.895  24.647  23.929  1.00  0.00    -0.166 NA
ATOM     15  C   UNL A   1      32.279  25.875  24.313  1.00  0.00     0.129 A 
ATOM     16  C   UNL A   1      33.602  25.859  24.802  1.00  0.00     0.060 A 
BRANCH  13  17
ATOM     17  C   UNL A   1      32.768  22.419  24.188  1.00  0.00     0.065 A 
ATOM     18  C   UNL A   1      32.606  19.654  23.933  1.00  0.00     0.082 A 
ATOM     19  C   UNL A   1      32.896  20.217  25.180  1.00  0.00     0.024 A 
ATOM     20  C   UNL A   1      32.380  20.466  22.815  1.00  0.00     0.024 A 
ATOM     21  C   UNL A   1      32.989  21.602  25.306  1.00  0.00     0.030 A 
ATOM     22  C   UNL A   1      32.427  21.855  22.951  1.00  0.00     0.030 A 
BRANCH  18  23
ATOM     23  S   UNL A   1      32.595  17.894  23.757  1.00  0.00     0.238 S 
ATOM     24  O   UNL A   1      31.708  17.328  24.755  1.00  0.00    -0.207 OA
ATOM     25  O   UNL A   1      33.943  17.429  23.570  1.00  0.00    -0.207 OA
BRANCH  23  26
ATOM     26  N   UNL A   1      31.810  17.695  22.288  1.00  0.00    -0.225 NA
ATOM     27  H   UNL A   1      32.416  18.015  21.533  1.00  0.00     0.137 HD
ATOM     28  H   UNL A   1      30.948  18.240  22.287  1.00  0.00     0.137 HD
ENDBRANCH  23  26
ENDBRANCH  18  23
ENDBRANCH  13  17
BRANCH  15  29
ATOM     29  C   UNL A   1      31.402  27.086  24.189  1.00  0.00     0.393 C 
ATOM     30  F   UNL A   1      30.080  26.775  24.110  1.00  0.00    -0.203 F 
ATOM     31  F   UNL A   1      31.546  27.912  25.262  1.00  0.00    -0.203 F 
ENDBRANCH  15  29
ENDBRANCH   7  12
ENDBRANCH   4   6
ENDBRANCH   3   4
ENDBRANCH   2   3
ENDBRANCH   1   2
BRANCH   1  32
ATOM     32  O   UNL A   1      42.050  19.962  27.290  1.00  0.00    -0.374 OA
BRANCH  32  33
ATOM     33  C   UNL A   1      42.211  19.276  26.056  1.00  0.00     0.202 C 
BRANCH  33  34
ATOM     34  C   UNL A   1      43.554  19.351  25.346  1.00  0.00     0.261 C 
BRANCH  34  35
ATOM     35  O   UNL A   1      43.741  20.574  24.653  1.00  0.00    -0.460 OA
BRANCH  35  36
ATOM     36  C   UNL A   1      45.027  20.991  24.643  1.00  0.00     0.338 C 
ATOM     37  O   UNL A   1      46.032  20.301  24.630  1.00  0.00    -0.246 OA
BRANCH  36  38
ATOM     38  C   UNL A   1      45.047  22.437  24.863  1.00  0.00     0.060 A 
ATOM     39  C   UNL A   1      45.990  22.906  25.780  1.00  0.00     0.016 A 
ATOM     40  C   UNL A   1      43.946  23.204  24.460  1.00  0.00     0.016 A 
ATOM     41  C   UNL A   1      45.694  24.052  26.478  1.00  0.00     0.010 A 
ATOM     42  C   UNL A   1      43.637  24.330  25.175  1.00  0.00     0.010 A 
ATOM     43  C   UNL A   1      44.472  24.690  26.229  1.00  0.00    -0.014 A 
BRANCH  43  44
ATOM     44  C   UNL A   1      44.165  25.889  26.973  1.00  0.00     0.031 A 
ATOM     45  C   UNL A   1      45.171  26.934  26.693  1.00  0.00     0.074 A 
ATOM     46  C   UNL A   1      43.051  26.015  27.722  1.00  0.00     0.049 A 
ATOM     47  N   UNL A   1      46.104  27.341  27.486  1.00  0.00    -0.248 NA
ATOM     48  C   UNL A   1      45.335  27.391  25.301  1.00  0.00     0.031 C 
ATOM     49  C   UNL A   1      41.922  25.083  27.811  1.00  0.00     0.029 A 
ATOM     50  N   UNL A   1      42.648  27.059  28.502  1.00  0.00    -0.354 N 
ATOM     51  C   UNL A   1      46.801  28.303  26.764  1.00  0.00     0.074 A 
ATOM     52  C   UNL A   1      46.463  28.097  25.386  1.00  0.00     0.031 C 
ATOM     53  C   UNL A   1      40.875  25.697  28.409  1.00  0.00     0.029 A 
ATOM     54  C   UNL A   1      41.302  27.008  28.868  1.00  0.00     0.049 A 
ATOM     55  H   UNL A   1      43.252  27.783  28.783  1.00  0.00     0.167 HD
ATOM     56  C   UNL A   1      47.274  29.403  27.408  1.00  0.00     0.037 A 
ATOM     57  C   UNL A   1      40.601  28.008  29.459  1.00  0.00     0.037 A 
ATOM     58  C   UNL A   1      47.305  29.160  28.830  1.00  0.00     0.049 A 
ATOM     59  C   UNL A   1      41.588  28.923  30.078  1.00  0.00     0.074 A 
ATOM     60  C   UNL A   1      48.066  28.401  29.692  1.00  0.00     0.029 A 
ATOM     61  N   UNL A   1      46.117  29.430  29.457  1.00  0.00    -0.354 N 
ATOM     62  N   UNL A   1      42.319  28.591  31.106  1.00  0.00    -0.248 NA
ATOM     63  C   UNL A   1      42.069  30.066  29.311  1.00  0.00     0.031 C 
ATOM     64  C   UNL A   1      47.213  28.081  30.791  1.00  0.00     0.029 A 
ATOM     65  C   UNL A   1      45.982  28.708  30.609  1.00  0.00     0.049 A 
ATOM     66  H   UNL A   1      45.444  30.064  29.119  1.00  0.00     0.167 HD
ATOM     67  C   UNL A   1      43.546  29.177  30.855  1.00  0.00     0.074 A 
ATOM     68  C   UNL A   1      43.287  30.196  29.843  1.00  0.00     0.031 C 
ATOM     69  C   UNL A   1      44.695  28.555  31.248  1.00  0.00     0.037 A 
BRANCH  56  70
ATOM     70  C   UNL A   1      47.158  30.820  26.868  1.00  0.00     0.064 A 
ATOM     71  C   UNL A   1      48.290  31.659  26.951  1.00  0.00     0.173 A 
ATOM     72  C   UNL A   1      45.944  31.484  26.583  1.00  0.00     0.173 A 
ATOM     73  F   UNL A   1      49.500  31.149  27.226  1.00  0.00    -0.203 F 
ATOM     74  C   UNL A   1      48.193  33.050  26.848  1.00  0.00     0.198 A 
ATOM     75  C   UNL A   1      45.858  32.868  26.436  1.00  0.00     0.198 A 
ATOM     76  F   UNL A   1      44.765  30.857  26.537  1.00  0.00    -0.203 F 
ATOM     77  F   UNL A   1      49.276  33.810  27.058  1.00  0.00    -0.200 F 
ATOM     78  C   UNL A   1      46.976  33.654  26.598  1.00  0.00     0.200 A 
ATOM     79  F   UNL A   1      44.662  33.431  26.217  1.00  0.00    -0.200 F 
ATOM     80  F   UNL A   1      46.867  34.988  26.560  1.00  0.00    -0.200 F 
ENDBRANCH  56  70
BRANCH  57  81
ATOM     81  C   UNL A   1      39.174  28.382  29.311  1.00  0.00     0.064 A 
ATOM     82  C   UNL A   1      38.324  28.504  30.424  1.00  0.00     0.173 A 
ATOM     83  C   UNL A   1      38.697  28.919  28.100  1.00  0.00     0.173 A 
ATOM     84  F   UNL A   1      38.721  28.065  31.627  1.00  0.00    -0.203 F 
ATOM     85  C   UNL A   1      37.081  29.143  30.335  1.00  0.00     0.198 A 
ATOM     86  C   UNL A   1      37.459  29.557  28.013  1.00  0.00     0.198 A 
ATOM     87  F   UNL A   1      39.470  28.922  27.005  1.00  0.00    -0.203 F 
ATOM     88  F   UNL A   1      36.324  29.294  31.432  1.00  0.00    -0.200 F 
ATOM     89  C   UNL A   1      36.656  29.680  29.131  1.00  0.00     0.200 A 
ATOM     90  F   UNL A   1      37.078  30.111  26.852  1.00  0.00    -0.200 F 
ATOM     91  F   UNL A   1      35.497  30.351  29.059  1.00  0.00    -0.200 F 
ENDBRANCH  57  81
BRANCH  69  92
ATOM     92  C   UNL A   1      44.584  27.534  32.339  1.00  0.00     0.064 A 
ATOM     93  C   UNL A   1      44.344  26.165  32.135  1.00  0.00     0.173 A 
ATOM     94  C   UNL A   1      44.835  27.965  33.647  1.00  0.00     0.173 A 
ATOM     95  F   UNL A   1      44.173  25.669  30.903  1.00  0.00    -0.203 F 
ATOM     96  C   UNL A   1      44.325  25.276  33.210  1.00  0.00     0.198 A 
ATOM     97  C   UNL A   1      44.856  27.070  34.710  1.00  0.00     0.198 A 
ATOM     98  F   UNL A   1      45.110  29.256  33.887  1.00  0.00    -0.203 F 
ATOM     99  F   UNL A   1      44.080  23.974  33.001  1.00  0.00    -0.200 F 
ATOM    100  C   UNL A   1      44.590  25.728  34.494  1.00  0.00     0.200 A 
ATOM    101  F   UNL A   1      45.159  27.508  35.939  1.00  0.00    -0.200 F 
ATOM    102  F   UNL A   1      44.613  24.868  35.521  1.00  0.00    -0.200 F 
ENDBRANCH  69  92
ENDBRANCH  43  44
ENDBRANCH  36  38
ENDBRANCH  35  36
ENDBRANCH  34  35
ENDBRANCH  33  34
ENDBRANCH  32  33
ENDBRANCH   1  32
TORSDOF 19
ENDMDL
MODEL 2
REMARK VINA RESULT:     -12.3      2.524      3.226
REMARK SMILES NS(=O)(=O)c1ccc(-n2nc(C(F)F)cc2-c2ccc(C(=O)OCCOCCOC(=O)c3ccc(-c4c5nc(c(-c6c(F)c(F)c(F)c(F)c6F)c6ccc([nH]6)c(-c6c(F)c(F)c(F)c(F)c6F)c6nc(c(-c7c(F)c(F)c(F)c(F)c7F)c7ccc4[nH]7)C=C6)C=C5)cc3)cc2)cc1
REMARK SMILES IDX 25 1 24 2 23 3 21 4 22 5 20 6 17 7 18 8 96 9 19 10 95 11
REMARK SMILES IDX 16 12 9 13 10 14 11 15 15 16 8 17 5 18 6 19 98 20 7 21 97 22
REMARK SMILES IDX 2 23 3 24 4 25 1 26 12 29 13 30 14 31 26 32 27 33 28 34
REMARK SMILES IDX 29 35 30 36 31 37 32 38 33 39 94 40 34 41 93 42 35 43 36 44
REMARK SMILES IDX 37 45 87 46 38 47 92 48 86 49 88 50 39 51 91 52 85 53 84 54
REMARK SMILES IDX 40 56 72 57 52 58 71 59 53 60 56 61 70 62 89 63 54 64 55 65
REMARK SMILES IDX 69 67 90 68 57 69 41 70 42 71 50 72 43 73 44 74 48 75 51 76
REMARK SMILES IDX 45 77 46 78 49 79 47 80 73 81 74 82 82 83 75 84 76 85 80 86
REMARK SMILES IDX 83 87 77 88 78 89 81 90 79 91 58 92 59 93 67 94 60 95 61 96
REMARK SMILES IDX 65 97 68 98 62 99 63 100 66 101 64 102
REMARK H PARENT 1 27 1 28 88 55 56 66
REMARK Flexibility Score: inf
ROOT
ATOM      1  C   UNL A   1      40.995  20.832  27.377  1.00  0.00     0.202 C 
ENDROOT
BRANCH   1   2
ATOM      2  C   UNL A   1      40.227  21.757  26.431  1.00  0.00     0.261 C 
BRANCH   2   3
ATOM      3  O   UNL A   1      39.312  22.621  27.122  1.00  0.00    -0.460 OA
BRANCH   3   4
ATOM      4  C   UNL A   1      38.642  23.475  26.309  1.00  0.00     0.338 C 
ATOM      5  O   UNL A   1      39.008  24.580  25.945  1.00  0.00    -0.246 OA
BRANCH   4   6
ATOM      6  C   UNL A   1      37.432  22.829  25.761  1.00  0.00     0.060 A 
ATOM      7  C   UNL A   1      35.151  21.388  25.027  1.00  0.00     0.000 A 
ATOM      8  C   UNL A   1      35.105  22.271  26.114  1.00  0.00     0.011 A 
ATOM      9  C   UNL A   1      36.323  21.302  24.260  1.00  0.00     0.011 A 
ATOM     10  C   UNL A   1      36.243  22.984  26.482  1.00  0.00     0.016 A 
ATOM     11  C   UNL A   1      37.463  22.028  24.618  1.00  0.00     0.016 A 
BRANCH   7  12
ATOM     12  C   UNL A   1      34.058  20.440  24.810  1.00  0.00     0.075 A 
ATOM     13  N   UNL A   1      32.698  20.725  24.789  1.00  0.00    -0.233 N 
ATOM     14  N   UNL A   1      31.945  19.604  24.938  1.00  0.00    -0.166 NA
ATOM     15  C   UNL A   1      32.817  18.586  24.874  1.00  0.00     0.129 A 
ATOM     16  C   UNL A   1      34.145  19.061  24.824  1.00  0.00     0.060 A 
BRANCH  13  17
ATOM     17  C   UNL A   1      32.072  21.990  24.645  1.00  0.00     0.065 A 
ATOM     18  C   UNL A   1      30.946  24.523  24.417  1.00  0.00     0.082 A 
ATOM     19  C   UNL A   1      31.635  23.973  23.332  1.00  0.00     0.024 A 
ATOM     20  C   UNL A   1      30.802  23.807  25.611  1.00  0.00     0.024 A 
ATOM     21  C   UNL A   1      32.211  22.709  23.450  1.00  0.00     0.030 A 
ATOM     22  C   UNL A   1      31.337  22.521  25.713  1.00  0.00     0.030 A 
BRANCH  18  23
ATOM     23  S   UNL A   1      30.312  26.170  24.297  1.00  0.00     0.238 S 
ATOM     24  O   UNL A   1      30.479  26.639  22.936  1.00  0.00    -0.207 OA
ATOM     25  O   UNL A   1      30.753  26.931  25.435  1.00  0.00    -0.207 OA
BRANCH  23  26
ATOM     26  N   UNL A   1      28.665  25.925  24.494  1.00  0.00    -0.225 NA
ATOM     27  H   UNL A   1      28.509  25.057  25.007  1.00  0.00     0.137 HD
ATOM     28  H   UNL A   1      28.219  25.863  23.579  1.00  0.00     0.137 HD
ENDBRANCH  23  26
ENDBRANCH  18  23
ENDBRANCH  13  17
BRANCH  15  29
ATOM     29  C   UNL A   1      32.400  17.145  24.892  1.00  0.00     0.393 C 
ATOM     30  F   UNL A   1      32.900  16.437  23.844  1.00  0.00    -0.203 F 
ATOM     31  F   UNL A   1      32.827  16.522  26.026  1.00  0.00    -0.203 F 
ENDBRANCH  15  29
ENDBRANCH   7  12
ENDBRANCH   4   6
ENDBRANCH   3   4
ENDBRANCH   2   3
ENDBRANCH   1   2
BRANCH   1  32
ATOM     32  O   UNL A   1      42.255  20.314  26.954  1.00  0.00    -0.374 OA
BRANCH  32  33
ATOM     33  C   UNL A   1      42.317  19.265  25.997  1.00  0.00     0.202 C 
BRANCH  33  34
ATOM     34  C   UNL A   1      43.679  18.734  25.577  1.00  0.00     0.261 C 
BRANCH  34  35
ATOM     35  O   UNL A   1      44.677  19.742  25.554  1.00  0.00    -0.460 OA
BRANCH  35  36
ATOM     36  C   UNL A   1      44.683  20.461  24.409  1.00  0.00     0.338 C 
ATOM     37  O   UNL A   1      44.675  20.039  23.265  1.00  0.00    -0.246 OA
BRANCH  36  38
ATOM     38  C   UNL A   1      44.912  21.867  24.746  1.00  0.00     0.060 A 
ATOM     39  C   UNL A   1      45.756  22.108  25.830  1.00  0.00     0.016 A 
ATOM     40  C   UNL A   1      44.038  22.840  24.242  1.00  0.00     0.016 A 
ATOM     41  C   UNL A   1      45.549  23.251  26.566  1.00  0.00     0.010 A 
ATOM     42  C   UNL A   1      43.812  23.964  24.991  1.00  0.00     0.010 A 
ATOM     43  C   UNL A   1      44.511  24.111  26.186  1.00  0.00    -0.014 A 
BRANCH  43  44
ATOM     44  C   UNL A   1      44.294  25.305  26.970  1.00  0.00     0.031 A 
ATOM     45  C   UNL A   1      45.366  26.287  26.708  1.00  0.00     0.074 A 
ATOM     46  C   UNL A   1      43.199  25.482  27.736  1.00  0.00     0.049 A 
ATOM     47  N   UNL A   1      46.332  26.605  27.501  1.00  0.00    -0.248 NA
ATOM     48  C   UNL A   1      45.546  26.774  25.328  1.00  0.00     0.031 C 
ATOM     49  C   UNL A   1      42.010  24.627  27.810  1.00  0.00     0.029 A 
ATOM     50  N   UNL A   1      42.876  26.527  28.552  1.00  0.00    -0.354 N 
ATOM     51  C   UNL A   1      47.086  27.540  26.799  1.00  0.00     0.074 A 
ATOM     52  C   UNL A   1      46.720  27.400  25.421  1.00  0.00     0.031 C 
ATOM     53  C   UNL A   1      41.014  25.292  28.440  1.00  0.00     0.029 A 
ATOM     54  C   UNL A   1      41.534  26.556  28.933  1.00  0.00     0.049 A 
ATOM     55  H   UNL A   1      43.532  27.200  28.847  1.00  0.00     0.167 HD
ATOM     56  C   UNL A   1      47.640  28.585  27.470  1.00  0.00     0.037 A 
ATOM     57  C   UNL A   1      40.909  27.583  29.562  1.00  0.00     0.037 A 
ATOM     58  C   UNL A   1      47.669  28.297  28.884  1.00  0.00     0.049 A 
ATOM     59  C   UNL A   1      41.962  28.409  30.196  1.00  0.00     0.074 A 
ATOM     60  C   UNL A   1      48.385  27.462  29.713  1.00  0.00     0.029 A 
ATOM     61  N   UNL A   1      46.508  28.628  29.533  1.00  0.00    -0.354 N 
ATOM     62  N   UNL A   1      42.680  27.998  31.204  1.00  0.00    -0.248 NA
ATOM     63  C   UNL A   1      42.512  29.541  29.458  1.00  0.00     0.031 C 
ATOM     64  C   UNL A   1      47.525  27.167  30.812  1.00  0.00     0.029 A 
ATOM     65  C   UNL A   1      46.336  27.881  30.664  1.00  0.00     0.049 A 
ATOM     66  H   UNL A   1      45.877  29.316  29.223  1.00  0.00     0.167 HD
ATOM     67  C   UNL A   1      43.941  28.507  30.955  1.00  0.00     0.074 A 
ATOM     68  C   UNL A   1      43.741  29.571  29.978  1.00  0.00     0.031 C 
ATOM     69  C   UNL A   1      45.049  27.796  31.315  1.00  0.00     0.037 A 
BRANCH  56  70
ATOM     70  C   UNL A   1      47.615  30.023  26.974  1.00  0.00     0.064 A 
ATOM     71  C   UNL A   1      48.782  30.801  27.130  1.00  0.00     0.173 A 
ATOM     72  C   UNL A   1      46.447  30.755  26.664  1.00  0.00     0.173 A 
ATOM     73  F   UNL A   1      49.953  30.222  27.435  1.00  0.00    -0.203 F 
ATOM     74  C   UNL A   1      48.757  32.197  27.070  1.00  0.00     0.198 A 
ATOM     75  C   UNL A   1      46.435  32.145  26.560  1.00  0.00     0.198 A 
ATOM     76  F   UNL A   1      45.242  30.189  26.551  1.00  0.00    -0.203 F 
ATOM     77  F   UNL A   1      49.866  32.895  27.348  1.00  0.00    -0.200 F 
ATOM     78  C   UNL A   1      47.582  32.869  26.794  1.00  0.00     0.200 A 
ATOM     79  F   UNL A   1      45.277  32.774  26.315  1.00  0.00    -0.200 F 
ATOM     80  F   UNL A   1      47.539  34.207  26.796  1.00  0.00    -0.200 F 
ENDBRANCH  56  70
BRANCH  57  81
ATOM     81  C   UNL A   1      39.509  28.057  29.443  1.00  0.00     0.064 A 
ATOM     82  C   UNL A   1      38.682  28.204  30.570  1.00  0.00     0.173 A 
ATOM     83  C   UNL A   1      39.057  28.660  28.254  1.00  0.00     0.173 A 
ATOM     84  F   UNL A   1      39.061  27.705  31.756  1.00  0.00    -0.203 F 
ATOM     85  C   UNL A   1      37.485  28.929  30.515  1.00  0.00     0.198 A 
ATOM     86  C   UNL A   1      37.864  29.382  28.201  1.00  0.00     0.198 A 
ATOM     87  F   UNL A   1      39.816  28.642  27.150  1.00  0.00    -0.203 F 
ATOM     88  F   UNL A   1      36.752  29.099  31.625  1.00  0.00    -0.200 F 
ATOM     89  C   UNL A   1      37.083  29.528  29.333  1.00  0.00     0.200 A 
ATOM     90  F   UNL A   1      37.509  29.994  27.061  1.00  0.00    -0.200 F 
ATOM     91  F   UNL A   1      35.973  30.278  29.294  1.00  0.00    -0.200 F 
ENDBRANCH  57  81
BRANCH  69  92
ATOM     92  C   UNL A   1      44.880  26.752  32.376  1.00  0.00     0.064 A 
ATOM     93  C   UNL A   1      44.599  25.398  32.132  1.00  0.00     0.173 A 
ATOM     94  C   UNL A   1      45.117  27.140  33.700  1.00  0.00     0.173 A 
ATOM     95  F   UNL A   1      44.437  24.940  30.884  1.00  0.00    -0.203 F 
ATOM     96  C   UNL A   1      44.527  24.483  33.183  1.00  0.00     0.198 A 
ATOM     97  C   UNL A   1      45.085  26.218  34.740  1.00  0.00     0.198 A 
ATOM     98  F   UNL A   1      45.431  28.415  33.980  1.00  0.00    -0.203 F 
ATOM     99  F   UNL A   1      44.242  23.196  32.935  1.00  0.00    -0.200 F 
ATOM    100  C   UNL A   1      44.779  24.893  34.483  1.00  0.00     0.200 A 
ATOM    101  F   UNL A   1      45.377  26.614  35.986  1.00  0.00    -0.200 F 
ATOM    102  F   UNL A   1      44.751  24.006  35.487  1.00  0.00    -0.200 F 
ENDBRANCH  69  92
ENDBRANCH  43  44
ENDBRANCH  36  38
ENDBRANCH  35  36
ENDBRANCH  34  35
ENDBRANCH  33  34
ENDBRANCH  32  33
ENDBRANCH   1  32
TORSDOF 19
ENDMDL
MODEL 3
REMARK VINA RESULT:     -12.2      5.734     10.461
REMARK SMILES NS(=O)(=O)c1ccc(-n2nc(C(F)F)cc2-c2ccc(C(=O)OCCOCCOC(=O)c3ccc(-c4c5nc(c(-c6c(F)c(F)c(F)c(F)c6F)c6ccc([nH]6)c(-c6c(F)c(F)c(F)c(F)c6F)c6nc(c(-c7c(F)c(F)c(F)c(F)c7F)c7ccc4[nH]7)C=C6)C=C5)cc3)cc2)cc1
REMARK SMILES IDX 25 1 24 2 23 3 21 4 22 5 20 6 17 7 18 8 96 9 19 10 95 11
REMARK SMILES IDX 16 12 9 13 10 14 11 15 15 16 8 17 5 18 6 19 98 20 7 21 97 22
REMARK SMILES IDX 2 23 3 24 4 25 1 26 12 29 13 30 14 31 26 32 27 33 28 34
REMARK SMILES IDX 29 35 30 36 31 37 32 38 33 39 94 40 34 41 93 42 35 43 36 44
REMARK SMILES IDX 37 45 87 46 38 47 92 48 86 49 88 50 39 51 91 52 85 53 84 54
REMARK SMILES IDX 40 56 72 57 52 58 71 59 53 60 56 61 70 62 89 63 54 64 55 65
REMARK SMILES IDX 69 67 90 68 57 69 41 70 42 71 50 72 43 73 44 74 48 75 51 76
REMARK SMILES IDX 45 77 46 78 49 79 47 80 73 81 74 82 82 83 75 84 76 85 80 86
REMARK SMILES IDX 83 87 77 88 78 89 81 90 79 91 58 92 59 93 67 94 60 95 61 96
REMARK SMILES IDX 65 97 68 98 62 99 63 100 66 101 64 102
REMARK H PARENT 1 27 1 28 88 55 56 66
REMARK Flexibility Score: inf
ROOT
ATOM      1  C   UNL A   1      33.533  34.038  27.942  1.00  0.00     0.202 C 
ENDROOT
BRANCH   1   2
ATOM      2  C   UNL A   1      32.851  32.842  27.275  1.00  0.00     0.261 C 
BRANCH   2   3
ATOM      3  O   UNL A   1      33.049  31.617  27.998  1.00  0.00    -0.460 OA
BRANCH   3   4
ATOM      4  C   UNL A   1      34.091  30.875  27.549  1.00  0.00     0.338 C 
ATOM      5  O   UNL A   1      35.268  31.194  27.541  1.00  0.00    -0.246 OA
BRANCH   4   6
ATOM      6  C   UNL A   1      33.644  29.512  27.197  1.00  0.00     0.060 A 
ATOM      7  C   UNL A   1      32.774  27.057  26.179  1.00  0.00     0.000 A 
ATOM      8  C   UNL A   1      34.053  27.534  25.865  1.00  0.00     0.011 A 
ATOM      9  C   UNL A   1      31.972  27.779  27.076  1.00  0.00     0.011 A 
ATOM     10  C   UNL A   1      34.485  28.759  26.369  1.00  0.00     0.016 A 
ATOM     11  C   UNL A   1      32.407  29.002  27.594  1.00  0.00     0.016 A 
BRANCH   7  12
ATOM     12  C   UNL A   1      32.217  25.924  25.439  1.00  0.00     0.075 A 
ATOM     13  N   UNL A   1      31.074  25.924  24.648  1.00  0.00    -0.233 N 
ATOM     14  N   UNL A   1      30.623  24.666  24.411  1.00  0.00    -0.166 NA
ATOM     15  C   UNL A   1      31.577  23.855  24.899  1.00  0.00     0.129 A 
ATOM     16  C   UNL A   1      32.571  24.595  25.573  1.00  0.00     0.060 A 
BRANCH  13  17
ATOM     17  C   UNL A   1      30.384  27.041  24.112  1.00  0.00     0.065 A 
ATOM     18  C   UNL A   1      29.064  29.194  22.945  1.00  0.00     0.082 A 
ATOM     19  C   UNL A   1      28.349  28.036  23.263  1.00  0.00     0.024 A 
ATOM     20  C   UNL A   1      30.433  29.290  23.221  1.00  0.00     0.024 A 
ATOM     21  C   UNL A   1      29.012  26.952  23.836  1.00  0.00     0.030 A 
ATOM     22  C   UNL A   1      31.088  28.222  23.839  1.00  0.00     0.030 A 
BRANCH  18  23
ATOM     23  S   UNL A   1      28.239  30.524  22.121  1.00  0.00     0.238 S 
ATOM     24  O   UNL A   1      27.241  31.081  23.012  1.00  0.00    -0.207 OA
ATOM     25  O   UNL A   1      27.934  30.128  20.772  1.00  0.00    -0.207 OA
BRANCH  23  26
ATOM     26  N   UNL A   1      29.452  31.678  22.019  1.00  0.00    -0.225 NA
ATOM     27  H   UNL A   1      29.402  32.144  21.113  1.00  0.00     0.137 HD
ATOM     28  H   UNL A   1      30.360  31.226  22.120  1.00  0.00     0.137 HD
ENDBRANCH  23  26
ENDBRANCH  18  23
ENDBRANCH  13  17
BRANCH  15  29
ATOM     29  C   UNL A   1      31.536  22.362  24.759  1.00  0.00     0.393 C 
ATOM     30  F   UNL A   1      32.772  21.796  24.770  1.00  0.00    -0.203 F 
ATOM     31  F   UNL A   1      30.833  21.790  25.776  1.00  0.00    -0.203 F 
ENDBRANCH  15  29
ENDBRANCH   7  12
ENDBRANCH   4   6
ENDBRANCH   3   4
ENDBRANCH   2   3
ENDBRANCH   1   2
BRANCH   1  32
ATOM     32  O   UNL A   1      32.759  34.879  28.795  1.00  0.00    -0.374 OA
BRANCH  32  33
ATOM     33  C   UNL A   1      33.305  36.090  29.300  1.00  0.00     0.202 C 
BRANCH  33  34
ATOM     34  C   UNL A   1      32.816  36.611  30.643  1.00  0.00     0.261 C 
BRANCH  34  35
ATOM     35  O   UNL A   1      33.676  36.258  31.715  1.00  0.00    -0.460 OA
BRANCH  35  36
ATOM     36  C   UNL A   1      33.296  35.129  32.354  1.00  0.00     0.338 C 
ATOM     37  O   UNL A   1      32.164  34.785  32.647  1.00  0.00    -0.246 OA
BRANCH  36  38
ATOM     38  C   UNL A   1      34.495  34.448  32.844  1.00  0.00     0.060 A 
ATOM     39  C   UNL A   1      35.610  35.257  33.070  1.00  0.00     0.016 A 
ATOM     40  C   UNL A   1      34.589  33.056  32.715  1.00  0.00     0.016 A 
ATOM     41  C   UNL A   1      36.854  34.691  32.925  1.00  0.00     0.010 A 
ATOM     42  C   UNL A   1      35.828  32.499  32.541  1.00  0.00     0.010 A 
ATOM     43  C   UNL A   1      36.937  33.340  32.565  1.00  0.00    -0.014 A 
BRANCH  43  44
ATOM     44  C   UNL A   1      38.249  32.756  32.405  1.00  0.00     0.031 A 
ATOM     45  C   UNL A   1      39.005  32.850  33.671  1.00  0.00     0.074 A 
ATOM     46  C   UNL A   1      38.636  32.137  31.272  1.00  0.00     0.049 A 
ATOM     47  N   UNL A   1      39.992  33.642  33.923  1.00  0.00    -0.248 NA
ATOM     48  C   UNL A   1      38.449  32.195  34.868  1.00  0.00     0.031 C 
ATOM     49  C   UNL A   1      37.813  31.816  30.101  1.00  0.00     0.029 A 
ATOM     50  N   UNL A   1      39.841  31.578  30.962  1.00  0.00    -0.354 N 
ATOM     51  C   UNL A   1      40.342  33.377  35.243  1.00  0.00     0.074 A 
ATOM     52  C   UNL A   1      39.222  32.702  35.830  1.00  0.00     0.031 C 
ATOM     53  C   UNL A   1      38.469  30.930  29.317  1.00  0.00     0.029 A 
ATOM     54  C   UNL A   1      39.805  30.731  29.853  1.00  0.00     0.049 A 
ATOM     55  H   UNL A   1      40.663  31.756  31.474  1.00  0.00     0.167 HD
ATOM     56  C   UNL A   1      41.654  33.396  35.599  1.00  0.00     0.037 A 
ATOM     57  C   UNL A   1      40.800  29.897  29.458  1.00  0.00     0.037 A 
ATOM     58  C   UNL A   1      42.421  34.096  34.597  1.00  0.00     0.049 A 
ATOM     59  C   UNL A   1      42.052  30.392  30.075  1.00  0.00     0.074 A 
ATOM     60  C   UNL A   1      42.573  35.405  34.196  1.00  0.00     0.029 A 
ATOM     61  N   UNL A   1      42.820  33.297  33.557  1.00  0.00    -0.354 N 
ATOM     62  N   UNL A   1      42.619  31.515  29.733  1.00  0.00    -0.248 NA
ATOM     63  C   UNL A   1      42.466  29.850  31.364  1.00  0.00     0.031 C 
ATOM     64  C   UNL A   1      42.913  35.355  32.811  1.00  0.00     0.029 A 
ATOM     65  C   UNL A   1      43.030  34.023  32.419  1.00  0.00     0.049 A 
ATOM     66  H   UNL A   1      42.939  32.322  33.622  1.00  0.00     0.167 HD
ATOM     67  C   UNL A   1      43.100  32.031  30.921  1.00  0.00     0.074 A 
ATOM     68  C   UNL A   1      43.129  30.904  31.847  1.00  0.00     0.031 C 
ATOM     69  C   UNL A   1      43.110  33.380  31.127  1.00  0.00     0.037 A 
BRANCH  56  70
ATOM     70  C   UNL A   1      42.311  32.346  36.483  1.00  0.00     0.064 A 
ATOM     71  C   UNL A   1      43.146  32.786  37.531  1.00  0.00     0.173 A 
ATOM     72  C   UNL A   1      42.424  30.973  36.165  1.00  0.00     0.173 A 
ATOM     73  F   UNL A   1      43.137  34.070  37.919  1.00  0.00    -0.203 F 
ATOM     74  C   UNL A   1      44.078  31.942  38.143  1.00  0.00     0.198 A 
ATOM     75  C   UNL A   1      43.323  30.124  36.808  1.00  0.00     0.198 A 
ATOM     76  F   UNL A   1      41.762  30.403  35.155  1.00  0.00    -0.203 F 
ATOM     77  F   UNL A   1      44.933  32.439  39.046  1.00  0.00    -0.200 F 
ATOM     78  C   UNL A   1      44.172  30.613  37.775  1.00  0.00     0.200 A 
ATOM     79  F   UNL A   1      43.411  28.845  36.417  1.00  0.00    -0.200 F 
ATOM     80  F   UNL A   1      45.104  29.817  38.313  1.00  0.00    -0.200 F 
ENDBRANCH  56  70
BRANCH  57  81
ATOM     81  C   UNL A   1      40.720  28.565  28.811  1.00  0.00     0.064 A 
ATOM     82  C   UNL A   1      39.974  27.515  29.375  1.00  0.00     0.173 A 
ATOM     83  C   UNL A   1      41.131  28.392  27.476  1.00  0.00     0.173 A 
ATOM     84  F   UNL A   1      39.500  27.619  30.625  1.00  0.00    -0.203 F 
ATOM     85  C   UNL A   1      39.641  26.371  28.638  1.00  0.00     0.198 A 
ATOM     86  C   UNL A   1      40.799  27.252  26.743  1.00  0.00     0.198 A 
ATOM     87  F   UNL A   1      41.777  29.373  26.830  1.00  0.00    -0.203 F 
ATOM     88  F   UNL A   1      38.877  25.417  29.190  1.00  0.00    -0.200 F 
ATOM     89  C   UNL A   1      40.044  26.247  27.319  1.00  0.00     0.200 A 
ATOM     90  F   UNL A   1      41.156  27.164  25.454  1.00  0.00    -0.200 F 
ATOM     91  F   UNL A   1      39.669  25.184  26.592  1.00  0.00    -0.200 F 
ENDBRANCH  57  81
BRANCH  69  92
ATOM     92  C   UNL A   1      43.066  34.260  29.916  1.00  0.00     0.064 A 
ATOM     93  C   UNL A   1      44.182  34.615  29.141  1.00  0.00     0.173 A 
ATOM     94  C   UNL A   1      41.805  34.677  29.472  1.00  0.00     0.173 A 
ATOM     95  F   UNL A   1      45.410  34.187  29.461  1.00  0.00    -0.203 F 
ATOM     96  C   UNL A   1      44.035  35.385  27.987  1.00  0.00     0.198 A 
ATOM     97  C   UNL A   1      41.658  35.409  28.300  1.00  0.00     0.198 A 
ATOM     98  F   UNL A   1      40.704  34.328  30.156  1.00  0.00    -0.203 F 
ATOM     99  F   UNL A   1      45.112  35.729  27.266  1.00  0.00    -0.200 F 
ATOM    100  C   UNL A   1      42.773  35.773  27.564  1.00  0.00     0.200 A 
ATOM    101  F   UNL A   1      40.432  35.739  27.874  1.00  0.00    -0.200 F 
ATOM    102  F   UNL A   1      42.627  36.478  26.433  1.00  0.00    -0.200 F 
ENDBRANCH  69  92
ENDBRANCH  43  44
ENDBRANCH  36  38
ENDBRANCH  35  36
ENDBRANCH  34  35
ENDBRANCH  33  34
ENDBRANCH  32  33
ENDBRANCH   1  32
TORSDOF 19
ENDMDL
