MODEL 1
REMARK VINA RESULT:     -10.8      0.000      0.000
REMARK SMILES CN(c1ccc(C(=O)OCCOCCOC(=O)c2ccc(-c3c4nc(c(-c5c(F)c(F)c(F)c(F)c5F)c5ccc([nH]5)c(-c5c(F)c(F)c(F)c(F)c5F)c5nc(c(-c6c(F)c(F)c(F)c(F)c6F)c6ccc3[nH]6)C=C5)C=C4)cc2)cc1[N+](=O)[O-])C1CC1
REMARK SMILES IDX 12 1 11 2 10 3 9 4 7 5 8 6 6 7 3 8 4 9 82 10 5 11 81 12 2 13
REMARK SMILES IDX 1 14 86 15 87 16 88 17 83 18 84 19 85 20 13 21 14 22 15 23
REMARK SMILES IDX 16 24 17 25 18 26 19 27 80 28 20 29 79 30 21 31 22 32 23 33
REMARK SMILES IDX 73 34 24 35 78 36 72 37 74 38 25 39 77 40 71 41 70 42 26 44
REMARK SMILES IDX 58 45 38 46 57 47 39 48 42 49 56 50 75 51 40 52 41 53 55 55
REMARK SMILES IDX 76 56 43 57 27 58 28 59 36 60 29 61 30 62 34 63 37 64 31 65
REMARK SMILES IDX 32 66 35 67 33 68 59 69 60 70 68 71 61 72 62 73 66 74 69 75
REMARK SMILES IDX 63 76 64 77 67 78 65 79 44 80 45 81 53 82 46 83 47 84 51 85
REMARK SMILES IDX 54 86 48 87 49 88 52 89 50 90
REMARK H PARENT 74 43 42 54
REMARK Flexibility Score: inf
ROOT
ATOM      1  O   UNL A   1      35.338  19.494  24.917  1.00  0.00    -0.374 OA
ENDROOT
BRANCH   1   2
ATOM      2  C   UNL A   1      34.000  19.882  24.609  1.00  0.00     0.202 C 
BRANCH   2   3
ATOM      3  C   UNL A   1      33.040  19.973  25.798  1.00  0.00     0.261 C 
BRANCH   3   4
ATOM      4  O   UNL A   1      32.580  21.321  25.996  1.00  0.00    -0.460 OA
BRANCH   4   5
ATOM      5  C   UNL A   1      33.379  22.084  26.778  1.00  0.00     0.338 C 
ATOM      6  O   UNL A   1      34.119  21.692  27.668  1.00  0.00    -0.246 OA
BRANCH   5   7
ATOM      7  C   UNL A   1      33.357  23.498  26.332  1.00  0.00     0.067 A 
ATOM      8  C   UNL A   1      33.511  26.211  25.473  1.00  0.00     0.116 A 
ATOM      9  C   UNL A   1      34.607  25.342  25.366  1.00  0.00     0.034 A 
ATOM     10  C   UNL A   1      32.326  25.661  26.012  1.00  0.00     0.293 A 
ATOM     11  C   UNL A   1      34.535  24.009  25.779  1.00  0.00     0.018 A 
ATOM     12  C   UNL A   1      32.237  24.320  26.441  1.00  0.00     0.103 A 
BRANCH   8  13
ATOM     13  N   UNL A   1      33.678  27.559  25.123  1.00  0.00    -0.366 N 
ATOM     14  C   UNL A   1      34.019  28.489  26.200  1.00  0.00     0.144 C 
BRANCH  13  15
ATOM     15  C   UNL A   1      33.771  28.079  23.745  1.00  0.00     0.082 C 
ATOM     16  C   UNL A   1      33.220  27.455  22.493  1.00  0.00     0.027 C 
ATOM     17  C   UNL A   1      32.558  28.667  23.073  1.00  0.00     0.027 C 
ENDBRANCH  13  15
ENDBRANCH   8  13
BRANCH  10  18
ATOM     18  N   UNL A   1      31.121  26.472  26.159  1.00  0.00     0.065 N 
ATOM     19  O   UNL A   1      30.402  26.584  25.155  1.00  0.00    -0.258 OA
ATOM     20  O   UNL A   1      30.911  27.025  27.245  1.00  0.00    -0.258 OA
ENDBRANCH  10  18
ENDBRANCH   5   7
ENDBRANCH   4   5
ENDBRANCH   3   4
ENDBRANCH   2   3
ENDBRANCH   1   2
BRANCH   1  21
ATOM     21  C   UNL A   1      36.313  20.534  25.005  1.00  0.00     0.202 C 
BRANCH  21  22
ATOM     22  C   UNL A   1      37.779  20.086  25.014  1.00  0.00     0.261 C 
BRANCH  22  23
ATOM     23  O   UNL A   1      38.674  21.194  25.233  1.00  0.00    -0.460 OA
BRANCH  23  24
ATOM     24  C   UNL A   1      39.605  20.992  26.196  1.00  0.00     0.338 C 
ATOM     25  O   UNL A   1      40.155  19.941  26.488  1.00  0.00    -0.246 OA
BRANCH  24  26
ATOM     26  C   UNL A   1      40.032  22.285  26.763  1.00  0.00     0.060 A 
ATOM     27  C   UNL A   1      39.407  23.439  26.275  1.00  0.00     0.016 A 
ATOM     28  C   UNL A   1      41.063  22.381  27.701  1.00  0.00     0.016 A 
ATOM     29  C   UNL A   1      39.842  24.696  26.687  1.00  0.00     0.010 A 
ATOM     30  C   UNL A   1      41.503  23.646  28.109  1.00  0.00     0.010 A 
ATOM     31  C   UNL A   1      40.916  24.810  27.580  1.00  0.00    -0.014 A 
BRANCH  31  32
ATOM     32  C   UNL A   1      41.487  26.151  27.858  1.00  0.00     0.031 A 
ATOM     33  C   UNL A   1      42.875  26.475  27.377  1.00  0.00     0.074 A 
ATOM     34  C   UNL A   1      40.758  27.085  28.491  1.00  0.00     0.049 A 
ATOM     35  N   UNL A   1      43.554  27.589  27.491  1.00  0.00    -0.248 NA
ATOM     36  C   UNL A   1      43.594  25.402  26.673  1.00  0.00     0.031 C 
ATOM     37  C   UNL A   1      39.393  26.899  28.983  1.00  0.00     0.029 A 
ATOM     38  N   UNL A   1      41.064  28.379  28.829  1.00  0.00    -0.354 N 
ATOM     39  C   UNL A   1      44.775  27.352  26.874  1.00  0.00     0.074 A 
ATOM     40  C   UNL A   1      44.758  25.979  26.416  1.00  0.00     0.031 C 
ATOM     41  C   UNL A   1      38.981  28.038  29.564  1.00  0.00     0.029 A 
ATOM     42  C   UNL A   1      40.059  29.024  29.506  1.00  0.00     0.049 A 
ATOM     43  H   UNL A   1      41.923  28.806  28.606  1.00  0.00     0.167 HD
ATOM     44  C   UNL A   1      45.811  28.206  26.694  1.00  0.00     0.037 A 
ATOM     45  C   UNL A   1      40.021  30.263  30.031  1.00  0.00     0.037 A 
ATOM     46  C   UNL A   1      45.828  29.573  27.149  1.00  0.00     0.049 A 
ATOM     47  C   UNL A   1      41.210  31.175  29.866  1.00  0.00     0.074 A 
ATOM     48  C   UNL A   1      46.821  30.523  26.989  1.00  0.00     0.029 A 
ATOM     49  N   UNL A   1      44.805  30.179  27.862  1.00  0.00    -0.354 N 
ATOM     50  N   UNL A   1      42.343  30.954  29.245  1.00  0.00    -0.248 NA
ATOM     51  C   UNL A   1      41.108  32.510  30.472  1.00  0.00     0.031 C 
ATOM     52  C   UNL A   1      46.421  31.690  27.648  1.00  0.00     0.029 A 
ATOM     53  C   UNL A   1      45.155  31.484  28.174  1.00  0.00     0.049 A 
ATOM     54  H   UNL A   1      43.956  29.747  28.109  1.00  0.00     0.167 HD
ATOM     55  C   UNL A   1      43.078  32.127  29.365  1.00  0.00     0.074 A 
ATOM     56  C   UNL A   1      42.254  33.063  30.100  1.00  0.00     0.031 C 
ATOM     57  C   UNL A   1      44.325  32.404  28.909  1.00  0.00     0.037 A 
BRANCH  44  58
ATOM     58  C   UNL A   1      47.028  27.682  25.989  1.00  0.00     0.064 A 
ATOM     59  C   UNL A   1      47.147  27.730  24.592  1.00  0.00     0.173 A 
ATOM     60  C   UNL A   1      48.106  27.165  26.723  1.00  0.00     0.173 A 
ATOM     61  F   UNL A   1      46.140  28.203  23.844  1.00  0.00    -0.203 F 
ATOM     62  C   UNL A   1      48.294  27.261  23.955  1.00  0.00     0.198 A 
ATOM     63  C   UNL A   1      49.261  26.722  26.085  1.00  0.00     0.198 A 
ATOM     64  F   UNL A   1      48.044  27.100  28.061  1.00  0.00    -0.203 F 
ATOM     65  F   UNL A   1      48.370  27.281  22.617  1.00  0.00    -0.200 F 
ATOM     66  C   UNL A   1      49.353  26.766  24.701  1.00  0.00     0.200 A 
ATOM     67  F   UNL A   1      50.288  26.254  26.808  1.00  0.00    -0.200 F 
ATOM     68  F   UNL A   1      50.459  26.323  24.088  1.00  0.00    -0.200 F 
ENDBRANCH  44  58
BRANCH  45  69
ATOM     69  C   UNL A   1      38.815  30.720  30.772  1.00  0.00     0.064 A 
ATOM     70  C   UNL A   1      37.776  31.396  30.117  1.00  0.00     0.173 A 
ATOM     71  C   UNL A   1      38.691  30.510  32.152  1.00  0.00     0.173 A 
ATOM     72  F   UNL A   1      37.861  31.645  28.802  1.00  0.00    -0.203 F 
ATOM     73  C   UNL A   1      36.668  31.863  30.821  1.00  0.00     0.198 A 
ATOM     74  C   UNL A   1      37.569  30.952  32.849  1.00  0.00     0.198 A 
ATOM     75  F   UNL A   1      39.659  29.870  32.824  1.00  0.00    -0.203 F 
ATOM     76  F   UNL A   1      35.711  32.551  30.181  1.00  0.00    -0.200 F 
ATOM     77  C   UNL A   1      36.562  31.635  32.185  1.00  0.00     0.200 A 
ATOM     78  F   UNL A   1      37.466  30.720  34.165  1.00  0.00    -0.200 F 
ATOM     79  F   UNL A   1      35.496  32.085  32.861  1.00  0.00    -0.200 F 
ENDBRANCH  45  69
BRANCH  57  80
ATOM     80  C   UNL A   1      44.862  33.781  29.173  1.00  0.00     0.064 A 
ATOM     81  C   UNL A   1      44.602  34.853  28.306  1.00  0.00     0.173 A 
ATOM     82  C   UNL A   1      45.632  34.038  30.319  1.00  0.00     0.173 A 
ATOM     83  F   UNL A   1      43.885  34.656  27.189  1.00  0.00    -0.203 F 
ATOM     84  C   UNL A   1      45.118  36.121  28.558  1.00  0.00     0.198 A 
ATOM     85  C   UNL A   1      46.120  35.315  30.585  1.00  0.00     0.198 A 
ATOM     86  F   UNL A   1      45.904  33.051  31.186  1.00  0.00    -0.203 F 
ATOM     87  F   UNL A   1      44.903  37.115  27.686  1.00  0.00    -0.200 F 
ATOM     88  C   UNL A   1      45.871  36.352  29.700  1.00  0.00     0.200 A 
ATOM     89  F   UNL A   1      46.836  35.539  31.695  1.00  0.00    -0.200 F 
ATOM     90  F   UNL A   1      46.367  37.574  29.940  1.00  0.00    -0.200 F 
ENDBRANCH  57  80
ENDBRANCH  31  32
ENDBRANCH  24  26
ENDBRANCH  23  24
ENDBRANCH  22  23
ENDBRANCH  21  22
ENDBRANCH   1  21
TORSDOF 17
ENDMDL
MODEL 2
REMARK VINA RESULT:     -10.7      4.329     10.099
REMARK SMILES CN(c1ccc(C(=O)OCCOCCOC(=O)c2ccc(-c3c4nc(c(-c5c(F)c(F)c(F)c(F)c5F)c5ccc([nH]5)c(-c5c(F)c(F)c(F)c(F)c5F)c5nc(c(-c6c(F)c(F)c(F)c(F)c6F)c6ccc3[nH]6)C=C5)C=C4)cc2)cc1[N+](=O)[O-])C1CC1
REMARK SMILES IDX 12 1 11 2 10 3 9 4 7 5 8 6 6 7 3 8 4 9 82 10 5 11 81 12 2 13
REMARK SMILES IDX 1 14 86 15 87 16 88 17 83 18 84 19 85 20 13 21 14 22 15 23
REMARK SMILES IDX 16 24 17 25 18 26 19 27 80 28 20 29 79 30 21 31 22 32 23 33
REMARK SMILES IDX 73 34 24 35 78 36 72 37 74 38 25 39 77 40 71 41 70 42 26 44
REMARK SMILES IDX 58 45 38 46 57 47 39 48 42 49 56 50 75 51 40 52 41 53 55 55
REMARK SMILES IDX 76 56 43 57 27 58 28 59 36 60 29 61 30 62 34 63 37 64 31 65
REMARK SMILES IDX 32 66 35 67 33 68 59 69 60 70 68 71 61 72 62 73 66 74 69 75
REMARK SMILES IDX 63 76 64 77 67 78 65 79 44 80 45 81 53 82 46 83 47 84 51 85
REMARK SMILES IDX 54 86 48 87 49 88 52 89 50 90
REMARK H PARENT 74 43 42 54
REMARK Flexibility Score: inf
ROOT
ATOM      1  O   UNL A   1      30.880  30.671  25.365  1.00  0.00    -0.374 OA
ENDROOT
BRANCH   1   2
ATOM      2  C   UNL A   1      31.445  29.591  24.622  1.00  0.00     0.202 C 
BRANCH   2   3
ATOM      3  C   UNL A   1      32.973  29.504  24.626  1.00  0.00     0.261 C 
BRANCH   3   4
ATOM      4  O   UNL A   1      33.419  28.142  24.502  1.00  0.00    -0.460 OA
BRANCH   4   5
ATOM      5  C   UNL A   1      33.765  27.550  25.669  1.00  0.00     0.338 C 
ATOM      6  O   UNL A   1      34.071  28.112  26.710  1.00  0.00    -0.246 OA
BRANCH   5   7
ATOM      7  C   UNL A   1      33.602  26.079  25.582  1.00  0.00     0.067 A 
ATOM      8  C   UNL A   1      33.349  23.263  25.227  1.00  0.00     0.116 A 
ATOM      9  C   UNL A   1      34.092  24.052  24.338  1.00  0.00     0.034 A 
ATOM     10  C   UNL A   1      32.749  23.938  26.315  1.00  0.00     0.293 A 
ATOM     11  C   UNL A   1      34.226  25.432  24.511  1.00  0.00     0.018 A 
ATOM     12  C   UNL A   1      32.867  25.332  26.501  1.00  0.00     0.103 A 
BRANCH   8  13
ATOM     13  N   UNL A   1      33.181  21.898  24.946  1.00  0.00    -0.366 N 
ATOM     14  C   UNL A   1      32.264  21.550  23.860  1.00  0.00     0.144 C 
BRANCH  13  15
ATOM     15  C   UNL A   1      34.015  20.806  25.484  1.00  0.00     0.082 C 
ATOM     16  C   UNL A   1      34.495  19.580  24.758  1.00  0.00     0.027 C 
ATOM     17  C   UNL A   1      35.459  20.682  25.074  1.00  0.00     0.027 C 
ENDBRANCH  13  15
ENDBRANCH   8  13
BRANCH  10  18
ATOM     18  N   UNL A   1      31.962  23.213  27.307  1.00  0.00     0.065 N 
ATOM     19  O   UNL A   1      30.733  23.369  27.262  1.00  0.00    -0.258 OA
ATOM     20  O   UNL A   1      32.559  22.528  28.147  1.00  0.00    -0.258 OA
ENDBRANCH  10  18
ENDBRANCH   5   7
ENDBRANCH   4   5
ENDBRANCH   3   4
ENDBRANCH   2   3
ENDBRANCH   1   2
BRANCH   1  21
ATOM     21  C   UNL A   1      31.546  31.049  26.571  1.00  0.00     0.202 C 
BRANCH  21  22
ATOM     22  C   UNL A   1      31.615  32.553  26.861  1.00  0.00     0.261 C 
BRANCH  22  23
ATOM     23  O   UNL A   1      32.964  33.052  26.778  1.00  0.00    -0.460 OA
BRANCH  23  24
ATOM     24  C   UNL A   1      33.434  33.616  27.915  1.00  0.00     0.338 C 
ATOM     25  O   UNL A   1      32.872  34.438  28.624  1.00  0.00    -0.246 OA
BRANCH  24  26
ATOM     26  C   UNL A   1      34.691  32.961  28.322  1.00  0.00     0.060 A 
ATOM     27  C   UNL A   1      34.617  31.623  28.727  1.00  0.00     0.016 A 
ATOM     28  C   UNL A   1      35.906  33.649  28.371  1.00  0.00     0.016 A 
ATOM     29  C   UNL A   1      35.746  30.980  29.228  1.00  0.00     0.010 A 
ATOM     30  C   UNL A   1      37.039  33.004  28.881  1.00  0.00     0.010 A 
ATOM     31  C   UNL A   1      36.957  31.677  29.342  1.00  0.00    -0.014 A 
BRANCH  31  32
ATOM     32  C   UNL A   1      38.095  31.040  30.051  1.00  0.00     0.031 A 
ATOM     33  C   UNL A   1      38.364  31.402  31.485  1.00  0.00     0.074 A 
ATOM     34  C   UNL A   1      38.849  30.114  29.436  1.00  0.00     0.049 A 
ATOM     35  N   UNL A   1      39.287  30.949  32.297  1.00  0.00    -0.248 NA
ATOM     36  C   UNL A   1      37.475  32.407  32.087  1.00  0.00     0.031 C 
ATOM     37  C   UNL A   1      38.671  29.661  28.057  1.00  0.00     0.029 A 
ATOM     38  N   UNL A   1      39.919  29.386  29.894  1.00  0.00    -0.354 N 
ATOM     39  C   UNL A   1      39.089  31.610  33.501  1.00  0.00     0.074 A 
ATOM     40  C   UNL A   1      37.981  32.520  33.307  1.00  0.00     0.031 C 
ATOM     41  C   UNL A   1      39.604  28.734  27.779  1.00  0.00     0.029 A 
ATOM     42  C   UNL A   1      40.457  28.547  28.951  1.00  0.00     0.049 A 
ATOM     43  H   UNL A   1      40.267  29.459  30.812  1.00  0.00     0.167 HD
ATOM     44  C   UNL A   1      39.763  31.463  34.667  1.00  0.00     0.037 A 
ATOM     45  C   UNL A   1      41.526  27.730  29.023  1.00  0.00     0.037 A 
ATOM     46  C   UNL A   1      40.865  30.556  34.862  1.00  0.00     0.049 A 
ATOM     47  C   UNL A   1      42.293  27.627  30.316  1.00  0.00     0.074 A 
ATOM     48  C   UNL A   1      41.592  30.317  36.014  1.00  0.00     0.029 A 
ATOM     49  N   UNL A   1      41.404  29.748  33.873  1.00  0.00    -0.354 N 
ATOM     50  N   UNL A   1      42.072  28.226  31.461  1.00  0.00    -0.248 NA
ATOM     51  C   UNL A   1      43.456  26.727  30.325  1.00  0.00     0.031 C 
ATOM     52  C   UNL A   1      42.604  29.399  35.711  1.00  0.00     0.029 A 
ATOM     53  C   UNL A   1      42.475  29.028  34.383  1.00  0.00     0.049 A 
ATOM     54  H   UNL A   1      41.076  29.692  32.947  1.00  0.00     0.167 HD
ATOM     55  C   UNL A   1      43.050  27.760  32.331  1.00  0.00     0.074 A 
ATOM     56  C   UNL A   1      43.853  26.812  31.588  1.00  0.00     0.031 C 
ATOM     57  C   UNL A   1      43.266  28.089  33.629  1.00  0.00     0.037 A 
BRANCH  44  58
ATOM     58  C   UNL A   1      39.339  32.317  35.826  1.00  0.00     0.064 A 
ATOM     59  C   UNL A   1      38.401  31.868  36.767  1.00  0.00     0.173 A 
ATOM     60  C   UNL A   1      39.912  33.583  36.022  1.00  0.00     0.173 A 
ATOM     61  F   UNL A   1      37.814  30.672  36.619  1.00  0.00    -0.203 F 
ATOM     62  C   UNL A   1      38.036  32.665  37.851  1.00  0.00     0.198 A 
ATOM     63  C   UNL A   1      39.565  34.365  37.121  1.00  0.00     0.198 A 
ATOM     64  F   UNL A   1      40.817  34.057  35.153  1.00  0.00    -0.203 F 
ATOM     65  F   UNL A   1      37.108  32.232  38.715  1.00  0.00    -0.200 F 
ATOM     66  C   UNL A   1      38.624  33.908  38.031  1.00  0.00     0.200 A 
ATOM     67  F   UNL A   1      40.143  35.561  37.300  1.00  0.00    -0.200 F 
ATOM     68  F   UNL A   1      38.279  34.669  39.079  1.00  0.00    -0.200 F 
ENDBRANCH  44  58
BRANCH  45  69
ATOM     69  C   UNL A   1      41.944  26.945  27.832  1.00  0.00     0.064 A 
ATOM     70  C   UNL A   1      42.820  27.484  26.880  1.00  0.00     0.173 A 
ATOM     71  C   UNL A   1      41.454  25.650  27.611  1.00  0.00     0.173 A 
ATOM     72  F   UNL A   1      43.293  28.730  27.033  1.00  0.00    -0.203 F 
ATOM     73  C   UNL A   1      43.174  26.764  25.741  1.00  0.00     0.198 A 
ATOM     74  C   UNL A   1      41.833  24.920  26.486  1.00  0.00     0.198 A 
ATOM     75  F   UNL A   1      40.612  25.091  28.491  1.00  0.00    -0.203 F 
ATOM     76  F   UNL A   1      43.974  27.321  24.820  1.00  0.00    -0.200 F 
ATOM     77  C   UNL A   1      42.685  25.480  25.548  1.00  0.00     0.200 A 
ATOM     78  F   UNL A   1      41.367  23.676  26.310  1.00  0.00    -0.200 F 
ATOM     79  F   UNL A   1      43.027  24.789  24.452  1.00  0.00    -0.200 F 
ENDBRANCH  45  69
BRANCH  57  80
ATOM     80  C   UNL A   1      44.402  27.401  34.332  1.00  0.00     0.064 A 
ATOM     81  C   UNL A   1      45.686  27.962  34.380  1.00  0.00     0.173 A 
ATOM     82  C   UNL A   1      44.197  26.173  34.981  1.00  0.00     0.173 A 
ATOM     83  F   UNL A   1      45.937  29.127  33.762  1.00  0.00    -0.203 F 
ATOM     84  C   UNL A   1      46.732  27.305  35.024  1.00  0.00     0.198 A 
ATOM     85  C   UNL A   1      45.238  25.534  35.652  1.00  0.00     0.198 A 
ATOM     86  F   UNL A   1      42.986  25.596  34.973  1.00  0.00    -0.203 F 
ATOM     87  F   UNL A   1      47.963  27.834  35.009  1.00  0.00    -0.200 F 
ATOM     88  C   UNL A   1      46.505  26.096  35.664  1.00  0.00     0.200 A 
ATOM     89  F   UNL A   1      45.013  24.373  36.280  1.00  0.00    -0.200 F 
ATOM     90  F   UNL A   1      47.513  25.466  36.283  1.00  0.00    -0.200 F 
ENDBRANCH  57  80
ENDBRANCH  31  32
ENDBRANCH  24  26
ENDBRANCH  23  24
ENDBRANCH  22  23
ENDBRANCH  21  22
ENDBRANCH   1  21
TORSDOF 17
ENDMDL
MODEL 3
REMARK VINA RESULT:     -10.7      1.213      7.626
REMARK SMILES CN(c1ccc(C(=O)OCCOCCOC(=O)c2ccc(-c3c4nc(c(-c5c(F)c(F)c(F)c(F)c5F)c5ccc([nH]5)c(-c5c(F)c(F)c(F)c(F)c5F)c5nc(c(-c6c(F)c(F)c(F)c(F)c6F)c6ccc3[nH]6)C=C5)C=C4)cc2)cc1[N+](=O)[O-])C1CC1
REMARK SMILES IDX 12 1 11 2 10 3 9 4 7 5 8 6 6 7 3 8 4 9 82 10 5 11 81 12 2 13
REMARK SMILES IDX 1 14 86 15 87 16 88 17 83 18 84 19 85 20 13 21 14 22 15 23
REMARK SMILES IDX 16 24 17 25 18 26 19 27 80 28 20 29 79 30 21 31 22 32 23 33
REMARK SMILES IDX 73 34 24 35 78 36 72 37 74 38 25 39 77 40 71 41 70 42 26 44
REMARK SMILES IDX 58 45 38 46 57 47 39 48 42 49 56 50 75 51 40 52 41 53 55 55
REMARK SMILES IDX 76 56 43 57 27 58 28 59 36 60 29 61 30 62 34 63 37 64 31 65
REMARK SMILES IDX 32 66 35 67 33 68 59 69 60 70 68 71 61 72 62 73 66 74 69 75
REMARK SMILES IDX 63 76 64 77 67 78 65 79 44 80 45 81 53 82 46 83 47 84 51 85
REMARK SMILES IDX 54 86 48 87 49 88 52 89 50 90
REMARK H PARENT 74 43 42 54
REMARK Flexibility Score: inf
ROOT
ATOM      1  O   UNL A   1      34.950  21.092  25.805  1.00  0.00    -0.374 OA
ENDROOT
BRANCH   1   2
ATOM      2  C   UNL A   1      33.590  21.301  25.426  1.00  0.00     0.202 C 
BRANCH   2   3
ATOM      3  C   UNL A   1      33.325  21.412  23.923  1.00  0.00     0.261 C 
BRANCH   3   4
ATOM      4  O   UNL A   1      33.045  22.770  23.540  1.00  0.00    -0.460 OA
BRANCH   4   5
ATOM      5  C   UNL A   1      34.139  23.550  23.377  1.00  0.00     0.338 C 
ATOM      6  O   UNL A   1      35.134  23.284  22.719  1.00  0.00    -0.246 OA
BRANCH   5   7
ATOM      7  C   UNL A   1      33.938  24.878  24.007  1.00  0.00     0.067 A 
ATOM      8  C   UNL A   1      33.531  27.336  25.390  1.00  0.00     0.116 A 
ATOM      9  C   UNL A   1      33.869  26.157  26.070  1.00  0.00     0.034 A 
ATOM     10  C   UNL A   1      33.422  27.240  23.983  1.00  0.00     0.293 A 
ATOM     11  C   UNL A   1      34.076  24.950  25.396  1.00  0.00     0.018 A 
ATOM     12  C   UNL A   1      33.621  26.029  23.287  1.00  0.00     0.103 A 
BRANCH   8  13
ATOM     13  N   UNL A   1      33.249  28.492  26.134  1.00  0.00    -0.366 N 
ATOM     14  C   UNL A   1      31.994  28.509  26.887  1.00  0.00     0.144 C 
BRANCH  13  15
ATOM     15  C   UNL A   1      34.203  29.583  26.411  1.00  0.00     0.082 C 
ATOM     16  C   UNL A   1      34.177  30.550  27.562  1.00  0.00     0.027 C 
ATOM     17  C   UNL A   1      35.198  29.454  27.534  1.00  0.00     0.027 C 
ENDBRANCH  13  15
ENDBRANCH   8  13
BRANCH  10  18
ATOM     18  N   UNL A   1      33.086  28.407  23.175  1.00  0.00     0.065 N 
ATOM     19  O   UNL A   1      31.880  28.621  22.983  1.00  0.00    -0.258 OA
ATOM     20  O   UNL A   1      34.009  29.082  22.701  1.00  0.00    -0.258 OA
ENDBRANCH  10  18
ENDBRANCH   5   7
ENDBRANCH   4   5
ENDBRANCH   3   4
ENDBRANCH   2   3
ENDBRANCH   1   2
BRANCH   1  21
ATOM     21  C   UNL A   1      35.724  20.211  24.989  1.00  0.00     0.202 C 
BRANCH  21  22
ATOM     22  C   UNL A   1      37.163  20.651  24.697  1.00  0.00     0.261 C 
BRANCH  22  23
ATOM     23  O   UNL A   1      37.651  21.574  25.690  1.00  0.00    -0.460 OA
BRANCH  23  24
ATOM     24  C   UNL A   1      38.926  21.356  26.093  1.00  0.00     0.338 C 
ATOM     25  O   UNL A   1      39.598  20.351  25.917  1.00  0.00    -0.246 OA
BRANCH  24  26
ATOM     26  C   UNL A   1      39.502  22.599  26.639  1.00  0.00     0.060 A 
ATOM     27  C   UNL A   1      39.020  23.810  26.127  1.00  0.00     0.016 A 
ATOM     28  C   UNL A   1      40.533  22.589  27.582  1.00  0.00     0.016 A 
ATOM     29  C   UNL A   1      39.599  25.014  26.519  1.00  0.00     0.010 A 
ATOM     30  C   UNL A   1      41.119  23.800  27.969  1.00  0.00     0.010 A 
ATOM     31  C   UNL A   1      40.676  25.015  27.416  1.00  0.00    -0.014 A 
BRANCH  31  32
ATOM     32  C   UNL A   1      41.402  26.284  27.674  1.00  0.00     0.031 A 
ATOM     33  C   UNL A   1      40.710  27.389  28.423  1.00  0.00     0.074 A 
ATOM     34  C   UNL A   1      42.681  26.429  27.288  1.00  0.00     0.049 A 
ATOM     35  N   UNL A   1      41.165  28.566  28.776  1.00  0.00    -0.248 NA
ATOM     36  C   UNL A   1      39.319  27.137  28.828  1.00  0.00     0.031 C 
ATOM     37  C   UNL A   1      43.467  25.421  26.579  1.00  0.00     0.029 A 
ATOM     38  N   UNL A   1      43.544  27.485  27.439  1.00  0.00    -0.354 N 
ATOM     39  C   UNL A   1      40.121  29.190  29.444  1.00  0.00     0.074 A 
ATOM     40  C   UNL A   1      38.997  28.278  29.420  1.00  0.00     0.031 C 
ATOM     41  C   UNL A   1      44.698  25.909  26.352  1.00  0.00     0.029 A 
ATOM     42  C   UNL A   1      44.778  27.271  26.878  1.00  0.00     0.049 A 
ATOM     43  H   UNL A   1      43.302  28.317  27.906  1.00  0.00     0.167 HD
ATOM     44  C   UNL A   1      40.105  30.409  30.035  1.00  0.00     0.037 A 
ATOM     45  C   UNL A   1      45.846  28.087  26.788  1.00  0.00     0.037 A 
ATOM     46  C   UNL A   1      41.223  31.316  30.061  1.00  0.00     0.049 A 
ATOM     47  C   UNL A   1      45.782  29.460  27.406  1.00  0.00     0.074 A 
ATOM     48  C   UNL A   1      41.312  32.561  30.660  1.00  0.00     0.029 A 
ATOM     49  N   UNL A   1      42.446  31.078  29.452  1.00  0.00    -0.354 N 
ATOM     50  N   UNL A   1      44.805  30.025  28.071  1.00  0.00    -0.248 NA
ATOM     51  C   UNL A   1      46.977  30.305  27.263  1.00  0.00     0.031 C 
ATOM     52  C   UNL A   1      42.570  33.098  30.371  1.00  0.00     0.029 A 
ATOM     53  C   UNL A   1      43.286  32.166  29.636  1.00  0.00     0.049 A 
ATOM     54  H   UNL A   1      42.682  30.258  28.961  1.00  0.00     0.167 HD
ATOM     55  C   UNL A   1      45.272  31.278  28.446  1.00  0.00     0.074 A 
ATOM     56  C   UNL A   1      46.628  31.383  27.952  1.00  0.00     0.031 C 
ATOM     57  C   UNL A   1      44.634  32.257  29.136  1.00  0.00     0.037 A 
BRANCH  44  58
ATOM     58  C   UNL A   1      38.827  30.845  30.692  1.00  0.00     0.064 A 
ATOM     59  C   UNL A   1      38.631  30.722  32.075  1.00  0.00     0.173 A 
ATOM     60  C   UNL A   1      37.805  31.434  29.932  1.00  0.00     0.173 A 
ATOM     61  F   UNL A   1      39.572  30.154  32.843  1.00  0.00    -0.203 F 
ATOM     62  C   UNL A   1      37.447  31.153  32.671  1.00  0.00     0.198 A 
ATOM     63  C   UNL A   1      36.635  31.889  30.536  1.00  0.00     0.198 A 
ATOM     64  F   UNL A   1      37.945  31.579  28.606  1.00  0.00    -0.203 F 
ATOM     65  F   UNL A   1      37.265  30.989  33.989  1.00  0.00    -0.200 F 
ATOM     66  C   UNL A   1      36.456  31.744  31.903  1.00  0.00     0.200 A 
ATOM     67  F   UNL A   1      35.682  32.470  29.794  1.00  0.00    -0.200 F 
ATOM     68  F   UNL A   1      35.322  32.167  32.479  1.00  0.00    -0.200 F 
ENDBRANCH  44  58
BRANCH  45  69
ATOM     69  C   UNL A   1      47.071  27.633  26.079  1.00  0.00     0.064 A 
ATOM     70  C   UNL A   1      48.177  27.140  26.786  1.00  0.00     0.173 A 
ATOM     71  C   UNL A   1      47.167  27.706  24.682  1.00  0.00     0.173 A 
ATOM     72  F   UNL A   1      48.143  27.077  28.125  1.00  0.00    -0.203 F 
ATOM     73  C   UNL A   1      49.341  26.758  26.122  1.00  0.00     0.198 A 
ATOM     74  C   UNL A   1      48.322  27.296  24.018  1.00  0.00     0.198 A 
ATOM     75  F   UNL A   1      46.137  28.172  23.961  1.00  0.00    -0.203 F 
ATOM     76  F   UNL A   1      50.403  26.338  26.825  1.00  0.00    -0.200 F 
ATOM     77  C   UNL A   1      49.410  26.830  24.739  1.00  0.00     0.200 A 
ATOM     78  F   UNL A   1      48.379  27.357  22.681  1.00  0.00    -0.200 F 
ATOM     79  F   UNL A   1      50.530  26.462  24.102  1.00  0.00    -0.200 F 
ENDBRANCH  45  69
BRANCH  57  80
ATOM     80  C   UNL A   1      45.406  33.515  29.415  1.00  0.00     0.064 A 
ATOM     81  C   UNL A   1      45.364  34.613  28.543  1.00  0.00     0.173 A 
ATOM     82  C   UNL A   1      46.182  33.630  30.578  1.00  0.00     0.173 A 
ATOM     83  F   UNL A   1      44.649  34.547  27.409  1.00  0.00    -0.203 F 
ATOM     84  C   UNL A   1      46.096  35.767  28.809  1.00  0.00     0.198 A 
ATOM     85  C   UNL A   1      46.888  34.798  30.858  1.00  0.00     0.198 A 
ATOM     86  F   UNL A   1      46.251  32.612  31.450  1.00  0.00    -0.203 F 
ATOM     87  F   UNL A   1      46.085  36.782  27.934  1.00  0.00    -0.200 F 
ATOM     88  C   UNL A   1      46.852  35.861  29.968  1.00  0.00     0.200 A 
ATOM     89  F   UNL A   1      47.607  34.891  31.984  1.00  0.00    -0.200 F 
ATOM     90  F   UNL A   1      47.556  36.973  30.222  1.00  0.00    -0.200 F 
ENDBRANCH  57  80
ENDBRANCH  31  32
ENDBRANCH  24  26
ENDBRANCH  23  24
ENDBRANCH  22  23
ENDBRANCH  21  22
ENDBRANCH   1  21
TORSDOF 17
ENDMDL
