MODEL 1
REMARK VINA RESULT:     -11.1      0.000      0.000
REMARK SMILES C[C@@H](C(=O)OCCOCCOC(=O)c1ccc(-c2c3nc(c(-c4c(F)c(F)c(F)c(F)c4F)c4ccc([nH]4)c(-c4c(F)c(F)c(F)c(F)c4F)c4nc(c(-c5c(F)c(F)c(F)c(F)c5F)c5ccc2[nH]5)C=C4)C=C3)cc1)c1ccc(=O)n(C(F)F)c1
REMARK SMILES IDX 8 1 7 2 6 3 5 4 3 5 4 6 2 7 1 8 77 9 78 10 86 11 79 12 82 13
REMARK SMILES IDX 80 14 81 15 83 16 84 17 85 18 9 19 10 20 11 21 12 22 13 23
REMARK SMILES IDX 14 24 15 25 76 26 16 27 75 28 17 29 18 30 19 31 69 32 20 33
REMARK SMILES IDX 74 34 68 35 70 36 21 37 73 38 67 39 66 40 22 42 54 43 34 44
REMARK SMILES IDX 53 45 35 46 38 47 52 48 71 49 36 50 37 51 51 53 72 54 39 55
REMARK SMILES IDX 23 56 24 57 32 58 25 59 26 60 30 61 33 62 27 63 28 64 31 65
REMARK SMILES IDX 29 66 55 67 56 68 64 69 57 70 58 71 62 72 65 73 59 74 60 75
REMARK SMILES IDX 63 76 61 77 40 78 41 79 49 80 42 81 43 82 47 83 50 84 44 85
REMARK SMILES IDX 45 86 48 87 46 88
REMARK H PARENT 70 41 38 52
REMARK Flexibility Score: inf
ROOT
ATOM      1  O   UNL A   1      35.983  22.431  25.947  1.00  0.00    -0.374 OA
ENDROOT
BRANCH   1   2
ATOM      2  C   UNL A   1      35.639  23.678  25.333  1.00  0.00     0.202 C 
BRANCH   2   3
ATOM      3  C   UNL A   1      35.319  23.612  23.837  1.00  0.00     0.261 C 
BRANCH   3   4
ATOM      4  O   UNL A   1      33.961  24.043  23.609  1.00  0.00    -0.463 OA
BRANCH   4   5
ATOM      5  C   UNL A   1      33.292  23.401  22.614  1.00  0.00     0.313 C 
ATOM      6  O   UNL A   1      33.715  23.276  21.470  1.00  0.00    -0.252 OA
BRANCH   5   7
ATOM      7  C   UNL A   1      31.931  22.859  23.075  1.00  0.00     0.127 C 
ATOM      8  C   UNL A   1      31.118  23.777  23.992  1.00  0.00     0.025 C 
BRANCH   7   9
ATOM      9  C   UNL A   1      32.139  21.470  23.666  1.00  0.00    -0.017 A 
ATOM     10  C   UNL A   1      32.365  21.307  25.091  1.00  0.00     0.012 A 
ATOM     11  C   UNL A   1      32.193  20.371  22.891  1.00  0.00     0.099 A 
ATOM     12  C   UNL A   1      32.704  20.123  25.613  1.00  0.00     0.072 A 
ATOM     13  N   UNL A   1      32.496  19.124  23.410  1.00  0.00    -0.258 N 
ATOM     14  C   UNL A   1      32.818  18.924  24.743  1.00  0.00     0.254 A 
ATOM     15  O   UNL A   1      33.164  17.862  25.251  1.00  0.00    -0.269 OA
BRANCH  13  16
ATOM     16  C   UNL A   1      32.578  17.977  22.547  1.00  0.00     0.451 C 
ATOM     17  F   UNL A   1      32.324  18.317  21.261  1.00  0.00    -0.185 F 
ATOM     18  F   UNL A   1      33.808  17.410  22.597  1.00  0.00    -0.185 F 
ENDBRANCH  13  16
ENDBRANCH   7   9
ENDBRANCH   5   7
ENDBRANCH   4   5
ENDBRANCH   3   4
ENDBRANCH   2   3
ENDBRANCH   1   2
BRANCH   1  19
ATOM     19  C   UNL A   1      36.149  21.312  25.082  1.00  0.00     0.202 C 
BRANCH  19  20
ATOM     20  C   UNL A   1      37.516  20.624  25.117  1.00  0.00     0.261 C 
BRANCH  20  21
ATOM     21  O   UNL A   1      38.593  21.572  25.153  1.00  0.00    -0.460 OA
BRANCH  21  22
ATOM     22  C   UNL A   1      39.514  21.323  26.112  1.00  0.00     0.338 C 
ATOM     23  O   UNL A   1      40.073  20.259  26.348  1.00  0.00    -0.246 OA
BRANCH  22  24
ATOM     24  C   UNL A   1      39.911  22.576  26.772  1.00  0.00     0.060 A 
ATOM     25  C   UNL A   1      39.290  23.751  26.333  1.00  0.00     0.016 A 
ATOM     26  C   UNL A   1      40.911  22.619  27.747  1.00  0.00     0.016 A 
ATOM     27  C   UNL A   1      39.706  24.984  26.825  1.00  0.00     0.010 A 
ATOM     28  C   UNL A   1      41.333  23.859  28.235  1.00  0.00     0.010 A 
ATOM     29  C   UNL A   1      40.759  25.047  27.746  1.00  0.00    -0.014 A 
BRANCH  29  30
ATOM     30  C   UNL A   1      41.361  26.364  28.059  1.00  0.00     0.031 A 
ATOM     31  C   UNL A   1      42.758  26.652  27.586  1.00  0.00     0.074 A 
ATOM     32  C   UNL A   1      40.655  27.307  28.708  1.00  0.00     0.049 A 
ATOM     33  N   UNL A   1      43.481  27.733  27.736  1.00  0.00    -0.248 NA
ATOM     34  C   UNL A   1      43.431  25.577  26.840  1.00  0.00     0.031 C 
ATOM     35  C   UNL A   1      39.279  27.156  29.176  1.00  0.00     0.029 A 
ATOM     36  N   UNL A   1      41.003  28.579  29.081  1.00  0.00    -0.354 N 
ATOM     37  C   UNL A   1      44.691  27.466  27.109  1.00  0.00     0.074 A 
ATOM     38  C   UNL A   1      44.619  26.114  26.601  1.00  0.00     0.031 C 
ATOM     39  C   UNL A   1      38.899  28.295  29.780  1.00  0.00     0.029 A 
ATOM     40  C   UNL A   1      40.014  29.241  29.764  1.00  0.00     0.049 A 
ATOM     41  H   UNL A   1      41.880  28.980  28.880  1.00  0.00     0.167 HD
ATOM     42  C   UNL A   1      45.762  28.283  26.961  1.00  0.00     0.037 A 
ATOM     43  C   UNL A   1      40.016  30.466  30.324  1.00  0.00     0.037 A 
ATOM     44  C   UNL A   1      45.828  29.629  27.461  1.00  0.00     0.049 A 
ATOM     45  C   UNL A   1      41.247  31.328  30.204  1.00  0.00     0.074 A 
ATOM     46  C   UNL A   1      46.858  30.546  27.342  1.00  0.00     0.029 A 
ATOM     47  N   UNL A   1      44.821  30.251  28.185  1.00  0.00    -0.354 N 
ATOM     48  N   UNL A   1      42.375  31.080  29.585  1.00  0.00    -0.248 NA
ATOM     49  C   UNL A   1      41.201  32.642  30.862  1.00  0.00     0.031 C 
ATOM     50  C   UNL A   1      46.494  31.704  28.035  1.00  0.00     0.029 A 
ATOM     51  C   UNL A   1      45.217  31.529  28.544  1.00  0.00     0.049 A 
ATOM     52  H   UNL A   1      43.953  29.844  28.409  1.00  0.00     0.167 HD
ATOM     53  C   UNL A   1      43.161  32.213  29.752  1.00  0.00     0.074 A 
ATOM     54  C   UNL A   1      42.375  33.155  30.522  1.00  0.00     0.031 C 
ATOM     55  C   UNL A   1      44.418  32.455  29.305  1.00  0.00     0.037 A 
BRANCH  42  56
ATOM     56  C   UNL A   1      46.961  27.728  26.251  1.00  0.00     0.064 A 
ATOM     57  C   UNL A   1      47.070  27.753  24.853  1.00  0.00     0.173 A 
ATOM     58  C   UNL A   1      48.031  27.190  26.983  1.00  0.00     0.173 A 
ATOM     59  F   UNL A   1      46.068  28.242  24.107  1.00  0.00    -0.203 F 
ATOM     60  C   UNL A   1      48.195  27.241  24.212  1.00  0.00     0.198 A 
ATOM     61  C   UNL A   1      49.166  26.703  26.341  1.00  0.00     0.198 A 
ATOM     62  F   UNL A   1      47.977  27.143  28.323  1.00  0.00    -0.203 F 
ATOM     63  F   UNL A   1      48.259  27.235  22.874  1.00  0.00    -0.200 F 
ATOM     64  C   UNL A   1      49.244  26.722  24.957  1.00  0.00     0.200 A 
ATOM     65  F   UNL A   1      50.183  26.212  27.063  1.00  0.00    -0.200 F 
ATOM     66  F   UNL A   1      50.329  26.235  24.339  1.00  0.00    -0.200 F 
ENDBRANCH  42  56
BRANCH  43  67
ATOM     67  C   UNL A   1      38.818  30.952  31.054  1.00  0.00     0.064 A 
ATOM     68  C   UNL A   1      37.781  31.616  30.383  1.00  0.00     0.173 A 
ATOM     69  C   UNL A   1      38.692  30.778  32.440  1.00  0.00     0.173 A 
ATOM     70  F   UNL A   1      37.868  31.829  29.062  1.00  0.00    -0.203 F 
ATOM     71  C   UNL A   1      36.672  32.102  31.073  1.00  0.00     0.198 A 
ATOM     72  C   UNL A   1      37.570  31.240  33.125  1.00  0.00     0.198 A 
ATOM     73  F   UNL A   1      39.657  30.151  33.129  1.00  0.00    -0.203 F 
ATOM     74  F   UNL A   1      35.716  32.771  30.414  1.00  0.00    -0.200 F 
ATOM     75  C   UNL A   1      36.565  31.908  32.442  1.00  0.00     0.200 A 
ATOM     76  F   UNL A   1      37.465  31.041  34.446  1.00  0.00    -0.200 F 
ATOM     77  F   UNL A   1      35.497  32.373  33.105  1.00  0.00    -0.200 F 
ENDBRANCH  43  67
BRANCH  55  78
ATOM     78  C   UNL A   1      45.011  33.800  29.608  1.00  0.00     0.064 A 
ATOM     79  C   UNL A   1      45.786  34.021  30.756  1.00  0.00     0.173 A 
ATOM     80  C   UNL A   1      44.839  34.869  28.715  1.00  0.00     0.173 A 
ATOM     81  F   UNL A   1      45.967  33.035  31.648  1.00  0.00    -0.203 F 
ATOM     82  C   UNL A   1      46.347  35.269  31.011  1.00  0.00     0.198 A 
ATOM     83  C   UNL A   1      45.425  36.107  28.958  1.00  0.00     0.198 A 
ATOM     84  F   UNL A   1      44.112  34.706  27.598  1.00  0.00    -0.203 F 
ATOM     85  F   UNL A   1      47.046  35.471  32.135  1.00  0.00    -0.200 F 
ATOM     86  C   UNL A   1      46.172  36.309  30.108  1.00  0.00     0.200 A 
ATOM     87  F   UNL A   1      45.267  37.107  28.078  1.00  0.00    -0.200 F 
ATOM     88  F   UNL A   1      46.720  37.508  30.352  1.00  0.00    -0.200 F 
ENDBRANCH  55  78
ENDBRANCH  29  30
ENDBRANCH  22  24
ENDBRANCH  21  22
ENDBRANCH  20  21
ENDBRANCH  19  20
ENDBRANCH   1  19
TORSDOF 16
ENDMDL
MODEL 2
REMARK VINA RESULT:     -11.0      5.411     10.529
REMARK SMILES C[C@@H](C(=O)OCCOCCOC(=O)c1ccc(-c2c3nc(c(-c4c(F)c(F)c(F)c(F)c4F)c4ccc([nH]4)c(-c4c(F)c(F)c(F)c(F)c4F)c4nc(c(-c5c(F)c(F)c(F)c(F)c5F)c5ccc2[nH]5)C=C4)C=C3)cc1)c1ccc(=O)n(C(F)F)c1
REMARK SMILES IDX 8 1 7 2 6 3 5 4 3 5 4 6 2 7 1 8 77 9 78 10 86 11 79 12 82 13
REMARK SMILES IDX 80 14 81 15 83 16 84 17 85 18 9 19 10 20 11 21 12 22 13 23
REMARK SMILES IDX 14 24 15 25 76 26 16 27 75 28 17 29 18 30 19 31 69 32 20 33
REMARK SMILES IDX 74 34 68 35 70 36 21 37 73 38 67 39 66 40 22 42 54 43 34 44
REMARK SMILES IDX 53 45 35 46 38 47 52 48 71 49 36 50 37 51 51 53 72 54 39 55
REMARK SMILES IDX 23 56 24 57 32 58 25 59 26 60 30 61 33 62 27 63 28 64 31 65
REMARK SMILES IDX 29 66 55 67 56 68 64 69 57 70 58 71 62 72 65 73 59 74 60 75
REMARK SMILES IDX 63 76 61 77 40 78 41 79 49 80 42 81 43 82 47 83 50 84 44 85
REMARK SMILES IDX 45 86 48 87 46 88
REMARK H PARENT 70 41 38 52
REMARK Flexibility Score: inf
ROOT
ATOM      1  O   UNL A   1      32.309  30.258  27.235  1.00  0.00    -0.374 OA
ENDROOT
BRANCH   1   2
ATOM      2  C   UNL A   1      31.811  28.928  27.056  1.00  0.00     0.202 C 
BRANCH   2   3
ATOM      3  C   UNL A   1      32.862  27.866  26.721  1.00  0.00     0.261 C 
BRANCH   3   4
ATOM      4  O   UNL A   1      33.171  27.912  25.313  1.00  0.00    -0.463 OA
BRANCH   4   5
ATOM      5  C   UNL A   1      32.441  27.088  24.516  1.00  0.00     0.313 C 
ATOM      6  O   UNL A   1      32.167  25.926  24.795  1.00  0.00    -0.252 OA
BRANCH   5   7
ATOM      7  C   UNL A   1      32.006  27.766  23.209  1.00  0.00     0.127 C 
ATOM      8  C   UNL A   1      32.861  28.951  22.750  1.00  0.00     0.025 C 
BRANCH   7   9
ATOM      9  C   UNL A   1      30.526  28.115  23.315  1.00  0.00    -0.017 A 
ATOM     10  C   UNL A   1      29.544  27.074  23.566  1.00  0.00     0.012 A 
ATOM     11  C   UNL A   1      30.077  29.366  23.110  1.00  0.00     0.099 A 
ATOM     12  C   UNL A   1      28.232  27.324  23.508  1.00  0.00     0.072 A 
ATOM     13  N   UNL A   1      28.725  29.664  23.091  1.00  0.00    -0.258 N 
ATOM     14  C   UNL A   1      27.741  28.697  23.225  1.00  0.00     0.254 A 
ATOM     15  O   UNL A   1      26.531  28.883  23.146  1.00  0.00    -0.269 OA
BRANCH  13  16
ATOM     16  C   UNL A   1      28.279  31.008  22.837  1.00  0.00     0.451 C 
ATOM     17  F   UNL A   1      27.982  31.649  23.992  1.00  0.00    -0.185 F 
ATOM     18  F   UNL A   1      29.229  31.726  22.188  1.00  0.00    -0.185 F 
ENDBRANCH  13  16
ENDBRANCH   7   9
ENDBRANCH   5   7
ENDBRANCH   4   5
ENDBRANCH   3   4
ENDBRANCH   2   3
ENDBRANCH   1   2
BRANCH   1  19
ATOM     19  C   UNL A   1      31.692  31.285  26.465  1.00  0.00     0.202 C 
BRANCH  19  20
ATOM     20  C   UNL A   1      32.011  32.725  26.875  1.00  0.00     0.261 C 
BRANCH  20  21
ATOM     21  O   UNL A   1      32.824  32.778  28.058  1.00  0.00    -0.460 OA
BRANCH  21  22
ATOM     22  C   UNL A   1      33.894  33.598  27.953  1.00  0.00     0.338 C 
ATOM     23  O   UNL A   1      33.890  34.802  27.732  1.00  0.00    -0.246 OA
BRANCH  22  24
ATOM     24  C   UNL A   1      35.123  32.875  28.313  1.00  0.00     0.060 A 
ATOM     25  C   UNL A   1      34.986  31.534  28.693  1.00  0.00     0.016 A 
ATOM     26  C   UNL A   1      36.373  33.500  28.345  1.00  0.00     0.016 A 
ATOM     27  C   UNL A   1      36.087  30.828  29.164  1.00  0.00     0.010 A 
ATOM     28  C   UNL A   1      37.478  32.791  28.826  1.00  0.00     0.010 A 
ATOM     29  C   UNL A   1      37.329  31.465  29.273  1.00  0.00    -0.014 A 
BRANCH  29  30
ATOM     30  C   UNL A   1      38.421  30.789  30.014  1.00  0.00     0.031 A 
ATOM     31  C   UNL A   1      38.622  31.118  31.467  1.00  0.00     0.074 A 
ATOM     32  C   UNL A   1      39.185  29.859  29.415  1.00  0.00     0.049 A 
ATOM     33  N   UNL A   1      39.503  30.647  32.312  1.00  0.00    -0.248 NA
ATOM     34  C   UNL A   1      37.702  32.111  32.046  1.00  0.00     0.031 C 
ATOM     35  C   UNL A   1      39.054  29.428  28.025  1.00  0.00     0.029 A 
ATOM     36  N   UNL A   1      40.223  29.110  29.907  1.00  0.00    -0.354 N 
ATOM     37  C   UNL A   1      39.247  31.288  33.517  1.00  0.00     0.074 A 
ATOM     38  C   UNL A   1      38.149  32.201  33.290  1.00  0.00     0.031 C 
ATOM     39  C   UNL A   1      39.982  28.489  27.773  1.00  0.00     0.029 A 
ATOM     40  C   UNL A   1      40.787  28.276  28.975  1.00  0.00     0.049 A 
ATOM     41  H   UNL A   1      40.534  29.166  30.839  1.00  0.00     0.167 HD
ATOM     42  C   UNL A   1      39.867  31.119  34.710  1.00  0.00     0.037 A 
ATOM     43  C   UNL A   1      41.843  27.446  29.080  1.00  0.00     0.037 A 
ATOM     44  C   UNL A   1      40.954  30.205  34.934  1.00  0.00     0.049 A 
ATOM     45  C   UNL A   1      42.559  27.329  30.401  1.00  0.00     0.074 A 
ATOM     46  C   UNL A   1      41.634  29.943  36.111  1.00  0.00     0.029 A 
ATOM     47  N   UNL A   1      41.527  29.406  33.955  1.00  0.00    -0.354 N 
ATOM     48  N   UNL A   1      42.293  27.915  31.542  1.00  0.00    -0.248 NA
ATOM     49  C   UNL A   1      43.723  26.432  30.445  1.00  0.00     0.031 C 
ATOM     50  C   UNL A   1      42.650  29.022  35.832  1.00  0.00     0.029 A 
ATOM     51  C   UNL A   1      42.571  28.672  34.494  1.00  0.00     0.049 A 
ATOM     52  H   UNL A   1      41.234  29.367  33.016  1.00  0.00     0.167 HD
ATOM     53  C   UNL A   1      43.234  27.438  32.446  1.00  0.00     0.074 A 
ATOM     54  C   UNL A   1      44.071  26.504  31.722  1.00  0.00     0.031 C 
ATOM     55  C   UNL A   1      43.389  27.742  33.758  1.00  0.00     0.037 A 
BRANCH  42  56
ATOM     56  C   UNL A   1      39.401  31.964  35.858  1.00  0.00     0.064 A 
ATOM     57  C   UNL A   1      38.391  31.531  36.732  1.00  0.00     0.173 A 
ATOM     58  C   UNL A   1      39.992  33.212  36.104  1.00  0.00     0.173 A 
ATOM     59  F   UNL A   1      37.783  30.352  36.529  1.00  0.00    -0.203 F 
ATOM     60  C   UNL A   1      37.977  32.326  37.796  1.00  0.00     0.198 A 
ATOM     61  C   UNL A   1      39.594  33.993  37.186  1.00  0.00     0.198 A 
ATOM     62  F   UNL A   1      40.961  33.671  35.299  1.00  0.00    -0.203 F 
ATOM     63  F   UNL A   1      36.982  31.912  38.593  1.00  0.00    -0.200 F 
ATOM     64  C   UNL A   1      38.582  33.553  38.026  1.00  0.00     0.200 A 
ATOM     65  F   UNL A   1      40.187  35.173  37.413  1.00  0.00    -0.200 F 
ATOM     66  F   UNL A   1      38.186  34.314  39.056  1.00  0.00    -0.200 F 
ENDBRANCH  42  56
BRANCH  43  67
ATOM     67  C   UNL A   1      42.294  26.663  27.901  1.00  0.00     0.064 A 
ATOM     68  C   UNL A   1      43.227  27.189  26.997  1.00  0.00     0.173 A 
ATOM     69  C   UNL A   1      41.787  25.380  27.643  1.00  0.00     0.173 A 
ATOM     70  F   UNL A   1      43.721  28.421  27.186  1.00  0.00    -0.203 F 
ATOM     71  C   UNL A   1      43.625  26.469  25.872  1.00  0.00     0.198 A 
ATOM     72  C   UNL A   1      42.205  24.650  26.533  1.00  0.00     0.198 A 
ATOM     73  F   UNL A   1      40.890  24.833  28.477  1.00  0.00    -0.203 F 
ATOM     74  F   UNL A   1      44.485  27.012  25.001  1.00  0.00    -0.200 F 
ATOM     75  C   UNL A   1      43.118  25.197  25.645  1.00  0.00     0.200 A 
ATOM     76  F   UNL A   1      41.722  23.418  26.324  1.00  0.00    -0.200 F 
ATOM     77  F   UNL A   1      43.503  24.504  24.565  1.00  0.00    -0.200 F 
ENDBRANCH  43  67
BRANCH  55  78
ATOM     78  C   UNL A   1      44.482  27.037  34.506  1.00  0.00     0.064 A 
ATOM     79  C   UNL A   1      44.276  25.787  35.108  1.00  0.00     0.173 A 
ATOM     80  C   UNL A   1      45.767  27.598  34.583  1.00  0.00     0.173 A 
ATOM     81  F   UNL A   1      43.062  25.215  35.075  1.00  0.00    -0.203 F 
ATOM     82  C   UNL A   1      45.307  25.136  35.779  1.00  0.00     0.198 A 
ATOM     83  C   UNL A   1      46.803  26.932  35.229  1.00  0.00     0.198 A 
ATOM     84  F   UNL A   1      46.018  28.789  34.017  1.00  0.00    -0.203 F 
ATOM     85  F   UNL A   1      45.075  23.964  36.385  1.00  0.00    -0.200 F 
ATOM     86  C   UNL A   1      46.571  25.706  35.833  1.00  0.00     0.200 A 
ATOM     87  F   UNL A   1      48.027  27.478  35.269  1.00  0.00    -0.200 F 
ATOM     88  F   UNL A   1      47.565  25.074  36.474  1.00  0.00    -0.200 F 
ENDBRANCH  55  78
ENDBRANCH  29  30
ENDBRANCH  22  24
ENDBRANCH  21  22
ENDBRANCH  20  21
ENDBRANCH  19  20
ENDBRANCH   1  19
TORSDOF 16
ENDMDL
MODEL 3
REMARK VINA RESULT:     -10.8      4.854     10.044
REMARK SMILES C[C@@H](C(=O)OCCOCCOC(=O)c1ccc(-c2c3nc(c(-c4c(F)c(F)c(F)c(F)c4F)c4ccc([nH]4)c(-c4c(F)c(F)c(F)c(F)c4F)c4nc(c(-c5c(F)c(F)c(F)c(F)c5F)c5ccc2[nH]5)C=C4)C=C3)cc1)c1ccc(=O)n(C(F)F)c1
REMARK SMILES IDX 8 1 7 2 6 3 5 4 3 5 4 6 2 7 1 8 77 9 78 10 86 11 79 12 82 13
REMARK SMILES IDX 80 14 81 15 83 16 84 17 85 18 9 19 10 20 11 21 12 22 13 23
REMARK SMILES IDX 14 24 15 25 76 26 16 27 75 28 17 29 18 30 19 31 69 32 20 33
REMARK SMILES IDX 74 34 68 35 70 36 21 37 73 38 67 39 66 40 22 42 54 43 34 44
REMARK SMILES IDX 53 45 35 46 38 47 52 48 71 49 36 50 37 51 51 53 72 54 39 55
REMARK SMILES IDX 23 56 24 57 32 58 25 59 26 60 30 61 33 62 27 63 28 64 31 65
REMARK SMILES IDX 29 66 55 67 56 68 64 69 57 70 58 71 62 72 65 73 59 74 60 75
REMARK SMILES IDX 63 76 61 77 40 78 41 79 49 80 42 81 43 82 47 83 50 84 44 85
REMARK SMILES IDX 45 86 48 87 46 88
REMARK H PARENT 70 41 38 52
REMARK Flexibility Score: inf
ROOT
ATOM      1  O   UNL A   1      31.747  30.620  26.815  1.00  0.00    -0.374 OA
ENDROOT
BRANCH   1   2
ATOM      2  C   UNL A   1      31.915  29.563  25.866  1.00  0.00     0.202 C 
BRANCH   2   3
ATOM      3  C   UNL A   1      31.006  29.627  24.636  1.00  0.00     0.261 C 
BRANCH   3   4
ATOM      4  O   UNL A   1      31.406  28.623  23.680  1.00  0.00    -0.463 OA
BRANCH   4   5
ATOM      5  C   UNL A   1      30.407  28.085  22.930  1.00  0.00     0.313 C 
ATOM      6  O   UNL A   1      29.777  28.702  22.078  1.00  0.00    -0.252 OA
BRANCH   5   7
ATOM      7  C   UNL A   1      30.139  26.613  23.278  1.00  0.00     0.127 C 
ATOM      8  C   UNL A   1      29.427  26.357  24.610  1.00  0.00     0.025 C 
BRANCH   7   9
ATOM      9  C   UNL A   1      31.446  25.840  23.151  1.00  0.00    -0.017 A 
ATOM     10  C   UNL A   1      32.046  25.625  21.846  1.00  0.00     0.012 A 
ATOM     11  C   UNL A   1      32.041  25.277  24.217  1.00  0.00     0.099 A 
ATOM     12  C   UNL A   1      33.103  24.821  21.688  1.00  0.00     0.072 A 
ATOM     13  N   UNL A   1      33.165  24.478  24.090  1.00  0.00    -0.258 N 
ATOM     14  C   UNL A   1      33.722  24.156  22.863  1.00  0.00     0.254 A 
ATOM     15  O   UNL A   1      34.670  23.399  22.676  1.00  0.00    -0.269 OA
BRANCH  13  16
ATOM     16  C   UNL A   1      33.756  23.864  25.249  1.00  0.00     0.451 C 
ATOM     17  F   UNL A   1      34.767  24.621  25.738  1.00  0.00    -0.185 F 
ATOM     18  F   UNL A   1      32.842  23.693  26.236  1.00  0.00    -0.185 F 
ENDBRANCH  13  16
ENDBRANCH   7   9
ENDBRANCH   5   7
ENDBRANCH   4   5
ENDBRANCH   3   4
ENDBRANCH   2   3
ENDBRANCH   1   2
BRANCH   1  19
ATOM     19  C   UNL A   1      31.226  31.851  26.322  1.00  0.00     0.202 C 
BRANCH  19  20
ATOM     20  C   UNL A   1      31.912  33.126  26.820  1.00  0.00     0.261 C 
BRANCH  20  21
ATOM     21  O   UNL A   1      32.785  32.867  27.930  1.00  0.00    -0.460 OA
BRANCH  21  22
ATOM     22  C   UNL A   1      33.842  33.707  28.005  1.00  0.00     0.338 C 
ATOM     23  O   UNL A   1      33.826  34.930  27.954  1.00  0.00    -0.246 OA
BRANCH  22  24
ATOM     24  C   UNL A   1      35.063  32.956  28.336  1.00  0.00     0.060 A 
ATOM     25  C   UNL A   1      34.900  31.639  28.782  1.00  0.00     0.016 A 
ATOM     26  C   UNL A   1      36.333  33.537  28.278  1.00  0.00     0.016 A 
ATOM     27  C   UNL A   1      35.999  30.914  29.229  1.00  0.00     0.010 A 
ATOM     28  C   UNL A   1      37.436  32.810  28.735  1.00  0.00     0.010 A 
ATOM     29  C   UNL A   1      37.266  31.511  29.248  1.00  0.00    -0.014 A 
BRANCH  29  30
ATOM     30  C   UNL A   1      38.371  30.829  29.963  1.00  0.00     0.031 A 
ATOM     31  C   UNL A   1      38.598  31.146  31.415  1.00  0.00     0.074 A 
ATOM     32  C   UNL A   1      39.124  29.903  29.343  1.00  0.00     0.049 A 
ATOM     33  N   UNL A   1      39.494  30.668  32.240  1.00  0.00    -0.248 NA
ATOM     34  C   UNL A   1      37.690  32.134  32.019  1.00  0.00     0.031 C 
ATOM     35  C   UNL A   1      38.967  29.483  27.953  1.00  0.00     0.029 A 
ATOM     36  N   UNL A   1      40.169  29.150  29.810  1.00  0.00    -0.354 N 
ATOM     37  C   UNL A   1      39.261  31.299  33.455  1.00  0.00     0.074 A 
ATOM     38  C   UNL A   1      38.159  32.214  33.255  1.00  0.00     0.031 C 
ATOM     39  C   UNL A   1      39.890  28.546  27.676  1.00  0.00     0.029 A 
ATOM     40  C   UNL A   1      40.717  28.323  28.861  1.00  0.00     0.049 A 
ATOM     41  H   UNL A   1      40.498  29.198  30.737  1.00  0.00     0.167 HD
ATOM     42  C   UNL A   1      39.902  31.120  34.634  1.00  0.00     0.037 A 
ATOM     43  C   UNL A   1      41.774  27.491  28.941  1.00  0.00     0.037 A 
ATOM     44  C   UNL A   1      40.993  30.204  34.832  1.00  0.00     0.049 A 
ATOM     45  C   UNL A   1      42.514  27.364  30.248  1.00  0.00     0.074 A 
ATOM     46  C   UNL A   1      41.694  29.933  35.994  1.00  0.00     0.029 A 
ATOM     47  N   UNL A   1      41.548  29.413  33.836  1.00  0.00    -0.354 N 
ATOM     48  N   UNL A   1      42.269  27.941  31.398  1.00  0.00    -0.248 NA
ATOM     49  C   UNL A   1      43.678  26.466  30.264  1.00  0.00     0.031 C 
ATOM     50  C   UNL A   1      42.704  29.014  35.690  1.00  0.00     0.029 A 
ATOM     51  C   UNL A   1      42.601  28.675  34.350  1.00  0.00     0.049 A 
ATOM     52  H   UNL A   1      41.238  29.381  32.902  1.00  0.00     0.167 HD
ATOM     53  C   UNL A   1      43.225  27.457  32.281  1.00  0.00     0.074 A 
ATOM     54  C   UNL A   1      44.049  26.528  31.535  1.00  0.00     0.031 C 
ATOM     55  C   UNL A   1      43.405  27.750  33.592  1.00  0.00     0.037 A 
BRANCH  42  56
ATOM     56  C   UNL A   1      39.457  31.956  35.798  1.00  0.00     0.064 A 
ATOM     57  C   UNL A   1      39.998  33.227  36.044  1.00  0.00     0.173 A 
ATOM     58  C   UNL A   1      38.454  31.491  36.661  1.00  0.00     0.173 A 
ATOM     59  F   UNL A   1      40.971  33.711  35.257  1.00  0.00    -0.203 F 
ATOM     60  C   UNL A   1      39.567  33.992  37.125  1.00  0.00     0.198 A 
ATOM     61  C   UNL A   1      38.006  32.268  37.725  1.00  0.00     0.198 A 
ATOM     62  F   UNL A   1      37.904  30.283  36.469  1.00  0.00    -0.203 F 
ATOM     63  F   UNL A   1      40.127  35.184  37.367  1.00  0.00    -0.200 F 
ATOM     64  C   UNL A   1      38.567  33.514  37.961  1.00  0.00     0.200 A 
ATOM     65  F   UNL A   1      37.033  31.811  38.525  1.00  0.00    -0.200 F 
ATOM     66  F   UNL A   1      38.148  34.254  38.996  1.00  0.00    -0.200 F 
ENDBRANCH  42  56
BRANCH  43  67
ATOM     67  C   UNL A   1      42.202  26.718  27.747  1.00  0.00     0.064 A 
ATOM     68  C   UNL A   1      41.655  25.458  27.467  1.00  0.00     0.173 A 
ATOM     69  C   UNL A   1      43.180  27.215  26.872  1.00  0.00     0.173 A 
ATOM     70  F   UNL A   1      40.736  24.930  28.288  1.00  0.00    -0.203 F 
ATOM     71  C   UNL A   1      42.081  24.718  26.366  1.00  0.00     0.198 A 
ATOM     72  C   UNL A   1      43.585  26.486  25.757  1.00  0.00     0.198 A 
ATOM     73  F   UNL A   1      43.736  28.415  27.097  1.00  0.00    -0.203 F 
ATOM     74  F   UNL A   1      41.574  23.498  26.145  1.00  0.00    -0.200 F 
ATOM     75  C   UNL A   1      43.041  25.235  25.508  1.00  0.00     0.200 A 
ATOM     76  F   UNL A   1      44.505  26.994  24.925  1.00  0.00    -0.200 F 
ATOM     77  F   UNL A   1      43.449  24.524  24.448  1.00  0.00    -0.200 F 
ENDBRANCH  43  67
BRANCH  55  78
ATOM     78  C   UNL A   1      44.511  27.038  34.314  1.00  0.00     0.064 A 
ATOM     79  C   UNL A   1      44.314  25.784  34.911  1.00  0.00     0.173 A 
ATOM     80  C   UNL A   1      45.797  27.599  34.372  1.00  0.00     0.173 A 
ATOM     81  F   UNL A   1      43.100  25.213  34.896  1.00  0.00    -0.203 F 
ATOM     82  C   UNL A   1      45.358  25.128  35.558  1.00  0.00     0.198 A 
ATOM     83  C   UNL A   1      46.845  26.927  34.994  1.00  0.00     0.198 A 
ATOM     84  F   UNL A   1      46.039  28.793  33.810  1.00  0.00    -0.203 F 
ATOM     85  F   UNL A   1      45.136  23.951  36.159  1.00  0.00    -0.200 F 
ATOM     86  C   UNL A   1      46.623  25.696  35.593  1.00  0.00     0.200 A 
ATOM     87  F   UNL A   1      48.070  27.471  35.015  1.00  0.00    -0.200 F 
ATOM     88  F   UNL A   1      47.628  25.059  36.210  1.00  0.00    -0.200 F 
ENDBRANCH  55  78
ENDBRANCH  29  30
ENDBRANCH  22  24
ENDBRANCH  21  22
ENDBRANCH  20  21
ENDBRANCH  19  20
ENDBRANCH   1  19
TORSDOF 16
ENDMDL
