MODEL 1
REMARK VINA RESULT:     -10.6      0.000      0.000
REMARK SMILES CC(C)CN(C)c1ccc([N+](=O)[O-])cc1C(=O)OCCOCCOC(=O)c1ccc(-c2c3nc(c(-c4c(F)c(F)c(F)c(F)c4F)c4ccc([nH]4)c(-c4c(F)c(F)c(F)c(F)c4F)c4nc(c(-c5c(F)c(F)c(F)c(F)c5F)c5ccc2[nH]5)C=C4)C=C3)cc1
REMARK SMILES IDX 20 1 19 2 18 3 16 4 17 5 15 6 7 7 8 8 9 9 14 10 10 11 5 12
REMARK SMILES IDX 6 13 4 14 2 15 1 16 3 17 11 18 12 19 13 20 21 21 22 22 23 23
REMARK SMILES IDX 24 24 25 25 26 26 27 27 28 28 89 29 29 30 88 31 30 32 31 33
REMARK SMILES IDX 32 34 82 35 33 36 87 37 81 38 83 39 34 40 86 41 80 42 79 43
REMARK SMILES IDX 35 45 67 46 47 47 66 48 48 49 51 50 65 51 84 52 49 53 50 54
REMARK SMILES IDX 64 56 85 57 52 58 36 59 37 60 45 61 38 62 39 63 43 64 46 65
REMARK SMILES IDX 40 66 41 67 44 68 42 69 68 70 69 71 77 72 70 73 71 74 75 75
REMARK SMILES IDX 78 76 72 77 73 78 76 79 74 80 53 81 54 82 62 83 55 84 56 85
REMARK SMILES IDX 60 86 63 87 57 88 58 89 61 90 59 91
REMARK H PARENT 83 44 51 55
REMARK Flexibility Score: inf
ROOT
ATOM      1  C   UNL A   1      35.487  22.593  24.248  1.00  0.00     0.202 C 
ENDROOT
BRANCH   1   2
ATOM      2  C   UNL A   1      35.512  23.802  25.179  1.00  0.00     0.261 C 
BRANCH   2   3
ATOM      3  O   UNL A   1      34.833  24.936  24.603  1.00  0.00    -0.460 OA
BRANCH   3   4
ATOM      4  C   UNL A   1      33.810  25.397  25.363  1.00  0.00     0.340 C 
ATOM      5  O   UNL A   1      33.197  24.749  26.202  1.00  0.00    -0.246 OA
BRANCH   4   6
ATOM      6  C   UNL A   1      33.533  26.843  25.196  1.00  0.00     0.090 A 
ATOM      7  C   UNL A   1      32.694  27.410  24.211  1.00  0.00     0.052 A 
ATOM      8  C   UNL A   1      32.408  28.791  24.325  1.00  0.00     0.034 A 
ATOM      9  C   UNL A   1      32.945  29.585  25.343  1.00  0.00     0.088 A 
ATOM     10  C   UNL A   1      34.093  27.645  26.214  1.00  0.00     0.103 A 
ATOM     11  C   UNL A   1      33.800  29.007  26.279  1.00  0.00     0.270 A 
BRANCH   7  12
ATOM     12  N   UNL A   1      32.129  26.687  23.155  1.00  0.00    -0.374 N 
ATOM     13  C   UNL A   1      32.919  26.647  21.922  1.00  0.00     0.143 C 
BRANCH  12  14
ATOM     14  C   UNL A   1      30.665  26.756  22.982  1.00  0.00     0.119 C 
BRANCH  14  15
ATOM     15  C   UNL A   1      29.964  25.633  23.769  1.00  0.00     0.002 C 
ATOM     16  C   UNL A   1      30.676  24.294  23.574  1.00  0.00     0.009 C 
ATOM     17  C   UNL A   1      29.872  25.952  25.261  1.00  0.00     0.009 C 
ENDBRANCH  14  15
ENDBRANCH  12  14
ENDBRANCH   7  12
BRANCH  11  18
ATOM     18  N   UNL A   1      34.377  29.827  27.352  1.00  0.00     0.062 N 
ATOM     19  O   UNL A   1      33.925  30.970  27.507  1.00  0.00    -0.258 OA
ATOM     20  O   UNL A   1      35.286  29.330  28.030  1.00  0.00    -0.258 OA
ENDBRANCH  11  18
ENDBRANCH   4   6
ENDBRANCH   3   4
ENDBRANCH   2   3
ENDBRANCH   1   2
BRANCH   1  21
ATOM     21  O   UNL A   1      34.944  21.394  24.798  1.00  0.00    -0.374 OA
BRANCH  21  22
ATOM     22  C   UNL A   1      35.824  20.284  24.948  1.00  0.00     0.202 C 
BRANCH  22  23
ATOM     23  C   UNL A   1      37.327  20.591  24.903  1.00  0.00     0.261 C 
BRANCH  23  24
ATOM     24  O   UNL A   1      37.796  21.443  25.965  1.00  0.00    -0.460 OA
BRANCH  24  25
ATOM     25  C   UNL A   1      39.139  21.410  26.156  1.00  0.00     0.338 C 
ATOM     26  O   UNL A   1      39.927  20.574  25.751  1.00  0.00    -0.246 OA
BRANCH  25  27
ATOM     27  C   UNL A   1      39.602  22.600  26.894  1.00  0.00     0.060 A 
ATOM     28  C   UNL A   1      38.948  23.816  26.661  1.00  0.00     0.016 A 
ATOM     29  C   UNL A   1      40.791  22.562  27.625  1.00  0.00     0.016 A 
ATOM     30  C   UNL A   1      39.517  25.011  27.107  1.00  0.00     0.010 A 
ATOM     31  C   UNL A   1      41.365  23.761  28.063  1.00  0.00     0.010 A 
ATOM     32  C   UNL A   1      40.754  24.994  27.763  1.00  0.00    -0.014 A 
BRANCH  32  33
ATOM     33  C   UNL A   1      41.493  26.264  27.979  1.00  0.00     0.031 A 
ATOM     34  C   UNL A   1      40.807  27.398  28.695  1.00  0.00     0.074 A 
ATOM     35  C   UNL A   1      42.761  26.408  27.562  1.00  0.00     0.049 A 
ATOM     36  N   UNL A   1      41.246  28.605  28.952  1.00  0.00    -0.248 NA
ATOM     37  C   UNL A   1      39.445  27.136  29.183  1.00  0.00     0.031 C 
ATOM     38  C   UNL A   1      43.551  25.381  26.890  1.00  0.00     0.029 A 
ATOM     39  N   UNL A   1      43.604  27.490  27.638  1.00  0.00    -0.354 N 
ATOM     40  C   UNL A   1      40.213  29.248  29.623  1.00  0.00     0.074 A 
ATOM     41  C   UNL A   1      39.118  28.306  29.713  1.00  0.00     0.031 C 
ATOM     42  C   UNL A   1      44.762  25.886  26.600  1.00  0.00     0.029 A 
ATOM     43  C   UNL A   1      44.822  27.279  27.044  1.00  0.00     0.049 A 
ATOM     44  H   UNL A   1      43.358  28.336  28.077  1.00  0.00     0.167 HD
ATOM     45  C   UNL A   1      40.182  30.505  30.125  1.00  0.00     0.037 A 
ATOM     46  C   UNL A   1      45.859  28.119  26.862  1.00  0.00     0.037 A 
ATOM     47  C   UNL A   1      41.271  31.443  30.052  1.00  0.00     0.049 A 
ATOM     48  C   UNL A   1      45.781  29.530  27.381  1.00  0.00     0.074 A 
ATOM     49  C   UNL A   1      41.342  32.725  30.569  1.00  0.00     0.029 A 
ATOM     50  N   UNL A   1      42.478  31.200  29.417  1.00  0.00    -0.354 N 
ATOM     51  N   UNL A   1      44.811  30.120  28.034  1.00  0.00    -0.248 NA
ATOM     52  C   UNL A   1      46.947  30.393  27.135  1.00  0.00     0.031 C 
ATOM     53  C   UNL A   1      42.578  33.274  30.211  1.00  0.00     0.029 A 
ATOM     54  C   UNL A   1      43.291  32.318  29.505  1.00  0.00     0.049 A 
ATOM     55  H   UNL A   1      42.721  30.358  28.969  1.00  0.00     0.167 HD
ATOM     56  C   UNL A   1      45.254  31.410  28.296  1.00  0.00     0.074 A 
ATOM     57  C   UNL A   1      46.585  31.518  27.737  1.00  0.00     0.031 C 
ATOM     58  C   UNL A   1      44.614  32.414  28.944  1.00  0.00     0.037 A 
BRANCH  45  59
ATOM     59  C   UNL A   1      38.912  30.950  30.786  1.00  0.00     0.064 A 
ATOM     60  C   UNL A   1      37.851  31.496  30.048  1.00  0.00     0.173 A 
ATOM     61  C   UNL A   1      38.744  30.801  32.170  1.00  0.00     0.173 A 
ATOM     62  F   UNL A   1      37.971  31.670  28.722  1.00  0.00    -0.203 F 
ATOM     63  C   UNL A   1      36.675  31.895  30.677  1.00  0.00     0.198 A 
ATOM     64  C   UNL A   1      37.559  31.182  32.792  1.00  0.00     0.198 A 
ATOM     65  F   UNL A   1      39.729  30.282  32.918  1.00  0.00    -0.203 F 
ATOM     66  F   UNL A   1      35.689  32.449  29.959  1.00  0.00    -0.200 F 
ATOM     67  C   UNL A   1      36.529  31.734  32.046  1.00  0.00     0.200 A 
ATOM     68  F   UNL A   1      37.415  31.018  34.115  1.00  0.00    -0.200 F 
ATOM     69  F   UNL A   1      35.394  32.117  32.650  1.00  0.00    -0.200 F 
ENDBRANCH  45  59
BRANCH  46  70
ATOM     70  C   UNL A   1      47.064  27.646  26.138  1.00  0.00     0.064 A 
ATOM     71  C   UNL A   1      47.134  27.699  24.740  1.00  0.00     0.173 A 
ATOM     72  C   UNL A   1      48.171  27.135  26.832  1.00  0.00     0.173 A 
ATOM     73  F   UNL A   1      46.089  28.156  24.035  1.00  0.00    -0.203 F 
ATOM     74  C   UNL A   1      48.265  27.251  24.061  1.00  0.00     0.198 A 
ATOM     75  C   UNL A   1      49.308  26.708  26.153  1.00  0.00     0.198 A 
ATOM     76  F   UNL A   1      48.148  27.063  28.171  1.00  0.00    -0.203 F 
ATOM     77  F   UNL A   1      48.295  27.282  22.722  1.00  0.00    -0.200 F 
ATOM     78  C   UNL A   1      49.352  26.761  24.768  1.00  0.00     0.200 A 
ATOM     79  F   UNL A   1      50.361  26.243  26.840  1.00  0.00    -0.200 F 
ATOM     80  F   UNL A   1      50.443  26.337  24.115  1.00  0.00    -0.200 F 
ENDBRANCH  46  70
BRANCH  58  81
ATOM     81  C   UNL A   1      45.349  33.712  29.103  1.00  0.00     0.064 A 
ATOM     82  C   UNL A   1      45.217  34.747  28.166  1.00  0.00     0.173 A 
ATOM     83  C   UNL A   1      46.155  33.940  30.228  1.00  0.00     0.173 A 
ATOM     84  F   UNL A   1      44.468  34.571  27.068  1.00  0.00    -0.203 F 
ATOM     85  C   UNL A   1      45.882  35.958  28.342  1.00  0.00     0.198 A 
ATOM     86  C   UNL A   1      46.801  35.160  30.412  1.00  0.00     0.198 A 
ATOM     87  F   UNL A   1      46.309  32.982  31.155  1.00  0.00    -0.203 F 
ATOM     88  F   UNL A   1      45.770  36.921  27.418  1.00  0.00    -0.200 F 
ATOM     89  C   UNL A   1      46.667  36.166  29.466  1.00  0.00     0.200 A 
ATOM     90  F   UNL A   1      47.553  35.362  31.502  1.00  0.00    -0.200 F 
ATOM     91  F   UNL A   1      47.302  37.335  29.636  1.00  0.00    -0.200 F 
ENDBRANCH  58  81
ENDBRANCH  32  33
ENDBRANCH  25  27
ENDBRANCH  24  25
ENDBRANCH  23  24
ENDBRANCH  22  23
ENDBRANCH  21  22
ENDBRANCH   1  21
TORSDOF 18
ENDMDL
MODEL 2
REMARK VINA RESULT:     -10.5      2.322      3.753
REMARK SMILES CC(C)CN(C)c1ccc([N+](=O)[O-])cc1C(=O)OCCOCCOC(=O)c1ccc(-c2c3nc(c(-c4c(F)c(F)c(F)c(F)c4F)c4ccc([nH]4)c(-c4c(F)c(F)c(F)c(F)c4F)c4nc(c(-c5c(F)c(F)c(F)c(F)c5F)c5ccc2[nH]5)C=C4)C=C3)cc1
REMARK SMILES IDX 20 1 19 2 18 3 16 4 17 5 15 6 7 7 8 8 9 9 14 10 10 11 5 12
REMARK SMILES IDX 6 13 4 14 2 15 1 16 3 17 11 18 12 19 13 20 21 21 22 22 23 23
REMARK SMILES IDX 24 24 25 25 26 26 27 27 28 28 89 29 29 30 88 31 30 32 31 33
REMARK SMILES IDX 32 34 82 35 33 36 87 37 81 38 83 39 34 40 86 41 80 42 79 43
REMARK SMILES IDX 35 45 67 46 47 47 66 48 48 49 51 50 65 51 84 52 49 53 50 54
REMARK SMILES IDX 64 56 85 57 52 58 36 59 37 60 45 61 38 62 39 63 43 64 46 65
REMARK SMILES IDX 40 66 41 67 44 68 42 69 68 70 69 71 77 72 70 73 71 74 75 75
REMARK SMILES IDX 78 76 72 77 73 78 76 79 74 80 53 81 54 82 62 83 55 84 56 85
REMARK SMILES IDX 60 86 63 87 57 88 58 89 61 90 59 91
REMARK H PARENT 83 44 51 55
REMARK Flexibility Score: inf
ROOT
ATOM      1  C   UNL A   1      36.769  23.657  25.231  1.00  0.00     0.202 C 
ENDROOT
BRANCH   1   2
ATOM      2  C   UNL A   1      35.423  24.013  24.605  1.00  0.00     0.261 C 
BRANCH   2   3
ATOM      3  O   UNL A   1      35.105  23.152  23.493  1.00  0.00    -0.460 OA
BRANCH   3   4
ATOM      4  C   UNL A   1      33.885  23.394  22.953  1.00  0.00     0.340 C 
ATOM      5  O   UNL A   1      33.670  23.709  21.790  1.00  0.00    -0.246 OA
BRANCH   4   6
ATOM      6  C   UNL A   1      32.753  23.133  23.872  1.00  0.00     0.090 A 
ATOM      7  C   UNL A   1      32.361  21.863  24.351  1.00  0.00     0.052 A 
ATOM      8  C   UNL A   1      31.372  21.833  25.363  1.00  0.00     0.034 A 
ATOM      9  C   UNL A   1      30.773  22.996  25.859  1.00  0.00     0.088 A 
ATOM     10  C   UNL A   1      32.137  24.307  24.356  1.00  0.00     0.103 A 
ATOM     11  C   UNL A   1      31.151  24.232  25.340  1.00  0.00     0.270 A 
BRANCH   7  12
ATOM     12  N   UNL A   1      32.900  20.655  23.898  1.00  0.00    -0.374 N 
ATOM     13  C   UNL A   1      32.153  19.990  22.828  1.00  0.00     0.143 C 
BRANCH  12  14
ATOM     14  C   UNL A   1      33.529  19.767  24.895  1.00  0.00     0.119 C 
BRANCH  14  15
ATOM     15  C   UNL A   1      33.338  18.288  24.513  1.00  0.00     0.002 C 
ATOM     16  C   UNL A   1      34.681  17.607  24.248  1.00  0.00     0.009 C 
ATOM     17  C   UNL A   1      32.574  17.513  25.587  1.00  0.00     0.009 C 
ENDBRANCH  14  15
ENDBRANCH  12  14
ENDBRANCH   7  12
BRANCH  11  18
ATOM     18  N   UNL A   1      30.531  25.462  25.846  1.00  0.00     0.062 N 
ATOM     19  O   UNL A   1      29.570  25.922  25.213  1.00  0.00    -0.258 OA
ATOM     20  O   UNL A   1      31.011  25.972  26.868  1.00  0.00    -0.258 OA
ENDBRANCH  11  18
ENDBRANCH   4   6
ENDBRANCH   3   4
ENDBRANCH   2   3
ENDBRANCH   1   2
BRANCH   1  21
ATOM     21  O   UNL A   1      37.471  22.573  24.626  1.00  0.00    -0.374 OA
BRANCH  21  22
ATOM     22  C   UNL A   1      37.848  21.485  25.465  1.00  0.00     0.202 C 
BRANCH  22  23
ATOM     23  C   UNL A   1      39.286  21.502  26.001  1.00  0.00     0.261 C 
BRANCH  23  24
ATOM     24  O   UNL A   1      39.713  20.268  26.608  1.00  0.00    -0.460 OA
BRANCH  24  25
ATOM     25  C   UNL A   1      40.957  19.866  26.244  1.00  0.00     0.338 C 
ATOM     26  O   UNL A   1      41.280  18.798  25.754  1.00  0.00    -0.246 OA
BRANCH  25  27
ATOM     27  C   UNL A   1      41.945  20.942  26.446  1.00  0.00     0.060 A 
ATOM     28  C   UNL A   1      42.223  21.344  27.759  1.00  0.00     0.016 A 
ATOM     29  C   UNL A   1      42.414  21.686  25.362  1.00  0.00     0.016 A 
ATOM     30  C   UNL A   1      42.922  22.530  27.992  1.00  0.00     0.010 A 
ATOM     31  C   UNL A   1      43.107  22.879  25.598  1.00  0.00     0.010 A 
ATOM     32  C   UNL A   1      43.320  23.330  26.914  1.00  0.00    -0.014 A 
BRANCH  32  33
ATOM     33  C   UNL A   1      43.800  24.714  27.159  1.00  0.00     0.031 A 
ATOM     34  C   UNL A   1      42.829  25.749  27.663  1.00  0.00     0.074 A 
ATOM     35  C   UNL A   1      45.085  25.049  26.956  1.00  0.00     0.049 A 
ATOM     36  N   UNL A   1      43.020  27.022  27.903  1.00  0.00    -0.248 NA
ATOM     37  C   UNL A   1      41.458  25.285  27.930  1.00  0.00     0.031 C 
ATOM     38  C   UNL A   1      46.134  24.139  26.505  1.00  0.00     0.029 A 
ATOM     39  N   UNL A   1      45.721  26.258  27.095  1.00  0.00    -0.354 N 
ATOM     40  C   UNL A   1      41.796  27.513  28.339  1.00  0.00     0.074 A 
ATOM     41  C   UNL A   1      40.862  26.406  28.310  1.00  0.00     0.031 C 
ATOM     42  C   UNL A   1      47.283  24.825  26.390  1.00  0.00     0.029 A 
ATOM     43  C   UNL A   1      47.043  26.227  26.735  1.00  0.00     0.049 A 
ATOM     44  H   UNL A   1      45.271  27.070  27.423  1.00  0.00     0.167 HD
ATOM     45  C   UNL A   1      41.479  28.768  28.735  1.00  0.00     0.037 A 
ATOM     46  C   UNL A   1      47.952  27.219  26.672  1.00  0.00     0.037 A 
ATOM     47  C   UNL A   1      42.403  29.870  28.781  1.00  0.00     0.049 A 
ATOM     48  C   UNL A   1      47.563  28.619  27.066  1.00  0.00     0.074 A 
ATOM     49  C   UNL A   1      42.179  31.168  29.207  1.00  0.00     0.029 A 
ATOM     50  N   UNL A   1      43.728  29.804  28.381  1.00  0.00    -0.354 N 
ATOM     51  N   UNL A   1      46.411  29.067  27.499  1.00  0.00    -0.248 NA
ATOM     52  C   UNL A   1      48.605  29.652  26.960  1.00  0.00     0.031 C 
ATOM     53  C   UNL A   1      43.358  31.898  29.027  1.00  0.00     0.029 A 
ATOM     54  C   UNL A   1      44.327  31.045  28.524  1.00  0.00     0.049 A 
ATOM     55  H   UNL A   1      44.175  28.995  28.044  1.00  0.00     0.167 HD
ATOM     56  C   UNL A   1      46.593  30.423  27.738  1.00  0.00     0.074 A 
ATOM     57  C   UNL A   1      47.970  30.726  27.407  1.00  0.00     0.031 C 
ATOM     58  C   UNL A   1      45.698  31.335  28.192  1.00  0.00     0.037 A 
BRANCH  45  59
ATOM     59  C   UNL A   1      40.057  29.025  29.136  1.00  0.00     0.064 A 
ATOM     60  C   UNL A   1      39.071  29.336  28.188  1.00  0.00     0.173 A 
ATOM     61  C   UNL A   1      39.671  28.927  30.480  1.00  0.00     0.173 A 
ATOM     62  F   UNL A   1      39.395  29.453  26.891  1.00  0.00    -0.203 F 
ATOM     63  C   UNL A   1      37.753  29.562  28.576  1.00  0.00     0.198 A 
ATOM     64  C   UNL A   1      38.349  29.132  30.862  1.00  0.00     0.198 A 
ATOM     65  F   UNL A   1      40.577  28.629  31.423  1.00  0.00    -0.203 F 
ATOM     66  F   UNL A   1      36.834  29.895  27.660  1.00  0.00    -0.200 F 
ATOM     67  C   UNL A   1      37.393  29.456  29.911  1.00  0.00     0.200 A 
ATOM     68  F   UNL A   1      38.000  29.021  32.152  1.00  0.00    -0.200 F 
ATOM     69  F   UNL A   1      36.122  29.670  30.283  1.00  0.00    -0.200 F 
ENDBRANCH  45  59
BRANCH  46  70
ATOM     70  C   UNL A   1      49.327  26.922  26.201  1.00  0.00     0.064 A 
ATOM     71  C   UNL A   1      50.323  26.507  27.095  1.00  0.00     0.173 A 
ATOM     72  C   UNL A   1      49.671  27.045  24.847  1.00  0.00     0.173 A 
ATOM     73  F   UNL A   1      50.046  26.401  28.402  1.00  0.00    -0.203 F 
ATOM     74  C   UNL A   1      51.615  26.232  26.652  1.00  0.00     0.198 A 
ATOM     75  C   UNL A   1      50.956  26.750  24.402  1.00  0.00     0.198 A 
ATOM     76  F   UNL A   1      48.750  27.443  23.955  1.00  0.00    -0.203 F 
ATOM     77  F   UNL A   1      52.558  25.867  27.530  1.00  0.00    -0.200 F 
ATOM     78  C   UNL A   1      51.928  26.348  25.306  1.00  0.00     0.200 A 
ATOM     79  F   UNL A   1      51.253  26.855  23.100  1.00  0.00    -0.200 F 
ATOM     80  F   UNL A   1      53.169  26.076  24.879  1.00  0.00    -0.200 F 
ENDBRANCH  46  70
BRANCH  58  81
ATOM     81  C   UNL A   1      46.180  32.743  28.380  1.00  0.00     0.064 A 
ATOM     82  C   UNL A   1      46.037  33.705  27.370  1.00  0.00     0.173 A 
ATOM     83  C   UNL A   1      46.748  33.144  29.597  1.00  0.00     0.173 A 
ATOM     84  F   UNL A   1      45.511  33.365  26.183  1.00  0.00    -0.203 F 
ATOM     85  C   UNL A   1      46.462  35.016  27.568  1.00  0.00     0.198 A 
ATOM     86  C   UNL A   1      47.152  34.461  29.800  1.00  0.00     0.198 A 
ATOM     87  F   UNL A   1      46.903  32.260  30.595  1.00  0.00    -0.203 F 
ATOM     88  F   UNL A   1      46.347  35.912  26.579  1.00  0.00    -0.200 F 
ATOM     89  C   UNL A   1      47.012  35.394  28.784  1.00  0.00     0.200 A 
ATOM     90  F   UNL A   1      47.677  34.826  30.977  1.00  0.00    -0.200 F 
ATOM     91  F   UNL A   1      47.417  36.659  28.975  1.00  0.00    -0.200 F 
ENDBRANCH  58  81
ENDBRANCH  32  33
ENDBRANCH  25  27
ENDBRANCH  24  25
ENDBRANCH  23  24
ENDBRANCH  22  23
ENDBRANCH  21  22
ENDBRANCH   1  21
TORSDOF 18
ENDMDL
MODEL 3
REMARK VINA RESULT:     -10.5      2.090      8.154
REMARK SMILES CC(C)CN(C)c1ccc([N+](=O)[O-])cc1C(=O)OCCOCCOC(=O)c1ccc(-c2c3nc(c(-c4c(F)c(F)c(F)c(F)c4F)c4ccc([nH]4)c(-c4c(F)c(F)c(F)c(F)c4F)c4nc(c(-c5c(F)c(F)c(F)c(F)c5F)c5ccc2[nH]5)C=C4)C=C3)cc1
REMARK SMILES IDX 20 1 19 2 18 3 16 4 17 5 15 6 7 7 8 8 9 9 14 10 10 11 5 12
REMARK SMILES IDX 6 13 4 14 2 15 1 16 3 17 11 18 12 19 13 20 21 21 22 22 23 23
REMARK SMILES IDX 24 24 25 25 26 26 27 27 28 28 89 29 29 30 88 31 30 32 31 33
REMARK SMILES IDX 32 34 82 35 33 36 87 37 81 38 83 39 34 40 86 41 80 42 79 43
REMARK SMILES IDX 35 45 67 46 47 47 66 48 48 49 51 50 65 51 84 52 49 53 50 54
REMARK SMILES IDX 64 56 85 57 52 58 36 59 37 60 45 61 38 62 39 63 43 64 46 65
REMARK SMILES IDX 40 66 41 67 44 68 42 69 68 70 69 71 77 72 70 73 71 74 75 75
REMARK SMILES IDX 78 76 72 77 73 78 76 79 74 80 53 81 54 82 62 83 55 84 56 85
REMARK SMILES IDX 60 86 63 87 57 88 58 89 61 90 59 91
REMARK H PARENT 83 44 51 55
REMARK Flexibility Score: inf
ROOT
ATOM      1  C   UNL A   1      37.223  22.441  25.225  1.00  0.00     0.202 C 
ENDROOT
BRANCH   1   2
ATOM      2  C   UNL A   1      35.771  22.629  25.658  1.00  0.00     0.261 C 
BRANCH   2   3
ATOM      3  O   UNL A   1      35.263  21.470  26.349  1.00  0.00    -0.460 OA
BRANCH   3   4
ATOM      4  C   UNL A   1      33.911  21.440  26.433  1.00  0.00     0.340 C 
ATOM      5  O   UNL A   1      33.243  21.920  27.340  1.00  0.00    -0.246 OA
BRANCH   4   6
ATOM      6  C   UNL A   1      33.241  20.863  25.245  1.00  0.00     0.090 A 
ATOM      7  C   UNL A   1      32.469  21.583  24.306  1.00  0.00     0.052 A 
ATOM      8  C   UNL A   1      32.063  20.893  23.140  1.00  0.00     0.034 A 
ATOM      9  C   UNL A   1      32.376  19.548  22.919  1.00  0.00     0.088 A 
ATOM     10  C   UNL A   1      33.542  19.500  25.035  1.00  0.00     0.103 A 
ATOM     11  C   UNL A   1      33.105  18.851  23.880  1.00  0.00     0.270 A 
BRANCH   7  12
ATOM     12  N   UNL A   1      32.104  22.925  24.459  1.00  0.00    -0.374 N 
ATOM     13  C   UNL A   1      30.979  23.175  25.364  1.00  0.00     0.143 C 
BRANCH  12  14
ATOM     14  C   UNL A   1      32.185  23.798  23.272  1.00  0.00     0.119 C 
BRANCH  14  15
ATOM     15  C   UNL A   1      33.468  24.648  23.301  1.00  0.00     0.002 C 
ATOM     16  C   UNL A   1      33.405  25.780  22.275  1.00  0.00     0.009 C 
ATOM     17  C   UNL A   1      33.739  25.230  24.689  1.00  0.00     0.009 C 
ENDBRANCH  14  15
ENDBRANCH  12  14
ENDBRANCH   7  12
BRANCH  11  18
ATOM     18  N   UNL A   1      33.439  17.437  23.667  1.00  0.00     0.062 N 
ATOM     19  O   UNL A   1      33.577  17.050  22.499  1.00  0.00    -0.258 OA
ATOM     20  O   UNL A   1      33.551  16.716  24.668  1.00  0.00    -0.258 OA
ENDBRANCH  11  18
ENDBRANCH   4   6
ENDBRANCH   3   4
ENDBRANCH   2   3
ENDBRANCH   1   2
BRANCH   1  21
ATOM     21  O   UNL A   1      37.945  21.410  25.896  1.00  0.00    -0.374 OA
BRANCH  21  22
ATOM     22  C   UNL A   1      38.354  20.285  25.123  1.00  0.00     0.202 C 
BRANCH  22  23
ATOM     23  C   UNL A   1      39.545  19.482  25.663  1.00  0.00     0.261 C 
BRANCH  23  24
ATOM     24  O   UNL A   1      40.043  19.932  26.937  1.00  0.00    -0.460 OA
BRANCH  24  25
ATOM     25  C   UNL A   1      41.279  20.490  26.889  1.00  0.00     0.338 C 
ATOM     26  O   UNL A   1      42.301  19.994  26.449  1.00  0.00    -0.246 OA
BRANCH  25  27
ATOM     27  C   UNL A   1      41.258  21.876  27.392  1.00  0.00     0.060 A 
ATOM     28  C   UNL A   1      40.628  22.852  26.611  1.00  0.00     0.016 A 
ATOM     29  C   UNL A   1      42.034  22.241  28.494  1.00  0.00     0.016 A 
ATOM     30  C   UNL A   1      40.824  24.206  26.892  1.00  0.00     0.010 A 
ATOM     31  C   UNL A   1      42.237  23.598  28.770  1.00  0.00     0.010 A 
ATOM     32  C   UNL A   1      41.672  24.585  27.941  1.00  0.00    -0.014 A 
BRANCH  32  33
ATOM     33  C   UNL A   1      42.108  26.000  28.062  1.00  0.00     0.031 A 
ATOM     34  C   UNL A   1      43.434  26.412  27.479  1.00  0.00     0.074 A 
ATOM     35  C   UNL A   1      41.332  26.915  28.665  1.00  0.00     0.049 A 
ATOM     36  N   UNL A   1      44.029  27.577  27.508  1.00  0.00    -0.248 NA
ATOM     37  C   UNL A   1      44.191  25.367  26.772  1.00  0.00     0.031 C 
ATOM     38  C   UNL A   1      40.014  26.659  29.239  1.00  0.00     0.029 A 
ATOM     39  N   UNL A   1      41.553  28.250  28.903  1.00  0.00    -0.354 N 
ATOM     40  C   UNL A   1      45.231  27.406  26.832  1.00  0.00     0.074 A 
ATOM     41  C   UNL A   1      45.291  26.018  26.424  1.00  0.00     0.031 C 
ATOM     42  C   UNL A   1      39.547  27.798  29.778  1.00  0.00     0.029 A 
ATOM     43  C   UNL A   1      40.544  28.855  29.607  1.00  0.00     0.049 A 
ATOM     44  H   UNL A   1      42.358  28.726  28.596  1.00  0.00     0.167 HD
ATOM     45  C   UNL A   1      46.193  28.322  26.568  1.00  0.00     0.037 A 
ATOM     46  C   UNL A   1      40.445  30.114  30.077  1.00  0.00     0.037 A 
ATOM     47  C   UNL A   1      46.135  29.706  26.957  1.00  0.00     0.049 A 
ATOM     48  C   UNL A   1      41.552  31.101  29.819  1.00  0.00     0.074 A 
ATOM     49  C   UNL A   1      47.046  30.715  26.697  1.00  0.00     0.029 A 
ATOM     50  N   UNL A   1      45.108  30.274  27.694  1.00  0.00    -0.354 N 
ATOM     51  N   UNL A   1      42.672  30.935  29.159  1.00  0.00    -0.248 NA
ATOM     52  C   UNL A   1      41.379  32.453  30.373  1.00  0.00     0.031 C 
ATOM     53  C   UNL A   1      46.590  31.886  27.313  1.00  0.00     0.029 A 
ATOM     54  C   UNL A   1      45.376  31.614  27.923  1.00  0.00     0.049 A 
ATOM     55  H   UNL A   1      44.308  29.796  28.010  1.00  0.00     0.167 HD
ATOM     56  C   UNL A   1      43.325  32.160  29.199  1.00  0.00     0.074 A 
ATOM     57  C   UNL A   1      42.473  33.065  29.944  1.00  0.00     0.031 C 
ATOM     58  C   UNL A   1      44.522  32.505  28.665  1.00  0.00     0.037 A 
BRANCH  45  59
ATOM     59  C   UNL A   1      47.411  27.847  25.834  1.00  0.00     0.064 A 
ATOM     60  C   UNL A   1      48.574  27.456  26.514  1.00  0.00     0.173 A 
ATOM     61  C   UNL A   1      47.403  27.755  24.435  1.00  0.00     0.173 A 
ATOM     62  F   UNL A   1      48.632  27.540  27.853  1.00  0.00    -0.203 F 
ATOM     63  C   UNL A   1      49.693  27.009  25.817  1.00  0.00     0.198 A 
ATOM     64  C   UNL A   1      48.516  27.287  23.742  1.00  0.00     0.198 A 
ATOM     65  F   UNL A   1      46.314  28.114  23.740  1.00  0.00    -0.203 F 
ATOM     66  F   UNL A   1      50.806  26.676  26.484  1.00  0.00    -0.200 F 
ATOM     67  C   UNL A   1      49.662  26.921  24.433  1.00  0.00     0.200 A 
ATOM     68  F   UNL A   1      48.482  27.194  22.406  1.00  0.00    -0.200 F 
ATOM     69  F   UNL A   1      50.740  26.487  23.764  1.00  0.00    -0.200 F 
ENDBRANCH  45  59
BRANCH  46  70
ATOM     70  C   UNL A   1      39.248  30.510  30.859  1.00  0.00     0.064 A 
ATOM     71  C   UNL A   1      38.142  31.101  30.236  1.00  0.00     0.173 A 
ATOM     72  C   UNL A   1      39.187  30.302  32.244  1.00  0.00     0.173 A 
ATOM     73  F   UNL A   1      38.167  31.342  28.917  1.00  0.00    -0.203 F 
ATOM     74  C   UNL A   1      37.019  31.476  30.971  1.00  0.00     0.198 A 
ATOM     75  C   UNL A   1      38.057  30.657  32.975  1.00  0.00     0.198 A 
ATOM     76  F   UNL A   1      40.225  29.741  32.885  1.00  0.00    -0.203 F 
ATOM     77  F   UNL A   1      35.986  32.068  30.357  1.00  0.00    -0.200 F 
ATOM     78  C   UNL A   1      36.976  31.248  32.338  1.00  0.00     0.200 A 
ATOM     79  F   UNL A   1      38.015  30.428  34.294  1.00  0.00    -0.200 F 
ATOM     80  F   UNL A   1      35.894  31.602  33.044  1.00  0.00    -0.200 F 
ENDBRANCH  46  70
BRANCH  58  81
ATOM     81  C   UNL A   1      44.978  33.922  28.846  1.00  0.00     0.064 A 
ATOM     82  C   UNL A   1      44.635  34.924  27.927  1.00  0.00     0.173 A 
ATOM     83  C   UNL A   1      45.728  34.290  29.972  1.00  0.00     0.173 A 
ATOM     84  F   UNL A   1      43.931  34.617  26.827  1.00  0.00    -0.203 F 
ATOM     85  C   UNL A   1      45.040  36.241  28.122  1.00  0.00     0.198 A 
ATOM     86  C   UNL A   1      46.113  35.612  30.176  1.00  0.00     0.198 A 
ATOM     87  F   UNL A   1      46.078  33.368  30.883  1.00  0.00    -0.203 F 
ATOM     88  F   UNL A   1      44.730  37.177  27.215  1.00  0.00    -0.200 F 
ATOM     89  C   UNL A   1      45.772  36.586  29.249  1.00  0.00     0.200 A 
ATOM     90  F   UNL A   1      46.814  35.944  31.268  1.00  0.00    -0.200 F 
ATOM     91  F   UNL A   1      46.157  37.856  29.438  1.00  0.00    -0.200 F 
ENDBRANCH  58  81
ENDBRANCH  32  33
ENDBRANCH  25  27
ENDBRANCH  24  25
ENDBRANCH  23  24
ENDBRANCH  22  23
ENDBRANCH  21  22
ENDBRANCH   1  21
TORSDOF 18
ENDMDL
