MODEL 1
REMARK VINA RESULT:     -12.6      0.000      0.000
REMARK SMILES Cc1ccc(C(=O)OCCOCCOC(=O)c2ccc(-c3c4nc(c(-c5c(F)c(F)c(F)c(F)c5F)c5ccc([nH]5)c(-c5c(F)c(F)c(F)c(F)c5F)c5nc(c(-c6c(F)c(F)c(F)c(F)c6F)c6ccc3[nH]6)C=C5)C=C4)cc2)cc1N1C(=O)/C(=C/c2ccc([N+](=O)[O-])cc2)SC1=S
REMARK SMILES IDX 10 1 9 2 8 3 6 4 7 5 5 6 1 7 2 8 3 9 81 10 4 11 80 12 82 13
REMARK SMILES IDX 83 14 97 15 84 16 85 17 96 18 98 19 86 20 87 21 88 22 95 23
REMARK SMILES IDX 89 24 94 25 90 26 91 27 92 28 93 29 11 30 12 31 13 32 14 33
REMARK SMILES IDX 15 34 16 35 17 36 18 37 79 38 19 39 78 40 20 41 21 42 22 43
REMARK SMILES IDX 72 44 23 45 77 46 71 47 73 48 24 49 76 50 70 51 69 52 25 54
REMARK SMILES IDX 57 55 37 56 56 57 38 58 41 59 55 60 74 61 39 62 40 63 54 65
REMARK SMILES IDX 75 66 42 67 26 68 27 69 35 70 28 71 29 72 33 73 36 74 30 75
REMARK SMILES IDX 31 76 34 77 32 78 58 79 59 80 67 81 60 82 61 83 65 84 68 85
REMARK SMILES IDX 62 86 63 87 66 88 64 89 43 90 44 91 52 92 45 93 46 94 50 95
REMARK SMILES IDX 53 96 47 97 48 98 51 99 49 100
REMARK H PARENT 73 53 41 64
REMARK Flexibility Score: inf
ROOT
ATOM      1  C   UNL A   1      37.664  20.164  24.664  1.00  0.00     0.202 C 
ENDROOT
BRANCH   1   2
ATOM      2  C   UNL A   1      37.372  21.569  24.257  1.00  0.00     0.261 C 
BRANCH   2   3
ATOM      3  O   UNL A   1      36.047  21.976  24.637  1.00  0.00    -0.460 OA
BRANCH   3   4
ATOM      4  C   UNL A   1      35.369  22.946  23.951  1.00  0.00     0.338 C 
ATOM      5  O   UNL A   1      35.732  23.612  23.015  1.00  0.00    -0.246 OA
BRANCH   4   6
ATOM      6  C   UNL A   1      33.984  22.907  24.471  1.00  0.00     0.062 A 
ATOM      7  C   UNL A   1      30.470  23.517  26.865  1.00  0.00     0.046 C 
ATOM      8  C   UNL A   1      31.674  23.318  25.992  1.00  0.00    -0.027 A 
ATOM      9  C   UNL A   1      32.462  22.167  26.182  1.00  0.00     0.006 A 
ATOM     10  C   UNL A   1      32.044  24.227  24.989  1.00  0.00     0.054 A 
ATOM     11  C   UNL A   1      33.638  21.979  25.451  1.00  0.00     0.016 A 
ATOM     12  C   UNL A   1      33.126  23.959  24.164  1.00  0.00     0.042 A 
BRANCH  10  13
ATOM     13  N   UNL A   1      31.464  25.505  24.860  1.00  0.00    -0.261 N 
ATOM     14  C   UNL A   1      30.341  25.652  24.072  1.00  0.00     0.270 C 
ATOM     15  C   UNL A   1      32.088  26.678  25.267  1.00  0.00     0.152 C 
ATOM     16  O   UNL A   1      29.640  24.775  23.586  1.00  0.00    -0.268 OA
ATOM     17  C   UNL A   1      30.121  27.099  23.835  1.00  0.00     0.081 C 
ATOM     18  S   UNL A   1      30.999  28.033  24.971  1.00  0.00    -0.054 SA
ATOM     19  S   UNL A   1      33.611  26.918  25.910  1.00  0.00    -0.051 S 
ATOM     20  C   UNL A   1      29.438  27.534  22.776  1.00  0.00     0.029 C 
BRANCH  20  21
ATOM     21  C   UNL A   1      29.001  28.911  22.587  1.00  0.00    -0.024 A 
ATOM     22  C   UNL A   1      27.907  29.479  23.245  1.00  0.00     0.015 A 
ATOM     23  C   UNL A   1      29.805  29.691  21.745  1.00  0.00     0.015 A 
ATOM     24  C   UNL A   1      27.670  30.854  23.123  1.00  0.00     0.086 A 
ATOM     25  C   UNL A   1      29.579  31.055  21.623  1.00  0.00     0.086 A 
ATOM     26  C   UNL A   1      28.530  31.639  22.338  1.00  0.00     0.269 A 
BRANCH  26  27
ATOM     27  N   UNL A   1      28.371  33.096  22.303  1.00  0.00     0.062 N 
ATOM     28  O   UNL A   1      27.674  33.579  21.400  1.00  0.00    -0.258 OA
ATOM     29  O   UNL A   1      28.928  33.756  23.192  1.00  0.00    -0.258 OA
ENDBRANCH  26  27
ENDBRANCH  20  21
ENDBRANCH  10  13
ENDBRANCH   4   6
ENDBRANCH   3   4
ENDBRANCH   2   3
ENDBRANCH   1   2
BRANCH   1  30
ATOM     30  O   UNL A   1      38.667  20.266  25.659  1.00  0.00    -0.374 OA
BRANCH  30  31
ATOM     31  C   UNL A   1      39.223  21.554  25.819  1.00  0.00     0.202 C 
BRANCH  31  32
ATOM     32  C   UNL A   1      40.129  21.655  27.053  1.00  0.00     0.261 C 
BRANCH  32  33
ATOM     33  O   UNL A   1      40.033  22.983  27.619  1.00  0.00    -0.460 OA
BRANCH  33  34
ATOM     34  C   UNL A   1      40.900  23.916  27.134  1.00  0.00     0.338 C 
ATOM     35  O   UNL A   1      42.048  23.700  26.782  1.00  0.00    -0.246 OA
BRANCH  34  36
ATOM     36  C   UNL A   1      40.348  25.287  27.362  1.00  0.00     0.060 A 
ATOM     37  C   UNL A   1      40.558  26.311  26.416  1.00  0.00     0.016 A 
ATOM     38  C   UNL A   1      39.941  25.615  28.650  1.00  0.00     0.016 A 
ATOM     39  C   UNL A   1      40.525  27.660  26.812  1.00  0.00     0.010 A 
ATOM     40  C   UNL A   1      40.047  26.925  29.058  1.00  0.00     0.010 A 
ATOM     41  C   UNL A   1      40.371  27.960  28.160  1.00  0.00    -0.014 A 
BRANCH  41  42
ATOM     42  C   UNL A   1      40.612  29.257  28.810  1.00  0.00     0.031 A 
ATOM     43  C   UNL A   1      39.485  30.223  28.833  1.00  0.00     0.074 A 
ATOM     44  C   UNL A   1      41.654  29.425  29.668  1.00  0.00     0.049 A 
ATOM     45  N   UNL A   1      39.559  31.411  29.318  1.00  0.00    -0.248 NA
ATOM     46  C   UNL A   1      38.163  29.942  28.274  1.00  0.00     0.031 C 
ATOM     47  C   UNL A   1      41.718  30.293  30.849  1.00  0.00     0.029 A 
ATOM     48  N   UNL A   1      42.902  28.784  29.716  1.00  0.00    -0.354 N 
ATOM     49  C   UNL A   1      38.273  31.865  29.509  1.00  0.00     0.074 A 
ATOM     50  C   UNL A   1      37.463  30.997  28.698  1.00  0.00     0.031 C 
ATOM     51  C   UNL A   1      42.985  30.366  31.298  1.00  0.00     0.029 A 
ATOM     52  C   UNL A   1      43.812  29.652  30.344  1.00  0.00     0.049 A 
ATOM     53  H   UNL A   1      43.105  27.884  29.372  1.00  0.00     0.167 HD
ATOM     54  C   UNL A   1      38.072  32.821  30.463  1.00  0.00     0.037 A 
ATOM     55  C   UNL A   1      44.916  30.094  29.686  1.00  0.00     0.037 A 
ATOM     56  C   UNL A   1      39.373  33.293  30.977  1.00  0.00     0.049 A 
ATOM     57  C   UNL A   1      44.773  31.577  29.536  1.00  0.00     0.074 A 
ATOM     58  C   UNL A   1      40.038  33.124  32.180  1.00  0.00     0.029 A 
ATOM     59  N   UNL A   1      40.323  33.782  30.077  1.00  0.00    -0.354 N 
ATOM     60  N   UNL A   1      43.604  32.158  29.533  1.00  0.00    -0.248 NA
ATOM     61  C   UNL A   1      45.878  32.526  29.535  1.00  0.00     0.031 C 
ATOM     62  C   UNL A   1      41.413  33.442  31.968  1.00  0.00     0.029 A 
ATOM     63  C   UNL A   1      41.582  33.824  30.645  1.00  0.00     0.049 A 
ATOM     64  H   UNL A   1      40.121  34.062  29.154  1.00  0.00     0.167 HD
ATOM     65  C   UNL A   1      43.771  33.495  29.681  1.00  0.00     0.074 A 
ATOM     66  C   UNL A   1      45.210  33.693  29.603  1.00  0.00     0.031 C 
ATOM     67  C   UNL A   1      42.728  34.341  29.901  1.00  0.00     0.037 A 
BRANCH  54  68
ATOM     68  C   UNL A   1      36.740  33.181  31.119  1.00  0.00     0.064 A 
ATOM     69  C   UNL A   1      35.757  33.882  30.380  1.00  0.00     0.173 A 
ATOM     70  C   UNL A   1      36.374  32.946  32.463  1.00  0.00     0.173 A 
ATOM     71  F   UNL A   1      35.921  34.150  29.078  1.00  0.00    -0.203 F 
ATOM     72  C   UNL A   1      34.559  34.342  30.945  1.00  0.00     0.198 A 
ATOM     73  C   UNL A   1      35.170  33.392  33.023  1.00  0.00     0.198 A 
ATOM     74  F   UNL A   1      37.148  32.276  33.314  1.00  0.00    -0.203 F 
ATOM     75  F   UNL A   1      33.691  35.031  30.191  1.00  0.00    -0.200 F 
ATOM     76  C   UNL A   1      34.266  34.101  32.269  1.00  0.00     0.200 A 
ATOM     77  F   UNL A   1      34.905  33.130  34.312  1.00  0.00    -0.200 F 
ATOM     78  F   UNL A   1      33.123  34.540  32.811  1.00  0.00    -0.200 F 
ENDBRANCH  54  68
BRANCH  55  79
ATOM     79  C   UNL A   1      45.410  29.065  28.720  1.00  0.00     0.064 A 
ATOM     80  C   UNL A   1      45.397  29.441  27.355  1.00  0.00     0.173 A 
ATOM     81  C   UNL A   1      46.339  28.088  29.103  1.00  0.00     0.173 A 
ATOM     82  F   UNL A   1      44.542  30.387  26.929  1.00  0.00    -0.203 F 
ATOM     83  C   UNL A   1      46.379  28.999  26.468  1.00  0.00     0.198 A 
ATOM     84  C   UNL A   1      47.315  27.641  28.203  1.00  0.00     0.198 A 
ATOM     85  F   UNL A   1      46.411  27.688  30.379  1.00  0.00    -0.203 F 
ATOM     86  F   UNL A   1      46.447  29.519  25.233  1.00  0.00    -0.200 F 
ATOM     87  C   UNL A   1      47.367  28.137  26.907  1.00  0.00     0.200 A 
ATOM     88  F   UNL A   1      48.284  26.815  28.625  1.00  0.00    -0.200 F 
ATOM     89  F   UNL A   1      48.402  27.839  26.108  1.00  0.00    -0.200 F 
ENDBRANCH  55  79
BRANCH  67  90
ATOM     90  C   UNL A   1      42.757  35.778  29.484  1.00  0.00     0.064 A 
ATOM     91  C   UNL A   1      43.470  36.757  30.197  1.00  0.00     0.173 A 
ATOM     92  C   UNL A   1      42.238  36.177  28.233  1.00  0.00     0.173 A 
ATOM     93  F   UNL A   1      44.127  36.466  31.329  1.00  0.00    -0.203 F 
ATOM     94  C   UNL A   1      43.585  38.064  29.732  1.00  0.00     0.198 A 
ATOM     95  C   UNL A   1      42.420  37.462  27.738  1.00  0.00     0.198 A 
ATOM     96  F   UNL A   1      41.577  35.324  27.437  1.00  0.00    -0.203 F 
ATOM     97  F   UNL A   1      44.225  38.975  30.476  1.00  0.00    -0.200 F 
ATOM     98  C   UNL A   1      43.073  38.412  28.498  1.00  0.00     0.200 A 
ATOM     99  F   UNL A   1      41.984  37.767  26.509  1.00  0.00    -0.200 F 
ATOM    100  F   UNL A   1      43.227  39.657  28.031  1.00  0.00    -0.200 F 
ENDBRANCH  67  90
ENDBRANCH  41  42
ENDBRANCH  34  36
ENDBRANCH  33  34
ENDBRANCH  32  33
ENDBRANCH  31  32
ENDBRANCH  30  31
ENDBRANCH   1  30
TORSDOF 17
ENDMDL
MODEL 2
REMARK VINA RESULT:     -12.5      4.301      8.400
REMARK SMILES Cc1ccc(C(=O)OCCOCCOC(=O)c2ccc(-c3c4nc(c(-c5c(F)c(F)c(F)c(F)c5F)c5ccc([nH]5)c(-c5c(F)c(F)c(F)c(F)c5F)c5nc(c(-c6c(F)c(F)c(F)c(F)c6F)c6ccc3[nH]6)C=C5)C=C4)cc2)cc1N1C(=O)/C(=C/c2ccc([N+](=O)[O-])cc2)SC1=S
REMARK SMILES IDX 10 1 9 2 8 3 6 4 7 5 5 6 1 7 2 8 3 9 81 10 4 11 80 12 82 13
REMARK SMILES IDX 83 14 97 15 84 16 85 17 96 18 98 19 86 20 87 21 88 22 95 23
REMARK SMILES IDX 89 24 94 25 90 26 91 27 92 28 93 29 11 30 12 31 13 32 14 33
REMARK SMILES IDX 15 34 16 35 17 36 18 37 79 38 19 39 78 40 20 41 21 42 22 43
REMARK SMILES IDX 72 44 23 45 77 46 71 47 73 48 24 49 76 50 70 51 69 52 25 54
REMARK SMILES IDX 57 55 37 56 56 57 38 58 41 59 55 60 74 61 39 62 40 63 54 65
REMARK SMILES IDX 75 66 42 67 26 68 27 69 35 70 28 71 29 72 33 73 36 74 30 75
REMARK SMILES IDX 31 76 34 77 32 78 58 79 59 80 67 81 60 82 61 83 65 84 68 85
REMARK SMILES IDX 62 86 63 87 66 88 64 89 43 90 44 91 52 92 45 93 46 94 50 95
REMARK SMILES IDX 53 96 47 97 48 98 51 99 49 100
REMARK H PARENT 73 53 41 64
REMARK Flexibility Score: inf
ROOT
ATOM      1  C   UNL A   1      41.060  21.943  26.121  1.00  0.00     0.202 C 
ENDROOT
BRANCH   1   2
ATOM      2  C   UNL A   1      39.713  21.551  26.627  1.00  0.00     0.261 C 
BRANCH   2   3
ATOM      3  O   UNL A   1      38.691  21.722  25.632  1.00  0.00    -0.460 OA
BRANCH   3   4
ATOM      4  C   UNL A   1      37.731  22.689  25.745  1.00  0.00     0.338 C 
ATOM      5  O   UNL A   1      37.826  23.810  26.176  1.00  0.00    -0.246 OA
BRANCH   4   6
ATOM      6  C   UNL A   1      36.540  22.153  25.049  1.00  0.00     0.062 A 
ATOM      7  C   UNL A   1      32.623  20.615  24.188  1.00  0.00     0.046 C 
ATOM      8  C   UNL A   1      33.985  21.184  24.456  1.00  0.00    -0.027 A 
ATOM      9  C   UNL A   1      35.057  20.296  24.670  1.00  0.00     0.006 A 
ATOM     10  C   UNL A   1      34.239  22.564  24.495  1.00  0.00     0.054 A 
ATOM     11  C   UNL A   1      36.325  20.777  25.005  1.00  0.00     0.016 A 
ATOM     12  C   UNL A   1      35.531  23.035  24.678  1.00  0.00     0.042 A 
BRANCH  10  13
ATOM     13  N   UNL A   1      33.214  23.532  24.515  1.00  0.00    -0.261 N 
ATOM     14  C   UNL A   1      33.139  24.445  23.484  1.00  0.00     0.270 C 
ATOM     15  C   UNL A   1      32.422  23.793  25.627  1.00  0.00     0.152 C 
ATOM     16  O   UNL A   1      33.747  24.437  22.422  1.00  0.00    -0.268 OA
ATOM     17  C   UNL A   1      32.213  25.531  23.886  1.00  0.00     0.081 C 
ATOM     18  S   UNL A   1      31.242  25.032  25.206  1.00  0.00    -0.054 SA
ATOM     19  S   UNL A   1      32.487  23.147  27.167  1.00  0.00    -0.051 S 
ATOM     20  C   UNL A   1      32.287  26.746  23.342  1.00  0.00     0.029 C 
BRANCH  20  21
ATOM     21  C   UNL A   1      31.291  27.793  23.526  1.00  0.00    -0.024 A 
ATOM     22  C   UNL A   1      31.490  28.926  24.320  1.00  0.00     0.015 A 
ATOM     23  C   UNL A   1      30.114  27.647  22.781  1.00  0.00     0.015 A 
ATOM     24  C   UNL A   1      30.540  29.954  24.299  1.00  0.00     0.086 A 
ATOM     25  C   UNL A   1      29.170  28.664  22.751  1.00  0.00     0.086 A 
ATOM     26  C   UNL A   1      29.400  29.829  23.487  1.00  0.00     0.269 A 
BRANCH  26  27
ATOM     27  N   UNL A   1      28.462  30.949  23.357  1.00  0.00     0.062 N 
ATOM     28  O   UNL A   1      28.911  32.096  23.481  1.00  0.00    -0.258 OA
ATOM     29  O   UNL A   1      27.278  30.679  23.108  1.00  0.00    -0.258 OA
ENDBRANCH  26  27
ENDBRANCH  20  21
ENDBRANCH  10  13
ENDBRANCH   4   6
ENDBRANCH   3   4
ENDBRANCH   2   3
ENDBRANCH   1   2
BRANCH   1  30
ATOM     30  O   UNL A   1      41.107  23.354  26.243  1.00  0.00    -0.374 OA
BRANCH  30  31
ATOM     31  C   UNL A   1      41.435  23.833  27.530  1.00  0.00     0.202 C 
BRANCH  31  32
ATOM     32  C   UNL A   1      40.550  25.010  27.963  1.00  0.00     0.261 C 
BRANCH  32  33
ATOM     33  O   UNL A   1      40.978  26.215  27.285  1.00  0.00    -0.460 OA
BRANCH  33  34
ATOM     34  C   UNL A   1      40.368  27.374  27.662  1.00  0.00     0.338 C 
ATOM     35  O   UNL A   1      40.021  28.269  26.908  1.00  0.00    -0.246 OA
BRANCH  34  36
ATOM     36  C   UNL A   1      40.445  27.526  29.147  1.00  0.00     0.060 A 
ATOM     37  C   UNL A   1      39.291  27.375  29.944  1.00  0.00     0.016 A 
ATOM     38  C   UNL A   1      41.569  28.148  29.677  1.00  0.00     0.016 A 
ATOM     39  C   UNL A   1      39.212  27.998  31.202  1.00  0.00     0.010 A 
ATOM     40  C   UNL A   1      41.432  28.867  30.843  1.00  0.00     0.010 A 
ATOM     41  C   UNL A   1      40.249  28.832  31.605  1.00  0.00    -0.014 A 
BRANCH  41  42
ATOM     42  C   UNL A   1      40.227  29.796  32.714  1.00  0.00     0.031 A 
ATOM     43  C   UNL A   1      41.000  29.446  33.932  1.00  0.00     0.074 A 
ATOM     44  C   UNL A   1      39.850  31.087  32.510  1.00  0.00     0.049 A 
ATOM     45  N   UNL A   1      41.034  30.162  35.000  1.00  0.00    -0.248 NA
ATOM     46  C   UNL A   1      41.789  28.222  34.069  1.00  0.00     0.031 C 
ATOM     47  C   UNL A   1      40.340  32.288  33.196  1.00  0.00     0.029 A 
ATOM     48  N   UNL A   1      38.970  31.638  31.564  1.00  0.00    -0.354 N 
ATOM     49  C   UNL A   1      42.110  29.742  35.749  1.00  0.00     0.074 A 
ATOM     50  C   UNL A   1      42.434  28.446  35.216  1.00  0.00     0.031 C 
ATOM     51  C   UNL A   1      39.564  33.344  32.886  1.00  0.00     0.029 A 
ATOM     52  C   UNL A   1      38.462  32.837  32.091  1.00  0.00     0.049 A 
ATOM     53  H   UNL A   1      38.749  31.251  30.686  1.00  0.00     0.167 HD
ATOM     54  C   UNL A   1      42.671  30.638  36.613  1.00  0.00     0.037 A 
ATOM     55  C   UNL A   1      37.128  32.994  32.299  1.00  0.00     0.037 A 
ATOM     56  C   UNL A   1      41.843  31.859  36.670  1.00  0.00     0.049 A 
ATOM     57  C   UNL A   1      36.930  33.148  33.775  1.00  0.00     0.074 A 
ATOM     58  C   UNL A   1      42.020  33.151  36.203  1.00  0.00     0.029 A 
ATOM     59  N   UNL A   1      40.487  31.748  36.991  1.00  0.00    -0.354 N 
ATOM     60  N   UNL A   1      37.782  32.662  34.637  1.00  0.00    -0.248 NA
ATOM     61  C   UNL A   1      35.893  33.960  34.397  1.00  0.00     0.031 C 
ATOM     62  C   UNL A   1      40.742  33.784  36.173  1.00  0.00     0.029 A 
ATOM     63  C   UNL A   1      39.790  32.889  36.641  1.00  0.00     0.049 A 
ATOM     64  H   UNL A   1      40.080  30.956  37.413  1.00  0.00     0.167 HD
ATOM     65  C   UNL A   1      37.525  33.189  35.860  1.00  0.00     0.074 A 
ATOM     66  C   UNL A   1      36.290  33.937  35.683  1.00  0.00     0.031 C 
ATOM     67  C   UNL A   1      38.362  33.015  36.920  1.00  0.00     0.037 A 
BRANCH  54  68
ATOM     68  C   UNL A   1      44.064  30.550  37.234  1.00  0.00     0.064 A 
ATOM     69  C   UNL A   1      44.264  30.949  38.577  1.00  0.00     0.173 A 
ATOM     70  C   UNL A   1      45.253  30.158  36.579  1.00  0.00     0.173 A 
ATOM     71  F   UNL A   1      43.238  31.309  39.359  1.00  0.00    -0.203 F 
ATOM     72  C   UNL A   1      45.529  31.001  39.180  1.00  0.00     0.198 A 
ATOM     73  C   UNL A   1      46.515  30.194  37.186  1.00  0.00     0.198 A 
ATOM     74  F   UNL A   1      45.273  29.720  35.322  1.00  0.00    -0.203 F 
ATOM     75  F   UNL A   1      45.645  31.425  40.446  1.00  0.00    -0.200 F 
ATOM     76  C   UNL A   1      46.657  30.627  38.483  1.00  0.00     0.200 A 
ATOM     77  F   UNL A   1      47.594  29.811  36.488  1.00  0.00    -0.200 F 
ATOM     78  F   UNL A   1      47.866  30.675  39.055  1.00  0.00    -0.200 F 
ENDBRANCH  54  68
BRANCH  55  79
ATOM     79  C   UNL A   1      36.336  32.226  31.290  1.00  0.00     0.064 A 
ATOM     80  C   UNL A   1      36.145  32.861  30.039  1.00  0.00     0.173 A 
ATOM     81  C   UNL A   1      36.294  30.824  31.306  1.00  0.00     0.173 A 
ATOM     82  F   UNL A   1      36.193  34.201  29.955  1.00  0.00    -0.203 F 
ATOM     83  C   UNL A   1      36.099  32.132  28.850  1.00  0.00     0.198 A 
ATOM     84  C   UNL A   1      36.236  30.099  30.108  1.00  0.00     0.198 A 
ATOM     85  F   UNL A   1      36.473  30.156  32.453  1.00  0.00    -0.203 F 
ATOM     86  F   UNL A   1      36.104  32.773  27.672  1.00  0.00    -0.200 F 
ATOM     87  C   UNL A   1      36.194  30.752  28.884  1.00  0.00     0.200 A 
ATOM     88  F   UNL A   1      36.342  28.762  30.131  1.00  0.00    -0.200 F 
ATOM     89  F   UNL A   1      36.314  30.060  27.742  1.00  0.00    -0.200 F 
ENDBRANCH  55  79
BRANCH  67  90
ATOM     90  C   UNL A   1      37.880  33.032  38.336  1.00  0.00     0.064 A 
ATOM     91  C   UNL A   1      37.265  31.921  38.939  1.00  0.00     0.173 A 
ATOM     92  C   UNL A   1      38.210  34.101  39.198  1.00  0.00     0.173 A 
ATOM     93  F   UNL A   1      37.027  30.791  38.256  1.00  0.00    -0.203 F 
ATOM     94  C   UNL A   1      36.929  31.912  40.289  1.00  0.00     0.198 A 
ATOM     95  C   UNL A   1      37.941  34.056  40.560  1.00  0.00     0.198 A 
ATOM     96  F   UNL A   1      38.839  35.199  38.754  1.00  0.00    -0.203 F 
ATOM     97  F   UNL A   1      36.292  30.852  40.803  1.00  0.00    -0.200 F 
ATOM     98  C   UNL A   1      37.279  32.973  41.101  1.00  0.00     0.200 A 
ATOM     99  F   UNL A   1      38.352  35.057  41.349  1.00  0.00    -0.200 F 
ATOM    100  F   UNL A   1      36.999  32.940  42.409  1.00  0.00    -0.200 F 
ENDBRANCH  67  90
ENDBRANCH  41  42
ENDBRANCH  34  36
ENDBRANCH  33  34
ENDBRANCH  32  33
ENDBRANCH  31  32
ENDBRANCH  30  31
ENDBRANCH   1  30
TORSDOF 17
ENDMDL
MODEL 3
REMARK VINA RESULT:     -12.3      1.683      2.493
REMARK SMILES Cc1ccc(C(=O)OCCOCCOC(=O)c2ccc(-c3c4nc(c(-c5c(F)c(F)c(F)c(F)c5F)c5ccc([nH]5)c(-c5c(F)c(F)c(F)c(F)c5F)c5nc(c(-c6c(F)c(F)c(F)c(F)c6F)c6ccc3[nH]6)C=C5)C=C4)cc2)cc1N1C(=O)/C(=C/c2ccc([N+](=O)[O-])cc2)SC1=S
REMARK SMILES IDX 10 1 9 2 8 3 6 4 7 5 5 6 1 7 2 8 3 9 81 10 4 11 80 12 82 13
REMARK SMILES IDX 83 14 97 15 84 16 85 17 96 18 98 19 86 20 87 21 88 22 95 23
REMARK SMILES IDX 89 24 94 25 90 26 91 27 92 28 93 29 11 30 12 31 13 32 14 33
REMARK SMILES IDX 15 34 16 35 17 36 18 37 79 38 19 39 78 40 20 41 21 42 22 43
REMARK SMILES IDX 72 44 23 45 77 46 71 47 73 48 24 49 76 50 70 51 69 52 25 54
REMARK SMILES IDX 57 55 37 56 56 57 38 58 41 59 55 60 74 61 39 62 40 63 54 65
REMARK SMILES IDX 75 66 42 67 26 68 27 69 35 70 28 71 29 72 33 73 36 74 30 75
REMARK SMILES IDX 31 76 34 77 32 78 58 79 59 80 67 81 60 82 61 83 65 84 68 85
REMARK SMILES IDX 62 86 63 87 66 88 64 89 43 90 44 91 52 92 45 93 46 94 50 95
REMARK SMILES IDX 53 96 47 97 48 98 51 99 49 100
REMARK H PARENT 73 53 41 64
REMARK Flexibility Score: inf
ROOT
ATOM      1  C   UNL A   1      40.630  20.655  26.358  1.00  0.00     0.202 C 
ENDROOT
BRANCH   1   2
ATOM      2  C   UNL A   1      39.795  21.880  26.520  1.00  0.00     0.261 C 
BRANCH   2   3
ATOM      3  O   UNL A   1      38.605  21.833  25.716  1.00  0.00    -0.460 OA
BRANCH   3   4
ATOM      4  C   UNL A   1      37.657  22.817  25.776  1.00  0.00     0.338 C 
ATOM      5  O   UNL A   1      37.761  23.952  26.168  1.00  0.00    -0.246 OA
BRANCH   4   6
ATOM      6  C   UNL A   1      36.472  22.273  25.076  1.00  0.00     0.062 A 
ATOM      7  C   UNL A   1      32.561  20.726  24.204  1.00  0.00     0.046 C 
ATOM      8  C   UNL A   1      33.921  21.298  24.476  1.00  0.00    -0.027 A 
ATOM      9  C   UNL A   1      34.991  20.412  24.708  1.00  0.00     0.006 A 
ATOM     10  C   UNL A   1      34.175  22.678  24.500  1.00  0.00     0.054 A 
ATOM     11  C   UNL A   1      36.256  20.897  25.048  1.00  0.00     0.016 A 
ATOM     12  C   UNL A   1      35.465  23.151  24.687  1.00  0.00     0.042 A 
BRANCH  10  13
ATOM     13  N   UNL A   1      33.150  23.646  24.500  1.00  0.00    -0.261 N 
ATOM     14  C   UNL A   1      33.097  24.562  23.469  1.00  0.00     0.270 C 
ATOM     15  C   UNL A   1      32.335  23.905  25.596  1.00  0.00     0.152 C 
ATOM     16  O   UNL A   1      33.727  24.555  22.420  1.00  0.00    -0.268 OA
ATOM     17  C   UNL A   1      32.163  25.646  23.854  1.00  0.00     0.081 C 
ATOM     18  S   UNL A   1      31.165  25.146  25.153  1.00  0.00    -0.054 SA
ATOM     19  S   UNL A   1      32.367  23.257  27.135  1.00  0.00    -0.051 S 
ATOM     20  C   UNL A   1      32.249  26.863  23.314  1.00  0.00     0.029 C 
BRANCH  20  21
ATOM     21  C   UNL A   1      31.250  27.910  23.479  1.00  0.00    -0.024 A 
ATOM     22  C   UNL A   1      31.405  29.007  24.332  1.00  0.00     0.015 A 
ATOM     23  C   UNL A   1      30.122  27.806  22.657  1.00  0.00     0.015 A 
ATOM     24  C   UNL A   1      30.464  30.044  24.294  1.00  0.00     0.086 A 
ATOM     25  C   UNL A   1      29.187  28.831  22.611  1.00  0.00     0.086 A 
ATOM     26  C   UNL A   1      29.378  29.963  23.408  1.00  0.00     0.269 A 
BRANCH  26  27
ATOM     27  N   UNL A   1      28.456  31.095  23.266  1.00  0.00     0.062 N 
ATOM     28  O   UNL A   1      27.254  30.890  23.480  1.00  0.00    -0.258 OA
ATOM     29  O   UNL A   1      28.941  32.194  22.962  1.00  0.00    -0.258 OA
ENDBRANCH  26  27
ENDBRANCH  20  21
ENDBRANCH  10  13
ENDBRANCH   4   6
ENDBRANCH   3   4
ENDBRANCH   2   3
ENDBRANCH   1   2
BRANCH   1  30
ATOM     30  O   UNL A   1      41.885  21.119  25.894  1.00  0.00    -0.374 OA
BRANCH  30  31
ATOM     31  C   UNL A   1      41.968  22.514  25.686  1.00  0.00     0.202 C 
BRANCH  31  32
ATOM     32  C   UNL A   1      43.181  23.141  26.385  1.00  0.00     0.261 C 
BRANCH  32  33
ATOM     33  O   UNL A   1      42.842  24.470  26.847  1.00  0.00    -0.460 OA
BRANCH  33  34
ATOM     34  C   UNL A   1      42.197  24.552  28.045  1.00  0.00     0.338 C 
ATOM     35  O   UNL A   1      41.938  23.609  28.775  1.00  0.00    -0.246 OA
BRANCH  34  36
ATOM     36  C   UNL A   1      41.597  25.912  28.205  1.00  0.00     0.060 A 
ATOM     37  C   UNL A   1      41.694  26.864  27.169  1.00  0.00     0.016 A 
ATOM     38  C   UNL A   1      41.261  26.325  29.488  1.00  0.00     0.016 A 
ATOM     39  C   UNL A   1      41.624  28.238  27.460  1.00  0.00     0.010 A 
ATOM     40  C   UNL A   1      41.332  27.668  29.784  1.00  0.00     0.010 A 
ATOM     41  C   UNL A   1      41.546  28.639  28.789  1.00  0.00    -0.014 A 
BRANCH  41  42
ATOM     42  C   UNL A   1      41.767  29.994  29.317  1.00  0.00     0.031 A 
ATOM     43  C   UNL A   1      40.564  30.801  29.639  1.00  0.00     0.074 A 
ATOM     44  C   UNL A   1      42.971  30.350  29.839  1.00  0.00     0.049 A 
ATOM     45  N   UNL A   1      40.597  32.016  30.058  1.00  0.00    -0.248 NA
ATOM     46  C   UNL A   1      39.193  30.313  29.483  1.00  0.00     0.031 C 
ATOM     47  C   UNL A   1      43.234  31.289  30.936  1.00  0.00     0.029 A 
ATOM     48  N   UNL A   1      44.263  29.885  29.545  1.00  0.00    -0.354 N 
ATOM     49  C   UNL A   1      39.363  32.305  30.597  1.00  0.00     0.074 A 
ATOM     50  C   UNL A   1      38.494  31.289  30.067  1.00  0.00     0.031 C 
ATOM     51  C   UNL A   1      44.552  31.557  31.006  1.00  0.00     0.029 A 
ATOM     52  C   UNL A   1      45.175  30.903  29.871  1.00  0.00     0.049 A 
ATOM     53  H   UNL A   1      44.489  29.001  29.176  1.00  0.00     0.167 HD
ATOM     54  C   UNL A   1      39.299  33.281  31.549  1.00  0.00     0.037 A 
ATOM     55  C   UNL A   1      45.977  31.448  28.919  1.00  0.00     0.037 A 
ATOM     56  C   UNL A   1      40.609  33.952  31.663  1.00  0.00     0.049 A 
ATOM     57  C   UNL A   1      45.585  32.887  28.785  1.00  0.00     0.074 A 
ATOM     58  C   UNL A   1      41.599  33.946  32.631  1.00  0.00     0.029 A 
ATOM     59  N   UNL A   1      41.190  34.509  30.520  1.00  0.00    -0.354 N 
ATOM     60  N   UNL A   1      44.389  33.305  29.101  1.00  0.00    -0.248 NA
ATOM     61  C   UNL A   1      46.497  33.972  28.451  1.00  0.00     0.031 C 
ATOM     62  C   UNL A   1      42.800  34.431  32.032  1.00  0.00     0.029 A 
ATOM     63  C   UNL A   1      42.538  34.752  30.707  1.00  0.00     0.049 A 
ATOM     64  H   UNL A   1      40.701  34.703  29.687  1.00  0.00     0.167 HD
ATOM     65  C   UNL A   1      44.396  34.659  29.168  1.00  0.00     0.074 A 
ATOM     66  C   UNL A   1      45.713  35.042  28.682  1.00  0.00     0.031 C 
ATOM     67  C   UNL A   1      43.344  35.371  29.658  1.00  0.00     0.037 A 
BRANCH  54  68
ATOM     68  C   UNL A   1      38.164  33.500  32.548  1.00  0.00     0.064 A 
ATOM     69  C   UNL A   1      36.942  34.067  32.115  1.00  0.00     0.173 A 
ATOM     70  C   UNL A   1      38.209  33.253  33.938  1.00  0.00     0.173 A 
ATOM     71  F   UNL A   1      36.712  34.324  30.820  1.00  0.00    -0.203 F 
ATOM     72  C   UNL A   1      35.899  34.399  32.990  1.00  0.00     0.198 A 
ATOM     73  C   UNL A   1      37.161  33.570  34.812  1.00  0.00     0.198 A 
ATOM     74  F   UNL A   1      39.258  32.695  34.538  1.00  0.00    -0.203 F 
ATOM     75  F   UNL A   1      34.783  34.967  32.510  1.00  0.00    -0.200 F 
ATOM     76  C   UNL A   1      36.009  34.154  34.341  1.00  0.00     0.200 A 
ATOM     77  F   UNL A   1      37.290  33.307  36.121  1.00  0.00    -0.200 F 
ATOM     78  F   UNL A   1      35.014  34.470  35.181  1.00  0.00    -0.200 F 
ENDBRANCH  54  68
BRANCH  55  79
ATOM     79  C   UNL A   1      46.326  30.437  27.873  1.00  0.00     0.064 A 
ATOM     80  C   UNL A   1      47.356  29.526  28.211  1.00  0.00     0.173 A 
ATOM     81  C   UNL A   1      45.386  30.012  26.924  1.00  0.00     0.173 A 
ATOM     82  F   UNL A   1      48.277  29.868  29.129  1.00  0.00    -0.203 F 
ATOM     83  C   UNL A   1      47.337  28.205  27.764  1.00  0.00     0.198 A 
ATOM     84  C   UNL A   1      45.380  28.686  26.471  1.00  0.00     0.198 A 
ATOM     85  F   UNL A   1      44.381  30.819  26.560  1.00  0.00    -0.203 F 
ATOM     86  F   UNL A   1      48.221  27.321  28.251  1.00  0.00    -0.200 F 
ATOM     87  C   UNL A   1      46.319  27.773  26.932  1.00  0.00     0.200 A 
ATOM     88  F   UNL A   1      44.389  28.257  25.675  1.00  0.00    -0.200 F 
ATOM     89  F   UNL A   1      46.204  26.472  26.632  1.00  0.00    -0.200 F 
ENDBRANCH  55  79
BRANCH  67  90
ATOM     90  C   UNL A   1      43.048  36.771  29.221  1.00  0.00     0.064 A 
ATOM     91  C   UNL A   1      43.686  37.889  29.784  1.00  0.00     0.173 A 
ATOM     92  C   UNL A   1      42.264  37.018  28.073  1.00  0.00     0.173 A 
ATOM     93  F   UNL A   1      44.564  37.767  30.791  1.00  0.00    -0.203 F 
ATOM     94  C   UNL A   1      43.488  39.174  29.288  1.00  0.00     0.198 A 
ATOM     95  C   UNL A   1      42.130  38.292  27.534  1.00  0.00     0.198 A 
ATOM     96  F   UNL A   1      41.641  36.029  27.417  1.00  0.00    -0.203 F 
ATOM     97  F   UNL A   1      44.072  40.214  29.895  1.00  0.00    -0.200 F 
ATOM     98  C   UNL A   1      42.722  39.373  28.155  1.00  0.00     0.200 A 
ATOM     99  F   UNL A   1      41.447  38.460  26.395  1.00  0.00    -0.200 F 
ATOM    100  F   UNL A   1      42.573  40.603  27.650  1.00  0.00    -0.200 F 
ENDBRANCH  67  90
ENDBRANCH  41  42
ENDBRANCH  34  36
ENDBRANCH  33  34
ENDBRANCH  32  33
ENDBRANCH  31  32
ENDBRANCH  30  31
ENDBRANCH   1  30
TORSDOF 17
ENDMDL
