MODEL 1
REMARK VINA RESULT:     -11.1      0.000      0.000
REMARK SMILES C[C@](NC(=O)[C@](C)([NH3+])C(F)(F)F)(C(=O)OCCOCCOC(=O)c1ccc(-c2c3nc(c(-c4c(F)c(F)c(F)c(F)c4F)c4ccc([nH]4)c(-c4c(F)c(F)c(F)c(F)c4F)c4nc(c(-c5c(F)c(F)c(F)c(F)c5F)c5ccc2[nH]5)C=C4)C=C3)cc1)c1ccccc1
REMARK SMILES IDX 17 1 16 2 15 3 13 4 14 5 2 6 1 7 87 8 88 9 92 10 89 11 91 12
REMARK SMILES IDX 90 13 3 14 4 15 5 17 6 18 7 19 8 20 9 24 10 25 11 26 12 27
REMARK SMILES IDX 18 28 19 29 20 30 21 31 22 32 23 33 24 34 25 35 86 36 26 37
REMARK SMILES IDX 85 38 27 39 28 40 29 41 79 42 30 43 84 44 78 45 80 46 31 47
REMARK SMILES IDX 83 48 77 49 76 50 32 52 64 53 44 54 63 55 45 56 48 57 62 58
REMARK SMILES IDX 81 59 46 60 47 61 61 63 82 64 49 65 33 66 34 67 42 68 35 69
REMARK SMILES IDX 36 70 40 71 43 72 37 73 38 74 41 75 39 76 65 77 66 78 74 79
REMARK SMILES IDX 67 80 68 81 72 82 75 83 69 84 70 85 73 86 71 87 50 88 51 89
REMARK SMILES IDX 59 90 52 91 53 92 57 93 60 94 54 95 55 96 58 97 56 98
REMARK H PARENT 3 16 8 21 8 22 8 23 80 51 48 62
REMARK Flexibility Score: inf
ROOT
ATOM      1  C   UNL A   1      31.902  28.848  27.469  1.00  0.00     0.202 C 
ENDROOT
BRANCH   1   2
ATOM      2  C   UNL A   1      32.073  27.422  26.854  1.00  0.00     0.261 C 
BRANCH   2   3
ATOM      3  O   UNL A   1      30.819  26.706  26.618  1.00  0.00    -0.461 OA
BRANCH   3   4
ATOM      4  C   UNL A   1      30.879  25.526  25.913  1.00  0.00     0.336 C 
ATOM      5  O   UNL A   1      30.738  24.443  26.482  1.00  0.00    -0.249 OA
BRANCH   4   6
ATOM      6  C   UNL A   1      31.031  25.649  24.246  1.00  0.00     0.161 C 
ATOM      7  C   UNL A   1      30.286  24.394  23.695  1.00  0.00     0.053 C 
BRANCH   6   8
ATOM      8  C   UNL A   1      30.215  26.936  23.889  1.00  0.00    -0.012 A 
ATOM      9  C   UNL A   1      28.812  26.919  23.760  1.00  0.00     0.007 A 
ATOM     10  C   UNL A   1      30.875  28.129  23.540  1.00  0.00     0.007 A 
ATOM     11  C   UNL A   1      28.122  27.992  23.188  1.00  0.00     0.000 A 
ATOM     12  C   UNL A   1      30.183  29.208  22.985  1.00  0.00     0.000 A 
ATOM     13  C   UNL A   1      28.812  29.125  22.777  1.00  0.00     0.000 A 
ENDBRANCH   6   8
BRANCH   6  14
ATOM     14  N   UNL A   1      32.275  25.646  23.350  1.00  0.00    -0.331 N 
ATOM     15  C   UNL A   1      33.440  24.941  23.208  1.00  0.00     0.291 C 
ATOM     16  H   UNL A   1      32.220  26.363  22.678  1.00  0.00     0.165 HD
ATOM     17  O   UNL A   1      34.207  25.271  22.304  1.00  0.00    -0.267 OA
BRANCH  15  18
ATOM     18  C   UNL A   1      33.794  23.902  24.237  1.00  0.00     0.267 C 
ATOM     19  C   UNL A   1      34.378  22.808  23.312  1.00  0.00     0.100 C 
BRANCH  18  20
ATOM     20  N   UNL A   1      32.621  23.162  24.835  1.00  0.00    -0.337 N 
ATOM     21  H   UNL A   1      31.776  23.724  24.728  1.00  0.00     0.345 HD
ATOM     22  H   UNL A   1      32.795  22.993  25.825  1.00  0.00     0.345 HD
ATOM     23  H   UNL A   1      32.500  22.272  24.354  1.00  0.00     0.345 HD
ENDBRANCH  18  20
BRANCH  18  24
ATOM     24  C   UNL A   1      34.426  24.785  25.367  1.00  0.00     0.453 C 
ATOM     25  F   UNL A   1      35.760  24.617  25.480  1.00  0.00    -0.164 F 
ATOM     26  F   UNL A   1      34.211  26.115  25.272  1.00  0.00    -0.164 F 
ATOM     27  F   UNL A   1      33.919  24.442  26.584  1.00  0.00    -0.164 F 
ENDBRANCH  18  24
ENDBRANCH  15  18
ENDBRANCH   6  14
ENDBRANCH   4   6
ENDBRANCH   3   4
ENDBRANCH   2   3
ENDBRANCH   1   2
BRANCH   1  28
ATOM     28  O   UNL A   1      32.478  29.957  26.762  1.00  0.00    -0.374 OA
BRANCH  28  29
ATOM     29  C   UNL A   1      31.578  30.887  26.167  1.00  0.00     0.202 C 
BRANCH  29  30
ATOM     30  C   UNL A   1      31.542  32.307  26.790  1.00  0.00     0.261 C 
BRANCH  30  31
ATOM     31  O   UNL A   1      32.826  32.959  26.708  1.00  0.00    -0.460 OA
BRANCH  31  32
ATOM     32  C   UNL A   1      33.261  33.549  27.845  1.00  0.00     0.338 C 
ATOM     33  O   UNL A   1      32.687  34.397  28.518  1.00  0.00    -0.246 OA
BRANCH  32  34
ATOM     34  C   UNL A   1      34.522  32.906  28.249  1.00  0.00     0.060 A 
ATOM     35  C   UNL A   1      34.438  31.620  28.784  1.00  0.00     0.016 A 
ATOM     36  C   UNL A   1      35.751  33.571  28.186  1.00  0.00     0.016 A 
ATOM     37  C   UNL A   1      35.572  31.018  29.330  1.00  0.00     0.010 A 
ATOM     38  C   UNL A   1      36.894  32.952  28.715  1.00  0.00     0.010 A 
ATOM     39  C   UNL A   1      36.800  31.696  29.346  1.00  0.00    -0.014 A 
BRANCH  39  40
ATOM     40  C   UNL A   1      37.906  31.179  30.202  1.00  0.00     0.031 A 
ATOM     41  C   UNL A   1      38.883  30.195  29.604  1.00  0.00     0.074 A 
ATOM     42  C   UNL A   1      38.105  31.624  31.458  1.00  0.00     0.049 A 
ATOM     43  N   UNL A   1      39.888  29.568  30.166  1.00  0.00    -0.248 NA
ATOM     44  C   UNL A   1      38.710  29.884  28.176  1.00  0.00     0.031 C 
ATOM     45  C   UNL A   1      37.292  32.629  32.139  1.00  0.00     0.029 A 
ATOM     46  N   UNL A   1      39.061  31.281  32.388  1.00  0.00    -0.354 N 
ATOM     47  C   UNL A   1      40.444  28.773  29.169  1.00  0.00     0.074 A 
ATOM     48  C   UNL A   1      39.664  28.987  27.972  1.00  0.00     0.031 C 
ATOM     49  C   UNL A   1      37.772  32.808  33.383  1.00  0.00     0.029 A 
ATOM     50  C   UNL A   1      38.893  31.895  33.606  1.00  0.00     0.049 A 
ATOM     51  H   UNL A   1      39.796  30.654  32.197  1.00  0.00     0.167 HD
ATOM     52  C   UNL A   1      41.511  27.941  29.244  1.00  0.00     0.037 A 
ATOM     53  C   UNL A   1      39.537  31.710  34.777  1.00  0.00     0.037 A 
ATOM     54  C   UNL A   1      42.312  27.748  30.425  1.00  0.00     0.049 A 
ATOM     55  C   UNL A   1      40.667  30.707  34.856  1.00  0.00     0.074 A 
ATOM     56  C   UNL A   1      43.433  26.950  30.583  1.00  0.00     0.029 A 
ATOM     57  N   UNL A   1      42.074  28.349  31.651  1.00  0.00    -0.354 N 
ATOM     58  N   UNL A   1      41.195  29.972  33.907  1.00  0.00    -0.248 NA
ATOM     59  C   UNL A   1      41.287  30.504  36.175  1.00  0.00     0.031 C 
ATOM     60  C   UNL A   1      43.830  27.014  31.921  1.00  0.00     0.029 A 
ATOM     61  C   UNL A   1      43.000  27.905  32.581  1.00  0.00     0.049 A 
ATOM     62  H   UNL A   1      41.355  28.997  31.833  1.00  0.00     0.167 HD
ATOM     63  C   UNL A   1      42.214  29.241  34.507  1.00  0.00     0.074 A 
ATOM     64  C   UNL A   1      42.253  29.641  35.896  1.00  0.00     0.031 C 
ATOM     65  C   UNL A   1      43.038  28.315  33.960  1.00  0.00     0.037 A 
BRANCH  52  66
ATOM     66  C   UNL A   1      41.868  27.134  28.029  1.00  0.00     0.064 A 
ATOM     67  C   UNL A   1      41.292  25.882  27.770  1.00  0.00     0.173 A 
ATOM     68  C   UNL A   1      42.740  27.667  27.066  1.00  0.00     0.173 A 
ATOM     69  F   UNL A   1      40.459  25.323  28.661  1.00  0.00    -0.203 F 
ATOM     70  C   UNL A   1      41.584  25.190  26.595  1.00  0.00     0.198 A 
ATOM     71  C   UNL A   1      43.004  26.987  25.881  1.00  0.00     0.198 A 
ATOM     72  F   UNL A   1      43.311  28.865  27.261  1.00  0.00    -0.203 F 
ATOM     73  F   UNL A   1      41.044  23.983  26.380  1.00  0.00    -0.200 F 
ATOM     74  C   UNL A   1      42.430  25.747  25.648  1.00  0.00     0.200 A 
ATOM     75  F   UNL A   1      43.806  27.538  24.959  1.00  0.00    -0.200 F 
ATOM     76  F   UNL A   1      42.690  25.091  24.509  1.00  0.00    -0.200 F 
ENDBRANCH  52  66
BRANCH  53  77
ATOM     77  C   UNL A   1      39.095  32.429  36.006  1.00  0.00     0.064 A 
ATOM     78  C   UNL A   1      39.587  33.703  36.329  1.00  0.00     0.173 A 
ATOM     79  C   UNL A   1      38.224  31.821  36.924  1.00  0.00     0.173 A 
ATOM     80  F   UNL A   1      40.451  34.315  35.506  1.00  0.00    -0.203 F 
ATOM     81  C   UNL A   1      39.253  34.322  37.533  1.00  0.00     0.198 A 
ATOM     82  C   UNL A   1      37.858  32.460  38.108  1.00  0.00     0.198 A 
ATOM     83  F   UNL A   1      37.732  30.598  36.678  1.00  0.00    -0.203 F 
ATOM     84  F   UNL A   1      39.798  35.505  37.848  1.00  0.00    -0.200 F 
ATOM     85  C   UNL A   1      38.384  33.704  38.418  1.00  0.00     0.200 A 
ATOM     86  F   UNL A   1      37.011  31.860  38.956  1.00  0.00    -0.200 F 
ATOM     87  F   UNL A   1      38.068  34.298  39.577  1.00  0.00    -0.200 F 
ENDBRANCH  53  77
BRANCH  65  88
ATOM     88  C   UNL A   1      44.072  27.685  34.852  1.00  0.00     0.064 A 
ATOM     89  C   UNL A   1      43.882  26.414  35.416  1.00  0.00     0.173 A 
ATOM     90  C   UNL A   1      45.288  28.338  35.107  1.00  0.00     0.173 A 
ATOM     91  F   UNL A   1      42.734  25.751  35.215  1.00  0.00    -0.203 F 
ATOM     92  C   UNL A   1      44.859  25.834  36.222  1.00  0.00     0.198 A 
ATOM     93  C   UNL A   1      46.276  27.740  35.884  1.00  0.00     0.198 A 
ATOM     94  F   UNL A   1      45.528  29.550  34.584  1.00  0.00    -0.203 F 
ATOM     95  F   UNL A   1      44.633  24.641  36.791  1.00  0.00    -0.200 F 
ATOM     96  C   UNL A   1      46.058  26.492  36.448  1.00  0.00     0.200 A 
ATOM     97  F   UNL A   1      47.442  28.370  36.087  1.00  0.00    -0.200 F 
ATOM     98  F   UNL A   1      47.000  25.927  37.216  1.00  0.00    -0.200 F 
ENDBRANCH  65  88
ENDBRANCH  39  40
ENDBRANCH  32  34
ENDBRANCH  31  32
ENDBRANCH  30  31
ENDBRANCH  29  30
ENDBRANCH  28  29
ENDBRANCH   1  28
TORSDOF 19
ENDMDL
MODEL 2
REMARK VINA RESULT:     -11.1      1.070      2.068
REMARK SMILES C[C@](NC(=O)[C@](C)([NH3+])C(F)(F)F)(C(=O)OCCOCCOC(=O)c1ccc(-c2c3nc(c(-c4c(F)c(F)c(F)c(F)c4F)c4ccc([nH]4)c(-c4c(F)c(F)c(F)c(F)c4F)c4nc(c(-c5c(F)c(F)c(F)c(F)c5F)c5ccc2[nH]5)C=C4)C=C3)cc1)c1ccccc1
REMARK SMILES IDX 17 1 16 2 15 3 13 4 14 5 2 6 1 7 87 8 88 9 92 10 89 11 91 12
REMARK SMILES IDX 90 13 3 14 4 15 5 17 6 18 7 19 8 20 9 24 10 25 11 26 12 27
REMARK SMILES IDX 18 28 19 29 20 30 21 31 22 32 23 33 24 34 25 35 86 36 26 37
REMARK SMILES IDX 85 38 27 39 28 40 29 41 79 42 30 43 84 44 78 45 80 46 31 47
REMARK SMILES IDX 83 48 77 49 76 50 32 52 64 53 44 54 63 55 45 56 48 57 62 58
REMARK SMILES IDX 81 59 46 60 47 61 61 63 82 64 49 65 33 66 34 67 42 68 35 69
REMARK SMILES IDX 36 70 40 71 43 72 37 73 38 74 41 75 39 76 65 77 66 78 74 79
REMARK SMILES IDX 67 80 68 81 72 82 75 83 69 84 70 85 73 86 71 87 50 88 51 89
REMARK SMILES IDX 59 90 52 91 53 92 57 93 60 94 54 95 55 96 58 97 56 98
REMARK H PARENT 3 16 8 21 8 22 8 23 80 51 48 62
REMARK Flexibility Score: inf
ROOT
ATOM      1  C   UNL A   1      32.507  28.723  27.299  1.00  0.00     0.202 C 
ENDROOT
BRANCH   1   2
ATOM      2  C   UNL A   1      31.340  27.685  27.265  1.00  0.00     0.261 C 
BRANCH   2   3
ATOM      3  O   UNL A   1      31.744  26.325  26.907  1.00  0.00    -0.461 OA
BRANCH   3   4
ATOM      4  C   UNL A   1      30.942  25.629  26.031  1.00  0.00     0.336 C 
ATOM      5  O   UNL A   1      29.779  25.351  26.325  1.00  0.00    -0.249 OA
BRANCH   4   6
ATOM      6  C   UNL A   1      31.588  25.294  24.518  1.00  0.00     0.161 C 
ATOM      7  C   UNL A   1      30.356  24.884  23.653  1.00  0.00     0.053 C 
BRANCH   6   8
ATOM      8  C   UNL A   1      32.129  26.679  24.027  1.00  0.00    -0.012 A 
ATOM      9  C   UNL A   1      31.281  27.660  23.476  1.00  0.00     0.007 A 
ATOM     10  C   UNL A   1      33.512  26.933  23.986  1.00  0.00     0.007 A 
ATOM     11  C   UNL A   1      31.797  28.771  22.803  1.00  0.00     0.000 A 
ATOM     12  C   UNL A   1      34.027  28.052  23.329  1.00  0.00     0.000 A 
ATOM     13  C   UNL A   1      33.171  28.953  22.708  1.00  0.00     0.000 A 
ENDBRANCH   6   8
BRANCH   6  14
ATOM     14  N   UNL A   1      32.602  24.235  24.074  1.00  0.00    -0.331 N 
ATOM     15  C   UNL A   1      32.926  22.936  24.360  1.00  0.00     0.291 C 
ATOM     16  H   UNL A   1      33.196  24.594  23.376  1.00  0.00     0.165 HD
ATOM     17  O   UNL A   1      33.851  22.421  23.733  1.00  0.00    -0.267 OA
BRANCH  15  18
ATOM     18  C   UNL A   1      32.243  22.250  25.511  1.00  0.00     0.267 C 
ATOM     19  C   UNL A   1      32.153  20.814  24.943  1.00  0.00     0.100 C 
BRANCH  18  20
ATOM     20  N   UNL A   1      30.777  22.575  25.676  1.00  0.00    -0.337 N 
ATOM     21  H   UNL A   1      30.680  23.463  26.169  1.00  0.00     0.345 HD
ATOM     22  H   UNL A   1      30.323  21.836  26.212  1.00  0.00     0.345 HD
ATOM     23  H   UNL A   1      30.340  22.647  24.757  1.00  0.00     0.345 HD
ENDBRANCH  18  20
BRANCH  18  24
ATOM     24  C   UNL A   1      33.006  22.861  26.736  1.00  0.00     0.453 C 
ATOM     25  F   UNL A   1      33.879  23.827  26.381  1.00  0.00    -0.164 F 
ATOM     26  F   UNL A   1      32.236  23.378  27.718  1.00  0.00    -0.164 F 
ATOM     27  F   UNL A   1      33.759  21.910  27.356  1.00  0.00    -0.164 F 
ENDBRANCH  18  24
ENDBRANCH  15  18
ENDBRANCH   6  14
ENDBRANCH   4   6
ENDBRANCH   3   4
ENDBRANCH   2   3
ENDBRANCH   1   2
BRANCH   1  28
ATOM     28  O   UNL A   1      32.632  29.629  26.192  1.00  0.00    -0.374 OA
BRANCH  28  29
ATOM     29  C   UNL A   1      31.602  30.600  26.027  1.00  0.00     0.202 C 
BRANCH  29  30
ATOM     30  C   UNL A   1      31.721  31.883  26.887  1.00  0.00     0.261 C 
BRANCH  30  31
ATOM     31  O   UNL A   1      32.984  32.549  26.685  1.00  0.00    -0.460 OA
BRANCH  31  32
ATOM     32  C   UNL A   1      33.467  33.234  27.746  1.00  0.00     0.338 C 
ATOM     33  O   UNL A   1      32.917  34.130  28.375  1.00  0.00    -0.246 OA
BRANCH  32  34
ATOM     34  C   UNL A   1      34.754  32.638  28.138  1.00  0.00     0.060 A 
ATOM     35  C   UNL A   1      34.750  31.285  28.483  1.00  0.00     0.016 A 
ATOM     36  C   UNL A   1      35.924  33.396  28.248  1.00  0.00     0.016 A 
ATOM     37  C   UNL A   1      35.900  30.699  29.012  1.00  0.00     0.010 A 
ATOM     38  C   UNL A   1      37.086  32.796  28.759  1.00  0.00     0.010 A 
ATOM     39  C   UNL A   1      37.064  31.459  29.202  1.00  0.00    -0.014 A 
BRANCH  39  40
ATOM     40  C   UNL A   1      38.162  30.909  30.049  1.00  0.00     0.031 A 
ATOM     41  C   UNL A   1      39.112  29.906  29.439  1.00  0.00     0.074 A 
ATOM     42  C   UNL A   1      38.379  31.342  31.307  1.00  0.00     0.049 A 
ATOM     43  N   UNL A   1      40.104  29.251  29.990  1.00  0.00    -0.248 NA
ATOM     44  C   UNL A   1      38.923  29.609  28.009  1.00  0.00     0.031 C 
ATOM     45  C   UNL A   1      37.594  32.361  31.999  1.00  0.00     0.029 A 
ATOM     46  N   UNL A   1      39.332  30.969  32.228  1.00  0.00    -0.354 N 
ATOM     47  C   UNL A   1      40.635  28.450  28.985  1.00  0.00     0.074 A 
ATOM     48  C   UNL A   1      39.854  28.691  27.794  1.00  0.00     0.031 C 
ATOM     49  C   UNL A   1      38.084  32.519  33.241  1.00  0.00     0.029 A 
ATOM     50  C   UNL A   1      39.184  31.578  33.451  1.00  0.00     0.049 A 
ATOM     51  H   UNL A   1      40.050  30.326  32.030  1.00  0.00     0.167 HD
ATOM     52  C   UNL A   1      41.683  27.593  29.048  1.00  0.00     0.037 A 
ATOM     53  C   UNL A   1      39.831  31.369  34.618  1.00  0.00     0.037 A 
ATOM     54  C   UNL A   1      42.485  27.372  30.224  1.00  0.00     0.049 A 
ATOM     55  C   UNL A   1      40.937  30.340  34.683  1.00  0.00     0.074 A 
ATOM     56  C   UNL A   1      43.587  26.547  30.369  1.00  0.00     0.029 A 
ATOM     57  N   UNL A   1      42.269  27.971  31.454  1.00  0.00    -0.354 N 
ATOM     58  N   UNL A   1      41.441  29.599  33.726  1.00  0.00    -0.248 NA
ATOM     59  C   UNL A   1      41.559  30.112  35.997  1.00  0.00     0.031 C 
ATOM     60  C   UNL A   1      43.994  26.592  31.706  1.00  0.00     0.029 A 
ATOM     61  C   UNL A   1      43.189  27.498  32.376  1.00  0.00     0.049 A 
ATOM     62  H   UNL A   1      41.566  28.634  31.645  1.00  0.00     0.167 HD
ATOM     63  C   UNL A   1      42.446  28.840  34.316  1.00  0.00     0.074 A 
ATOM     64  C   UNL A   1      42.503  29.229  35.707  1.00  0.00     0.031 C 
ATOM     65  C   UNL A   1      43.244  27.897  33.758  1.00  0.00     0.037 A 
BRANCH  52  66
ATOM     66  C   UNL A   1      42.013  26.785  27.826  1.00  0.00     0.064 A 
ATOM     67  C   UNL A   1      43.022  27.167  26.930  1.00  0.00     0.173 A 
ATOM     68  C   UNL A   1      41.363  25.562  27.599  1.00  0.00     0.173 A 
ATOM     69  F   UNL A   1      43.669  28.330  27.096  1.00  0.00    -0.203 F 
ATOM     70  C   UNL A   1      43.359  26.358  25.846  1.00  0.00     0.198 A 
ATOM     71  C   UNL A   1      41.724  24.743  26.533  1.00  0.00     0.198 A 
ATOM     72  F   UNL A   1      40.396  25.145  28.431  1.00  0.00    -0.203 F 
ATOM     73  F   UNL A   1      44.307  26.755  24.986  1.00  0.00    -0.200 F 
ATOM     74  C   UNL A   1      42.719  25.143  25.655  1.00  0.00     0.200 A 
ATOM     75  F   UNL A   1      41.117  23.560  26.364  1.00  0.00    -0.200 F 
ATOM     76  F   UNL A   1      43.061  24.356  24.627  1.00  0.00    -0.200 F 
ENDBRANCH  52  66
BRANCH  53  77
ATOM     77  C   UNL A   1      39.413  32.091  35.854  1.00  0.00     0.064 A 
ATOM     78  C   UNL A   1      38.386  31.606  36.677  1.00  0.00     0.173 A 
ATOM     79  C   UNL A   1      39.985  33.327  36.196  1.00  0.00     0.173 A 
ATOM     80  F   UNL A   1      37.778  30.448  36.377  1.00  0.00    -0.203 F 
ATOM     81  C   UNL A   1      37.927  32.341  37.770  1.00  0.00     0.198 A 
ATOM     82  C   UNL A   1      39.553  34.042  37.313  1.00  0.00     0.198 A 
ATOM     83  F   UNL A   1      40.960  33.850  35.439  1.00  0.00    -0.203 F 
ATOM     84  F   UNL A   1      36.894  31.887  38.493  1.00  0.00    -0.200 F 
ATOM     85  C   UNL A   1      38.516  33.555  38.091  1.00  0.00     0.200 A 
ATOM     86  F   UNL A   1      40.132  35.209  37.622  1.00  0.00    -0.200 F 
ATOM     87  F   UNL A   1      38.070  34.262  39.138  1.00  0.00    -0.200 F 
ENDBRANCH  53  77
BRANCH  65  88
ATOM     88  C   UNL A   1      44.268  27.236  34.639  1.00  0.00     0.064 A 
ATOM     89  C   UNL A   1      44.000  26.028  35.301  1.00  0.00     0.173 A 
ATOM     90  C   UNL A   1      45.549  27.792  34.786  1.00  0.00     0.173 A 
ATOM     91  F   UNL A   1      42.789  25.460  35.205  1.00  0.00    -0.203 F 
ATOM     92  C   UNL A   1      44.966  25.416  36.097  1.00  0.00     0.198 A 
ATOM     93  C   UNL A   1      46.523  27.159  35.554  1.00  0.00     0.198 A 
ATOM     94  F   UNL A   1      45.863  28.940  34.168  1.00  0.00    -0.203 F 
ATOM     95  F   UNL A   1      44.669  24.290  36.759  1.00  0.00    -0.200 F 
ATOM     96  C   UNL A   1      46.228  25.977  36.215  1.00  0.00     0.200 A 
ATOM     97  F   UNL A   1      47.748  27.693  35.653  1.00  0.00    -0.200 F 
ATOM     98  F   UNL A   1      47.159  25.381  36.973  1.00  0.00    -0.200 F 
ENDBRANCH  65  88
ENDBRANCH  39  40
ENDBRANCH  32  34
ENDBRANCH  31  32
ENDBRANCH  30  31
ENDBRANCH  29  30
ENDBRANCH  28  29
ENDBRANCH   1  28
TORSDOF 19
ENDMDL
MODEL 3
REMARK VINA RESULT:     -11.0      1.546      3.451
REMARK SMILES C[C@](NC(=O)[C@](C)([NH3+])C(F)(F)F)(C(=O)OCCOCCOC(=O)c1ccc(-c2c3nc(c(-c4c(F)c(F)c(F)c(F)c4F)c4ccc([nH]4)c(-c4c(F)c(F)c(F)c(F)c4F)c4nc(c(-c5c(F)c(F)c(F)c(F)c5F)c5ccc2[nH]5)C=C4)C=C3)cc1)c1ccccc1
REMARK SMILES IDX 17 1 16 2 15 3 13 4 14 5 2 6 1 7 87 8 88 9 92 10 89 11 91 12
REMARK SMILES IDX 90 13 3 14 4 15 5 17 6 18 7 19 8 20 9 24 10 25 11 26 12 27
REMARK SMILES IDX 18 28 19 29 20 30 21 31 22 32 23 33 24 34 25 35 86 36 26 37
REMARK SMILES IDX 85 38 27 39 28 40 29 41 79 42 30 43 84 44 78 45 80 46 31 47
REMARK SMILES IDX 83 48 77 49 76 50 32 52 64 53 44 54 63 55 45 56 48 57 62 58
REMARK SMILES IDX 81 59 46 60 47 61 61 63 82 64 49 65 33 66 34 67 42 68 35 69
REMARK SMILES IDX 36 70 40 71 43 72 37 73 38 74 41 75 39 76 65 77 66 78 74 79
REMARK SMILES IDX 67 80 68 81 72 82 75 83 69 84 70 85 73 86 71 87 50 88 51 89
REMARK SMILES IDX 59 90 52 91 53 92 57 93 60 94 54 95 55 96 58 97 56 98
REMARK H PARENT 3 16 8 21 8 22 8 23 80 51 48 62
REMARK Flexibility Score: inf
ROOT
ATOM      1  C   UNL A   1      33.225  28.294  24.078  1.00  0.00     0.202 C 
ENDROOT
BRANCH   1   2
ATOM      2  C   UNL A   1      32.827  26.860  23.602  1.00  0.00     0.261 C 
BRANCH   2   3
ATOM      3  O   UNL A   1      33.949  25.931  23.465  1.00  0.00    -0.461 OA
BRANCH   3   4
ATOM      4  C   UNL A   1      34.156  25.025  24.480  1.00  0.00     0.336 C 
ATOM      5  O   UNL A   1      34.302  25.402  25.643  1.00  0.00    -0.249 OA
BRANCH   4   6
ATOM      6  C   UNL A   1      34.076  23.399  24.069  1.00  0.00     0.161 C 
ATOM      7  C   UNL A   1      33.973  23.397  22.513  1.00  0.00     0.053 C 
BRANCH   6   8
ATOM      8  C   UNL A   1      35.472  22.835  24.499  1.00  0.00    -0.012 A 
ATOM      9  C   UNL A   1      35.713  21.453  24.624  1.00  0.00     0.007 A 
ATOM     10  C   UNL A   1      36.496  23.704  24.919  1.00  0.00     0.007 A 
ATOM     11  C   UNL A   1      36.863  20.970  25.257  1.00  0.00     0.000 A 
ATOM     12  C   UNL A   1      37.653  23.221  25.535  1.00  0.00     0.000 A 
ATOM     13  C   UNL A   1      37.819  21.856  25.735  1.00  0.00     0.000 A 
ENDBRANCH   6   8
BRANCH   6  14
ATOM     14  N   UNL A   1      33.036  22.328  24.415  1.00  0.00    -0.331 N 
ATOM     15  C   UNL A   1      32.106  22.072  25.386  1.00  0.00     0.291 C 
ATOM     16  H   UNL A   1      33.035  21.613  23.739  1.00  0.00     0.165 HD
ATOM     17  O   UNL A   1      31.426  21.051  25.280  1.00  0.00    -0.267 OA
BRANCH  15  18
ATOM     18  C   UNL A   1      32.053  22.961  26.599  1.00  0.00     0.267 C 
ATOM     19  C   UNL A   1      30.528  22.961  26.856  1.00  0.00     0.100 C 
BRANCH  18  20
ATOM     20  N   UNL A   1      32.289  24.429  26.332  1.00  0.00    -0.337 N 
ATOM     21  H   UNL A   1      33.288  24.595  26.210  1.00  0.00     0.345 HD
ATOM     22  H   UNL A   1      31.945  24.977  27.119  1.00  0.00     0.345 HD
ATOM     23  H   UNL A   1      31.794  24.704  25.484  1.00  0.00     0.345 HD
ENDBRANCH  18  20
BRANCH  18  24
ATOM     24  C   UNL A   1      33.270  22.427  27.430  1.00  0.00     0.453 C 
ATOM     25  F   UNL A   1      33.653  21.187  27.062  1.00  0.00    -0.164 F 
ATOM     26  F   UNL A   1      34.381  23.195  27.415  1.00  0.00    -0.164 F 
ATOM     27  F   UNL A   1      32.942  22.323  28.748  1.00  0.00    -0.164 F 
ENDBRANCH  18  24
ENDBRANCH  15  18
ENDBRANCH   6  14
ENDBRANCH   4   6
ENDBRANCH   3   4
ENDBRANCH   2   3
ENDBRANCH   1   2
BRANCH   1  28
ATOM     28  O   UNL A   1      32.582  28.813  25.252  1.00  0.00    -0.374 OA
BRANCH  28  29
ATOM     29  C   UNL A   1      31.484  29.698  25.056  1.00  0.00     0.202 C 
BRANCH  29  30
ATOM     30  C   UNL A   1      31.420  30.935  25.988  1.00  0.00     0.261 C 
BRANCH  30  31
ATOM     31  O   UNL A   1      32.386  30.852  27.055  1.00  0.00    -0.460 OA
BRANCH  31  32
ATOM     32  C   UNL A   1      33.091  31.979  27.302  1.00  0.00     0.338 C 
ATOM     33  O   UNL A   1      32.686  33.136  27.293  1.00  0.00    -0.246 OA
BRANCH  32  34
ATOM     34  C   UNL A   1      34.446  31.597  27.730  1.00  0.00     0.060 A 
ATOM     35  C   UNL A   1      34.679  30.242  27.974  1.00  0.00     0.016 A 
ATOM     36  C   UNL A   1      35.447  32.543  27.969  1.00  0.00     0.016 A 
ATOM     37  C   UNL A   1      35.891  29.833  28.530  1.00  0.00     0.010 A 
ATOM     38  C   UNL A   1      36.675  32.125  28.506  1.00  0.00     0.010 A 
ATOM     39  C   UNL A   1      36.881  30.774  28.848  1.00  0.00    -0.014 A 
BRANCH  39  40
ATOM     40  C   UNL A   1      38.021  30.365  29.719  1.00  0.00     0.031 A 
ATOM     41  C   UNL A   1      39.035  29.390  29.171  1.00  0.00     0.074 A 
ATOM     42  C   UNL A   1      38.214  30.900  30.940  1.00  0.00     0.049 A 
ATOM     43  N   UNL A   1      40.075  28.847  29.757  1.00  0.00    -0.248 NA
ATOM     44  C   UNL A   1      38.860  28.978  27.769  1.00  0.00     0.031 C 
ATOM     45  C   UNL A   1      37.363  31.909  31.567  1.00  0.00     0.029 A 
ATOM     46  N   UNL A   1      39.197  30.663  31.875  1.00  0.00    -0.354 N 
ATOM     47  C   UNL A   1      40.655  28.015  28.806  1.00  0.00     0.074 A 
ATOM     48  C   UNL A   1      39.851  28.115  27.609  1.00  0.00     0.031 C 
ATOM     49  C   UNL A   1      37.849  32.190  32.790  1.00  0.00     0.029 A 
ATOM     50  C   UNL A   1      39.014  31.346  33.054  1.00  0.00     0.049 A 
ATOM     51  H   UNL A   1      39.957  30.059  31.715  1.00  0.00     0.167 HD
ATOM     52  C   UNL A   1      41.761  27.240  28.918  1.00  0.00     0.037 A 
ATOM     53  C   UNL A   1      39.680  31.267  34.225  1.00  0.00     0.037 A 
ATOM     54  C   UNL A   1      42.584  27.161  30.097  1.00  0.00     0.049 A 
ATOM     55  C   UNL A   1      40.857  30.325  34.351  1.00  0.00     0.074 A 
ATOM     56  C   UNL A   1      43.743  26.427  30.289  1.00  0.00     0.029 A 
ATOM     57  N   UNL A   1      42.334  27.830  31.284  1.00  0.00    -0.354 N 
ATOM     58  N   UNL A   1      41.407  29.554  33.444  1.00  0.00    -0.248 NA
ATOM     59  C   UNL A   1      41.502  30.236  35.671  1.00  0.00     0.031 C 
ATOM     60  C   UNL A   1      44.153  26.596  31.614  1.00  0.00     0.029 A 
ATOM     61  C   UNL A   1      43.291  27.490  32.227  1.00  0.00     0.049 A 
ATOM     62  H   UNL A   1      41.587  28.454  31.435  1.00  0.00     0.167 HD
ATOM     63  C   UNL A   1      42.466  28.912  34.075  1.00  0.00     0.074 A 
ATOM     64  C   UNL A   1      42.504  29.403  35.434  1.00  0.00     0.031 C 
ATOM     65  C   UNL A   1      43.326  27.990  33.576  1.00  0.00     0.037 A 
BRANCH  52  66
ATOM     66  C   UNL A   1      42.140  26.372  27.752  1.00  0.00     0.064 A 
ATOM     67  C   UNL A   1      43.154  26.731  26.853  1.00  0.00     0.173 A 
ATOM     68  C   UNL A   1      41.533  25.116  27.588  1.00  0.00     0.173 A 
ATOM     69  F   UNL A   1      43.761  27.923  26.959  1.00  0.00    -0.203 F 
ATOM     70  C   UNL A   1      43.537  25.871  25.826  1.00  0.00     0.198 A 
ATOM     71  C   UNL A   1      41.940  24.247  26.581  1.00  0.00     0.198 A 
ATOM     72  F   UNL A   1      40.564  24.719  28.427  1.00  0.00    -0.203 F 
ATOM     73  F   UNL A   1      44.489  26.246  24.960  1.00  0.00    -0.200 F 
ATOM     74  C   UNL A   1      42.939  24.626  25.698  1.00  0.00     0.200 A 
ATOM     75  F   UNL A   1      41.374  23.037  26.473  1.00  0.00    -0.200 F 
ATOM     76  F   UNL A   1      43.326  23.791  24.725  1.00  0.00    -0.200 F 
ENDBRANCH  52  66
BRANCH  53  77
ATOM     77  C   UNL A   1      39.220  32.045  35.411  1.00  0.00     0.064 A 
ATOM     78  C   UNL A   1      39.674  33.350  35.655  1.00  0.00     0.173 A 
ATOM     79  C   UNL A   1      38.372  31.465  36.369  1.00  0.00     0.173 A 
ATOM     80  F   UNL A   1      40.515  33.939  34.793  1.00  0.00    -0.203 F 
ATOM     81  C   UNL A   1      39.324  34.029  36.822  1.00  0.00     0.198 A 
ATOM     82  C   UNL A   1      37.990  32.162  37.515  1.00  0.00     0.198 A 
ATOM     83  F   UNL A   1      37.918  30.215  36.198  1.00  0.00    -0.203 F 
ATOM     84  F   UNL A   1      39.833  35.245  37.063  1.00  0.00    -0.200 F 
ATOM     85  C   UNL A   1      38.478  33.437  37.747  1.00  0.00     0.200 A 
ATOM     86  F   UNL A   1      37.165  31.588  38.400  1.00  0.00    -0.200 F 
ATOM     87  F   UNL A   1      38.147  34.090  38.870  1.00  0.00    -0.200 F 
ENDBRANCH  53  77
BRANCH  65  88
ATOM     88  C   UNL A   1      44.399  27.467  34.491  1.00  0.00     0.064 A 
ATOM     89  C   UNL A   1      45.625  28.132  34.644  1.00  0.00     0.173 A 
ATOM     90  C   UNL A   1      44.180  26.314  35.261  1.00  0.00     0.173 A 
ATOM     91  F   UNL A   1      45.891  29.232  33.924  1.00  0.00    -0.203 F 
ATOM     92  C   UNL A   1      46.600  27.648  35.513  1.00  0.00     0.198 A 
ATOM     93  C   UNL A   1      45.143  25.853  36.155  1.00  0.00     0.198 A 
ATOM     94  F   UNL A   1      43.022  25.644  35.163  1.00  0.00    -0.203 F 
ATOM     95  F   UNL A   1      47.783  28.272  35.604  1.00  0.00    -0.200 F 
ATOM     96  C   UNL A   1      46.355  26.515  36.274  1.00  0.00     0.200 A 
ATOM     97  F   UNL A   1      44.898  24.768  36.903  1.00  0.00    -0.200 F 
ATOM     98  F   UNL A   1      47.292  26.057  37.116  1.00  0.00    -0.200 F 
ENDBRANCH  65  88
ENDBRANCH  39  40
ENDBRANCH  32  34
ENDBRANCH  31  32
ENDBRANCH  30  31
ENDBRANCH  29  30
ENDBRANCH  28  29
ENDBRANCH   1  28
TORSDOF 19
ENDMDL
