MODEL 1
REMARK VINA RESULT:     -12.0      0.000      0.000
REMARK SMILES Cn1ccc(C(=O)NCc2ccc(C(=O)OCCOCCOC(=O)c3ccc(-c4c5nc(c(-c6c(F)c(F)c(F)c(F)c6F)c6ccc([nH]6)c(-c6c(F)c(F)c(F)c(F)c6F)c6nc(c(-c7c(F)c(F)c(F)c(F)c7F)c7ccc4[nH]7)C=C6)C=C5)cc3)cc2)cc1=O
REMARK SMILES IDX 18 1 17 2 16 3 14 4 15 5 13 6 10 7 11 8 89 9 12 10 88 11
REMARK SMILES IDX 9 12 8 13 6 14 7 15 5 17 1 18 2 19 3 20 91 21 4 22 90 23
REMARK SMILES IDX 92 24 19 25 20 26 21 27 22 28 23 29 24 30 25 31 26 32 87 33
REMARK SMILES IDX 27 34 86 35 28 36 29 37 30 38 80 39 31 40 85 41 79 42 81 43
REMARK SMILES IDX 32 44 84 45 78 46 77 47 33 49 65 50 45 51 64 52 46 53 49 54
REMARK SMILES IDX 63 55 82 56 47 57 48 58 62 60 83 61 50 62 34 63 35 64 43 65
REMARK SMILES IDX 36 66 37 67 41 68 44 69 38 70 39 71 42 72 40 73 66 74 67 75
REMARK SMILES IDX 75 76 68 77 69 78 73 79 76 80 70 81 71 82 74 83 72 84 51 85
REMARK SMILES IDX 52 86 60 87 53 88 54 89 58 90 61 91 55 92 56 93 59 94 57 95
REMARK H PARENT 8 16 81 48 49 59
REMARK Flexibility Score: inf
ROOT
ATOM      1  C   UNL A   1      42.347  19.559  25.734  1.00  0.00     0.202 C 
ENDROOT
BRANCH   1   2
ATOM      2  C   UNL A   1      41.419  20.197  26.773  1.00  0.00     0.261 C 
BRANCH   2   3
ATOM      3  O   UNL A   1      40.118  20.448  26.217  1.00  0.00    -0.460 OA
BRANCH   3   4
ATOM      4  C   UNL A   1      39.587  21.659  26.510  1.00  0.00     0.338 C 
ATOM      5  O   UNL A   1      40.085  22.523  27.217  1.00  0.00    -0.246 OA
BRANCH   4   6
ATOM      6  C   UNL A   1      38.350  21.882  25.722  1.00  0.00     0.060 A 
ATOM      7  C   UNL A   1      35.998  22.432  24.269  1.00  0.00    -0.029 A 
ATOM      8  C   UNL A   1      36.670  23.455  24.953  1.00  0.00     0.006 A 
ATOM      9  C   UNL A   1      36.554  21.139  24.284  1.00  0.00     0.006 A 
ATOM     10  C   UNL A   1      37.828  23.180  25.683  1.00  0.00     0.016 A 
ATOM     11  C   UNL A   1      37.720  20.861  25.007  1.00  0.00     0.016 A 
BRANCH   7  12
ATOM     12  C   UNL A   1      34.730  22.759  23.509  1.00  0.00     0.152 C 
BRANCH  12  13
ATOM     13  N   UNL A   1      33.564  22.781  24.368  1.00  0.00    -0.348 N 
ATOM     14  C   UNL A   1      32.661  21.852  24.760  1.00  0.00     0.251 C 
ATOM     15  O   UNL A   1      31.716  22.270  25.439  1.00  0.00    -0.269 OA
ATOM     16  H   UNL A   1      33.389  23.670  24.752  1.00  0.00     0.164 HD
BRANCH  14  17
ATOM     17  C   UNL A   1      32.772  20.378  24.489  1.00  0.00     0.046 A 
ATOM     18  C   UNL A   1      33.277  16.159  24.173  1.00  0.00     0.153 C 
ATOM     19  N   UNL A   1      33.076  17.597  24.266  1.00  0.00    -0.319 N 
ATOM     20  C   UNL A   1      33.241  18.207  25.493  1.00  0.00     0.089 A 
ATOM     21  C   UNL A   1      32.710  18.315  23.134  1.00  0.00     0.251 A 
ATOM     22  C   UNL A   1      33.108  19.529  25.627  1.00  0.00     0.032 A 
ATOM     23  C   UNL A   1      32.521  19.781  23.313  1.00  0.00     0.085 A 
ATOM     24  O   UNL A   1      32.545  17.832  22.017  1.00  0.00    -0.269 OA
ENDBRANCH  14  17
ENDBRANCH  12  13
ENDBRANCH   7  12
ENDBRANCH   4   6
ENDBRANCH   3   4
ENDBRANCH   2   3
ENDBRANCH   1   2
BRANCH   1  25
ATOM     25  O   UNL A   1      43.206  20.460  25.036  1.00  0.00    -0.374 OA
BRANCH  25  26
ATOM     26  C   UNL A   1      43.399  21.750  25.618  1.00  0.00     0.202 C 
BRANCH  26  27
ATOM     27  C   UNL A   1      43.947  22.830  24.677  1.00  0.00     0.261 C 
BRANCH  27  28
ATOM     28  O   UNL A   1      43.182  24.046  24.760  1.00  0.00    -0.460 OA
BRANCH  28  29
ATOM     29  C   UNL A   1      43.882  25.133  25.160  1.00  0.00     0.338 C 
ATOM     30  O   UNL A   1      44.923  25.564  24.685  1.00  0.00    -0.246 OA
BRANCH  29  31
ATOM     31  C   UNL A   1      43.124  25.871  26.187  1.00  0.00     0.060 A 
ATOM     32  C   UNL A   1      43.530  27.181  26.472  1.00  0.00     0.016 A 
ATOM     33  C   UNL A   1      42.089  25.277  26.913  1.00  0.00     0.016 A 
ATOM     34  C   UNL A   1      42.938  27.886  27.517  1.00  0.00     0.010 A 
ATOM     35  C   UNL A   1      41.499  25.985  27.967  1.00  0.00     0.010 A 
ATOM     36  C   UNL A   1      41.945  27.278  28.296  1.00  0.00    -0.014 A 
BRANCH  36  37
ATOM     37  C   UNL A   1      41.477  27.946  29.534  1.00  0.00     0.031 A 
ATOM     38  C   UNL A   1      40.238  28.797  29.485  1.00  0.00     0.074 A 
ATOM     39  C   UNL A   1      42.134  27.777  30.697  1.00  0.00     0.049 A 
ATOM     40  N   UNL A   1      39.667  29.492  30.436  1.00  0.00    -0.248 NA
ATOM     41  C   UNL A   1      39.553  28.881  28.185  1.00  0.00     0.031 C 
ATOM     42  C   UNL A   1      43.331  26.960  30.877  1.00  0.00     0.029 A 
ATOM     43  N   UNL A   1      41.889  28.300  31.943  1.00  0.00    -0.354 N 
ATOM     44  C   UNL A   1      38.565  30.102  29.849  1.00  0.00     0.074 A 
ATOM     45  C   UNL A   1      38.560  29.716  28.455  1.00  0.00     0.031 C 
ATOM     46  C   UNL A   1      43.728  27.047  32.158  1.00  0.00     0.029 A 
ATOM     47  C   UNL A   1      42.829  27.948  32.879  1.00  0.00     0.049 A 
ATOM     48  H   UNL A   1      41.113  28.871  32.145  1.00  0.00     0.167 HD
ATOM     49  C   UNL A   1      37.640  30.904  30.425  1.00  0.00     0.037 A 
ATOM     50  C   UNL A   1      42.961  28.330  34.164  1.00  0.00     0.037 A 
ATOM     51  C   UNL A   1      37.637  31.273  31.816  1.00  0.00     0.049 A 
ATOM     52  C   UNL A   1      41.939  29.257  34.770  1.00  0.00     0.074 A 
ATOM     53  C   UNL A   1      36.713  32.041  32.503  1.00  0.00     0.029 A 
ATOM     54  N   UNL A   1      38.611  30.906  32.732  1.00  0.00    -0.354 N 
ATOM     55  N   UNL A   1      40.874  29.789  34.220  1.00  0.00    -0.248 NA
ATOM     56  C   UNL A   1      42.133  29.631  36.178  1.00  0.00     0.031 C 
ATOM     57  C   UNL A   1      37.156  32.183  33.821  1.00  0.00     0.029 A 
ATOM     58  C   UNL A   1      38.327  31.459  33.971  1.00  0.00     0.049 A 
ATOM     59  H   UNL A   1      39.390  30.337  32.532  1.00  0.00     0.167 HD
ATOM     60  C   UNL A   1      40.259  30.535  35.218  1.00  0.00     0.074 A 
ATOM     61  C   UNL A   1      41.062  30.376  36.412  1.00  0.00     0.031 C 
ATOM     62  C   UNL A   1      39.132  31.285  35.152  1.00  0.00     0.037 A 
BRANCH  49  63
ATOM     63  C   UNL A   1      36.559  31.463  29.548  1.00  0.00     0.064 A 
ATOM     64  C   UNL A   1      35.535  30.656  29.031  1.00  0.00     0.173 A 
ATOM     65  C   UNL A   1      36.517  32.838  29.268  1.00  0.00     0.173 A 
ATOM     66  F   UNL A   1      35.536  29.334  29.259  1.00  0.00    -0.203 F 
ATOM     67  C   UNL A   1      34.519  31.202  28.248  1.00  0.00     0.198 A 
ATOM     68  C   UNL A   1      35.486  33.384  28.509  1.00  0.00     0.198 A 
ATOM     69  F   UNL A   1      37.470  33.654  29.744  1.00  0.00    -0.203 F 
ATOM     70  F   UNL A   1      33.572  30.407  27.734  1.00  0.00    -0.200 F 
ATOM     71  C   UNL A   1      34.491  32.566  27.996  1.00  0.00     0.200 A 
ATOM     72  F   UNL A   1      35.454  34.703  28.276  1.00  0.00    -0.200 F 
ATOM     73  F   UNL A   1      33.507  33.091  27.254  1.00  0.00    -0.200 F 
ENDBRANCH  49  63
BRANCH  50  74
ATOM     74  C   UNL A   1      44.119  27.854  34.965  1.00  0.00     0.064 A 
ATOM     75  C   UNL A   1      44.055  26.663  35.701  1.00  0.00     0.173 A 
ATOM     76  C   UNL A   1      45.306  28.600  35.034  1.00  0.00     0.173 A 
ATOM     77  F   UNL A   1      42.933  25.929  35.689  1.00  0.00    -0.203 F 
ATOM     78  C   UNL A   1      45.124  26.247  36.491  1.00  0.00     0.198 A 
ATOM     79  C   UNL A   1      46.384  28.168  35.802  1.00  0.00     0.198 A 
ATOM     80  F   UNL A   1      45.418  29.748  34.351  1.00  0.00    -0.203 F 
ATOM     81  F   UNL A   1      45.016  25.131  37.226  1.00  0.00    -0.200 F 
ATOM     82  C   UNL A   1      46.290  26.997  36.537  1.00  0.00     0.200 A 
ATOM     83  F   UNL A   1      47.513  28.891  35.834  1.00  0.00    -0.200 F 
ATOM     84  F   UNL A   1      47.316  26.597  37.299  1.00  0.00    -0.200 F 
ENDBRANCH  50  74
BRANCH  62  85
ATOM     85  C   UNL A   1      38.678  31.964  36.413  1.00  0.00     0.064 A 
ATOM     86  C   UNL A   1      37.860  31.312  37.346  1.00  0.00     0.173 A 
ATOM     87  C   UNL A   1      39.106  33.268  36.709  1.00  0.00     0.173 A 
ATOM     88  F   UNL A   1      37.414  30.071  37.102  1.00  0.00    -0.203 F 
ATOM     89  C   UNL A   1      37.463  31.951  38.519  1.00  0.00     0.198 A 
ATOM     90  C   UNL A   1      38.732  33.892  37.896  1.00  0.00     0.198 A 
ATOM     91  F   UNL A   1      39.897  33.931  35.854  1.00  0.00    -0.203 F 
ATOM     92  F   UNL A   1      36.641  31.327  39.374  1.00  0.00    -0.200 F 
ATOM     93  C   UNL A   1      37.905  33.236  38.796  1.00  0.00     0.200 A 
ATOM     94  F   UNL A   1      39.172  35.127  38.169  1.00  0.00    -0.200 F 
ATOM     95  F   UNL A   1      37.528  33.846  39.928  1.00  0.00    -0.200 F 
ENDBRANCH  62  85
ENDBRANCH  36  37
ENDBRANCH  29  31
ENDBRANCH  28  29
ENDBRANCH  27  28
ENDBRANCH  26  27
ENDBRANCH  25  26
ENDBRANCH   1  25
TORSDOF 17
ENDMDL
MODEL 2
REMARK VINA RESULT:     -12.0      3.904      9.765
REMARK SMILES Cn1ccc(C(=O)NCc2ccc(C(=O)OCCOCCOC(=O)c3ccc(-c4c5nc(c(-c6c(F)c(F)c(F)c(F)c6F)c6ccc([nH]6)c(-c6c(F)c(F)c(F)c(F)c6F)c6nc(c(-c7c(F)c(F)c(F)c(F)c7F)c7ccc4[nH]7)C=C6)C=C5)cc3)cc2)cc1=O
REMARK SMILES IDX 18 1 17 2 16 3 14 4 15 5 13 6 10 7 11 8 89 9 12 10 88 11
REMARK SMILES IDX 9 12 8 13 6 14 7 15 5 17 1 18 2 19 3 20 91 21 4 22 90 23
REMARK SMILES IDX 92 24 19 25 20 26 21 27 22 28 23 29 24 30 25 31 26 32 87 33
REMARK SMILES IDX 27 34 86 35 28 36 29 37 30 38 80 39 31 40 85 41 79 42 81 43
REMARK SMILES IDX 32 44 84 45 78 46 77 47 33 49 65 50 45 51 64 52 46 53 49 54
REMARK SMILES IDX 63 55 82 56 47 57 48 58 62 60 83 61 50 62 34 63 35 64 43 65
REMARK SMILES IDX 36 66 37 67 41 68 44 69 38 70 39 71 42 72 40 73 66 74 67 75
REMARK SMILES IDX 75 76 68 77 69 78 73 79 76 80 70 81 71 82 74 83 72 84 51 85
REMARK SMILES IDX 52 86 60 87 53 88 54 89 58 90 61 91 55 92 56 93 59 94 57 95
REMARK H PARENT 8 16 81 48 49 59
REMARK Flexibility Score: inf
ROOT
ATOM      1  C   UNL A   1      34.915  33.244  28.038  1.00  0.00     0.202 C 
ENDROOT
BRANCH   1   2
ATOM      2  C   UNL A   1      34.409  31.882  28.526  1.00  0.00     0.261 C 
BRANCH   2   3
ATOM      3  O   UNL A   1      34.112  31.015  27.419  1.00  0.00    -0.460 OA
BRANCH   3   4
ATOM      4  C   UNL A   1      34.601  29.755  27.523  1.00  0.00     0.338 C 
ATOM      5  O   UNL A   1      35.642  29.419  28.068  1.00  0.00    -0.246 OA
BRANCH   4   6
ATOM      6  C   UNL A   1      33.611  28.778  27.009  1.00  0.00     0.060 A 
ATOM      7  C   UNL A   1      31.831  26.856  25.968  1.00  0.00    -0.029 A 
ATOM      8  C   UNL A   1      33.214  26.727  25.774  1.00  0.00     0.006 A 
ATOM      9  C   UNL A   1      31.361  27.937  26.736  1.00  0.00     0.006 A 
ATOM     10  C   UNL A   1      34.094  27.685  26.280  1.00  0.00     0.016 A 
ATOM     11  C   UNL A   1      32.241  28.895  27.252  1.00  0.00     0.016 A 
BRANCH   7  12
ATOM     12  C   UNL A   1      30.902  25.813  25.383  1.00  0.00     0.152 C 
BRANCH  12  13
ATOM     13  N   UNL A   1      30.373  24.919  26.392  1.00  0.00    -0.348 N 
ATOM     14  C   UNL A   1      30.634  23.640  26.753  1.00  0.00     0.251 C 
ATOM     15  O   UNL A   1      29.892  23.162  27.619  1.00  0.00    -0.269 OA
ATOM     16  H   UNL A   1      29.666  25.333  26.937  1.00  0.00     0.164 HD
BRANCH  14  17
ATOM     17  C   UNL A   1      31.778  22.817  26.231  1.00  0.00     0.046 A 
ATOM     18  C   UNL A   1      35.318  20.789  25.000  1.00  0.00     0.153 C 
ATOM     19  N   UNL A   1      34.094  21.454  25.425  1.00  0.00    -0.319 N 
ATOM     20  C   UNL A   1      34.174  22.413  26.413  1.00  0.00     0.089 A 
ATOM     21  C   UNL A   1      32.883  21.099  24.843  1.00  0.00     0.251 A 
ATOM     22  C   UNL A   1      33.089  23.082  26.813  1.00  0.00     0.032 A 
ATOM     23  C   UNL A   1      31.677  21.823  25.335  1.00  0.00     0.085 A 
ATOM     24  O   UNL A   1      32.745  20.254  23.963  1.00  0.00    -0.269 OA
ENDBRANCH  14  17
ENDBRANCH  12  13
ENDBRANCH   7  12
ENDBRANCH   4   6
ENDBRANCH   3   4
ENDBRANCH   2   3
ENDBRANCH   1   2
BRANCH   1  25
ATOM     25  O   UNL A   1      34.677  34.343  28.916  1.00  0.00    -0.374 OA
BRANCH  25  26
ATOM     26  C   UNL A   1      33.954  35.453  28.380  1.00  0.00     0.202 C 
BRANCH  26  27
ATOM     27  C   UNL A   1      32.903  36.073  29.309  1.00  0.00     0.261 C 
BRANCH  27  28
ATOM     28  O   UNL A   1      32.544  35.179  30.379  1.00  0.00    -0.460 OA
BRANCH  28  29
ATOM     29  C   UNL A   1      32.733  35.676  31.623  1.00  0.00     0.338 C 
ATOM     30  O   UNL A   1      32.025  36.472  32.223  1.00  0.00    -0.246 OA
BRANCH  29  31
ATOM     31  C   UNL A   1      33.866  34.990  32.273  1.00  0.00     0.060 A 
ATOM     32  C   UNL A   1      35.121  35.607  32.198  1.00  0.00     0.016 A 
ATOM     33  C   UNL A   1      33.727  33.738  32.875  1.00  0.00     0.016 A 
ATOM     34  C   UNL A   1      36.252  34.952  32.680  1.00  0.00     0.010 A 
ATOM     35  C   UNL A   1      34.865  33.079  33.354  1.00  0.00     0.010 A 
ATOM     36  C   UNL A   1      36.137  33.667  33.226  1.00  0.00    -0.014 A 
BRANCH  36  37
ATOM     37  C   UNL A   1      37.362  32.891  33.534  1.00  0.00     0.031 A 
ATOM     38  C   UNL A   1      38.104  33.168  34.813  1.00  0.00     0.074 A 
ATOM     39  C   UNL A   1      37.798  31.933  32.695  1.00  0.00     0.049 A 
ATOM     40  N   UNL A   1      39.206  32.631  35.269  1.00  0.00    -0.248 NA
ATOM     41  C   UNL A   1      37.525  34.193  35.696  1.00  0.00     0.031 C 
ATOM     42  C   UNL A   1      37.155  31.556  31.439  1.00  0.00     0.029 A 
ATOM     43  N   UNL A   1      38.896  31.112  32.773  1.00  0.00    -0.354 N 
ATOM     44  C   UNL A   1      39.459  33.258  36.482  1.00  0.00     0.074 A 
ATOM     45  C   UNL A   1      38.409  34.233  36.682  1.00  0.00     0.031 C 
ATOM     46  C   UNL A   1      37.879  30.588  30.853  1.00  0.00     0.029 A 
ATOM     47  C   UNL A   1      39.050  30.297  31.680  1.00  0.00     0.049 A 
ATOM     48  H   UNL A   1      39.513  31.108  33.540  1.00  0.00     0.167 HD
ATOM     49  C   UNL A   1      40.472  33.034  37.352  1.00  0.00     0.037 A 
ATOM     50  C   UNL A   1      40.036  29.433  31.372  1.00  0.00     0.037 A 
ATOM     51  C   UNL A   1      41.506  32.052  37.160  1.00  0.00     0.049 A 
ATOM     52  C   UNL A   1      41.174  29.232  32.340  1.00  0.00     0.074 A 
ATOM     53  C   UNL A   1      42.546  31.717  38.009  1.00  0.00     0.029 A 
ATOM     54  N   UNL A   1      41.635  31.251  36.035  1.00  0.00    -0.354 N 
ATOM     55  N   UNL A   1      41.378  29.794  33.507  1.00  0.00    -0.248 NA
ATOM     56  C   UNL A   1      42.215  28.270  31.951  1.00  0.00     0.031 C 
ATOM     57  C   UNL A   1      43.335  30.752  37.375  1.00  0.00     0.029 A 
ATOM     58  C   UNL A   1      42.756  30.445  36.155  1.00  0.00     0.049 A 
ATOM     59  H   UNL A   1      41.021  31.255  35.265  1.00  0.00     0.167 HD
ATOM     60  C   UNL A   1      42.550  29.236  34.001  1.00  0.00     0.074 A 
ATOM     61  C   UNL A   1      43.006  28.280  33.014  1.00  0.00     0.031 C 
ATOM     62  C   UNL A   1      43.193  29.493  35.167  1.00  0.00     0.037 A 
BRANCH  49  63
ATOM     63  C   UNL A   1      40.531  33.883  38.587  1.00  0.00     0.064 A 
ATOM     64  C   UNL A   1      41.264  35.079  38.626  1.00  0.00     0.173 A 
ATOM     65  C   UNL A   1      39.799  33.523  39.728  1.00  0.00     0.173 A 
ATOM     66  F   UNL A   1      41.990  35.462  37.565  1.00  0.00    -0.203 F 
ATOM     67  C   UNL A   1      41.276  35.873  39.771  1.00  0.00     0.198 A 
ATOM     68  C   UNL A   1      39.792  34.333  40.861  1.00  0.00     0.198 A 
ATOM     69  F   UNL A   1      39.078  32.392  39.740  1.00  0.00    -0.203 F 
ATOM     70  F   UNL A   1      42.012  36.993  39.799  1.00  0.00    -0.200 F 
ATOM     71  C   UNL A   1      40.534  35.504  40.883  1.00  0.00     0.200 A 
ATOM     72  F   UNL A   1      39.065  33.981  41.930  1.00  0.00    -0.200 F 
ATOM     73  F   UNL A   1      40.537  36.275  41.979  1.00  0.00    -0.200 F 
ENDBRANCH  49  63
BRANCH  50  74
ATOM     74  C   UNL A   1      40.007  28.703  30.077  1.00  0.00     0.064 A 
ATOM     75  C   UNL A   1      39.410  27.439  29.968  1.00  0.00     0.173 A 
ATOM     76  C   UNL A   1      40.603  29.245  28.929  1.00  0.00     0.173 A 
ATOM     77  F   UNL A   1      38.852  26.867  31.044  1.00  0.00    -0.203 F 
ATOM     78  C   UNL A   1      39.431  26.736  28.765  1.00  0.00     0.198 A 
ATOM     79  C   UNL A   1      40.597  28.553  27.720  1.00  0.00     0.198 A 
ATOM     80  F   UNL A   1      41.189  30.449  28.981  1.00  0.00    -0.203 F 
ATOM     81  F   UNL A   1      38.900  25.507  28.702  1.00  0.00    -0.200 F 
ATOM     82  C   UNL A   1      40.019  27.296  27.640  1.00  0.00     0.200 A 
ATOM     83  F   UNL A   1      41.157  29.103  26.633  1.00  0.00    -0.200 F 
ATOM     84  F   UNL A   1      40.039  26.618  26.485  1.00  0.00    -0.200 F 
ENDBRANCH  50  74
BRANCH  62  85
ATOM     85  C   UNL A   1      44.439  28.706  35.457  1.00  0.00     0.064 A 
ATOM     86  C   UNL A   1      44.391  27.466  36.109  1.00  0.00     0.173 A 
ATOM     87  C   UNL A   1      45.692  29.182  35.039  1.00  0.00     0.173 A 
ATOM     88  F   UNL A   1      43.219  26.975  36.541  1.00  0.00    -0.203 F 
ATOM     89  C   UNL A   1      45.555  26.741  36.354  1.00  0.00     0.198 A 
ATOM     90  C   UNL A   1      46.849  28.440  35.259  1.00  0.00     0.198 A 
ATOM     91  F   UNL A   1      45.791  30.358  34.404  1.00  0.00    -0.203 F 
ATOM     92  F   UNL A   1      45.491  25.580  37.021  1.00  0.00    -0.200 F 
ATOM     93  C   UNL A   1      46.781  27.225  35.923  1.00  0.00     0.200 A 
ATOM     94  F   UNL A   1      48.031  28.903  34.828  1.00  0.00    -0.200 F 
ATOM     95  F   UNL A   1      47.899  26.523  36.154  1.00  0.00    -0.200 F 
ENDBRANCH  62  85
ENDBRANCH  36  37
ENDBRANCH  29  31
ENDBRANCH  28  29
ENDBRANCH  27  28
ENDBRANCH  26  27
ENDBRANCH  25  26
ENDBRANCH   1  25
TORSDOF 17
ENDMDL
MODEL 3
REMARK VINA RESULT:     -11.9      4.603     10.322
REMARK SMILES Cn1ccc(C(=O)NCc2ccc(C(=O)OCCOCCOC(=O)c3ccc(-c4c5nc(c(-c6c(F)c(F)c(F)c(F)c6F)c6ccc([nH]6)c(-c6c(F)c(F)c(F)c(F)c6F)c6nc(c(-c7c(F)c(F)c(F)c(F)c7F)c7ccc4[nH]7)C=C6)C=C5)cc3)cc2)cc1=O
REMARK SMILES IDX 18 1 17 2 16 3 14 4 15 5 13 6 10 7 11 8 89 9 12 10 88 11
REMARK SMILES IDX 9 12 8 13 6 14 7 15 5 17 1 18 2 19 3 20 91 21 4 22 90 23
REMARK SMILES IDX 92 24 19 25 20 26 21 27 22 28 23 29 24 30 25 31 26 32 87 33
REMARK SMILES IDX 27 34 86 35 28 36 29 37 30 38 80 39 31 40 85 41 79 42 81 43
REMARK SMILES IDX 32 44 84 45 78 46 77 47 33 49 65 50 45 51 64 52 46 53 49 54
REMARK SMILES IDX 63 55 82 56 47 57 48 58 62 60 83 61 50 62 34 63 35 64 43 65
REMARK SMILES IDX 36 66 37 67 41 68 44 69 38 70 39 71 42 72 40 73 66 74 67 75
REMARK SMILES IDX 75 76 68 77 69 78 73 79 76 80 70 81 71 82 74 83 72 84 51 85
REMARK SMILES IDX 52 86 60 87 53 88 54 89 58 90 61 91 55 92 56 93 59 94 57 95
REMARK H PARENT 8 16 81 48 49 59
REMARK Flexibility Score: inf
ROOT
ATOM      1  C   UNL A   1      35.423  33.071  28.026  1.00  0.00     0.202 C 
ENDROOT
BRANCH   1   2
ATOM      2  C   UNL A   1      34.475  31.947  28.456  1.00  0.00     0.261 C 
BRANCH   2   3
ATOM      3  O   UNL A   1      34.093  31.136  27.332  1.00  0.00    -0.460 OA
BRANCH   3   4
ATOM      4  C   UNL A   1      34.700  29.928  27.257  1.00  0.00     0.338 C 
ATOM      5  O   UNL A   1      35.878  29.687  27.482  1.00  0.00    -0.246 OA
BRANCH   4   6
ATOM      6  C   UNL A   1      33.698  28.865  27.004  1.00  0.00     0.060 A 
ATOM      7  C   UNL A   1      31.702  26.916  26.595  1.00  0.00    -0.029 A 
ATOM      8  C   UNL A   1      31.399  28.123  27.239  1.00  0.00     0.006 A 
ATOM      9  C   UNL A   1      33.011  26.724  26.115  1.00  0.00     0.006 A 
ATOM     10  C   UNL A   1      32.390  29.084  27.452  1.00  0.00     0.016 A 
ATOM     11  C   UNL A   1      34.006  27.688  26.318  1.00  0.00     0.016 A 
BRANCH   7  12
ATOM     12  C   UNL A   1      30.610  25.884  26.404  1.00  0.00     0.152 C 
BRANCH  12  13
ATOM     13  N   UNL A   1      30.699  25.219  25.122  1.00  0.00    -0.348 N 
ATOM     14  C   UNL A   1      30.239  25.496  23.878  1.00  0.00     0.251 C 
ATOM     15  O   UNL A   1      30.429  24.623  23.025  1.00  0.00    -0.269 OA
ATOM     16  H   UNL A   1      31.207  24.378  25.161  1.00  0.00     0.164 HD
BRANCH  14  17
ATOM     17  C   UNL A   1      29.593  26.791  23.471  1.00  0.00     0.046 A 
ATOM     18  C   UNL A   1      28.219  30.627  22.225  1.00  0.00     0.153 C 
ATOM     19  N   UNL A   1      28.664  29.303  22.634  1.00  0.00    -0.319 N 
ATOM     20  C   UNL A   1      29.985  28.960  22.430  1.00  0.00     0.089 A 
ATOM     21  C   UNL A   1      27.756  28.418  23.201  1.00  0.00     0.251 A 
ATOM     22  C   UNL A   1      30.456  27.773  22.823  1.00  0.00     0.032 A 
ATOM     23  C   UNL A   1      28.289  27.082  23.590  1.00  0.00     0.085 A 
ATOM     24  O   UNL A   1      26.569  28.661  23.406  1.00  0.00    -0.269 OA
ENDBRANCH  14  17
ENDBRANCH  12  13
ENDBRANCH   7  12
ENDBRANCH   4   6
ENDBRANCH   3   4
ENDBRANCH   2   3
ENDBRANCH   1   2
BRANCH   1  25
ATOM     25  O   UNL A   1      34.884  34.391  28.085  1.00  0.00    -0.374 OA
BRANCH  25  26
ATOM     26  C   UNL A   1      33.507  34.511  28.445  1.00  0.00     0.202 C 
BRANCH  26  27
ATOM     27  C   UNL A   1      33.182  35.588  29.486  1.00  0.00     0.261 C 
BRANCH  27  28
ATOM     28  O   UNL A   1      32.476  35.042  30.615  1.00  0.00    -0.460 OA
BRANCH  28  29
ATOM     29  C   UNL A   1      32.769  35.619  31.803  1.00  0.00     0.338 C 
ATOM     30  O   UNL A   1      32.138  36.492  32.382  1.00  0.00    -0.246 OA
BRANCH  29  31
ATOM     31  C   UNL A   1      33.911  34.929  32.432  1.00  0.00     0.060 A 
ATOM     32  C   UNL A   1      35.154  35.572  32.391  1.00  0.00     0.016 A 
ATOM     33  C   UNL A   1      33.791  33.651  32.981  1.00  0.00     0.016 A 
ATOM     34  C   UNL A   1      36.295  34.919  32.853  1.00  0.00     0.010 A 
ATOM     35  C   UNL A   1      34.939  32.994  33.440  1.00  0.00     0.010 A 
ATOM     36  C   UNL A   1      36.200  33.610  33.345  1.00  0.00    -0.014 A 
BRANCH  36  37
ATOM     37  C   UNL A   1      37.438  32.846  33.629  1.00  0.00     0.031 A 
ATOM     38  C   UNL A   1      38.199  33.127  34.896  1.00  0.00     0.074 A 
ATOM     39  C   UNL A   1      37.868  31.894  32.780  1.00  0.00     0.049 A 
ATOM     40  N   UNL A   1      39.315  32.599  35.330  1.00  0.00    -0.248 NA
ATOM     41  C   UNL A   1      37.627  34.144  35.792  1.00  0.00     0.031 C 
ATOM     42  C   UNL A   1      37.207  31.515  31.535  1.00  0.00     0.029 A 
ATOM     43  N   UNL A   1      38.975  31.084  32.837  1.00  0.00    -0.354 N 
ATOM     44  C   UNL A   1      39.584  33.225  36.541  1.00  0.00     0.074 A 
ATOM     45  C   UNL A   1      38.528  34.190  36.762  1.00  0.00     0.031 C 
ATOM     46  C   UNL A   1      37.929  30.555  30.933  1.00  0.00     0.029 A 
ATOM     47  C   UNL A   1      39.118  30.273  31.738  1.00  0.00     0.049 A 
ATOM     48  H   UNL A   1      39.606  31.084  33.593  1.00  0.00     0.167 HD
ATOM     49  C   UNL A   1      40.613  33.009  37.392  1.00  0.00     0.037 A 
ATOM     50  C   UNL A   1      40.107  29.419  31.411  1.00  0.00     0.037 A 
ATOM     51  C   UNL A   1      41.653  32.037  37.179  1.00  0.00     0.049 A 
ATOM     52  C   UNL A   1      41.263  29.227  32.358  1.00  0.00     0.074 A 
ATOM     53  C   UNL A   1      42.712  31.711  38.008  1.00  0.00     0.029 A 
ATOM     54  N   UNL A   1      41.770  31.241  36.050  1.00  0.00    -0.354 N 
ATOM     55  N   UNL A   1      41.483  29.788  33.523  1.00  0.00    -0.248 NA
ATOM     56  C   UNL A   1      42.306  28.276  31.948  1.00  0.00     0.031 C 
ATOM     57  C   UNL A   1      43.499  30.755  37.358  1.00  0.00     0.029 A 
ATOM     58  C   UNL A   1      42.901  30.446  36.147  1.00  0.00     0.049 A 
ATOM     59  H   UNL A   1      41.143  31.241  35.291  1.00  0.00     0.167 HD
ATOM     60  C   UNL A   1      42.669  29.241  33.995  1.00  0.00     0.074 A 
ATOM     61  C   UNL A   1      43.116  28.291  32.997  1.00  0.00     0.031 C 
ATOM     62  C   UNL A   1      43.329  29.501  35.150  1.00  0.00     0.037 A 
BRANCH  49  63
ATOM     63  C   UNL A   1      40.687  33.856  38.628  1.00  0.00     0.064 A 
ATOM     64  C   UNL A   1      41.470  35.018  38.681  1.00  0.00     0.173 A 
ATOM     65  C   UNL A   1      39.918  33.529  39.755  1.00  0.00     0.173 A 
ATOM     66  F   UNL A   1      42.232  35.368  37.634  1.00  0.00    -0.203 F 
ATOM     67  C   UNL A   1      41.495  35.812  39.827  1.00  0.00     0.198 A 
ATOM     68  C   UNL A   1      39.925  34.339  40.888  1.00  0.00     0.198 A 
ATOM     69  F   UNL A   1      39.148  32.430  39.753  1.00  0.00    -0.203 F 
ATOM     70  F   UNL A   1      42.278  36.898  39.869  1.00  0.00    -0.200 F 
ATOM     71  C   UNL A   1      40.717  35.476  40.924  1.00  0.00     0.200 A 
ATOM     72  F   UNL A   1      39.164  34.019  41.943  1.00  0.00    -0.200 F 
ATOM     73  F   UNL A   1      40.733  36.247  42.020  1.00  0.00    -0.200 F 
ENDBRANCH  49  63
BRANCH  50  74
ATOM     74  C   UNL A   1      40.062  28.692  30.115  1.00  0.00     0.064 A 
ATOM     75  C   UNL A   1      39.448  27.437  30.006  1.00  0.00     0.173 A 
ATOM     76  C   UNL A   1      40.659  29.229  28.964  1.00  0.00     0.173 A 
ATOM     77  F   UNL A   1      38.886  26.870  31.084  1.00  0.00    -0.203 F 
ATOM     78  C   UNL A   1      39.453  26.736  28.802  1.00  0.00     0.198 A 
ATOM     79  C   UNL A   1      40.638  28.540  27.754  1.00  0.00     0.198 A 
ATOM     80  F   UNL A   1      41.262  30.425  29.016  1.00  0.00    -0.203 F 
ATOM     81  F   UNL A   1      38.906  25.514  28.738  1.00  0.00    -0.200 F 
ATOM     82  C   UNL A   1      40.043  27.290  27.675  1.00  0.00     0.200 A 
ATOM     83  F   UNL A   1      41.200  29.084  26.666  1.00  0.00    -0.200 F 
ATOM     84  F   UNL A   1      40.049  26.614  26.519  1.00  0.00    -0.200 F 
ENDBRANCH  50  74
BRANCH  62  85
ATOM     85  C   UNL A   1      44.588  28.725  35.416  1.00  0.00     0.064 A 
ATOM     86  C   UNL A   1      45.846  29.209  35.030  1.00  0.00     0.173 A 
ATOM     87  C   UNL A   1      44.535  27.502  36.103  1.00  0.00     0.173 A 
ATOM     88  F   UNL A   1      45.948  30.365  34.358  1.00  0.00    -0.203 F 
ATOM     89  C   UNL A   1      47.005  28.484  35.300  1.00  0.00     0.198 A 
ATOM     90  C   UNL A   1      45.698  26.796  36.398  1.00  0.00     0.198 A 
ATOM     91  F   UNL A   1      43.358  27.000  36.501  1.00  0.00    -0.203 F 
ATOM     92  F   UNL A   1      48.192  28.942  34.881  1.00  0.00    -0.200 F 
ATOM     93  C   UNL A   1      46.930  27.283  35.990  1.00  0.00     0.200 A 
ATOM     94  F   UNL A   1      45.625  25.643  37.077  1.00  0.00    -0.200 F 
ATOM     95  F   UNL A   1      48.047  26.591  36.255  1.00  0.00    -0.200 F 
ENDBRANCH  62  85
ENDBRANCH  36  37
ENDBRANCH  29  31
ENDBRANCH  28  29
ENDBRANCH  27  28
ENDBRANCH  26  27
ENDBRANCH  25  26
ENDBRANCH   1  25
TORSDOF 17
ENDMDL
