MODEL 1
REMARK VINA RESULT:     -11.8      0.000      0.000
REMARK SMILES C[C@H]1[C@H](C(=O)OCCOCCOC(=O)c2ccc(-c3c4nc(c(-c5c(F)c(F)c(F)c(F)c5F)c5ccc([nH]5)c(-c5c(F)c(F)c(F)c(F)c5F)c5nc(c(-c6c(F)c(F)c(F)c(F)c6F)c6ccc3[nH]6)C=C5)C=C4)cc2)CCN1C(=O)[C@H]1CC=CCC1
REMARK SMILES IDX 9 1 8 2 7 3 6 4 4 5 5 6 3 7 1 8 2 9 80 10 78 11 79 12 81 13
REMARK SMILES IDX 82 14 83 15 84 16 88 17 85 18 87 19 86 20 10 21 11 22 12 23
REMARK SMILES IDX 13 24 14 25 15 26 16 27 77 28 17 29 76 30 18 31 19 32 20 33
REMARK SMILES IDX 70 34 21 35 75 36 69 37 71 38 22 39 74 40 68 41 67 42 23 44
REMARK SMILES IDX 55 45 35 46 54 47 36 48 39 49 53 50 72 51 37 52 38 53 52 55
REMARK SMILES IDX 73 56 40 57 24 58 25 59 33 60 26 61 27 62 31 63 34 64 28 65
REMARK SMILES IDX 29 66 32 67 30 68 56 69 57 70 65 71 58 72 59 73 63 74 66 75
REMARK SMILES IDX 60 76 61 77 64 78 62 79 41 80 42 81 50 82 43 83 44 84 48 85
REMARK SMILES IDX 51 86 45 87 46 88 49 89 47 90
REMARK H PARENT 71 43 39 54
REMARK Flexibility Score: inf
ROOT
ATOM      1  O   UNL A   1      32.249  29.972  27.396  1.00  0.00    -0.374 OA
ENDROOT
BRANCH   1   2
ATOM      2  C   UNL A   1      32.583  28.707  26.832  1.00  0.00     0.202 C 
BRANCH   2   3
ATOM      3  C   UNL A   1      31.555  27.597  27.052  1.00  0.00     0.261 C 
BRANCH   3   4
ATOM      4  O   UNL A   1      31.867  26.390  26.327  1.00  0.00    -0.463 OA
BRANCH   4   5
ATOM      5  C   UNL A   1      30.793  25.695  25.868  1.00  0.00     0.311 C 
ATOM      6  O   UNL A   1      30.185  24.843  26.506  1.00  0.00    -0.252 OA
BRANCH   5   7
ATOM      7  C   UNL A   1      30.455  26.005  24.432  1.00  0.00     0.123 C 
ATOM      8  C   UNL A   1      28.129  26.669  23.881  1.00  0.00     0.032 C 
ATOM      9  C   UNL A   1      29.530  27.219  24.161  1.00  0.00     0.096 C 
ATOM     10  N   UNL A   1      30.126  27.885  22.984  1.00  0.00    -0.339 N 
ATOM     11  C   UNL A   1      31.713  26.275  23.622  1.00  0.00     0.039 C 
ATOM     12  C   UNL A   1      31.180  27.042  22.433  1.00  0.00     0.121 C 
BRANCH  10  13
ATOM     13  C   UNL A   1      29.902  29.096  22.370  1.00  0.00     0.226 C 
ATOM     14  O   UNL A   1      30.783  29.558  21.625  1.00  0.00    -0.275 OA
BRANCH  13  15
ATOM     15  C   UNL A   1      28.651  29.966  22.551  1.00  0.00     0.083 C 
ATOM     16  C   UNL A   1      28.715  31.018  23.659  1.00  0.00     0.040 C 
ATOM     17  C   UNL A   1      27.941  30.387  21.265  1.00  0.00     0.018 C 
ATOM     18  C   UNL A   1      28.652  32.441  23.198  1.00  0.00    -0.030 C 
ATOM     19  C   UNL A   1      28.125  31.836  20.837  1.00  0.00     0.028 C 
ATOM     20  C   UNL A   1      28.410  32.805  21.935  1.00  0.00    -0.031 C 
ENDBRANCH  13  15
ENDBRANCH  10  13
ENDBRANCH   5   7
ENDBRANCH   4   5
ENDBRANCH   3   4
ENDBRANCH   2   3
ENDBRANCH   1   2
BRANCH   1  21
ATOM     21  C   UNL A   1      31.691  30.944  26.510  1.00  0.00     0.202 C 
BRANCH  21  22
ATOM     22  C   UNL A   1      31.771  32.388  27.011  1.00  0.00     0.261 C 
BRANCH  22  23
ATOM     23  O   UNL A   1      33.108  32.909  26.879  1.00  0.00    -0.460 OA
BRANCH  23  24
ATOM     24  C   UNL A   1      33.661  33.353  28.034  1.00  0.00     0.338 C 
ATOM     25  O   UNL A   1      33.154  34.085  28.864  1.00  0.00    -0.246 OA
BRANCH  24  26
ATOM     26  C   UNL A   1      34.968  32.705  28.253  1.00  0.00     0.060 A 
ATOM     27  C   UNL A   1      34.979  31.327  28.486  1.00  0.00     0.016 A 
ATOM     28  C   UNL A   1      36.147  33.444  28.354  1.00  0.00     0.016 A 
ATOM     29  C   UNL A   1      36.156  30.701  28.897  1.00  0.00     0.010 A 
ATOM     30  C   UNL A   1      37.337  32.812  28.731  1.00  0.00     0.010 A 
ATOM     31  C   UNL A   1      37.331  31.448  29.070  1.00  0.00    -0.014 A 
BRANCH  31  32
ATOM     32  C   UNL A   1      38.476  30.838  29.796  1.00  0.00     0.031 A 
ATOM     33  C   UNL A   1      38.689  31.186  31.248  1.00  0.00     0.074 A 
ATOM     34  C   UNL A   1      39.274  29.935  29.201  1.00  0.00     0.049 A 
ATOM     35  N   UNL A   1      39.565  30.710  32.099  1.00  0.00    -0.248 NA
ATOM     36  C   UNL A   1      37.803  32.214  31.818  1.00  0.00     0.031 C 
ATOM     37  C   UNL A   1      39.183  29.516  27.805  1.00  0.00     0.029 A 
ATOM     38  N   UNL A   1      40.316  29.199  29.707  1.00  0.00    -0.354 N 
ATOM     39  C   UNL A   1      39.334  31.380  33.294  1.00  0.00     0.074 A 
ATOM     40  C   UNL A   1      38.273  32.332  33.049  1.00  0.00     0.031 C 
ATOM     41  C   UNL A   1      40.119  28.581  27.568  1.00  0.00     0.029 A 
ATOM     42  C   UNL A   1      40.880  28.344  28.793  1.00  0.00     0.049 A 
ATOM     43  H   UNL A   1      40.630  29.276  30.637  1.00  0.00     0.167 HD
ATOM     44  C   UNL A   1      39.931  31.203  34.497  1.00  0.00     0.037 A 
ATOM     45  C   UNL A   1      41.891  27.463  28.935  1.00  0.00     0.037 A 
ATOM     46  C   UNL A   1      40.968  30.243  34.757  1.00  0.00     0.049 A 
ATOM     47  C   UNL A   1      42.543  27.287  30.282  1.00  0.00     0.074 A 
ATOM     48  C   UNL A   1      41.611  29.965  35.950  1.00  0.00     0.029 A 
ATOM     49  N   UNL A   1      41.515  29.399  33.801  1.00  0.00    -0.354 N 
ATOM     50  N   UNL A   1      42.277  27.885  31.417  1.00  0.00    -0.248 NA
ATOM     51  C   UNL A   1      43.626  26.297  30.367  1.00  0.00     0.031 C 
ATOM     52  C   UNL A   1      42.569  28.975  35.711  1.00  0.00     0.029 A 
ATOM     53  C   UNL A   1      42.496  28.609  34.376  1.00  0.00     0.049 A 
ATOM     54  H   UNL A   1      41.245  29.366  32.855  1.00  0.00     0.167 HD
ATOM     55  C   UNL A   1      43.136  27.327  32.355  1.00  0.00     0.074 A 
ATOM     56  C   UNL A   1      43.923  26.330  31.659  1.00  0.00     0.031 C 
ATOM     57  C   UNL A   1      43.262  27.614  33.674  1.00  0.00     0.037 A 
BRANCH  44  58
ATOM     58  C   UNL A   1      39.469  32.072  35.629  1.00  0.00     0.064 A 
ATOM     59  C   UNL A   1      40.007  33.351  35.838  1.00  0.00     0.173 A 
ATOM     60  C   UNL A   1      38.462  31.631  36.501  1.00  0.00     0.173 A 
ATOM     61  F   UNL A   1      40.983  33.811  35.041  1.00  0.00    -0.203 F 
ATOM     62  C   UNL A   1      39.572  34.147  36.894  1.00  0.00     0.198 A 
ATOM     63  C   UNL A   1      38.011  32.441  37.540  1.00  0.00     0.198 A 
ATOM     64  F   UNL A   1      37.913  30.418  36.341  1.00  0.00    -0.203 F 
ATOM     65  F   UNL A   1      40.133  35.346  37.104  1.00  0.00    -0.200 F 
ATOM     66  C   UNL A   1      38.571  33.694  37.741  1.00  0.00     0.200 A 
ATOM     67  F   UNL A   1      37.038  32.005  38.352  1.00  0.00    -0.200 F 
ATOM     68  F   UNL A   1      38.152  34.461  38.756  1.00  0.00    -0.200 F 
ENDBRANCH  44  58
BRANCH  45  69
ATOM     69  C   UNL A   1      42.330  26.649  27.773  1.00  0.00     0.064 A 
ATOM     70  C   UNL A   1      41.765  25.391  27.518  1.00  0.00     0.173 A 
ATOM     71  C   UNL A   1      43.335  27.102  26.908  1.00  0.00     0.173 A 
ATOM     72  F   UNL A   1      40.818  24.905  28.334  1.00  0.00    -0.203 F 
ATOM     73  C   UNL A   1      42.204  24.609  26.452  1.00  0.00     0.198 A 
ATOM     74  C   UNL A   1      43.755  26.329  25.827  1.00  0.00     0.198 A 
ATOM     75  F   UNL A   1      43.907  28.298  27.111  1.00  0.00    -0.203 F 
ATOM     76  F   UNL A   1      41.678  23.392  26.256  1.00  0.00    -0.200 F 
ATOM     77  C   UNL A   1      43.195  25.081  25.605  1.00  0.00     0.200 A 
ATOM     78  F   UNL A   1      44.707  26.792  25.006  1.00  0.00    -0.200 F 
ATOM     79  F   UNL A   1      43.616  24.329  24.579  1.00  0.00    -0.200 F 
ENDBRANCH  45  69
BRANCH  57  80
ATOM     80  C   UNL A   1      44.263  26.817  34.458  1.00  0.00     0.064 A 
ATOM     81  C   UNL A   1      43.923  25.597  35.059  1.00  0.00     0.173 A 
ATOM     82  C   UNL A   1      45.587  27.265  34.579  1.00  0.00     0.173 A 
ATOM     83  F   UNL A   1      42.666  25.134  34.982  1.00  0.00    -0.203 F 
ATOM     84  C   UNL A   1      44.867  24.866  35.777  1.00  0.00     0.198 A 
ATOM     85  C   UNL A   1      46.535  26.518  35.275  1.00  0.00     0.198 A 
ATOM     86  F   UNL A   1      45.965  28.422  34.015  1.00  0.00    -0.203 F 
ATOM     87  F   UNL A   1      44.509  23.726  36.383  1.00  0.00    -0.200 F 
ATOM     88  C   UNL A   1      46.172  25.325  35.880  1.00  0.00     0.200 A 
ATOM     89  F   UNL A   1      47.797  26.957  35.364  1.00  0.00    -0.200 F 
ATOM     90  F   UNL A   1      47.079  24.618  36.568  1.00  0.00    -0.200 F 
ENDBRANCH  57  80
ENDBRANCH  31  32
ENDBRANCH  24  26
ENDBRANCH  23  24
ENDBRANCH  22  23
ENDBRANCH  21  22
ENDBRANCH   1  21
TORSDOF 16
ENDMDL
MODEL 2
REMARK VINA RESULT:     -11.8      0.183      1.970
REMARK SMILES C[C@H]1[C@H](C(=O)OCCOCCOC(=O)c2ccc(-c3c4nc(c(-c5c(F)c(F)c(F)c(F)c5F)c5ccc([nH]5)c(-c5c(F)c(F)c(F)c(F)c5F)c5nc(c(-c6c(F)c(F)c(F)c(F)c6F)c6ccc3[nH]6)C=C5)C=C4)cc2)CCN1C(=O)[C@H]1CC=CCC1
REMARK SMILES IDX 9 1 8 2 7 3 6 4 4 5 5 6 3 7 1 8 2 9 80 10 78 11 79 12 81 13
REMARK SMILES IDX 82 14 83 15 84 16 88 17 85 18 87 19 86 20 10 21 11 22 12 23
REMARK SMILES IDX 13 24 14 25 15 26 16 27 77 28 17 29 76 30 18 31 19 32 20 33
REMARK SMILES IDX 70 34 21 35 75 36 69 37 71 38 22 39 74 40 68 41 67 42 23 44
REMARK SMILES IDX 55 45 35 46 54 47 36 48 39 49 53 50 72 51 37 52 38 53 52 55
REMARK SMILES IDX 73 56 40 57 24 58 25 59 33 60 26 61 27 62 31 63 34 64 28 65
REMARK SMILES IDX 29 66 32 67 30 68 56 69 57 70 65 71 58 72 59 73 63 74 66 75
REMARK SMILES IDX 60 76 61 77 64 78 62 79 41 80 42 81 50 82 43 83 44 84 48 85
REMARK SMILES IDX 51 86 45 87 46 88 49 89 47 90
REMARK H PARENT 71 43 39 54
REMARK Flexibility Score: inf
ROOT
ATOM      1  O   UNL A   1      32.201  30.033  27.250  1.00  0.00    -0.374 OA
ENDROOT
BRANCH   1   2
ATOM      2  C   UNL A   1      32.506  28.793  26.619  1.00  0.00     0.202 C 
BRANCH   2   3
ATOM      3  C   UNL A   1      31.617  27.615  27.022  1.00  0.00     0.261 C 
BRANCH   3   4
ATOM      4  O   UNL A   1      31.857  26.434  26.231  1.00  0.00    -0.463 OA
BRANCH   4   5
ATOM      5  C   UNL A   1      30.741  25.770  25.827  1.00  0.00     0.311 C 
ATOM      6  O   UNL A   1      30.115  24.970  26.513  1.00  0.00    -0.252 OA
BRANCH   5   7
ATOM      7  C   UNL A   1      30.379  26.040  24.389  1.00  0.00     0.123 C 
ATOM      8  C   UNL A   1      28.043  26.692  23.861  1.00  0.00     0.032 C 
ATOM      9  C   UNL A   1      29.450  27.247  24.101  1.00  0.00     0.096 C 
ATOM     10  N   UNL A   1      30.025  27.878  22.895  1.00  0.00    -0.339 N 
ATOM     11  C   UNL A   1      31.622  26.285  23.550  1.00  0.00     0.039 C 
ATOM     12  C   UNL A   1      31.069  27.019  22.349  1.00  0.00     0.121 C 
BRANCH  10  13
ATOM     13  C   UNL A   1      29.792  29.072  22.251  1.00  0.00     0.226 C 
ATOM     14  O   UNL A   1      30.729  29.611  21.638  1.00  0.00    -0.275 OA
BRANCH  13  15
ATOM     15  C   UNL A   1      28.461  29.835  22.249  1.00  0.00     0.083 C 
ATOM     16  C   UNL A   1      28.159  30.670  23.494  1.00  0.00     0.040 C 
ATOM     17  C   UNL A   1      28.047  30.448  20.912  1.00  0.00     0.018 C 
ATOM     18  C   UNL A   1      28.080  32.149  23.273  1.00  0.00    -0.030 C 
ATOM     19  C   UNL A   1      28.197  31.959  20.788  1.00  0.00     0.028 C 
ATOM     20  C   UNL A   1      28.119  32.724  22.066  1.00  0.00    -0.031 C 
ENDBRANCH  13  15
ENDBRANCH  10  13
ENDBRANCH   5   7
ENDBRANCH   4   5
ENDBRANCH   3   4
ENDBRANCH   2   3
ENDBRANCH   1   2
BRANCH   1  21
ATOM     21  C   UNL A   1      31.741  31.088  26.404  1.00  0.00     0.202 C 
BRANCH  21  22
ATOM     22  C   UNL A   1      31.750  32.476  27.049  1.00  0.00     0.261 C 
BRANCH  22  23
ATOM     23  O   UNL A   1      33.052  33.085  26.951  1.00  0.00    -0.460 OA
BRANCH  23  24
ATOM     24  C   UNL A   1      33.596  33.459  28.134  1.00  0.00     0.338 C 
ATOM     25  O   UNL A   1      33.089  34.155  28.995  1.00  0.00    -0.246 OA
BRANCH  24  26
ATOM     26  C   UNL A   1      34.889  32.778  28.338  1.00  0.00     0.060 A 
ATOM     27  C   UNL A   1      34.862  31.424  28.684  1.00  0.00     0.016 A 
ATOM     28  C   UNL A   1      36.098  33.474  28.314  1.00  0.00     0.016 A 
ATOM     29  C   UNL A   1      36.037  30.786  29.083  1.00  0.00     0.010 A 
ATOM     30  C   UNL A   1      37.283  32.826  28.679  1.00  0.00     0.010 A 
ATOM     31  C   UNL A   1      37.246  31.496  29.131  1.00  0.00    -0.014 A 
BRANCH  31  32
ATOM     32  C   UNL A   1      38.407  30.901  29.844  1.00  0.00     0.031 A 
ATOM     33  C   UNL A   1      38.628  31.247  31.295  1.00  0.00     0.074 A 
ATOM     34  C   UNL A   1      39.214  30.013  29.238  1.00  0.00     0.049 A 
ATOM     35  N   UNL A   1      39.520  30.781  32.136  1.00  0.00    -0.248 NA
ATOM     36  C   UNL A   1      37.732  32.258  31.877  1.00  0.00     0.031 C 
ATOM     37  C   UNL A   1      39.116  29.598  27.840  1.00  0.00     0.029 A 
ATOM     38  N   UNL A   1      40.272  29.291  29.731  1.00  0.00    -0.354 N 
ATOM     39  C   UNL A   1      39.290  31.442  33.335  1.00  0.00     0.074 A 
ATOM     40  C   UNL A   1      38.212  32.379  33.105  1.00  0.00     0.031 C 
ATOM     41  C   UNL A   1      40.064  28.678  27.591  1.00  0.00     0.029 A 
ATOM     42  C   UNL A   1      40.840  28.449  28.808  1.00  0.00     0.049 A 
ATOM     43  H   UNL A   1      40.593  29.369  30.658  1.00  0.00     0.167 HD
ATOM     44  C   UNL A   1      39.900  31.270  34.532  1.00  0.00     0.037 A 
ATOM     45  C   UNL A   1      41.866  27.582  28.937  1.00  0.00     0.037 A 
ATOM     46  C   UNL A   1      40.955  30.325  34.779  1.00  0.00     0.049 A 
ATOM     47  C   UNL A   1      42.533  27.411  30.277  1.00  0.00     0.074 A 
ATOM     48  C   UNL A   1      41.612  30.052  35.964  1.00  0.00     0.029 A 
ATOM     49  N   UNL A   1      41.505  29.494  33.815  1.00  0.00    -0.354 N 
ATOM     50  N   UNL A   1      42.268  28.001  31.417  1.00  0.00    -0.248 NA
ATOM     51  C   UNL A   1      43.632  26.437  30.349  1.00  0.00     0.031 C 
ATOM     52  C   UNL A   1      42.584  29.078  35.713  1.00  0.00     0.029 A 
ATOM     53  C   UNL A   1      42.504  28.716  34.378  1.00  0.00     0.049 A 
ATOM     54  H   UNL A   1      41.227  29.460  32.871  1.00  0.00     0.167 HD
ATOM     55  C   UNL A   1      43.145  27.453  32.345  1.00  0.00     0.074 A 
ATOM     56  C   UNL A   1      43.940  26.471  31.637  1.00  0.00     0.031 C 
ATOM     57  C   UNL A   1      43.278  27.735  33.663  1.00  0.00     0.037 A 
BRANCH  44  58
ATOM     58  C   UNL A   1      39.435  32.127  35.672  1.00  0.00     0.064 A 
ATOM     59  C   UNL A   1      38.459  31.680  36.575  1.00  0.00     0.173 A 
ATOM     60  C   UNL A   1      39.987  33.401  35.876  1.00  0.00     0.173 A 
ATOM     61  F   UNL A   1      37.890  30.477  36.412  1.00  0.00    -0.203 F 
ATOM     62  C   UNL A   1      38.033  32.488  37.626  1.00  0.00     0.198 A 
ATOM     63  C   UNL A   1      39.578  34.194  36.945  1.00  0.00     0.198 A 
ATOM     64  F   UNL A   1      40.926  33.873  35.042  1.00  0.00    -0.203 F 
ATOM     65  F   UNL A   1      37.066  32.059  38.449  1.00  0.00    -0.200 F 
ATOM     66  C   UNL A   1      38.597  33.741  37.814  1.00  0.00     0.200 A 
ATOM     67  F   UNL A   1      40.130  35.402  37.130  1.00  0.00    -0.200 F 
ATOM     68  F   UNL A   1      38.189  34.516  38.828  1.00  0.00    -0.200 F 
ENDBRANCH  44  58
BRANCH  45  69
ATOM     69  C   UNL A   1      42.307  26.780  27.768  1.00  0.00     0.064 A 
ATOM     70  C   UNL A   1      43.297  27.257  26.897  1.00  0.00     0.173 A 
ATOM     71  C   UNL A   1      41.734  25.532  27.488  1.00  0.00     0.173 A 
ATOM     72  F   UNL A   1      43.855  28.457  27.112  1.00  0.00    -0.203 F 
ATOM     73  C   UNL A   1      43.684  26.522  25.779  1.00  0.00     0.198 A 
ATOM     74  C   UNL A   1      42.140  24.787  26.382  1.00  0.00     0.198 A 
ATOM     75  F   UNL A   1      40.783  25.033  28.291  1.00  0.00    -0.203 F 
ATOM     76  F   UNL A   1      44.601  27.020  24.937  1.00  0.00    -0.200 F 
ATOM     77  C   UNL A   1      43.109  25.287  25.524  1.00  0.00     0.200 A 
ATOM     78  F   UNL A   1      41.588  23.590  26.144  1.00  0.00    -0.200 F 
ATOM     79  F   UNL A   1      43.482  24.580  24.448  1.00  0.00    -0.200 F 
ENDBRANCH  45  69
BRANCH  57  80
ATOM     80  C   UNL A   1      44.299  26.952  34.436  1.00  0.00     0.064 A 
ATOM     81  C   UNL A   1      45.612  27.415  34.598  1.00  0.00     0.173 A 
ATOM     82  C   UNL A   1      43.947  25.741  35.050  1.00  0.00     0.173 A 
ATOM     83  F   UNL A   1      46.000  28.561  34.018  1.00  0.00    -0.203 F 
ATOM     84  C   UNL A   1      46.545  26.679  35.326  1.00  0.00     0.198 A 
ATOM     85  C   UNL A   1      44.875  25.022  35.799  1.00  0.00     0.198 A 
ATOM     86  F   UNL A   1      42.700  25.259  34.932  1.00  0.00    -0.203 F 
ATOM     87  F   UNL A   1      47.807  27.117  35.429  1.00  0.00    -0.200 F 
ATOM     88  C   UNL A   1      46.174  25.487  35.929  1.00  0.00     0.200 A 
ATOM     89  F   UNL A   1      44.512  23.876  36.391  1.00  0.00    -0.200 F 
ATOM     90  F   UNL A   1      47.072  24.783  36.632  1.00  0.00    -0.200 F 
ENDBRANCH  57  80
ENDBRANCH  31  32
ENDBRANCH  24  26
ENDBRANCH  23  24
ENDBRANCH  22  23
ENDBRANCH  21  22
ENDBRANCH   1  21
TORSDOF 16
ENDMDL
MODEL 3
REMARK VINA RESULT:     -11.7      4.645     10.086
REMARK SMILES C[C@H]1[C@H](C(=O)OCCOCCOC(=O)c2ccc(-c3c4nc(c(-c5c(F)c(F)c(F)c(F)c5F)c5ccc([nH]5)c(-c5c(F)c(F)c(F)c(F)c5F)c5nc(c(-c6c(F)c(F)c(F)c(F)c6F)c6ccc3[nH]6)C=C5)C=C4)cc2)CCN1C(=O)[C@H]1CC=CCC1
REMARK SMILES IDX 9 1 8 2 7 3 6 4 4 5 5 6 3 7 1 8 2 9 80 10 78 11 79 12 81 13
REMARK SMILES IDX 82 14 83 15 84 16 88 17 85 18 87 19 86 20 10 21 11 22 12 23
REMARK SMILES IDX 13 24 14 25 15 26 16 27 77 28 17 29 76 30 18 31 19 32 20 33
REMARK SMILES IDX 70 34 21 35 75 36 69 37 71 38 22 39 74 40 68 41 67 42 23 44
REMARK SMILES IDX 55 45 35 46 54 47 36 48 39 49 53 50 72 51 37 52 38 53 52 55
REMARK SMILES IDX 73 56 40 57 24 58 25 59 33 60 26 61 27 62 31 63 34 64 28 65
REMARK SMILES IDX 29 66 32 67 30 68 56 69 57 70 65 71 58 72 59 73 63 74 66 75
REMARK SMILES IDX 60 76 61 77 64 78 62 79 41 80 42 81 50 82 43 83 44 84 48 85
REMARK SMILES IDX 51 86 45 87 46 88 49 89 47 90
REMARK H PARENT 71 43 39 54
REMARK Flexibility Score: inf
ROOT
ATOM      1  O   UNL A   1      35.418  19.452  24.787  1.00  0.00    -0.374 OA
ENDROOT
BRANCH   1   2
ATOM      2  C   UNL A   1      34.036  19.780  24.667  1.00  0.00     0.202 C 
BRANCH   2   3
ATOM      3  C   UNL A   1      33.396  20.391  25.914  1.00  0.00     0.261 C 
BRANCH   3   4
ATOM      4  O   UNL A   1      33.025  21.773  25.735  1.00  0.00    -0.463 OA
BRANCH   4   5
ATOM      5  C   UNL A   1      33.821  22.673  26.372  1.00  0.00     0.311 C 
ATOM      6  O   UNL A   1      34.084  22.653  27.569  1.00  0.00    -0.252 OA
BRANCH   5   7
ATOM      7  C   UNL A   1      34.295  23.785  25.471  1.00  0.00     0.123 C 
ATOM      8  C   UNL A   1      35.225  23.192  23.248  1.00  0.00     0.032 C 
ATOM      9  C   UNL A   1      33.959  23.676  23.962  1.00  0.00     0.096 C 
ATOM     10  N   UNL A   1      33.572  25.046  23.567  1.00  0.00    -0.339 N 
ATOM     11  C   UNL A   1      33.724  25.124  25.910  1.00  0.00     0.039 C 
ATOM     12  C   UNL A   1      33.862  25.965  24.661  1.00  0.00     0.121 C 
BRANCH  10  13
ATOM     13  C   UNL A   1      32.994  25.576  22.436  1.00  0.00     0.226 C 
ATOM     14  O   UNL A   1      33.713  25.793  21.446  1.00  0.00    -0.275 OA
BRANCH  13  15
ATOM     15  C   UNL A   1      31.517  25.965  22.293  1.00  0.00     0.083 C 
ATOM     16  C   UNL A   1      30.509  25.068  23.014  1.00  0.00     0.040 C 
ATOM     17  C   UNL A   1      31.218  27.464  22.317  1.00  0.00     0.018 C 
ATOM     18  C   UNL A   1      29.741  25.723  24.120  1.00  0.00    -0.030 C 
ATOM     19  C   UNL A   1      30.593  28.007  23.595  1.00  0.00     0.028 C 
ATOM     20  C   UNL A   1      29.796  27.030  24.392  1.00  0.00    -0.031 C 
ENDBRANCH  13  15
ENDBRANCH  10  13
ENDBRANCH   5   7
ENDBRANCH   4   5
ENDBRANCH   3   4
ENDBRANCH   2   3
ENDBRANCH   1   2
BRANCH   1  21
ATOM     21  C   UNL A   1      36.308  20.525  25.096  1.00  0.00     0.202 C 
BRANCH  21  22
ATOM     22  C   UNL A   1      37.794  20.164  25.029  1.00  0.00     0.261 C 
BRANCH  22  23
ATOM     23  O   UNL A   1      38.619  21.314  25.304  1.00  0.00    -0.460 OA
BRANCH  23  24
ATOM     24  C   UNL A   1      39.644  21.087  26.160  1.00  0.00     0.338 C 
ATOM     25  O   UNL A   1      40.319  20.078  26.257  1.00  0.00    -0.246 OA
BRANCH  24  26
ATOM     26  C   UNL A   1      39.959  22.317  26.912  1.00  0.00     0.060 A 
ATOM     27  C   UNL A   1      39.272  23.483  26.568  1.00  0.00     0.016 A 
ATOM     28  C   UNL A   1      40.993  22.360  27.849  1.00  0.00     0.016 A 
ATOM     29  C   UNL A   1      39.671  24.708  27.103  1.00  0.00     0.010 A 
ATOM     30  C   UNL A   1      41.371  23.582  28.414  1.00  0.00     0.010 A 
ATOM     31  C   UNL A   1      40.755  24.773  27.992  1.00  0.00    -0.014 A 
BRANCH  31  32
ATOM     32  C   UNL A   1      41.357  26.095  28.304  1.00  0.00     0.031 A 
ATOM     33  C   UNL A   1      42.740  26.407  27.790  1.00  0.00     0.074 A 
ATOM     34  C   UNL A   1      40.665  27.034  28.972  1.00  0.00     0.049 A 
ATOM     35  N   UNL A   1      43.425  27.523  27.866  1.00  0.00    -0.248 NA
ATOM     36  C   UNL A   1      43.453  25.317  27.106  1.00  0.00     0.031 C 
ATOM     37  C   UNL A   1      39.325  26.860  29.528  1.00  0.00     0.029 A 
ATOM     38  N   UNL A   1      40.994  28.329  29.284  1.00  0.00    -0.354 N 
ATOM     39  C   UNL A   1      44.640  27.264  27.244  1.00  0.00     0.074 A 
ATOM     40  C   UNL A   1      44.624  25.874  26.842  1.00  0.00     0.031 C 
ATOM     41  C   UNL A   1      38.937  28.013  30.099  1.00  0.00     0.029 A 
ATOM     42  C   UNL A   1      40.005  29.002  29.956  1.00  0.00     0.049 A 
ATOM     43  H   UNL A   1      41.859  28.738  29.048  1.00  0.00     0.167 HD
ATOM     44  C   UNL A   1      45.670  28.110  27.002  1.00  0.00     0.037 A 
ATOM     45  C   UNL A   1      39.964  30.275  30.397  1.00  0.00     0.037 A 
ATOM     46  C   UNL A   1      45.686  29.498  27.375  1.00  0.00     0.049 A 
ATOM     47  C   UNL A   1      41.123  31.197  30.121  1.00  0.00     0.074 A 
ATOM     48  C   UNL A   1      46.667  30.444  27.144  1.00  0.00     0.029 A 
ATOM     49  N   UNL A   1      44.664  30.139  28.060  1.00  0.00    -0.354 N 
ATOM     50  N   UNL A   1      42.241  30.956  29.482  1.00  0.00    -0.248 NA
ATOM     51  C   UNL A   1      41.003  32.577  30.615  1.00  0.00     0.031 C 
ATOM     52  C   UNL A   1      46.255  31.652  27.717  1.00  0.00     0.029 A 
ATOM     53  C   UNL A   1      44.999  31.467  28.271  1.00  0.00     0.049 A 
ATOM     54  H   UNL A   1      43.826  29.714  28.353  1.00  0.00     0.167 HD
ATOM     55  C   UNL A   1      42.944  32.154  29.472  1.00  0.00     0.074 A 
ATOM     56  C   UNL A   1      42.118  33.127  30.156  1.00  0.00     0.031 C 
ATOM     57  C   UNL A   1      44.162  32.425  28.943  1.00  0.00     0.037 A 
BRANCH  44  58
ATOM     58  C   UNL A   1      46.869  27.551  26.296  1.00  0.00     0.064 A 
ATOM     59  C   UNL A   1      47.917  26.942  27.001  1.00  0.00     0.173 A 
ATOM     60  C   UNL A   1      46.961  27.605  24.897  1.00  0.00     0.173 A 
ATOM     61  F   UNL A   1      47.883  26.880  28.341  1.00  0.00    -0.203 F 
ATOM     62  C   UNL A   1      49.027  26.430  26.334  1.00  0.00     0.198 A 
ATOM     63  C   UNL A   1      48.060  27.069  24.231  1.00  0.00     0.198 A 
ATOM     64  F   UNL A   1      45.984  28.175  24.177  1.00  0.00    -0.203 F 
ATOM     65  F   UNL A   1      50.039  25.895  27.031  1.00  0.00    -0.200 F 
ATOM     66  C   UNL A   1      49.095  26.489  24.949  1.00  0.00     0.200 A 
ATOM     67  F   UNL A   1      48.120  27.118  22.893  1.00  0.00    -0.200 F 
ATOM     68  F   UNL A   1      50.162  25.994  24.309  1.00  0.00    -0.200 F 
ENDBRANCH  44  58
BRANCH  45  69
ATOM     69  C   UNL A   1      38.764  30.770  31.119  1.00  0.00     0.064 A 
ATOM     70  C   UNL A   1      37.673  31.310  30.422  1.00  0.00     0.173 A 
ATOM     71  C   UNL A   1      38.691  30.730  32.518  1.00  0.00     0.173 A 
ATOM     72  F   UNL A   1      37.709  31.391  29.084  1.00  0.00    -0.203 F 
ATOM     73  C   UNL A   1      36.564  31.809  31.100  1.00  0.00     0.198 A 
ATOM     74  C   UNL A   1      37.570  31.207  33.193  1.00  0.00     0.198 A 
ATOM     75  F   UNL A   1      39.709  30.223  33.229  1.00  0.00    -0.203 F 
ATOM     76  F   UNL A   1      35.554  32.361  30.413  1.00  0.00    -0.200 F 
ATOM     77  C   UNL A   1      36.511  31.754  32.484  1.00  0.00     0.200 A 
ATOM     78  F   UNL A   1      37.519  31.144  34.530  1.00  0.00    -0.200 F 
ATOM     79  F   UNL A   1      35.443  32.234  33.136  1.00  0.00    -0.200 F 
ENDBRANCH  45  69
BRANCH  57  80
ATOM     80  C   UNL A   1      44.662  33.835  29.053  1.00  0.00     0.064 A 
ATOM     81  C   UNL A   1      45.435  34.258  30.145  1.00  0.00     0.173 A 
ATOM     82  C   UNL A   1      44.395  34.764  28.036  1.00  0.00     0.173 A 
ATOM     83  F   UNL A   1      45.705  33.410  31.148  1.00  0.00    -0.203 F 
ATOM     84  C   UNL A   1      45.898  35.569  30.227  1.00  0.00     0.198 A 
ATOM     85  C   UNL A   1      44.883  36.066  28.110  1.00  0.00     0.198 A 
ATOM     86  F   UNL A   1      43.668  34.407  26.967  1.00  0.00    -0.203 F 
ATOM     87  F   UNL A   1      46.595  35.964  31.302  1.00  0.00    -0.200 F 
ATOM     88  C   UNL A   1      45.627  36.469  29.208  1.00  0.00     0.200 A 
ATOM     89  F   UNL A   1      44.630  36.932  27.119  1.00  0.00    -0.200 F 
ATOM     90  F   UNL A   1      46.077  37.729  29.288  1.00  0.00    -0.200 F 
ENDBRANCH  57  80
ENDBRANCH  31  32
ENDBRANCH  24  26
ENDBRANCH  23  24
ENDBRANCH  22  23
ENDBRANCH  21  22
ENDBRANCH   1  21
TORSDOF 16
ENDMDL
