MODEL 1
REMARK VINA RESULT:     -12.0      0.000      0.000
REMARK SMILES Cc1nc(S[C@@H](C(=O)OCCOCCOC(=O)c2ccc(-c3c4nc(c(-c5c(F)c(F)c(F)c(F)c5F)c5ccc([nH]5)c(-c5c(F)c(F)c(F)c(F)c5F)c5nc(c(-c6c(F)c(F)c(F)c(F)c6F)c6ccc3[nH]6)C=C5)C=C4)cc2)c2ccccc2)nc2ccccc12
REMARK SMILES IDX 12 1 11 2 10 3 9 4 7 5 8 6 6 7 5 8 4 9 1 10 2 11 3 12 93 13
REMARK SMILES IDX 88 14 92 15 87 16 89 17 91 18 90 19 81 20 82 21 86 22 83 23
REMARK SMILES IDX 85 24 84 25 13 26 14 27 15 28 16 29 17 30 18 31 19 32 80 33
REMARK SMILES IDX 20 34 79 35 21 36 22 37 23 38 73 39 24 40 78 41 72 42 74 43
REMARK SMILES IDX 25 44 77 45 71 46 70 47 26 49 58 50 38 51 57 52 39 53 42 54
REMARK SMILES IDX 56 55 75 56 40 57 41 58 55 60 76 61 43 62 27 63 28 64 36 65
REMARK SMILES IDX 29 66 30 67 34 68 37 69 31 70 32 71 35 72 33 73 59 74 60 75
REMARK SMILES IDX 68 76 61 77 62 78 66 79 69 80 63 81 64 82 67 83 65 84 44 85
REMARK SMILES IDX 45 86 53 87 46 88 47 89 51 90 54 91 48 92 49 93 52 94 50 95
REMARK H PARENT 74 48 42 59
REMARK Flexibility Score: inf
ROOT
ATOM      1  O   UNL A   1      32.776  30.999  27.234  1.00  0.00    -0.374 OA
ENDROOT
BRANCH   1   2
ATOM      2  C   UNL A   1      32.245  29.701  26.975  1.00  0.00     0.202 C 
BRANCH   2   3
ATOM      3  C   UNL A   1      32.883  28.865  25.861  1.00  0.00     0.261 C 
BRANCH   3   4
ATOM      4  O   UNL A   1      32.958  29.553  24.594  1.00  0.00    -0.462 OA
BRANCH   4   5
ATOM      5  C   UNL A   1      32.406  28.878  23.545  1.00  0.00     0.324 C 
ATOM      6  O   UNL A   1      32.947  28.818  22.439  1.00  0.00    -0.251 OA
BRANCH   5   7
ATOM      7  C   UNL A   1      31.041  28.232  23.800  1.00  0.00     0.194 C 
BRANCH   7   8
ATOM      8  S   UNL A   1      30.839  26.476  23.367  1.00  0.00    -0.066 SA
BRANCH   8   9
ATOM      9  C   UNL A   1      31.310  25.478  24.761  1.00  0.00     0.189 A 
ATOM     10  C   UNL A   1      29.861  23.028  27.049  1.00  0.00     0.067 C 
ATOM     11  C   UNL A   1      30.903  23.833  26.324  1.00  0.00     0.050 A 
ATOM     12  N   UNL A   1      30.420  24.764  25.455  1.00  0.00    -0.227 NA
ATOM     13  C   UNL A   1      32.274  23.566  26.473  1.00  0.00     0.022 A 
ATOM     14  C   UNL A   1      33.111  24.398  25.723  1.00  0.00     0.075 A 
ATOM     15  C   UNL A   1      32.845  22.521  27.248  1.00  0.00     0.012 A 
ATOM     16  N   UNL A   1      32.641  25.342  24.897  1.00  0.00    -0.222 NA
ATOM     17  C   UNL A   1      34.486  24.196  25.792  1.00  0.00     0.029 A 
ATOM     18  C   UNL A   1      34.223  22.313  27.269  1.00  0.00     0.001 A 
ATOM     19  C   UNL A   1      35.049  23.163  26.548  1.00  0.00     0.002 A 
ENDBRANCH   8   9
ENDBRANCH   7   8
BRANCH   7  20
ATOM     20  C   UNL A   1      29.873  29.166  23.529  1.00  0.00    -0.023 A 
ATOM     21  C   UNL A   1      29.903  30.516  23.920  1.00  0.00     0.005 A 
ATOM     22  C   UNL A   1      28.698  28.669  22.948  1.00  0.00     0.005 A 
ATOM     23  C   UNL A   1      28.800  31.346  23.731  1.00  0.00     0.000 A 
ATOM     24  C   UNL A   1      27.587  29.496  22.777  1.00  0.00     0.000 A 
ATOM     25  C   UNL A   1      27.639  30.833  23.166  1.00  0.00     0.000 A 
ENDBRANCH   7  20
ENDBRANCH   5   7
ENDBRANCH   4   5
ENDBRANCH   3   4
ENDBRANCH   2   3
ENDBRANCH   1   2
BRANCH   1  26
ATOM     26  C   UNL A   1      31.897  32.112  27.135  1.00  0.00     0.202 C 
BRANCH  26  27
ATOM     27  C   UNL A   1      32.489  33.517  27.249  1.00  0.00     0.261 C 
BRANCH  27  28
ATOM     28  O   UNL A   1      32.333  34.124  28.519  1.00  0.00    -0.460 OA
BRANCH  28  29
ATOM     29  C   UNL A   1      33.279  35.040  28.805  1.00  0.00     0.338 C 
ATOM     30  O   UNL A   1      33.189  36.256  28.805  1.00  0.00    -0.246 OA
BRANCH  29  31
ATOM     31  C   UNL A   1      34.439  34.296  29.288  1.00  0.00     0.060 A 
ATOM     32  C   UNL A   1      35.716  34.577  28.798  1.00  0.00     0.016 A 
ATOM     33  C   UNL A   1      34.211  33.283  30.221  1.00  0.00     0.016 A 
ATOM     34  C   UNL A   1      36.791  33.844  29.278  1.00  0.00     0.010 A 
ATOM     35  C   UNL A   1      35.290  32.566  30.714  1.00  0.00     0.010 A 
ATOM     36  C   UNL A   1      36.583  32.860  30.260  1.00  0.00    -0.014 A 
BRANCH  36  37
ATOM     37  C   UNL A   1      37.745  32.222  30.904  1.00  0.00     0.031 A 
ATOM     38  C   UNL A   1      38.185  32.635  32.269  1.00  0.00     0.074 A 
ATOM     39  C   UNL A   1      38.393  31.272  30.208  1.00  0.00     0.049 A 
ATOM     40  N   UNL A   1      39.146  32.141  33.000  1.00  0.00    -0.248 NA
ATOM     41  C   UNL A   1      37.464  33.757  32.890  1.00  0.00     0.031 C 
ATOM     42  C   UNL A   1      38.046  30.848  28.848  1.00  0.00     0.029 A 
ATOM     43  N   UNL A   1      39.460  30.483  30.541  1.00  0.00    -0.354 N 
ATOM     44  C   UNL A   1      39.138  32.876  34.176  1.00  0.00     0.074 A 
ATOM     45  C   UNL A   1      38.118  33.893  34.036  1.00  0.00     0.031 C 
ATOM     46  C   UNL A   1      38.851  29.841  28.484  1.00  0.00     0.029 A 
ATOM     47  C   UNL A   1      39.794  29.577  29.565  1.00  0.00     0.049 A 
ATOM     48  H   UNL A   1      39.941  30.557  31.397  1.00  0.00     0.167 HD
ATOM     49  C   UNL A   1      39.899  32.688  35.278  1.00  0.00     0.037 A 
ATOM     50  C   UNL A   1      40.754  28.635  29.554  1.00  0.00     0.037 A 
ATOM     51  C   UNL A   1      40.909  31.668  35.382  1.00  0.00     0.049 A 
ATOM     52  C   UNL A   1      41.618  28.485  30.773  1.00  0.00     0.074 A 
ATOM     53  C   UNL A   1      41.714  31.361  36.462  1.00  0.00     0.029 A 
ATOM     54  N   UNL A   1      41.257  30.794  34.359  1.00  0.00    -0.354 N 
ATOM     55  N   UNL A   1      41.547  29.124  31.917  1.00  0.00    -0.248 NA
ATOM     56  C   UNL A   1      42.696  27.492  30.704  1.00  0.00     0.031 C 
ATOM     57  C   UNL A   1      42.588  30.340  36.076  1.00  0.00     0.029 A 
ATOM     58  C   UNL A   1      42.294  29.975  34.770  1.00  0.00     0.049 A 
ATOM     59  H   UNL A   1      40.828  30.763  33.473  1.00  0.00     0.167 HD
ATOM     60  C   UNL A   1      42.564  28.610  32.706  1.00  0.00     0.074 A 
ATOM     61  C   UNL A   1      43.220  27.583  31.919  1.00  0.00     0.031 C 
ATOM     62  C   UNL A   1      42.928  28.962  33.962  1.00  0.00     0.037 A 
BRANCH  49  63
ATOM     63  C   UNL A   1      39.663  33.587  36.455  1.00  0.00     0.064 A 
ATOM     64  C   UNL A   1      40.224  34.871  36.517  1.00  0.00     0.173 A 
ATOM     65  C   UNL A   1      38.821  33.187  37.504  1.00  0.00     0.173 A 
ATOM     66  F   UNL A   1      41.043  35.298  35.544  1.00  0.00    -0.203 F 
ATOM     67  C   UNL A   1      39.968  35.714  37.595  1.00  0.00     0.198 A 
ATOM     68  C   UNL A   1      38.544  34.045  38.567  1.00  0.00     0.198 A 
ATOM     69  F   UNL A   1      38.254  31.971  37.494  1.00  0.00    -0.203 F 
ATOM     70  F   UNL A   1      40.547  36.922  37.651  1.00  0.00    -0.200 F 
ATOM     71  C   UNL A   1      39.122  35.305  38.615  1.00  0.00     0.200 A 
ATOM     72  F   UNL A   1      37.715  33.652  39.544  1.00  0.00    -0.200 F 
ATOM     73  F   UNL A   1      38.865  36.123  39.643  1.00  0.00    -0.200 F 
ENDBRANCH  49  63
BRANCH  50  74
ATOM     74  C   UNL A   1      40.902  27.753  28.370  1.00  0.00     0.064 A 
ATOM     75  C   UNL A   1      40.168  26.563  28.264  1.00  0.00     0.173 A 
ATOM     76  C   UNL A   1      41.738  28.099  27.296  1.00  0.00     0.173 A 
ATOM     77  F   UNL A   1      39.363  26.184  29.268  1.00  0.00    -0.203 F 
ATOM     78  C   UNL A   1      40.269  25.753  27.136  1.00  0.00     0.198 A 
ATOM     79  C   UNL A   1      41.815  27.303  26.156  1.00  0.00     0.198 A 
ATOM     80  F   UNL A   1      42.454  29.232  27.341  1.00  0.00    -0.203 F 
ATOM     81  F   UNL A   1      39.575  24.607  27.074  1.00  0.00    -0.200 F 
ATOM     82  C   UNL A   1      41.085  26.127  26.079  1.00  0.00     0.200 A 
ATOM     83  F   UNL A   1      42.589  27.679  25.129  1.00  0.00    -0.200 F 
ATOM     84  F   UNL A   1      41.168  25.354  24.987  1.00  0.00    -0.200 F 
ENDBRANCH  50  74
BRANCH  62  85
ATOM     85  C   UNL A   1      44.104  28.254  34.565  1.00  0.00     0.064 A 
ATOM     86  C   UNL A   1      43.955  27.006  35.186  1.00  0.00     0.173 A 
ATOM     87  C   UNL A   1      45.402  28.765  34.410  1.00  0.00     0.173 A 
ATOM     88  F   UNL A   1      42.732  26.486  35.369  1.00  0.00    -0.203 F 
ATOM     89  C   UNL A   1      45.064  26.293  35.628  1.00  0.00     0.198 A 
ATOM     90  C   UNL A   1      46.511  28.034  34.826  1.00  0.00     0.198 A 
ATOM     91  F   UNL A   1      45.596  29.951  33.815  1.00  0.00    -0.203 F 
ATOM     92  F   UNL A   1      44.897  25.109  36.235  1.00  0.00    -0.200 F 
ATOM     93  C   UNL A   1      46.340  26.799  35.433  1.00  0.00     0.200 A 
ATOM     94  F   UNL A   1      47.744  28.515  34.619  1.00  0.00    -0.200 F 
ATOM     95  F   UNL A   1      47.410  26.093  35.827  1.00  0.00    -0.200 F 
ENDBRANCH  62  85
ENDBRANCH  36  37
ENDBRANCH  29  31
ENDBRANCH  28  29
ENDBRANCH  27  28
ENDBRANCH  26  27
ENDBRANCH   1  26
TORSDOF 17
ENDMDL
MODEL 2
REMARK VINA RESULT:     -12.0      1.749      2.492
REMARK SMILES Cc1nc(S[C@@H](C(=O)OCCOCCOC(=O)c2ccc(-c3c4nc(c(-c5c(F)c(F)c(F)c(F)c5F)c5ccc([nH]5)c(-c5c(F)c(F)c(F)c(F)c5F)c5nc(c(-c6c(F)c(F)c(F)c(F)c6F)c6ccc3[nH]6)C=C5)C=C4)cc2)c2ccccc2)nc2ccccc12
REMARK SMILES IDX 12 1 11 2 10 3 9 4 7 5 8 6 6 7 5 8 4 9 1 10 2 11 3 12 93 13
REMARK SMILES IDX 88 14 92 15 87 16 89 17 91 18 90 19 81 20 82 21 86 22 83 23
REMARK SMILES IDX 85 24 84 25 13 26 14 27 15 28 16 29 17 30 18 31 19 32 80 33
REMARK SMILES IDX 20 34 79 35 21 36 22 37 23 38 73 39 24 40 78 41 72 42 74 43
REMARK SMILES IDX 25 44 77 45 71 46 70 47 26 49 58 50 38 51 57 52 39 53 42 54
REMARK SMILES IDX 56 55 75 56 40 57 41 58 55 60 76 61 43 62 27 63 28 64 36 65
REMARK SMILES IDX 29 66 30 67 34 68 37 69 31 70 32 71 35 72 33 73 59 74 60 75
REMARK SMILES IDX 68 76 61 77 62 78 66 79 69 80 63 81 64 82 67 83 65 84 44 85
REMARK SMILES IDX 45 86 53 87 46 88 47 89 51 90 54 91 48 92 49 93 52 94 50 95
REMARK H PARENT 74 48 42 59
REMARK Flexibility Score: inf
ROOT
ATOM      1  O   UNL A   1      32.272  30.352  26.597  1.00  0.00    -0.374 OA
ENDROOT
BRANCH   1   2
ATOM      2  C   UNL A   1      32.753  29.661  25.445  1.00  0.00     0.202 C 
BRANCH   2   3
ATOM      3  C   UNL A   1      33.492  28.335  25.651  1.00  0.00     0.261 C 
BRANCH   3   4
ATOM      4  O   UNL A   1      33.314  27.401  24.564  1.00  0.00    -0.462 OA
BRANCH   4   5
ATOM      5  C   UNL A   1      32.193  26.629  24.653  1.00  0.00     0.324 C 
ATOM      6  O   UNL A   1      31.844  26.089  25.704  1.00  0.00    -0.251 OA
BRANCH   5   7
ATOM      7  C   UNL A   1      31.406  26.429  23.355  1.00  0.00     0.194 C 
BRANCH   7   8
ATOM      8  S   UNL A   1      32.282  25.703  21.934  1.00  0.00    -0.066 SA
BRANCH   8   9
ATOM      9  C   UNL A   1      33.208  24.290  22.485  1.00  0.00     0.189 A 
ATOM     10  C   UNL A   1      36.475  23.481  23.905  1.00  0.00     0.067 C 
ATOM     11  C   UNL A   1      35.038  23.315  23.494  1.00  0.00     0.050 A 
ATOM     12  N   UNL A   1      34.493  24.377  22.838  1.00  0.00    -0.227 NA
ATOM     13  C   UNL A   1      34.296  22.178  23.853  1.00  0.00     0.022 A 
ATOM     14  C   UNL A   1      32.973  22.183  23.401  1.00  0.00     0.075 A 
ATOM     15  C   UNL A   1      34.754  21.098  24.656  1.00  0.00     0.012 A 
ATOM     16  N   UNL A   1      32.445  23.208  22.721  1.00  0.00    -0.222 NA
ATOM     17  C   UNL A   1      32.156  21.104  23.725  1.00  0.00     0.029 A 
ATOM     18  C   UNL A   1      33.903  20.049  25.001  1.00  0.00     0.001 A 
ATOM     19  C   UNL A   1      32.602  20.045  24.522  1.00  0.00     0.002 A 
ENDBRANCH   8   9
ENDBRANCH   7   8
BRANCH   7  20
ATOM     20  C   UNL A   1      30.409  27.542  23.077  1.00  0.00    -0.023 A 
ATOM     21  C   UNL A   1      29.061  27.437  23.462  1.00  0.00     0.005 A 
ATOM     22  C   UNL A   1      30.807  28.675  22.352  1.00  0.00     0.005 A 
ATOM     23  C   UNL A   1      28.140  28.431  23.140  1.00  0.00     0.000 A 
ATOM     24  C   UNL A   1      29.880  29.661  22.013  1.00  0.00     0.000 A 
ATOM     25  C   UNL A   1      28.549  29.541  22.409  1.00  0.00     0.000 A 
ENDBRANCH   7  20
ENDBRANCH   5   7
ENDBRANCH   4   5
ENDBRANCH   3   4
ENDBRANCH   2   3
ENDBRANCH   1   2
BRANCH   1  26
ATOM     26  C   UNL A   1      31.477  31.514  26.394  1.00  0.00     0.202 C 
BRANCH  26  27
ATOM     27  C   UNL A   1      31.988  32.846  26.944  1.00  0.00     0.261 C 
BRANCH  27  28
ATOM     28  O   UNL A   1      32.946  32.731  27.981  1.00  0.00    -0.460 OA
BRANCH  28  29
ATOM     29  C   UNL A   1      33.980  33.587  27.866  1.00  0.00     0.338 C 
ATOM     30  O   UNL A   1      33.971  34.748  27.496  1.00  0.00    -0.246 OA
BRANCH  29  31
ATOM     31  C   UNL A   1      35.141  32.908  28.433  1.00  0.00     0.060 A 
ATOM     32  C   UNL A   1      36.396  33.519  28.421  1.00  0.00     0.016 A 
ATOM     33  C   UNL A   1      34.949  31.623  28.946  1.00  0.00     0.016 A 
ATOM     34  C   UNL A   1      37.476  32.839  28.965  1.00  0.00     0.010 A 
ATOM     35  C   UNL A   1      36.026  30.954  29.507  1.00  0.00     0.010 A 
ATOM     36  C   UNL A   1      37.284  31.569  29.537  1.00  0.00    -0.014 A 
BRANCH  36  37
ATOM     37  C   UNL A   1      38.387  30.936  30.282  1.00  0.00     0.031 A 
ATOM     38  C   UNL A   1      38.627  31.263  31.717  1.00  0.00     0.074 A 
ATOM     39  C   UNL A   1      39.170  30.072  29.612  1.00  0.00     0.049 A 
ATOM     40  N   UNL A   1      39.513  30.758  32.532  1.00  0.00    -0.248 NA
ATOM     41  C   UNL A   1      37.774  32.301  32.315  1.00  0.00     0.031 C 
ATOM     42  C   UNL A   1      39.022  29.737  28.192  1.00  0.00     0.029 A 
ATOM     43  N   UNL A   1      40.227  29.308  30.026  1.00  0.00    -0.354 N 
ATOM     44  C   UNL A   1      39.315  31.401  33.745  1.00  0.00     0.074 A 
ATOM     45  C   UNL A   1      38.268  32.379  33.544  1.00  0.00     0.031 C 
ATOM     46  C   UNL A   1      39.921  28.798  27.867  1.00  0.00     0.029 A 
ATOM     47  C   UNL A   1      40.730  28.495  29.042  1.00  0.00     0.049 A 
ATOM     48  H   UNL A   1      40.590  29.339  30.941  1.00  0.00     0.167 HD
ATOM     49  C   UNL A   1      39.939  31.164  34.921  1.00  0.00     0.037 A 
ATOM     50  C   UNL A   1      41.734  27.600  29.090  1.00  0.00     0.037 A 
ATOM     51  C   UNL A   1      40.981  30.185  35.085  1.00  0.00     0.049 A 
ATOM     52  C   UNL A   1      42.443  27.397  30.399  1.00  0.00     0.074 A 
ATOM     53  C   UNL A   1      41.658  29.833  36.238  1.00  0.00     0.029 A 
ATOM     54  N   UNL A   1      41.503  29.408  34.059  1.00  0.00    -0.354 N 
ATOM     55  N   UNL A   1      42.192  27.943  31.565  1.00  0.00    -0.248 NA
ATOM     56  C   UNL A   1      43.573  26.461  30.402  1.00  0.00     0.031 C 
ATOM     57  C   UNL A   1      42.627  28.884  35.899  1.00  0.00     0.029 A 
ATOM     58  C   UNL A   1      42.522  28.607  34.544  1.00  0.00     0.049 A 
ATOM     59  H   UNL A   1      41.193  29.425  33.124  1.00  0.00     0.167 HD
ATOM     60  C   UNL A   1      43.126  27.416  32.442  1.00  0.00     0.074 A 
ATOM     61  C   UNL A   1      43.932  26.483  31.680  1.00  0.00     0.031 C 
ATOM     62  C   UNL A   1      43.308  27.688  33.757  1.00  0.00     0.037 A 
BRANCH  49  63
ATOM     63  C   UNL A   1      39.506  31.959  36.117  1.00  0.00     0.064 A 
ATOM     64  C   UNL A   1      40.137  33.164  36.460  1.00  0.00     0.173 A 
ATOM     65  C   UNL A   1      38.414  31.546  36.895  1.00  0.00     0.173 A 
ATOM     66  F   UNL A   1      41.193  33.598  35.754  1.00  0.00    -0.203 F 
ATOM     67  C   UNL A   1      39.704  33.916  37.549  1.00  0.00     0.198 A 
ATOM     68  C   UNL A   1      37.965  32.316  37.966  1.00  0.00     0.198 A 
ATOM     69  F   UNL A   1      37.770  30.404  36.609  1.00  0.00    -0.203 F 
ATOM     70  F   UNL A   1      40.349  35.044  37.880  1.00  0.00    -0.200 F 
ATOM     71  C   UNL A   1      38.614  33.497  38.296  1.00  0.00     0.200 A 
ATOM     72  F   UNL A   1      36.902  31.917  38.678  1.00  0.00    -0.200 F 
ATOM     73  F   UNL A   1      38.190  34.230  39.334  1.00  0.00    -0.200 F 
ENDBRANCH  49  63
BRANCH  50  74
ATOM     74  C   UNL A   1      42.079  26.818  27.877  1.00  0.00     0.064 A 
ATOM     75  C   UNL A   1      43.051  27.280  26.979  1.00  0.00     0.173 A 
ATOM     76  C   UNL A   1      41.489  25.572  27.614  1.00  0.00     0.173 A 
ATOM     77  F   UNL A   1      43.637  28.470  27.182  1.00  0.00    -0.203 F 
ATOM     78  C   UNL A   1      43.413  26.530  25.862  1.00  0.00     0.198 A 
ATOM     79  C   UNL A   1      41.873  24.810  26.513  1.00  0.00     0.198 A 
ATOM     80  F   UNL A   1      40.562  25.078  28.448  1.00  0.00    -0.203 F 
ATOM     81  F   UNL A   1      44.325  27.009  25.004  1.00  0.00    -0.200 F 
ATOM     82  C   UNL A   1      42.831  25.292  25.634  1.00  0.00     0.200 A 
ATOM     83  F   UNL A   1      41.323  23.605  26.309  1.00  0.00    -0.200 F 
ATOM     84  F   UNL A   1      43.193  24.565  24.568  1.00  0.00    -0.200 F 
ENDBRANCH  50  74
BRANCH  62  85
ATOM     85  C   UNL A   1      44.435  26.989  34.458  1.00  0.00     0.064 A 
ATOM     86  C   UNL A   1      44.265  25.705  34.993  1.00  0.00     0.173 A 
ATOM     87  C   UNL A   1      45.719  27.553  34.483  1.00  0.00     0.173 A 
ATOM     88  F   UNL A   1      43.052  25.133  35.005  1.00  0.00    -0.203 F 
ATOM     89  C   UNL A   1      45.344  25.007  35.527  1.00  0.00     0.198 A 
ATOM     90  C   UNL A   1      46.801  26.839  34.990  1.00  0.00     0.198 A 
ATOM     91  F   UNL A   1      45.932  28.776  33.976  1.00  0.00    -0.203 F 
ATOM     92  F   UNL A   1      45.157  23.787  36.050  1.00  0.00    -0.200 F 
ATOM     93  C   UNL A   1      46.613  25.567  35.509  1.00  0.00     0.200 A 
ATOM     94  F   UNL A   1      48.030  27.373  34.954  1.00  0.00    -0.200 F 
ATOM     95  F   UNL A   1      47.657  24.879  35.991  1.00  0.00    -0.200 F 
ENDBRANCH  62  85
ENDBRANCH  36  37
ENDBRANCH  29  31
ENDBRANCH  28  29
ENDBRANCH  27  28
ENDBRANCH  26  27
ENDBRANCH   1  26
TORSDOF 17
ENDMDL
MODEL 3
REMARK VINA RESULT:     -11.9      1.317      7.377
REMARK SMILES Cc1nc(S[C@@H](C(=O)OCCOCCOC(=O)c2ccc(-c3c4nc(c(-c5c(F)c(F)c(F)c(F)c5F)c5ccc([nH]5)c(-c5c(F)c(F)c(F)c(F)c5F)c5nc(c(-c6c(F)c(F)c(F)c(F)c6F)c6ccc3[nH]6)C=C5)C=C4)cc2)c2ccccc2)nc2ccccc12
REMARK SMILES IDX 12 1 11 2 10 3 9 4 7 5 8 6 6 7 5 8 4 9 1 10 2 11 3 12 93 13
REMARK SMILES IDX 88 14 92 15 87 16 89 17 91 18 90 19 81 20 82 21 86 22 83 23
REMARK SMILES IDX 85 24 84 25 13 26 14 27 15 28 16 29 17 30 18 31 19 32 80 33
REMARK SMILES IDX 20 34 79 35 21 36 22 37 23 38 73 39 24 40 78 41 72 42 74 43
REMARK SMILES IDX 25 44 77 45 71 46 70 47 26 49 58 50 38 51 57 52 39 53 42 54
REMARK SMILES IDX 56 55 75 56 40 57 41 58 55 60 76 61 43 62 27 63 28 64 36 65
REMARK SMILES IDX 29 66 30 67 34 68 37 69 31 70 32 71 35 72 33 73 59 74 60 75
REMARK SMILES IDX 68 76 61 77 62 78 66 79 69 80 63 81 64 82 67 83 65 84 44 85
REMARK SMILES IDX 45 86 53 87 46 88 47 89 51 90 54 91 48 92 49 93 52 94 50 95
REMARK H PARENT 74 48 42 59
REMARK Flexibility Score: inf
ROOT
ATOM      1  O   UNL A   1      34.460  31.560  27.692  1.00  0.00    -0.374 OA
ENDROOT
BRANCH   1   2
ATOM      2  C   UNL A   1      34.675  30.181  27.396  1.00  0.00     0.202 C 
BRANCH   2   3
ATOM      3  C   UNL A   1      33.946  29.575  26.191  1.00  0.00     0.261 C 
BRANCH   3   4
ATOM      4  O   UNL A   1      33.986  28.133  26.159  1.00  0.00    -0.462 OA
BRANCH   4   5
ATOM      5  C   UNL A   1      33.265  27.564  25.150  1.00  0.00     0.324 C 
ATOM      6  O   UNL A   1      33.729  27.389  24.023  1.00  0.00    -0.251 OA
BRANCH   5   7
ATOM      7  C   UNL A   1      31.816  27.194  25.482  1.00  0.00     0.194 C 
BRANCH   7   8
ATOM      8  S   UNL A   1      31.482  25.498  26.053  1.00  0.00    -0.066 SA
BRANCH   8   9
ATOM      9  C   UNL A   1      32.630  24.388  25.273  1.00  0.00     0.189 A 
ATOM     10  C   UNL A   1      33.337  22.973  21.981  1.00  0.00     0.067 C 
ATOM     11  C   UNL A   1      33.540  23.363  23.419  1.00  0.00     0.050 A 
ATOM     12  N   UNL A   1      32.483  23.989  24.007  1.00  0.00    -0.227 NA
ATOM     13  C   UNL A   1      34.773  23.176  24.066  1.00  0.00     0.022 A 
ATOM     14  C   UNL A   1      34.798  23.601  25.397  1.00  0.00     0.075 A 
ATOM     15  C   UNL A   1      35.959  22.663  23.475  1.00  0.00     0.012 A 
ATOM     16  N   UNL A   1      33.748  24.181  25.992  1.00  0.00    -0.222 NA
ATOM     17  C   UNL A   1      35.984  23.471  26.114  1.00  0.00     0.029 A 
ATOM     18  C   UNL A   1      37.145  22.581  24.203  1.00  0.00     0.001 A 
ATOM     19  C   UNL A   1      37.155  22.975  25.532  1.00  0.00     0.002 A 
ENDBRANCH   8   9
ENDBRANCH   7   8
BRANCH   7  20
ATOM     20  C   UNL A   1      30.802  27.839  24.552  1.00  0.00    -0.023 A 
ATOM     21  C   UNL A   1      30.816  29.221  24.290  1.00  0.00     0.005 A 
ATOM     22  C   UNL A   1      29.772  27.068  23.994  1.00  0.00     0.005 A 
ATOM     23  C   UNL A   1      29.840  29.813  23.493  1.00  0.00     0.000 A 
ATOM     24  C   UNL A   1      28.783  27.666  23.212  1.00  0.00     0.000 A 
ATOM     25  C   UNL A   1      28.819  29.036  22.959  1.00  0.00     0.000 A 
ENDBRANCH   7  20
ENDBRANCH   5   7
ENDBRANCH   4   5
ENDBRANCH   3   4
ENDBRANCH   2   3
ENDBRANCH   1   2
BRANCH   1  26
ATOM     26  C   UNL A   1      33.121  32.040  27.695  1.00  0.00     0.202 C 
BRANCH  26  27
ATOM     27  C   UNL A   1      32.883  33.524  27.411  1.00  0.00     0.261 C 
BRANCH  27  28
ATOM     28  O   UNL A   1      32.367  34.261  28.504  1.00  0.00    -0.460 OA
BRANCH  28  29
ATOM     29  C   UNL A   1      33.173  35.260  28.917  1.00  0.00     0.338 C 
ATOM     30  O   UNL A   1      33.006  36.463  28.821  1.00  0.00    -0.246 OA
BRANCH  29  31
ATOM     31  C   UNL A   1      34.252  34.631  29.673  1.00  0.00     0.060 A 
ATOM     32  C   UNL A   1      34.006  34.070  30.928  1.00  0.00     0.016 A 
ATOM     33  C   UNL A   1      35.530  34.650  29.109  1.00  0.00     0.016 A 
ATOM     34  C   UNL A   1      35.059  33.487  31.617  1.00  0.00     0.010 A 
ATOM     35  C   UNL A   1      36.577  34.049  29.791  1.00  0.00     0.010 A 
ATOM     36  C   UNL A   1      36.339  33.449  31.034  1.00  0.00    -0.014 A 
BRANCH  36  37
ATOM     37  C   UNL A   1      37.405  32.663  31.680  1.00  0.00     0.031 A 
ATOM     38  C   UNL A   1      38.012  31.487  30.992  1.00  0.00     0.074 A 
ATOM     39  C   UNL A   1      37.792  33.040  32.912  1.00  0.00     0.049 A 
ATOM     40  N   UNL A   1      38.994  30.724  31.391  1.00  0.00    -0.248 NA
ATOM     41  C   UNL A   1      37.437  31.105  29.693  1.00  0.00     0.031 C 
ATOM     42  C   UNL A   1      37.210  34.155  33.666  1.00  0.00     0.029 A 
ATOM     43  N   UNL A   1      38.764  32.549  33.739  1.00  0.00    -0.354 N 
ATOM     44  C   UNL A   1      39.169  29.783  30.388  1.00  0.00     0.074 A 
ATOM     45  C   UNL A   1      38.150  30.029  29.390  1.00  0.00     0.031 C 
ATOM     46  C   UNL A   1      37.872  34.294  34.822  1.00  0.00     0.029 A 
ATOM     47  C   UNL A   1      38.894  33.257  34.907  1.00  0.00     0.049 A 
ATOM     48  H   UNL A   1      39.317  31.765  33.517  1.00  0.00     0.167 HD
ATOM     49  C   UNL A   1      40.118  28.823  30.307  1.00  0.00     0.037 A 
ATOM     50  C   UNL A   1      39.751  33.087  35.930  1.00  0.00     0.037 A 
ATOM     51  C   UNL A   1      41.114  28.604  31.322  1.00  0.00     0.049 A 
ATOM     52  C   UNL A   1      40.761  31.978  35.834  1.00  0.00     0.074 A 
ATOM     53  C   UNL A   1      42.148  27.686  31.329  1.00  0.00     0.029 A 
ATOM     54  N   UNL A   1      41.193  29.307  32.518  1.00  0.00    -0.354 N 
ATOM     55  N   UNL A   1      40.980  31.147  34.844  1.00  0.00    -0.248 NA
ATOM     56  C   UNL A   1      41.639  31.779  36.993  1.00  0.00     0.031 C 
ATOM     57  C   UNL A   1      42.818  27.796  32.551  1.00  0.00     0.029 A 
ATOM     58  C   UNL A   1      42.233  28.816  33.288  1.00  0.00     0.049 A 
ATOM     59  H   UNL A   1      40.596  30.046  32.778  1.00  0.00     0.167 HD
ATOM     60  C   UNL A   1      42.021  30.329  35.253  1.00  0.00     0.074 A 
ATOM     61  C   UNL A   1      42.410  30.784  36.574  1.00  0.00     0.031 C 
ATOM     62  C   UNL A   1      42.595  29.290  34.601  1.00  0.00     0.037 A 
BRANCH  49  63
ATOM     63  C   UNL A   1      40.135  27.955  29.084  1.00  0.00     0.064 A 
ATOM     64  C   UNL A   1      40.862  28.319  27.941  1.00  0.00     0.173 A 
ATOM     65  C   UNL A   1      39.469  26.720  29.073  1.00  0.00     0.173 A 
ATOM     66  F   UNL A   1      41.508  29.494  27.897  1.00  0.00    -0.203 F 
ATOM     67  C   UNL A   1      40.905  27.489  26.824  1.00  0.00     0.198 A 
ATOM     68  C   UNL A   1      39.539  25.879  27.964  1.00  0.00     0.198 A 
ATOM     69  F   UNL A   1      38.763  26.320  30.141  1.00  0.00    -0.203 F 
ATOM     70  F   UNL A   1      41.573  27.877  25.729  1.00  0.00    -0.200 F 
ATOM     71  C   UNL A   1      40.251  26.266  26.839  1.00  0.00     0.200 A 
ATOM     72  F   UNL A   1      38.918  24.692  27.986  1.00  0.00    -0.200 F 
ATOM     73  F   UNL A   1      40.306  25.463  25.769  1.00  0.00    -0.200 F 
ENDBRANCH  49  63
BRANCH  50  74
ATOM     74  C   UNL A   1      39.705  34.011  37.090  1.00  0.00     0.064 A 
ATOM     75  C   UNL A   1      40.382  35.238  37.057  1.00  0.00     0.173 A 
ATOM     76  C   UNL A   1      38.945  33.717  38.233  1.00  0.00     0.173 A 
ATOM     77  F   UNL A   1      41.130  35.560  35.991  1.00  0.00    -0.203 F 
ATOM     78  C   UNL A   1      40.306  36.130  38.124  1.00  0.00     0.198 A 
ATOM     79  C   UNL A   1      38.846  34.623  39.286  1.00  0.00     0.198 A 
ATOM     80  F   UNL A   1      38.268  32.562  38.311  1.00  0.00    -0.203 F 
ATOM     81  F   UNL A   1      40.987  37.285  38.077  1.00  0.00    -0.200 F 
ATOM     82  C   UNL A   1      39.532  35.827  39.234  1.00  0.00     0.200 A 
ATOM     83  F   UNL A   1      38.079  34.335  40.347  1.00  0.00    -0.200 F 
ATOM     84  F   UNL A   1      39.447  36.695  40.252  1.00  0.00    -0.200 F 
ENDBRANCH  50  74
BRANCH  62  85
ATOM     85  C   UNL A   1      43.691  28.551  35.309  1.00  0.00     0.064 A 
ATOM     86  C   UNL A   1      43.404  27.465  36.148  1.00  0.00     0.173 A 
ATOM     87  C   UNL A   1      45.037  28.848  35.047  1.00  0.00     0.173 A 
ATOM     88  F   UNL A   1      42.133  27.153  36.438  1.00  0.00    -0.203 F 
ATOM     89  C   UNL A   1      44.428  26.701  36.699  1.00  0.00     0.198 A 
ATOM     90  C   UNL A   1      46.057  28.063  35.576  1.00  0.00     0.198 A 
ATOM     91  F   UNL A   1      45.360  29.873  34.244  1.00  0.00    -0.203 F 
ATOM     92  F   UNL A   1      44.133  25.678  37.513  1.00  0.00    -0.200 F 
ATOM     93  C   UNL A   1      45.751  26.989  36.399  1.00  0.00     0.200 A 
ATOM     94  F   UNL A   1      47.334  28.329  35.269  1.00  0.00    -0.200 F 
ATOM     95  F   UNL A   1      46.734  26.229  36.902  1.00  0.00    -0.200 F 
ENDBRANCH  62  85
ENDBRANCH  36  37
ENDBRANCH  29  31
ENDBRANCH  28  29
ENDBRANCH  27  28
ENDBRANCH  26  27
ENDBRANCH   1  26
TORSDOF 17
ENDMDL
