MODEL 1
REMARK VINA RESULT:     -10.9      0.000      0.000
REMARK SMILES CC[NH2+][C@H](CC(=O)Nc1cc(C)cc(C)c1)C(=O)OCCOCCOC(=O)c1ccc(-c2c3nc(c(-c4c(F)c(F)c(F)c(F)c4F)c4ccc([nH]4)c(-c4c(F)c(F)c(F)c(F)c4F)c4nc(c(-c5c(F)c(F)c(F)c(F)c5F)c5ccc2[nH]5)C=C4)C=C3)cc1
REMARK SMILES IDX 21 1 20 2 19 3 17 4 18 5 4 6 3 7 2 10 1 11 5 12 6 13 7 14
REMARK SMILES IDX 8 15 9 17 10 18 16 19 11 20 14 21 12 22 13 23 15 24 22 25
REMARK SMILES IDX 23 26 24 27 25 28 26 29 27 30 28 31 29 32 90 33 30 34 89 35
REMARK SMILES IDX 31 36 32 37 33 38 83 39 34 40 88 41 82 42 84 43 35 44 87 45
REMARK SMILES IDX 81 46 80 47 36 49 68 50 48 51 67 52 49 53 52 54 66 55 85 56
REMARK SMILES IDX 50 57 51 58 65 60 86 61 53 62 37 63 38 64 46 65 39 66 40 67
REMARK SMILES IDX 44 68 47 69 41 70 42 71 45 72 43 73 69 74 70 75 78 76 71 77
REMARK SMILES IDX 72 78 76 79 79 80 73 81 74 82 77 83 75 84 54 85 55 86 63 87
REMARK SMILES IDX 56 88 57 89 61 90 64 91 58 92 59 93 62 94 60 95
REMARK H PARENT 3 8 3 9 8 16 84 48 52 59
REMARK Flexibility Score: inf
ROOT
ATOM      1  C   UNL A   1      39.980  21.050  26.027  1.00  0.00     0.202 C 
ENDROOT
BRANCH   1   2
ATOM      2  C   UNL A   1      38.831  22.058  26.096  1.00  0.00     0.261 C 
BRANCH   2   3
ATOM      3  O   UNL A   1      37.665  21.508  25.463  1.00  0.00    -0.459 OA
BRANCH   3   4
ATOM      4  C   UNL A   1      36.586  22.316  25.267  1.00  0.00     0.365 C 
ATOM      5  O   UNL A   1      36.615  23.341  24.596  1.00  0.00    -0.245 OA
BRANCH   4   6
ATOM      6  C   UNL A   1      35.312  21.765  25.994  1.00  0.00     0.302 C 
BRANCH   6   7
ATOM      7  N   UNL A   1      34.345  21.369  24.954  1.00  0.00    -0.334 N 
ATOM      8  H   UNL A   1      33.491  21.910  25.091  1.00  0.00     0.347 HD
ATOM      9  H   UNL A   1      34.794  21.551  24.057  1.00  0.00     0.347 HD
BRANCH   7  10
ATOM     10  C   UNL A   1      33.992  19.956  24.958  1.00  0.00     0.257 C 
ATOM     11  C   UNL A   1      32.699  19.777  24.173  1.00  0.00     0.071 C 
ENDBRANCH   7  10
ENDBRANCH   6   7
BRANCH   6  12
ATOM     12  C   UNL A   1      34.792  22.723  27.096  1.00  0.00     0.177 C 
BRANCH  12  13
ATOM     13  C   UNL A   1      33.317  23.036  27.174  1.00  0.00     0.231 C 
ATOM     14  O   UNL A   1      32.602  22.387  27.947  1.00  0.00    -0.274 OA
ATOM     15  N   UNL A   1      32.726  24.070  26.511  1.00  0.00    -0.326 N 
ATOM     16  H   UNL A   1      31.835  24.281  26.873  1.00  0.00     0.169 HD
BRANCH  15  17
ATOM     17  C   UNL A   1      33.075  24.913  25.438  1.00  0.00     0.041 A 
ATOM     18  C   UNL A   1      33.057  24.552  24.099  1.00  0.00     0.029 A 
ATOM     19  C   UNL A   1      33.348  26.251  25.746  1.00  0.00     0.029 A 
ATOM     20  C   UNL A   1      33.133  25.499  23.069  1.00  0.00    -0.049 A 
ATOM     21  C   UNL A   1      33.544  27.204  24.734  1.00  0.00    -0.049 A 
ATOM     22  C   UNL A   1      32.906  25.082  21.644  1.00  0.00     0.044 C 
ATOM     23  C   UNL A   1      33.405  26.825  23.394  1.00  0.00     0.007 A 
ATOM     24  C   UNL A   1      33.868  28.629  25.068  1.00  0.00     0.044 C 
ENDBRANCH  15  17
ENDBRANCH  12  13
ENDBRANCH   6  12
ENDBRANCH   4   6
ENDBRANCH   3   4
ENDBRANCH   2   3
ENDBRANCH   1   2
BRANCH   1  25
ATOM     25  O   UNL A   1      41.239  21.534  26.497  1.00  0.00    -0.374 OA
BRANCH  25  26
ATOM     26  C   UNL A   1      42.412  20.892  26.004  1.00  0.00     0.202 C 
BRANCH  26  27
ATOM     27  C   UNL A   1      43.465  21.809  25.370  1.00  0.00     0.261 C 
BRANCH  27  28
ATOM     28  O   UNL A   1      42.894  22.998  24.799  1.00  0.00    -0.460 OA
BRANCH  28  29
ATOM     29  C   UNL A   1      43.612  24.121  25.037  1.00  0.00     0.338 C 
ATOM     30  O   UNL A   1      44.701  24.418  24.561  1.00  0.00    -0.246 OA
BRANCH  29  31
ATOM     31  C   UNL A   1      42.862  25.060  25.890  1.00  0.00     0.060 A 
ATOM     32  C   UNL A   1      43.438  26.316  26.115  1.00  0.00     0.016 A 
ATOM     33  C   UNL A   1      41.694  24.685  26.558  1.00  0.00     0.016 A 
ATOM     34  C   UNL A   1      42.888  27.178  27.060  1.00  0.00     0.010 A 
ATOM     35  C   UNL A   1      41.142  25.551  27.511  1.00  0.00     0.010 A 
ATOM     36  C   UNL A   1      41.763  26.781  27.797  1.00  0.00    -0.014 A 
BRANCH  36  37
ATOM     37  C   UNL A   1      41.344  27.591  28.967  1.00  0.00     0.031 A 
ATOM     38  C   UNL A   1      42.128  27.487  30.247  1.00  0.00     0.074 A 
ATOM     39  C   UNL A   1      40.314  28.449  28.876  1.00  0.00     0.049 A 
ATOM     40  N   UNL A   1      41.942  28.100  31.389  1.00  0.00    -0.248 NA
ATOM     41  C   UNL A   1      43.278  26.569  30.239  1.00  0.00     0.031 C 
ATOM     42  C   UNL A   1      39.505  28.668  27.679  1.00  0.00     0.029 A 
ATOM     43  N   UNL A   1      39.774  29.296  29.811  1.00  0.00    -0.354 N 
ATOM     44  C   UNL A   1      42.948  27.644  32.231  1.00  0.00     0.074 A 
ATOM     45  C   UNL A   1      43.724  26.680  31.482  1.00  0.00     0.031 C 
ATOM     46  C   UNL A   1      38.562  29.585  27.956  1.00  0.00     0.029 A 
ATOM     47  C   UNL A   1      38.686  29.995  29.353  1.00  0.00     0.049 A 
ATOM     48  H   UNL A   1      40.133  29.391  30.723  1.00  0.00     0.167 HD
ATOM     49  C   UNL A   1      43.210  28.008  33.509  1.00  0.00     0.037 A 
ATOM     50  C   UNL A   1      37.873  30.855  29.997  1.00  0.00     0.037 A 
ATOM     51  C   UNL A   1      42.440  28.968  34.255  1.00  0.00     0.049 A 
ATOM     52  C   UNL A   1      38.146  31.193  31.440  1.00  0.00     0.074 A 
ATOM     53  C   UNL A   1      42.632  29.410  35.552  1.00  0.00     0.029 A 
ATOM     54  N   UNL A   1      41.324  29.633  33.767  1.00  0.00    -0.354 N 
ATOM     55  N   UNL A   1      39.110  30.774  32.221  1.00  0.00    -0.248 NA
ATOM     56  C   UNL A   1      37.216  32.131  32.088  1.00  0.00     0.031 C 
ATOM     57  C   UNL A   1      41.607  30.309  35.865  1.00  0.00     0.029 A 
ATOM     58  C   UNL A   1      40.805  30.465  34.746  1.00  0.00     0.049 A 
ATOM     59  H   UNL A   1      40.957  29.530  32.860  1.00  0.00     0.167 HD
ATOM     60  C   UNL A   1      38.920  31.411  33.440  1.00  0.00     0.074 A 
ATOM     61  C   UNL A   1      37.755  32.257  33.293  1.00  0.00     0.031 C 
ATOM     62  C   UNL A   1      39.647  31.305  34.580  1.00  0.00     0.037 A 
BRANCH  49  63
ATOM     63  C   UNL A   1      44.370  27.347  34.193  1.00  0.00     0.064 A 
ATOM     64  C   UNL A   1      45.651  27.919  34.186  1.00  0.00     0.173 A 
ATOM     65  C   UNL A   1      44.191  26.145  34.895  1.00  0.00     0.173 A 
ATOM     66  F   UNL A   1      45.876  29.060  33.518  1.00  0.00    -0.203 F 
ATOM     67  C   UNL A   1      46.714  27.300  34.837  1.00  0.00     0.198 A 
ATOM     68  C   UNL A   1      45.251  25.542  35.566  1.00  0.00     0.198 A 
ATOM     69  F   UNL A   1      42.985  25.559  34.935  1.00  0.00    -0.203 F 
ATOM     70  F   UNL A   1      47.939  27.842  34.783  1.00  0.00    -0.200 F 
ATOM     71  C   UNL A   1      46.513  26.116  35.532  1.00  0.00     0.200 A 
ATOM     72  F   UNL A   1      45.052  24.404  36.247  1.00  0.00    -0.200 F 
ATOM     73  F   UNL A   1      47.536  25.526  36.164  1.00  0.00    -0.200 F 
ENDBRANCH  49  63
BRANCH  50  74
ATOM     74  C   UNL A   1      36.712  31.448  29.285  1.00  0.00     0.064 A 
ATOM     75  C   UNL A   1      36.680  32.810  28.957  1.00  0.00     0.173 A 
ATOM     76  C   UNL A   1      35.605  30.664  28.930  1.00  0.00     0.173 A 
ATOM     77  F   UNL A   1      37.704  33.605  29.298  1.00  0.00    -0.203 F 
ATOM     78  C   UNL A   1      35.577  33.368  28.314  1.00  0.00     0.198 A 
ATOM     79  C   UNL A   1      34.514  31.217  28.263  1.00  0.00     0.198 A 
ATOM     80  F   UNL A   1      35.586  29.355  29.224  1.00  0.00    -0.203 F 
ATOM     81  F   UNL A   1      35.552  34.682  28.050  1.00  0.00    -0.200 F 
ATOM     82  C   UNL A   1      34.498  32.570  27.962  1.00  0.00     0.200 A 
ATOM     83  F   UNL A   1      33.479  30.440  27.916  1.00  0.00    -0.200 F 
ATOM     84  F   UNL A   1      33.438  33.107  27.341  1.00  0.00    -0.200 F 
ENDBRANCH  50  74
BRANCH  62  85
ATOM     85  C   UNL A   1      39.221  32.145  35.750  1.00  0.00     0.064 A 
ATOM     86  C   UNL A   1      39.675  33.461  35.912  1.00  0.00     0.173 A 
ATOM     87  C   UNL A   1      38.317  31.639  36.696  1.00  0.00     0.173 A 
ATOM     88  F   UNL A   1      40.551  33.986  35.042  1.00  0.00    -0.203 F 
ATOM     89  C   UNL A   1      39.254  34.235  36.991  1.00  0.00     0.198 A 
ATOM     90  C   UNL A   1      37.878  32.424  37.759  1.00  0.00     0.198 A 
ATOM     91  F   UNL A   1      37.849  30.386  36.583  1.00  0.00    -0.203 F 
ATOM     92  F   UNL A   1      39.732  35.476  37.151  1.00  0.00    -0.200 F 
ATOM     93  C   UNL A   1      38.352  33.718  37.909  1.00  0.00     0.200 A 
ATOM     94  F   UNL A   1      36.996  31.927  38.638  1.00  0.00    -0.200 F 
ATOM     95  F   UNL A   1      37.944  34.466  38.943  1.00  0.00    -0.200 F 
ENDBRANCH  62  85
ENDBRANCH  36  37
ENDBRANCH  29  31
ENDBRANCH  28  29
ENDBRANCH  27  28
ENDBRANCH  26  27
ENDBRANCH  25  26
ENDBRANCH   1  25
TORSDOF 19
ENDMDL
MODEL 2
REMARK VINA RESULT:     -10.8      3.572      8.579
REMARK SMILES CC[NH2+][C@H](CC(=O)Nc1cc(C)cc(C)c1)C(=O)OCCOCCOC(=O)c1ccc(-c2c3nc(c(-c4c(F)c(F)c(F)c(F)c4F)c4ccc([nH]4)c(-c4c(F)c(F)c(F)c(F)c4F)c4nc(c(-c5c(F)c(F)c(F)c(F)c5F)c5ccc2[nH]5)C=C4)C=C3)cc1
REMARK SMILES IDX 21 1 20 2 19 3 17 4 18 5 4 6 3 7 2 10 1 11 5 12 6 13 7 14
REMARK SMILES IDX 8 15 9 17 10 18 16 19 11 20 14 21 12 22 13 23 15 24 22 25
REMARK SMILES IDX 23 26 24 27 25 28 26 29 27 30 28 31 29 32 90 33 30 34 89 35
REMARK SMILES IDX 31 36 32 37 33 38 83 39 34 40 88 41 82 42 84 43 35 44 87 45
REMARK SMILES IDX 81 46 80 47 36 49 68 50 48 51 67 52 49 53 52 54 66 55 85 56
REMARK SMILES IDX 50 57 51 58 65 60 86 61 53 62 37 63 38 64 46 65 39 66 40 67
REMARK SMILES IDX 44 68 47 69 41 70 42 71 45 72 43 73 69 74 70 75 78 76 71 77
REMARK SMILES IDX 72 78 76 79 79 80 73 81 74 82 77 83 75 84 54 85 55 86 63 87
REMARK SMILES IDX 56 88 57 89 61 90 64 91 58 92 59 93 62 94 60 95
REMARK H PARENT 3 8 3 9 8 16 84 48 52 59
REMARK Flexibility Score: inf
ROOT
ATOM      1  C   UNL A   1      31.799  28.873  27.198  1.00  0.00     0.202 C 
ENDROOT
BRANCH   1   2
ATOM      2  C   UNL A   1      31.772  28.211  25.819  1.00  0.00     0.261 C 
BRANCH   2   3
ATOM      3  O   UNL A   1      32.081  26.814  25.946  1.00  0.00    -0.459 OA
BRANCH   3   4
ATOM      4  C   UNL A   1      31.089  25.904  25.738  1.00  0.00     0.365 C 
ATOM      5  O   UNL A   1      30.115  25.778  26.471  1.00  0.00    -0.245 OA
BRANCH   4   6
ATOM      6  C   UNL A   1      31.345  25.055  24.447  1.00  0.00     0.302 C 
BRANCH   6   7
ATOM      7  N   UNL A   1      32.759  24.634  24.467  1.00  0.00    -0.334 N 
ATOM      8  H   UNL A   1      33.039  24.416  23.511  1.00  0.00     0.347 HD
ATOM      9  H   UNL A   1      33.284  25.408  24.871  1.00  0.00     0.347 HD
BRANCH   7  10
ATOM     10  C   UNL A   1      33.034  23.470  25.297  1.00  0.00     0.257 C 
ATOM     11  C   UNL A   1      34.258  23.766  26.155  1.00  0.00     0.071 C 
ENDBRANCH   7  10
ENDBRANCH   6   7
BRANCH   6  12
ATOM     12  C   UNL A   1      30.850  25.761  23.159  1.00  0.00     0.177 C 
BRANCH  12  13
ATOM     13  C   UNL A   1      31.702  26.835  22.526  1.00  0.00     0.231 C 
ATOM     14  O   UNL A   1      32.890  26.595  22.276  1.00  0.00    -0.274 OA
ATOM     15  N   UNL A   1      31.218  28.041  22.112  1.00  0.00    -0.326 N 
ATOM     16  H   UNL A   1      31.840  28.499  21.501  1.00  0.00     0.169 HD
BRANCH  15  17
ATOM     17  C   UNL A   1      30.049  28.791  22.340  1.00  0.00     0.041 A 
ATOM     18  C   UNL A   1      29.839  30.094  21.911  1.00  0.00     0.029 A 
ATOM     19  C   UNL A   1      28.977  28.127  22.946  1.00  0.00     0.029 A 
ATOM     20  C   UNL A   1      28.568  30.684  21.913  1.00  0.00    -0.049 A 
ATOM     21  C   UNL A   1      27.718  28.736  23.067  1.00  0.00    -0.049 A 
ATOM     22  C   UNL A   1      28.355  32.017  21.253  1.00  0.00     0.044 C 
ATOM     23  C   UNL A   1      27.514  30.008  22.519  1.00  0.00     0.007 A 
ATOM     24  C   UNL A   1      26.581  28.033  23.745  1.00  0.00     0.044 C 
ENDBRANCH  15  17
ENDBRANCH  12  13
ENDBRANCH   6  12
ENDBRANCH   4   6
ENDBRANCH   3   4
ENDBRANCH   2   3
ENDBRANCH   1   2
BRANCH   1  25
ATOM     25  O   UNL A   1      32.375  30.181  27.230  1.00  0.00    -0.374 OA
BRANCH  25  26
ATOM     26  C   UNL A   1      31.706  31.208  26.503  1.00  0.00     0.202 C 
BRANCH  26  27
ATOM     27  C   UNL A   1      32.024  32.647  26.924  1.00  0.00     0.261 C 
BRANCH  27  28
ATOM     28  O   UNL A   1      32.855  32.713  28.095  1.00  0.00    -0.460 OA
BRANCH  28  29
ATOM     29  C   UNL A   1      33.931  33.523  27.962  1.00  0.00     0.338 C 
ATOM     30  O   UNL A   1      33.928  34.725  27.728  1.00  0.00    -0.246 OA
BRANCH  29  31
ATOM     31  C   UNL A   1      35.180  32.797  28.252  1.00  0.00     0.060 A 
ATOM     32  C   UNL A   1      35.066  31.451  28.616  1.00  0.00     0.016 A 
ATOM     33  C   UNL A   1      36.420  33.441  28.296  1.00  0.00     0.016 A 
ATOM     34  C   UNL A   1      36.177  30.758  29.090  1.00  0.00     0.010 A 
ATOM     35  C   UNL A   1      37.536  32.745  28.777  1.00  0.00     0.010 A 
ATOM     36  C   UNL A   1      37.409  31.415  29.217  1.00  0.00    -0.014 A 
BRANCH  36  37
ATOM     37  C   UNL A   1      38.509  30.749  29.956  1.00  0.00     0.031 A 
ATOM     38  C   UNL A   1      38.737  31.099  31.401  1.00  0.00     0.074 A 
ATOM     39  C   UNL A   1      39.262  29.806  29.364  1.00  0.00     0.049 A 
ATOM     40  N   UNL A   1      39.636  30.642  32.237  1.00  0.00    -0.248 NA
ATOM     41  C   UNL A   1      37.827  32.096  31.986  1.00  0.00     0.031 C 
ATOM     42  C   UNL A   1      39.112  29.353  27.983  1.00  0.00     0.029 A 
ATOM     43  N   UNL A   1      40.305  29.061  29.855  1.00  0.00    -0.354 N 
ATOM     44  C   UNL A   1      39.400  31.293  33.440  1.00  0.00     0.074 A 
ATOM     45  C   UNL A   1      38.295  32.201  33.221  1.00  0.00     0.031 C 
ATOM     46  C   UNL A   1      40.038  28.412  27.733  1.00  0.00     0.029 A 
ATOM     47  C   UNL A   1      40.859  28.216  28.926  1.00  0.00     0.049 A 
ATOM     48  H   UNL A   1      40.624  29.126  30.784  1.00  0.00     0.167 HD
ATOM     49  C   UNL A   1      40.038  31.139  34.624  1.00  0.00     0.037 A 
ATOM     50  C   UNL A   1      41.922  27.394  29.025  1.00  0.00     0.037 A 
ATOM     51  C   UNL A   1      41.137  30.235  34.844  1.00  0.00     0.049 A 
ATOM     52  C   UNL A   1      42.657  27.289  30.336  1.00  0.00     0.074 A 
ATOM     53  C   UNL A   1      41.843  30.001  36.010  1.00  0.00     0.029 A 
ATOM     54  N   UNL A   1      41.692  29.419  33.869  1.00  0.00    -0.354 N 
ATOM     55  N   UNL A   1      42.414  27.893  31.473  1.00  0.00    -0.248 NA
ATOM     56  C   UNL A   1      43.814  26.381  30.376  1.00  0.00     0.031 C 
ATOM     57  C   UNL A   1      42.854  29.075  35.731  1.00  0.00     0.029 A 
ATOM     58  C   UNL A   1      42.747  28.696  34.403  1.00  0.00     0.049 A 
ATOM     59  H   UNL A   1      41.382  29.362  32.937  1.00  0.00     0.167 HD
ATOM     60  C   UNL A   1      43.367  27.423  32.368  1.00  0.00     0.074 A 
ATOM     61  C   UNL A   1      44.186  26.473  31.645  1.00  0.00     0.031 C 
ATOM     62  C   UNL A   1      43.548  27.750  33.671  1.00  0.00     0.037 A 
BRANCH  49  63
ATOM     63  C   UNL A   1      39.576  31.983  35.775  1.00  0.00     0.064 A 
ATOM     64  C   UNL A   1      40.118  33.254  36.019  1.00  0.00     0.173 A 
ATOM     65  C   UNL A   1      38.553  31.532  36.623  1.00  0.00     0.173 A 
ATOM     66  F   UNL A   1      41.107  33.725  35.244  1.00  0.00    -0.203 F 
ATOM     67  C   UNL A   1      39.668  34.032  37.082  1.00  0.00     0.198 A 
ATOM     68  C   UNL A   1      38.088  32.323  37.670  1.00  0.00     0.198 A 
ATOM     69  F   UNL A   1      37.999  30.325  36.430  1.00  0.00    -0.203 F 
ATOM     70  F   UNL A   1      40.228  35.226  37.322  1.00  0.00    -0.200 F 
ATOM     71  C   UNL A   1      38.650  33.569  37.903  1.00  0.00     0.200 A 
ATOM     72  F   UNL A   1      37.096  31.879  38.455  1.00  0.00    -0.200 F 
ATOM     73  F   UNL A   1      38.213  34.322  38.921  1.00  0.00    -0.200 F 
ENDBRANCH  49  63
BRANCH  50  74
ATOM     74  C   UNL A   1      42.364  26.613  27.842  1.00  0.00     0.064 A 
ATOM     75  C   UNL A   1      43.389  27.078  27.007  1.00  0.00     0.173 A 
ATOM     76  C   UNL A   1      41.758  25.392  27.514  1.00  0.00     0.173 A 
ATOM     77  F   UNL A   1      43.982  28.253  27.264  1.00  0.00    -0.203 F 
ATOM     78  C   UNL A   1      43.782  26.356  25.881  1.00  0.00     0.198 A 
ATOM     79  C   UNL A   1      42.169  24.658  26.404  1.00  0.00     0.198 A 
ATOM     80  F   UNL A   1      40.770  24.906  28.280  1.00  0.00    -0.203 F 
ATOM     81  F   UNL A   1      44.735  26.843  25.074  1.00  0.00    -0.200 F 
ATOM     82  C   UNL A   1      43.175  25.144  25.584  1.00  0.00     0.200 A 
ATOM     83  F   UNL A   1      41.588  23.483  26.128  1.00  0.00    -0.200 F 
ATOM     84  F   UNL A   1      43.555  24.449  24.503  1.00  0.00    -0.200 F 
ENDBRANCH  50  74
BRANCH  62  85
ATOM     85  C   UNL A   1      44.654  27.054  34.410  1.00  0.00     0.064 A 
ATOM     86  C   UNL A   1      45.967  27.545  34.400  1.00  0.00     0.173 A 
ATOM     87  C   UNL A   1      44.387  25.906  35.172  1.00  0.00     0.173 A 
ATOM     88  F   UNL A   1      46.277  28.632  33.675  1.00  0.00    -0.203 F 
ATOM     89  C   UNL A   1      46.978  26.900  35.108  1.00  0.00     0.198 A 
ATOM     90  C   UNL A   1      45.394  25.279  35.899  1.00  0.00     0.198 A 
ATOM     91  F   UNL A   1      43.146  25.399  35.219  1.00  0.00    -0.203 F 
ATOM     92  F   UNL A   1      48.235  27.362  35.050  1.00  0.00    -0.200 F 
ATOM     93  C   UNL A   1      46.690  25.772  35.862  1.00  0.00     0.200 A 
ATOM     94  F   UNL A   1      45.111  24.196  36.637  1.00  0.00    -0.200 F 
ATOM     95  F   UNL A   1      47.662  25.156  36.548  1.00  0.00    -0.200 F 
ENDBRANCH  62  85
ENDBRANCH  36  37
ENDBRANCH  29  31
ENDBRANCH  28  29
ENDBRANCH  27  28
ENDBRANCH  26  27
ENDBRANCH  25  26
ENDBRANCH   1  25
TORSDOF 19
ENDMDL
MODEL 3
REMARK VINA RESULT:     -10.6      4.637      6.902
REMARK SMILES CC[NH2+][C@H](CC(=O)Nc1cc(C)cc(C)c1)C(=O)OCCOCCOC(=O)c1ccc(-c2c3nc(c(-c4c(F)c(F)c(F)c(F)c4F)c4ccc([nH]4)c(-c4c(F)c(F)c(F)c(F)c4F)c4nc(c(-c5c(F)c(F)c(F)c(F)c5F)c5ccc2[nH]5)C=C4)C=C3)cc1
REMARK SMILES IDX 21 1 20 2 19 3 17 4 18 5 4 6 3 7 2 10 1 11 5 12 6 13 7 14
REMARK SMILES IDX 8 15 9 17 10 18 16 19 11 20 14 21 12 22 13 23 15 24 22 25
REMARK SMILES IDX 23 26 24 27 25 28 26 29 27 30 28 31 29 32 90 33 30 34 89 35
REMARK SMILES IDX 31 36 32 37 33 38 83 39 34 40 88 41 82 42 84 43 35 44 87 45
REMARK SMILES IDX 81 46 80 47 36 49 68 50 48 51 67 52 49 53 52 54 66 55 85 56
REMARK SMILES IDX 50 57 51 58 65 60 86 61 53 62 37 63 38 64 46 65 39 66 40 67
REMARK SMILES IDX 44 68 47 69 41 70 42 71 45 72 43 73 69 74 70 75 78 76 71 77
REMARK SMILES IDX 72 78 76 79 79 80 73 81 74 82 77 83 75 84 54 85 55 86 63 87
REMARK SMILES IDX 56 88 57 89 61 90 64 91 58 92 59 93 62 94 60 95
REMARK H PARENT 3 8 3 9 8 16 84 48 52 59
REMARK Flexibility Score: inf
ROOT
ATOM      1  C   UNL A   1      37.505  22.644  25.882  1.00  0.00     0.202 C 
ENDROOT
BRANCH   1   2
ATOM      2  C   UNL A   1      36.071  22.180  25.615  1.00  0.00     0.261 C 
BRANCH   2   3
ATOM      3  O   UNL A   1      35.159  22.937  26.426  1.00  0.00    -0.459 OA
BRANCH   3   4
ATOM      4  C   UNL A   1      34.153  23.620  25.811  1.00  0.00     0.365 C 
ATOM      5  O   UNL A   1      34.296  24.718  25.288  1.00  0.00    -0.245 OA
BRANCH   4   6
ATOM      6  C   UNL A   1      32.805  22.823  25.851  1.00  0.00     0.302 C 
BRANCH   6   7
ATOM      7  N   UNL A   1      32.178  22.947  24.522  1.00  0.00    -0.334 N 
ATOM      8  H   UNL A   1      31.192  22.700  24.611  1.00  0.00     0.347 HD
ATOM      9  H   UNL A   1      32.324  23.910  24.222  1.00  0.00     0.347 HD
BRANCH   7  10
ATOM     10  C   UNL A   1      32.766  22.101  23.492  1.00  0.00     0.257 C 
ATOM     11  C   UNL A   1      33.149  22.977  22.306  1.00  0.00     0.071 C 
ENDBRANCH   7  10
ENDBRANCH   6   7
BRANCH   6  12
ATOM     12  C   UNL A   1      31.924  23.198  27.070  1.00  0.00     0.177 C 
BRANCH  12  13
ATOM     13  C   UNL A   1      30.458  23.494  26.865  1.00  0.00     0.231 C 
ATOM     14  O   UNL A   1      29.620  22.633  27.164  1.00  0.00    -0.274 OA
ATOM     15  N   UNL A   1      29.979  24.704  26.460  1.00  0.00    -0.326 N 
ATOM     16  H   UNL A   1      29.013  24.796  26.629  1.00  0.00     0.169 HD
BRANCH  15  17
ATOM     17  C   UNL A   1      30.523  25.856  25.861  1.00  0.00     0.041 A 
ATOM     18  C   UNL A   1      30.356  26.222  24.533  1.00  0.00     0.029 A 
ATOM     19  C   UNL A   1      31.186  26.756  26.704  1.00  0.00     0.029 A 
ATOM     20  C   UNL A   1      30.672  27.505  24.068  1.00  0.00    -0.049 A 
ATOM     21  C   UNL A   1      31.619  28.007  26.236  1.00  0.00    -0.049 A 
ATOM     22  C   UNL A   1      30.286  27.918  22.676  1.00  0.00     0.044 C 
ATOM     23  C   UNL A   1      31.330  28.387  24.920  1.00  0.00     0.007 A 
ATOM     24  C   UNL A   1      32.356  28.955  27.133  1.00  0.00     0.044 C 
ENDBRANCH  15  17
ENDBRANCH  12  13
ENDBRANCH   6  12
ENDBRANCH   4   6
ENDBRANCH   3   4
ENDBRANCH   2   3
ENDBRANCH   1   2
BRANCH   1  25
ATOM     25  O   UNL A   1      38.524  21.770  25.395  1.00  0.00    -0.374 OA
BRANCH  25  26
ATOM     26  C   UNL A   1      38.130  20.457  25.005  1.00  0.00     0.202 C 
BRANCH  26  27
ATOM     27  C   UNL A   1      39.065  19.318  25.431  1.00  0.00     0.261 C 
BRANCH  27  28
ATOM     28  O   UNL A   1      39.949  19.696  26.499  1.00  0.00    -0.460 OA
BRANCH  28  29
ATOM     29  C   UNL A   1      41.261  19.525  26.213  1.00  0.00     0.338 C 
ATOM     30  O   UNL A   1      41.794  18.522  25.756  1.00  0.00    -0.246 OA
BRANCH  29  31
ATOM     31  C   UNL A   1      42.014  20.776  26.412  1.00  0.00     0.060 A 
ATOM     32  C   UNL A   1      42.252  21.174  27.732  1.00  0.00     0.016 A 
ATOM     33  C   UNL A   1      42.369  21.607  25.346  1.00  0.00     0.016 A 
ATOM     34  C   UNL A   1      42.783  22.433  27.998  1.00  0.00     0.010 A 
ATOM     35  C   UNL A   1      42.900  22.875  25.614  1.00  0.00     0.010 A 
ATOM     36  C   UNL A   1      43.066  23.310  26.941  1.00  0.00    -0.014 A 
BRANCH  36  37
ATOM     37  C   UNL A   1      43.386  24.726  27.244  1.00  0.00     0.031 A 
ATOM     38  C   UNL A   1      44.782  25.230  26.995  1.00  0.00     0.074 A 
ATOM     39  C   UNL A   1      42.435  25.567  27.684  1.00  0.00     0.049 A 
ATOM     40  N   UNL A   1      45.282  26.425  27.186  1.00  0.00    -0.248 NA
ATOM     41  C   UNL A   1      45.744  24.257  26.454  1.00  0.00     0.031 C 
ATOM     42  C   UNL A   1      41.040  25.208  27.925  1.00  0.00     0.029 A 
ATOM     43  N   UNL A   1      42.503  26.899  28.006  1.00  0.00    -0.354 N 
ATOM     44  C   UNL A   1      46.611  26.347  26.791  1.00  0.00     0.074 A 
ATOM     45  C   UNL A   1      46.851  24.981  26.379  1.00  0.00     0.031 C 
ATOM     46  C   UNL A   1      40.382  26.293  28.368  1.00  0.00     0.029 A 
ATOM     47  C   UNL A   1      41.316  27.413  28.465  1.00  0.00     0.049 A 
ATOM     48  H   UNL A   1      43.324  27.434  27.917  1.00  0.00     0.167 HD
ATOM     49  C   UNL A   1      47.543  27.329  26.761  1.00  0.00     0.037 A 
ATOM     50  C   UNL A   1      41.024  28.644  28.928  1.00  0.00     0.037 A 
ATOM     51  C   UNL A   1      47.305  28.688  27.170  1.00  0.00     0.049 A 
ATOM     52  C   UNL A   1      42.097  29.702  28.947  1.00  0.00     0.074 A 
ATOM     53  C   UNL A   1      48.184  29.757  27.168  1.00  0.00     0.029 A 
ATOM     54  N   UNL A   1      46.098  29.163  27.659  1.00  0.00    -0.354 N 
ATOM     55  N   UNL A   1      43.344  29.625  28.552  1.00  0.00    -0.248 NA
ATOM     56  C   UNL A   1      41.717  31.022  29.473  1.00  0.00     0.031 C 
ATOM     57  C   UNL A   1      47.521  30.869  27.697  1.00  0.00     0.029 A 
ATOM     58  C   UNL A   1      46.215  30.506  27.984  1.00  0.00     0.049 A 
ATOM     59  H   UNL A   1      45.279  28.627  27.761  1.00  0.00     0.167 HD
ATOM     60  C   UNL A   1      43.890  30.885  28.758  1.00  0.00     0.074 A 
ATOM     61  C   UNL A   1      42.835  31.714  29.300  1.00  0.00     0.031 C 
ATOM     62  C   UNL A   1      45.152  31.317  28.518  1.00  0.00     0.037 A 
BRANCH  49  63
ATOM     63  C   UNL A   1      48.919  26.962  26.288  1.00  0.00     0.064 A 
ATOM     64  C   UNL A   1      49.886  26.449  27.165  1.00  0.00     0.173 A 
ATOM     65  C   UNL A   1      49.263  27.092  24.933  1.00  0.00     0.173 A 
ATOM     66  F   UNL A   1      49.610  26.319  28.471  1.00  0.00    -0.203 F 
ATOM     67  C   UNL A   1      51.154  26.101  26.707  1.00  0.00     0.198 A 
ATOM     68  C   UNL A   1      50.523  26.718  24.475  1.00  0.00     0.198 A 
ATOM     69  F   UNL A   1      48.372  27.574  24.053  1.00  0.00    -0.203 F 
ATOM     70  F   UNL A   1      52.076  25.652  27.570  1.00  0.00    -0.200 F 
ATOM     71  C   UNL A   1      51.469  26.229  25.362  1.00  0.00     0.200 A 
ATOM     72  F   UNL A   1      50.822  26.832  23.173  1.00  0.00    -0.200 F 
ATOM     73  F   UNL A   1      52.688  25.886  24.923  1.00  0.00    -0.200 F 
ENDBRANCH  49  63
BRANCH  50  74
ATOM     74  C   UNL A   1      39.657  28.940  29.426  1.00  0.00     0.064 A 
ATOM     75  C   UNL A   1      39.303  28.705  30.762  1.00  0.00     0.173 A 
ATOM     76  C   UNL A   1      38.671  29.453  28.570  1.00  0.00     0.173 A 
ATOM     77  F   UNL A   1      40.204  28.191  31.612  1.00  0.00    -0.203 F 
ATOM     78  C   UNL A   1      38.011  28.957  31.218  1.00  0.00     0.198 A 
ATOM     79  C   UNL A   1      37.388  29.730  29.034  1.00  0.00     0.198 A 
ATOM     80  F   UNL A   1      38.959  29.693  27.282  1.00  0.00    -0.203 F 
ATOM     81  F   UNL A   1      37.686  28.682  32.489  1.00  0.00    -0.200 F 
ATOM     82  C   UNL A   1      37.056  29.475  30.355  1.00  0.00     0.200 A 
ATOM     83  F   UNL A   1      36.472  30.241  28.199  1.00  0.00    -0.200 F 
ATOM     84  F   UNL A   1      35.814  29.720  30.795  1.00  0.00    -0.200 F 
ENDBRANCH  50  74
BRANCH  62  85
ATOM     85  C   UNL A   1      45.456  32.758  28.813  1.00  0.00     0.064 A 
ATOM     86  C   UNL A   1      45.237  33.764  27.862  1.00  0.00     0.173 A 
ATOM     87  C   UNL A   1      45.933  33.139  30.077  1.00  0.00     0.173 A 
ATOM     88  F   UNL A   1      44.796  33.449  26.634  1.00  0.00    -0.203 F 
ATOM     89  C   UNL A   1      45.503  35.099  28.158  1.00  0.00     0.198 A 
ATOM     90  C   UNL A   1      46.173  34.477  30.378  1.00  0.00     0.198 A 
ATOM     91  F   UNL A   1      46.154  32.215  31.023  1.00  0.00    -0.203 F 
ATOM     92  F   UNL A   1      45.327  36.040  27.220  1.00  0.00    -0.200 F 
ATOM     93  C   UNL A   1      45.965  35.454  29.416  1.00  0.00     0.200 A 
ATOM     94  F   UNL A   1      46.607  34.820  31.599  1.00  0.00    -0.200 F 
ATOM     95  F   UNL A   1      46.215  36.739  29.701  1.00  0.00    -0.200 F 
ENDBRANCH  62  85
ENDBRANCH  36  37
ENDBRANCH  29  31
ENDBRANCH  28  29
ENDBRANCH  27  28
ENDBRANCH  26  27
ENDBRANCH  25  26
ENDBRANCH   1  25
TORSDOF 19
ENDMDL
