MODEL 1
REMARK VINA RESULT:     -11.9      0.000      0.000
REMARK SMILES O=C(OCCOCCOC(=O)c1cc(F)c(F)cc1NS(=O)(=O)c1ccc2c(c1)CCC2)c1ccc(-c2c3nc(c(-c4c(F)c(F)c(F)c(F)c4F)c4ccc([nH]4)c(-c4c(F)c(F)c(F)c(F)c4F)c4nc(c(-c5c(F)c(F)c(F)c(F)c5F)c5ccc2[nH]5)C=C4)C=C3)cc1
REMARK SMILES IDX 7 1 6 2 5 3 4 4 3 5 2 6 1 7 33 8 34 9 95 10 35 11 94 12
REMARK SMILES IDX 36 13 37 14 38 15 88 16 39 17 93 18 87 19 89 20 40 21 92 22
REMARK SMILES IDX 86 23 85 24 41 26 73 27 53 28 72 29 54 30 57 31 71 32 90 33
REMARK SMILES IDX 55 34 56 35 70 37 91 38 58 39 42 40 43 41 51 42 44 43 45 44
REMARK SMILES IDX 49 45 52 46 46 47 47 48 50 49 48 50 74 51 75 52 83 53 76 54
REMARK SMILES IDX 77 55 81 56 84 57 78 58 79 59 82 60 80 61 59 62 60 63 68 64
REMARK SMILES IDX 61 65 62 66 66 67 69 68 63 69 64 70 67 71 65 72 8 73 9 74
REMARK SMILES IDX 10 75 11 76 12 77 13 78 19 79 14 80 18 81 15 82 16 83 17 84
REMARK SMILES IDX 20 85 21 87 22 88 23 89 24 90 25 91 29 92 26 93 28 94 27 95
REMARK SMILES IDX 30 96 32 97 31 98
REMARK H PARENT 89 25 57 36 20 86
REMARK Flexibility Score: inf
ROOT
ATOM      1  C   UNL A   1      33.104  29.384  25.106  1.00  0.00     0.202 C 
ENDROOT
BRANCH   1   2
ATOM      2  O   UNL A   1      32.121  30.349  25.477  1.00  0.00    -0.374 OA
BRANCH   2   3
ATOM      3  C   UNL A   1      32.269  30.922  26.775  1.00  0.00     0.202 C 
BRANCH   3   4
ATOM      4  C   UNL A   1      31.831  32.384  26.871  1.00  0.00     0.261 C 
BRANCH   4   5
ATOM      5  O   UNL A   1      32.594  33.068  27.879  1.00  0.00    -0.460 OA
BRANCH   5   6
ATOM      6  C   UNL A   1      33.866  33.520  27.796  1.00  0.00     0.338 C 
ATOM      7  O   UNL A   1      34.073  34.583  27.211  1.00  0.00    -0.246 OA
BRANCH   6   8
ATOM      8  C   UNL A   1      35.047  32.824  28.399  1.00  0.00     0.060 A 
ATOM      9  C   UNL A   1      35.029  31.550  28.967  1.00  0.00     0.016 A 
ATOM     10  C   UNL A   1      36.288  33.482  28.313  1.00  0.00     0.016 A 
ATOM     11  C   UNL A   1      36.174  30.964  29.480  1.00  0.00     0.010 A 
ATOM     12  C   UNL A   1      37.457  32.889  28.802  1.00  0.00     0.010 A 
ATOM     13  C   UNL A   1      37.391  31.631  29.405  1.00  0.00    -0.014 A 
BRANCH  13  14
ATOM     14  C   UNL A   1      38.529  31.014  30.105  1.00  0.00     0.031 A 
ATOM     15  C   UNL A   1      38.698  31.307  31.562  1.00  0.00     0.074 A 
ATOM     16  C   UNL A   1      39.247  30.062  29.482  1.00  0.00     0.049 A 
ATOM     17  N   UNL A   1      39.589  30.851  32.399  1.00  0.00    -0.248 NA
ATOM     18  C   UNL A   1      37.711  32.220  32.167  1.00  0.00     0.031 C 
ATOM     19  C   UNL A   1      39.030  29.619  28.103  1.00  0.00     0.029 A 
ATOM     20  N   UNL A   1      40.254  29.256  29.938  1.00  0.00    -0.354 N 
ATOM     21  C   UNL A   1      39.279  31.429  33.623  1.00  0.00     0.074 A 
ATOM     22  C   UNL A   1      38.126  32.277  33.423  1.00  0.00     0.031 C 
ATOM     23  C   UNL A   1      39.855  28.593  27.838  1.00  0.00     0.029 A 
ATOM     24  C   UNL A   1      40.699  28.352  29.004  1.00  0.00     0.049 A 
ATOM     25  H   UNL A   1      40.625  29.317  30.847  1.00  0.00     0.167 HD
ATOM     26  C   UNL A   1      39.910  31.256  34.803  1.00  0.00     0.037 A 
ATOM     27  C   UNL A   1      41.696  27.451  29.086  1.00  0.00     0.037 A 
ATOM     28  C   UNL A   1      41.048  30.395  34.966  1.00  0.00     0.049 A 
ATOM     29  C   UNL A   1      42.459  27.366  30.382  1.00  0.00     0.074 A 
ATOM     30  C   UNL A   1      41.829  30.197  36.088  1.00  0.00     0.029 A 
ATOM     31  N   UNL A   1      41.558  29.580  33.964  1.00  0.00    -0.354 N 
ATOM     32  N   UNL A   1      42.226  27.984  31.515  1.00  0.00    -0.248 NA
ATOM     33  C   UNL A   1      43.634  26.487  30.407  1.00  0.00     0.031 C 
ATOM     34  C   UNL A   1      42.837  29.289  35.752  1.00  0.00     0.029 A 
ATOM     35  C   UNL A   1      42.659  28.889  34.434  1.00  0.00     0.049 A 
ATOM     36  H   UNL A   1      41.189  29.503  33.054  1.00  0.00     0.167 HD
ATOM     37  C   UNL A   1      43.222  27.575  32.388  1.00  0.00     0.074 A 
ATOM     38  C   UNL A   1      44.046  26.629  31.660  1.00  0.00     0.031 C 
ATOM     39  C   UNL A   1      43.446  27.953  33.670  1.00  0.00     0.037 A 
BRANCH  26  40
ATOM     40  C   UNL A   1      39.420  32.052  35.973  1.00  0.00     0.064 A 
ATOM     41  C   UNL A   1      39.942  33.328  36.226  1.00  0.00     0.173 A 
ATOM     42  C   UNL A   1      38.437  31.559  36.844  1.00  0.00     0.173 A 
ATOM     43  F   UNL A   1      40.877  33.849  35.417  1.00  0.00    -0.203 F 
ATOM     44  C   UNL A   1      39.506  34.080  37.313  1.00  0.00     0.198 A 
ATOM     45  C   UNL A   1      37.986  32.323  37.918  1.00  0.00     0.198 A 
ATOM     46  F   UNL A   1      37.886  30.355  36.628  1.00  0.00    -0.203 F 
ATOM     47  F   UNL A   1      40.029  35.293  37.542  1.00  0.00    -0.200 F 
ATOM     48  C   UNL A   1      38.524  33.579  38.155  1.00  0.00     0.200 A 
ATOM     49  F   UNL A   1      37.016  31.851  38.714  1.00  0.00    -0.200 F 
ATOM     50  F   UNL A   1      38.090  34.312  39.189  1.00  0.00    -0.200 F 
ENDBRANCH  26  40
BRANCH  27  51
ATOM     51  C   UNL A   1      42.047  26.612  27.908  1.00  0.00     0.064 A 
ATOM     52  C   UNL A   1      42.977  27.056  26.953  1.00  0.00     0.173 A 
ATOM     53  C   UNL A   1      41.457  25.358  27.698  1.00  0.00     0.173 A 
ATOM     54  F   UNL A   1      43.582  28.245  27.104  1.00  0.00    -0.203 F 
ATOM     55  C   UNL A   1      43.280  26.296  25.825  1.00  0.00     0.198 A 
ATOM     56  C   UNL A   1      41.784  24.584  26.584  1.00  0.00     0.198 A 
ATOM     57  F   UNL A   1      40.581  24.873  28.590  1.00  0.00    -0.203 F 
ATOM     58  F   UNL A   1      44.143  26.766  24.914  1.00  0.00    -0.200 F 
ATOM     59  C   UNL A   1      42.686  25.058  25.644  1.00  0.00     0.200 A 
ATOM     60  F   UNL A   1      41.229  23.374  26.426  1.00  0.00    -0.200 F 
ATOM     61  F   UNL A   1      42.990  24.318  24.568  1.00  0.00    -0.200 F 
ENDBRANCH  27  51
BRANCH  39  62
ATOM     62  C   UNL A   1      44.629  27.357  34.366  1.00  0.00     0.064 A 
ATOM     63  C   UNL A   1      45.892  27.958  34.263  1.00  0.00     0.173 A 
ATOM     64  C   UNL A   1      44.530  26.125  35.027  1.00  0.00     0.173 A 
ATOM     65  F   UNL A   1      46.032  29.132  33.628  1.00  0.00    -0.203 F 
ATOM     66  C   UNL A   1      47.022  27.329  34.774  1.00  0.00     0.198 A 
ATOM     67  C   UNL A   1      45.659  25.511  35.559  1.00  0.00     0.198 A 
ATOM     68  F   UNL A   1      43.339  25.522  35.158  1.00  0.00    -0.203 F 
ATOM     69  F   UNL A   1      48.227  27.895  34.623  1.00  0.00    -0.200 F 
ATOM     70  C   UNL A   1      46.905  26.107  35.419  1.00  0.00     0.200 A 
ATOM     71  F   UNL A   1      45.544  24.340  36.199  1.00  0.00    -0.200 F 
ATOM     72  F   UNL A   1      47.996  25.499  35.905  1.00  0.00    -0.200 F 
ENDBRANCH  39  62
ENDBRANCH  13  14
ENDBRANCH   6   8
ENDBRANCH   5   6
ENDBRANCH   4   5
ENDBRANCH   3   4
ENDBRANCH   2   3
ENDBRANCH   1   2
BRANCH   1  73
ATOM     73  C   UNL A   1      32.744  28.824  23.729  1.00  0.00     0.261 C 
BRANCH  73  74
ATOM     74  O   UNL A   1      32.419  27.430  23.860  1.00  0.00    -0.460 OA
BRANCH  74  75
ATOM     75  C   UNL A   1      31.633  26.879  22.901  1.00  0.00     0.340 C 
ATOM     76  O   UNL A   1      31.002  27.438  22.022  1.00  0.00    -0.246 OA
BRANCH  75  77
ATOM     77  C   UNL A   1      31.862  25.419  22.966  1.00  0.00     0.087 A 
ATOM     78  C   UNL A   1      32.926  24.882  22.220  1.00  0.00     0.060 A 
ATOM     79  C   UNL A   1      30.941  24.583  23.637  1.00  0.00     0.066 A 
ATOM     80  C   UNL A   1      33.051  23.509  22.101  1.00  0.00     0.159 A 
ATOM     81  C   UNL A   1      31.052  23.206  23.419  1.00  0.00     0.070 A 
ATOM     82  F   UNL A   1      34.072  22.996  21.405  1.00  0.00    -0.204 F 
ATOM     83  C   UNL A   1      32.106  22.678  22.676  1.00  0.00     0.160 A 
ATOM     84  F   UNL A   1      32.206  21.349  22.542  1.00  0.00    -0.204 F 
BRANCH  79  85
ATOM     85  N   UNL A   1      30.041  25.139  24.613  1.00  0.00    -0.279 N 
ATOM     86  H   UNL A   1      29.165  25.443  24.283  1.00  0.00     0.180 HD
BRANCH  85  87
ATOM     87  S   UNL A   1      30.329  25.324  26.260  1.00  0.00     0.261 S 
ATOM     88  O   UNL A   1      30.638  26.718  26.485  1.00  0.00    -0.201 OA
ATOM     89  O   UNL A   1      29.239  24.670  26.958  1.00  0.00    -0.201 OA
BRANCH  87  90
ATOM     90  C   UNL A   1      31.816  24.393  26.565  1.00  0.00     0.088 A 
ATOM     91  C   UNL A   1      31.679  23.014  26.834  1.00  0.00     0.022 A 
ATOM     92  C   UNL A   1      33.039  24.949  26.175  1.00  0.00     0.026 A 
ATOM     93  C   UNL A   1      32.745  22.148  26.588  1.00  0.00     0.005 A 
ATOM     94  C   UNL A   1      34.062  24.067  25.880  1.00  0.00    -0.043 A 
ATOM     95  C   UNL A   1      33.905  22.684  26.054  1.00  0.00    -0.045 A 
ATOM     96  C   UNL A   1      35.385  24.375  25.252  1.00  0.00     0.036 C 
ATOM     97  C   UNL A   1      35.098  21.948  25.528  1.00  0.00     0.036 C 
ATOM     98  C   UNL A   1      35.716  23.018  24.615  1.00  0.00     0.010 C 
ENDBRANCH  87  90
ENDBRANCH  85  87
ENDBRANCH  79  85
ENDBRANCH  75  77
ENDBRANCH  74  75
ENDBRANCH  73  74
ENDBRANCH   1  73
TORSDOF 17
ENDMDL
MODEL 2
REMARK VINA RESULT:     -11.8      1.986      2.739
REMARK SMILES O=C(OCCOCCOC(=O)c1cc(F)c(F)cc1NS(=O)(=O)c1ccc2c(c1)CCC2)c1ccc(-c2c3nc(c(-c4c(F)c(F)c(F)c(F)c4F)c4ccc([nH]4)c(-c4c(F)c(F)c(F)c(F)c4F)c4nc(c(-c5c(F)c(F)c(F)c(F)c5F)c5ccc2[nH]5)C=C4)C=C3)cc1
REMARK SMILES IDX 7 1 6 2 5 3 4 4 3 5 2 6 1 7 33 8 34 9 95 10 35 11 94 12
REMARK SMILES IDX 36 13 37 14 38 15 88 16 39 17 93 18 87 19 89 20 40 21 92 22
REMARK SMILES IDX 86 23 85 24 41 26 73 27 53 28 72 29 54 30 57 31 71 32 90 33
REMARK SMILES IDX 55 34 56 35 70 37 91 38 58 39 42 40 43 41 51 42 44 43 45 44
REMARK SMILES IDX 49 45 52 46 46 47 47 48 50 49 48 50 74 51 75 52 83 53 76 54
REMARK SMILES IDX 77 55 81 56 84 57 78 58 79 59 82 60 80 61 59 62 60 63 68 64
REMARK SMILES IDX 61 65 62 66 66 67 69 68 63 69 64 70 67 71 65 72 8 73 9 74
REMARK SMILES IDX 10 75 11 76 12 77 13 78 19 79 14 80 18 81 15 82 16 83 17 84
REMARK SMILES IDX 20 85 21 87 22 88 23 89 24 90 25 91 29 92 26 93 28 94 27 95
REMARK SMILES IDX 30 96 32 97 31 98
REMARK H PARENT 89 25 57 36 20 86
REMARK Flexibility Score: inf
ROOT
ATOM      1  C   UNL A   1      33.021  30.257  26.825  1.00  0.00     0.202 C 
ENDROOT
BRANCH   1   2
ATOM      2  O   UNL A   1      31.641  30.583  26.670  1.00  0.00    -0.374 OA
BRANCH   2   3
ATOM      3  C   UNL A   1      31.322  31.973  26.694  1.00  0.00     0.202 C 
BRANCH   3   4
ATOM      4  C   UNL A   1      32.530  32.893  26.883  1.00  0.00     0.261 C 
BRANCH   4   5
ATOM      5  O   UNL A   1      32.170  34.029  27.686  1.00  0.00    -0.460 OA
BRANCH   5   6
ATOM      6  C   UNL A   1      32.937  34.691  28.583  1.00  0.00     0.338 C 
ATOM      7  O   UNL A   1      32.586  35.817  28.934  1.00  0.00    -0.246 OA
BRANCH   6   8
ATOM      8  C   UNL A   1      34.178  34.131  29.205  1.00  0.00     0.060 A 
ATOM      9  C   UNL A   1      35.482  34.391  28.780  1.00  0.00     0.016 A 
ATOM     10  C   UNL A   1      34.014  33.340  30.357  1.00  0.00     0.016 A 
ATOM     11  C   UNL A   1      36.582  33.853  29.428  1.00  0.00     0.010 A 
ATOM     12  C   UNL A   1      35.118  32.815  31.038  1.00  0.00     0.010 A 
ATOM     13  C   UNL A   1      36.406  33.060  30.556  1.00  0.00    -0.014 A 
BRANCH  13  14
ATOM     14  C   UNL A   1      37.605  32.403  31.097  1.00  0.00     0.031 A 
ATOM     15  C   UNL A   1      38.001  32.715  32.506  1.00  0.00     0.074 A 
ATOM     16  C   UNL A   1      38.179  31.404  30.401  1.00  0.00     0.049 A 
ATOM     17  N   UNL A   1      38.985  32.232  33.215  1.00  0.00    -0.248 NA
ATOM     18  C   UNL A   1      37.157  33.686  33.225  1.00  0.00     0.031 C 
ATOM     19  C   UNL A   1      37.741  30.946  29.080  1.00  0.00     0.029 A 
ATOM     20  N   UNL A   1      39.205  30.559  30.725  1.00  0.00    -0.354 N 
ATOM     21  C   UNL A   1      38.885  32.848  34.455  1.00  0.00     0.074 A 
ATOM     22  C   UNL A   1      37.755  33.747  34.404  1.00  0.00     0.031 C 
ATOM     23  C   UNL A   1      38.471  29.876  28.724  1.00  0.00     0.029 A 
ATOM     24  C   UNL A   1      39.466  29.617  29.760  1.00  0.00     0.049 A 
ATOM     25  H   UNL A   1      39.709  30.620  31.568  1.00  0.00     0.167 HD
ATOM     26  C   UNL A   1      39.676  32.667  35.534  1.00  0.00     0.037 A 
ATOM     27  C   UNL A   1      40.422  28.670  29.718  1.00  0.00     0.037 A 
ATOM     28  C   UNL A   1      40.785  31.755  35.550  1.00  0.00     0.049 A 
ATOM     29  C   UNL A   1      41.364  28.573  30.889  1.00  0.00     0.074 A 
ATOM     30  C   UNL A   1      41.713  31.540  36.550  1.00  0.00     0.029 A 
ATOM     31  N   UNL A   1      41.104  30.896  34.506  1.00  0.00    -0.354 N 
ATOM     32  N   UNL A   1      41.329  29.224  32.028  1.00  0.00    -0.248 NA
ATOM     33  C   UNL A   1      42.489  27.639  30.765  1.00  0.00     0.031 C 
ATOM     34  C   UNL A   1      42.619  30.579  36.094  1.00  0.00     0.029 A 
ATOM     35  C   UNL A   1      42.229  30.162  34.828  1.00  0.00     0.049 A 
ATOM     36  H   UNL A   1      40.601  30.821  33.662  1.00  0.00     0.167 HD
ATOM     37  C   UNL A   1      42.424  28.783  32.756  1.00  0.00     0.074 A 
ATOM     38  C   UNL A   1      43.088  27.785  31.940  1.00  0.00     0.031 C 
ATOM     39  C   UNL A   1      42.852  29.175  33.980  1.00  0.00     0.037 A 
BRANCH  26  40
ATOM     40  C   UNL A   1      39.400  33.508  36.742  1.00  0.00     0.064 A 
ATOM     41  C   UNL A   1      39.939  34.799  36.840  1.00  0.00     0.173 A 
ATOM     42  C   UNL A   1      38.607  33.044  37.801  1.00  0.00     0.173 A 
ATOM     43  F   UNL A   1      40.696  35.292  35.848  1.00  0.00    -0.203 F 
ATOM     44  C   UNL A   1      39.701  35.593  37.958  1.00  0.00     0.198 A 
ATOM     45  C   UNL A   1      38.352  33.849  38.909  1.00  0.00     0.198 A 
ATOM     46  F   UNL A   1      38.046  31.827  37.742  1.00  0.00    -0.203 F 
ATOM     47  F   UNL A   1      40.237  36.819  38.035  1.00  0.00    -0.200 F 
ATOM     48  C   UNL A   1      38.903  35.119  38.990  1.00  0.00     0.200 A 
ATOM     49  F   UNL A   1      37.557  33.403  39.892  1.00  0.00    -0.200 F 
ATOM     50  F   UNL A   1      38.659  35.892  40.057  1.00  0.00    -0.200 F 
ENDBRANCH  26  40
BRANCH  27  51
ATOM     51  C   UNL A   1      40.557  27.793  28.523  1.00  0.00     0.064 A 
ATOM     52  C   UNL A   1      41.322  28.192  27.414  1.00  0.00     0.173 A 
ATOM     53  C   UNL A   1      39.919  26.547  28.452  1.00  0.00     0.173 A 
ATOM     54  F   UNL A   1      41.963  29.370  27.426  1.00  0.00    -0.203 F 
ATOM     55  C   UNL A   1      41.419  27.395  26.274  1.00  0.00     0.198 A 
ATOM     56  C   UNL A   1      40.042  25.737  27.323  1.00  0.00     0.198 A 
ATOM     57  F   UNL A   1      39.197  26.105  29.492  1.00  0.00    -0.203 F 
ATOM     58  F   UNL A   1      42.125  27.822  25.218  1.00  0.00    -0.200 F 
ATOM     59  C   UNL A   1      40.782  26.165  26.232  1.00  0.00     0.200 A 
ATOM     60  F   UNL A   1      39.448  24.535  27.296  1.00  0.00    -0.200 F 
ATOM     61  F   UNL A   1      40.889  25.391  25.143  1.00  0.00    -0.200 F 
ENDBRANCH  27  51
BRANCH  39  62
ATOM     62  C   UNL A   1      44.097  28.535  34.511  1.00  0.00     0.064 A 
ATOM     63  C   UNL A   1      44.020  27.383  35.306  1.00  0.00     0.173 A 
ATOM     64  C   UNL A   1      45.349  29.139  34.331  1.00  0.00     0.173 A 
ATOM     65  F   UNL A   1      42.839  26.781  35.512  1.00  0.00    -0.203 F 
ATOM     66  C   UNL A   1      45.154  26.874  35.930  1.00  0.00     0.198 A 
ATOM     67  C   UNL A   1      46.485  28.611  34.936  1.00  0.00     0.198 A 
ATOM     68  F   UNL A   1      45.467  30.235  33.568  1.00  0.00    -0.203 F 
ATOM     69  F   UNL A   1      45.053  25.801  36.726  1.00  0.00    -0.200 F 
ATOM     70  C   UNL A   1      46.384  27.488  35.746  1.00  0.00     0.200 A 
ATOM     71  F   UNL A   1      47.675  29.194  34.743  1.00  0.00    -0.200 F 
ATOM     72  F   UNL A   1      47.474  27.001  36.353  1.00  0.00    -0.200 F 
ENDBRANCH  39  62
ENDBRANCH  13  14
ENDBRANCH   6   8
ENDBRANCH   5   6
ENDBRANCH   4   5
ENDBRANCH   3   4
ENDBRANCH   2   3
ENDBRANCH   1   2
BRANCH   1  73
ATOM     73  C   UNL A   1      33.422  29.288  25.711  1.00  0.00     0.261 C 
BRANCH  73  74
ATOM     74  O   UNL A   1      32.487  29.408  24.626  1.00  0.00    -0.460 OA
BRANCH  74  75
ATOM     75  C   UNL A   1      32.374  28.354  23.780  1.00  0.00     0.340 C 
ATOM     76  O   UNL A   1      33.199  27.496  23.520  1.00  0.00    -0.246 OA
BRANCH  75  77
ATOM     77  C   UNL A   1      30.950  28.291  23.384  1.00  0.00     0.087 A 
ATOM     78  C   UNL A   1      30.442  29.325  22.577  1.00  0.00     0.060 A 
ATOM     79  C   UNL A   1      30.101  27.302  23.930  1.00  0.00     0.066 A 
ATOM     80  C   UNL A   1      29.079  29.404  22.348  1.00  0.00     0.159 A 
ATOM     81  C   UNL A   1      28.725  27.470  23.747  1.00  0.00     0.070 A 
ATOM     82  F   UNL A   1      28.596  30.377  21.567  1.00  0.00    -0.204 F 
ATOM     83  C   UNL A   1      28.225  28.497  22.949  1.00  0.00     0.160 A 
ATOM     84  F   UNL A   1      26.903  28.585  22.754  1.00  0.00    -0.204 F 
BRANCH  79  85
ATOM     85  N   UNL A   1      30.663  26.109  24.508  1.00  0.00    -0.279 N 
ATOM     86  H   UNL A   1      31.040  25.451  23.882  1.00  0.00     0.180 HD
BRANCH  85  87
ATOM     87  S   UNL A   1      30.742  25.722  26.143  1.00  0.00     0.261 S 
ATOM     88  O   UNL A   1      31.255  26.884  26.833  1.00  0.00    -0.201 OA
ATOM     89  O   UNL A   1      29.466  25.133  26.502  1.00  0.00    -0.201 OA
BRANCH  87  90
ATOM     90  C   UNL A   1      31.984  24.450  26.246  1.00  0.00     0.088 A 
ATOM     91  C   UNL A   1      31.562  23.112  26.095  1.00  0.00     0.022 A 
ATOM     92  C   UNL A   1      33.326  24.819  26.102  1.00  0.00     0.026 A 
ATOM     93  C   UNL A   1      32.468  22.140  25.668  1.00  0.00     0.005 A 
ATOM     94  C   UNL A   1      34.192  23.856  25.620  1.00  0.00    -0.043 A 
ATOM     95  C   UNL A   1      33.760  22.544  25.377  1.00  0.00    -0.045 A 
ATOM     96  C   UNL A   1      35.612  24.037  25.181  1.00  0.00     0.036 C 
ATOM     97  C   UNL A   1      34.846  21.744  24.726  1.00  0.00     0.036 C 
ATOM     98  C   UNL A   1      35.752  22.867  24.197  1.00  0.00     0.010 C 
ENDBRANCH  87  90
ENDBRANCH  85  87
ENDBRANCH  79  85
ENDBRANCH  75  77
ENDBRANCH  74  75
ENDBRANCH  73  74
ENDBRANCH   1  73
TORSDOF 17
ENDMDL
MODEL 3
REMARK VINA RESULT:     -11.8      1.940      2.734
REMARK SMILES O=C(OCCOCCOC(=O)c1cc(F)c(F)cc1NS(=O)(=O)c1ccc2c(c1)CCC2)c1ccc(-c2c3nc(c(-c4c(F)c(F)c(F)c(F)c4F)c4ccc([nH]4)c(-c4c(F)c(F)c(F)c(F)c4F)c4nc(c(-c5c(F)c(F)c(F)c(F)c5F)c5ccc2[nH]5)C=C4)C=C3)cc1
REMARK SMILES IDX 7 1 6 2 5 3 4 4 3 5 2 6 1 7 33 8 34 9 95 10 35 11 94 12
REMARK SMILES IDX 36 13 37 14 38 15 88 16 39 17 93 18 87 19 89 20 40 21 92 22
REMARK SMILES IDX 86 23 85 24 41 26 73 27 53 28 72 29 54 30 57 31 71 32 90 33
REMARK SMILES IDX 55 34 56 35 70 37 91 38 58 39 42 40 43 41 51 42 44 43 45 44
REMARK SMILES IDX 49 45 52 46 46 47 47 48 50 49 48 50 74 51 75 52 83 53 76 54
REMARK SMILES IDX 77 55 81 56 84 57 78 58 79 59 82 60 80 61 59 62 60 63 68 64
REMARK SMILES IDX 61 65 62 66 66 67 69 68 63 69 64 70 67 71 65 72 8 73 9 74
REMARK SMILES IDX 10 75 11 76 12 77 13 78 19 79 14 80 18 81 15 82 16 83 17 84
REMARK SMILES IDX 20 85 21 87 22 88 23 89 24 90 25 91 29 92 26 93 28 94 27 95
REMARK SMILES IDX 30 96 32 97 31 98
REMARK H PARENT 89 25 57 36 20 86
REMARK Flexibility Score: inf
ROOT
ATOM      1  C   UNL A   1      33.014  30.293  26.849  1.00  0.00     0.202 C 
ENDROOT
BRANCH   1   2
ATOM      2  O   UNL A   1      31.623  30.607  26.853  1.00  0.00    -0.374 OA
BRANCH   2   3
ATOM      3  C   UNL A   1      31.297  31.996  26.828  1.00  0.00     0.202 C 
BRANCH   3   4
ATOM      4  C   UNL A   1      32.509  32.928  26.874  1.00  0.00     0.261 C 
BRANCH   4   5
ATOM      5  O   UNL A   1      32.323  33.937  27.880  1.00  0.00    -0.460 OA
BRANCH   5   6
ATOM      6  C   UNL A   1      33.250  34.460  28.716  1.00  0.00     0.338 C 
ATOM      7  O   UNL A   1      33.098  35.617  29.107  1.00  0.00    -0.246 OA
BRANCH   6   8
ATOM      8  C   UNL A   1      34.442  33.712  29.225  1.00  0.00     0.060 A 
ATOM      9  C   UNL A   1      34.401  32.489  29.898  1.00  0.00     0.016 A 
ATOM     10  C   UNL A   1      35.708  34.251  28.932  1.00  0.00     0.016 A 
ATOM     11  C   UNL A   1      35.554  31.846  30.314  1.00  0.00     0.010 A 
ATOM     12  C   UNL A   1      36.882  33.596  29.321  1.00  0.00     0.010 A 
ATOM     13  C   UNL A   1      36.799  32.398  30.033  1.00  0.00    -0.014 A 
BRANCH  13  14
ATOM     14  C   UNL A   1      37.967  31.739  30.637  1.00  0.00     0.031 A 
ATOM     15  C   UNL A   1      38.241  31.987  32.086  1.00  0.00     0.074 A 
ATOM     16  C   UNL A   1      38.620  30.790  29.941  1.00  0.00     0.049 A 
ATOM     17  N   UNL A   1      39.176  31.490  32.849  1.00  0.00    -0.248 NA
ATOM     18  C   UNL A   1      37.318  32.903  32.781  1.00  0.00     0.031 C 
ATOM     19  C   UNL A   1      38.301  30.390  28.569  1.00  0.00     0.029 A 
ATOM     20  N   UNL A   1      39.637  29.951  30.306  1.00  0.00    -0.354 N 
ATOM     21  C   UNL A   1      38.962  32.040  34.105  1.00  0.00     0.074 A 
ATOM     22  C   UNL A   1      37.818  32.916  34.007  1.00  0.00     0.031 C 
ATOM     23  C   UNL A   1      39.083  29.355  28.222  1.00  0.00     0.029 A 
ATOM     24  C   UNL A   1      39.998  29.064  29.321  1.00  0.00     0.049 A 
ATOM     25  H   UNL A   1      40.071  29.979  31.190  1.00  0.00     0.167 HD
ATOM     26  C   UNL A   1      39.668  31.821  35.234  1.00  0.00     0.037 A 
ATOM     27  C   UNL A   1      40.978  28.141  29.310  1.00  0.00     0.037 A 
ATOM     28  C   UNL A   1      40.795  30.933  35.297  1.00  0.00     0.049 A 
ATOM     29  C   UNL A   1      41.825  28.005  30.548  1.00  0.00     0.074 A 
ATOM     30  C   UNL A   1      41.645  30.687  36.357  1.00  0.00     0.029 A 
ATOM     31  N   UNL A   1      41.218  30.135  34.241  1.00  0.00    -0.354 N 
ATOM     32  N   UNL A   1      41.683  28.596  31.711  1.00  0.00    -0.248 NA
ATOM     33  C   UNL A   1      42.980  27.101  30.471  1.00  0.00     0.031 C 
ATOM     34  C   UNL A   1      42.608  29.769  35.929  1.00  0.00     0.029 A 
ATOM     35  C   UNL A   1      42.332  29.409  34.617  1.00  0.00     0.049 A 
ATOM     36  H   UNL A   1      40.787  30.092  33.356  1.00  0.00     0.167 HD
ATOM     37  C   UNL A   1      42.726  28.142  32.503  1.00  0.00     0.074 A 
ATOM     38  C   UNL A   1      43.479  27.201  31.696  1.00  0.00     0.031 C 
ATOM     39  C   UNL A   1      43.045  28.480  33.776  1.00  0.00     0.037 A 
BRANCH  26  40
ATOM     40  C   UNL A   1      39.275  32.594  36.456  1.00  0.00     0.064 A 
ATOM     41  C   UNL A   1      38.322  32.073  37.343  1.00  0.00     0.173 A 
ATOM     42  C   UNL A   1      39.836  33.844  36.754  1.00  0.00     0.173 A 
ATOM     43  F   UNL A   1      37.763  30.876  37.108  1.00  0.00    -0.203 F 
ATOM     44  C   UNL A   1      37.938  32.778  38.479  1.00  0.00     0.198 A 
ATOM     45  C   UNL A   1      39.466  34.538  37.903  1.00  0.00     0.198 A 
ATOM     46  F   UNL A   1      40.773  34.371  35.951  1.00  0.00    -0.203 F 
ATOM     47  F   UNL A   1      37.015  32.266  39.306  1.00  0.00    -0.200 F 
ATOM     48  C   UNL A   1      38.514  34.009  38.761  1.00  0.00     0.200 A 
ATOM     49  F   UNL A   1      40.045  35.712  38.192  1.00  0.00    -0.200 F 
ATOM     50  F   UNL A   1      38.158  34.678  39.866  1.00  0.00    -0.200 F 
ENDBRANCH  26  40
BRANCH  27  51
ATOM     51  C   UNL A   1      41.230  27.329  28.089  1.00  0.00     0.064 A 
ATOM     52  C   UNL A   1      42.175  27.734  27.131  1.00  0.00     0.173 A 
ATOM     53  C   UNL A   1      40.529  26.141  27.841  1.00  0.00     0.173 A 
ATOM     54  F   UNL A   1      42.884  28.858  27.318  1.00  0.00    -0.203 F 
ATOM     55  C   UNL A   1      42.387  27.002  25.964  1.00  0.00     0.198 A 
ATOM     56  C   UNL A   1      40.764  25.392  26.687  1.00  0.00     0.198 A 
ATOM     57  F   UNL A   1      39.634  25.694  28.733  1.00  0.00    -0.203 F 
ATOM     58  F   UNL A   1      43.268  27.436  25.053  1.00  0.00    -0.200 F 
ATOM     59  C   UNL A   1      41.684  25.828  25.746  1.00  0.00     0.200 A 
ATOM     60  F   UNL A   1      40.103  24.242  26.492  1.00  0.00    -0.200 F 
ATOM     61  F   UNL A   1      41.900  25.114  24.632  1.00  0.00    -0.200 F 
ENDBRANCH  27  51
BRANCH  39  62
ATOM     62  C   UNL A   1      44.259  27.840  34.374  1.00  0.00     0.064 A 
ATOM     63  C   UNL A   1      45.522  28.429  34.218  1.00  0.00     0.173 A 
ATOM     64  C   UNL A   1      44.181  26.584  34.989  1.00  0.00     0.173 A 
ATOM     65  F   UNL A   1      45.641  29.626  33.624  1.00  0.00    -0.203 F 
ATOM     66  C   UNL A   1      46.672  27.765  34.633  1.00  0.00     0.198 A 
ATOM     67  C   UNL A   1      45.331  25.934  35.426  1.00  0.00     0.198 A 
ATOM     68  F   UNL A   1      42.991  25.991  35.168  1.00  0.00    -0.203 F 
ATOM     69  F   UNL A   1      47.873  28.322  34.431  1.00  0.00    -0.200 F 
ATOM     70  C   UNL A   1      46.576  26.519  35.235  1.00  0.00     0.200 A 
ATOM     71  F   UNL A   1      45.237  24.739  36.024  1.00  0.00    -0.200 F 
ATOM     72  F   UNL A   1      47.684  25.878  35.627  1.00  0.00    -0.200 F 
ENDBRANCH  39  62
ENDBRANCH  13  14
ENDBRANCH   6   8
ENDBRANCH   5   6
ENDBRANCH   4   5
ENDBRANCH   3   4
ENDBRANCH   2   3
ENDBRANCH   1   2
BRANCH   1  73
ATOM     73  C   UNL A   1      33.304  29.370  25.665  1.00  0.00     0.261 C 
BRANCH  73  74
ATOM     74  O   UNL A   1      32.062  29.008  25.038  1.00  0.00    -0.460 OA
BRANCH  74  75
ATOM     75  C   UNL A   1      32.036  28.963  23.683  1.00  0.00     0.340 C 
ATOM     76  O   UNL A   1      32.973  28.908  22.906  1.00  0.00    -0.246 OA
BRANCH  75  77
ATOM     77  C   UNL A   1      30.621  28.757  23.302  1.00  0.00     0.087 A 
ATOM     78  C   UNL A   1      29.957  29.801  22.634  1.00  0.00     0.060 A 
ATOM     79  C   UNL A   1      29.927  27.605  23.735  1.00  0.00     0.066 A 
ATOM     80  C   UNL A   1      28.590  29.723  22.435  1.00  0.00     0.159 A 
ATOM     81  C   UNL A   1      28.536  27.607  23.592  1.00  0.00     0.070 A 
ATOM     82  F   UNL A   1      27.960  30.709  21.785  1.00  0.00    -0.204 F 
ATOM     83  C   UNL A   1      27.881  28.645  22.933  1.00  0.00     0.160 A 
ATOM     84  F   UNL A   1      26.554  28.577  22.768  1.00  0.00    -0.204 F 
BRANCH  79  85
ATOM     85  N   UNL A   1      30.658  26.438  24.156  1.00  0.00    -0.279 N 
ATOM     86  H   UNL A   1      30.742  26.297  25.126  1.00  0.00     0.180 HD
BRANCH  85  87
ATOM     87  S   UNL A   1      31.385  25.291  23.163  1.00  0.00     0.261 S 
ATOM     88  O   UNL A   1      30.752  24.022  23.442  1.00  0.00    -0.201 OA
ATOM     89  O   UNL A   1      31.410  25.844  21.823  1.00  0.00    -0.201 OA
BRANCH  87  90
ATOM     90  C   UNL A   1      33.064  25.189  23.748  1.00  0.00     0.088 A 
ATOM     91  C   UNL A   1      33.303  25.501  25.104  1.00  0.00     0.022 A 
ATOM     92  C   UNL A   1      33.992  24.474  22.983  1.00  0.00     0.026 A 
ATOM     93  C   UNL A   1      34.427  24.984  25.749  1.00  0.00     0.005 A 
ATOM     94  C   UNL A   1      35.066  23.922  23.655  1.00  0.00    -0.043 A 
ATOM     95  C   UNL A   1      35.261  24.148  25.026  1.00  0.00    -0.045 A 
ATOM     96  C   UNL A   1      36.077  22.953  23.128  1.00  0.00     0.036 C 
ATOM     97  C   UNL A   1      36.403  23.325  25.538  1.00  0.00     0.036 C 
ATOM     98  C   UNL A   1      36.511  22.265  24.430  1.00  0.00     0.010 C 
ENDBRANCH  87  90
ENDBRANCH  85  87
ENDBRANCH  79  85
ENDBRANCH  75  77
ENDBRANCH  74  75
ENDBRANCH  73  74
ENDBRANCH   1  73
TORSDOF 17
ENDMDL
