MODEL 1
REMARK VINA RESULT:     -10.6      0.000      0.000
REMARK SMILES CN(CCCC(=O)OCCOCCOC(=O)c1ccc(-c2c3nc(c(-c4c(F)c(F)c(F)c(F)c4F)c4ccc([nH]4)c(-c4c(F)c(F)c(F)c(F)c4F)c4nc(c(-c5c(F)c(F)c(F)c(F)c5F)c5ccc2[nH]5)C=C4)C=C3)cc1)c1cccc(F)c1C(N)=O
REMARK SMILES IDX 9 1 8 2 6 3 7 4 5 5 4 6 3 7 2 8 1 9 80 10 81 11 86 12 82 13
REMARK SMILES IDX 84 14 83 15 85 16 87 17 88 18 89 19 10 22 11 23 12 24 13 25
REMARK SMILES IDX 14 26 15 27 16 28 17 29 18 30 79 31 19 32 78 33 20 34 21 35
REMARK SMILES IDX 22 36 72 37 23 38 77 39 71 40 73 41 24 42 76 43 70 44 69 45
REMARK SMILES IDX 25 47 57 48 37 49 56 50 38 51 41 52 55 53 74 54 39 55 40 56
REMARK SMILES IDX 54 58 75 59 42 60 26 61 27 62 35 63 28 64 29 65 33 66 36 67
REMARK SMILES IDX 30 68 31 69 34 70 32 71 58 72 59 73 67 74 60 75 61 76 65 77
REMARK SMILES IDX 68 78 62 79 63 80 66 81 64 82 43 83 44 84 52 85 45 86 46 87
REMARK SMILES IDX 50 88 53 89 47 90 48 91 51 92 49 93
REMARK H PARENT 88 20 88 21 73 46 41 57
REMARK Flexibility Score: inf
ROOT
ATOM      1  C   UNL A   1      33.903  27.795  23.838  1.00  0.00     0.261 C 
ENDROOT
BRANCH   1   2
ATOM      2  O   UNL A   1      33.153  26.572  23.766  1.00  0.00    -0.463 OA
BRANCH   2   3
ATOM      3  C   UNL A   1      32.841  26.123  22.527  1.00  0.00     0.305 C 
ATOM      4  O   UNL A   1      33.654  25.868  21.648  1.00  0.00    -0.252 OA
BRANCH   3   5
ATOM      5  C   UNL A   1      31.369  25.786  22.405  1.00  0.00     0.124 C 
BRANCH   5   6
ATOM      6  C   UNL A   1      30.776  24.704  23.314  1.00  0.00     0.033 C 
BRANCH   6   7
ATOM      7  C   UNL A   1      31.350  23.280  23.263  1.00  0.00     0.117 C 
BRANCH   7   8
ATOM      8  N   UNL A   1      31.904  22.845  24.554  1.00  0.00    -0.374 N 
ATOM      9  C   UNL A   1      30.999  22.845  25.698  1.00  0.00     0.143 C 
BRANCH   8  10
ATOM     10  C   UNL A   1      32.843  21.810  24.475  1.00  0.00     0.052 A 
ATOM     11  C   UNL A   1      32.336  20.548  24.109  1.00  0.00     0.027 A 
ATOM     12  C   UNL A   1      34.211  21.886  24.808  1.00  0.00     0.098 A 
ATOM     13  C   UNL A   1      33.085  19.380  24.240  1.00  0.00     0.005 A 
ATOM     14  C   UNL A   1      34.961  20.704  24.924  1.00  0.00     0.138 A 
ATOM     15  C   UNL A   1      34.397  19.457  24.679  1.00  0.00     0.040 A 
ATOM     16  F   UNL A   1      36.249  20.743  25.296  1.00  0.00    -0.206 F 
BRANCH  12  17
ATOM     17  C   UNL A   1      34.928  23.167  25.031  1.00  0.00     0.253 C 
ATOM     18  N   UNL A   1      35.083  23.962  23.922  1.00  0.00    -0.365 N 
ATOM     19  O   UNL A   1      35.348  23.529  26.121  1.00  0.00    -0.269 OA
ATOM     20  H   UNL A   1      34.741  23.661  23.049  1.00  0.00     0.159 HD
ATOM     21  H   UNL A   1      35.536  24.832  24.000  1.00  0.00     0.159 HD
ENDBRANCH  12  17
ENDBRANCH   8  10
ENDBRANCH   7   8
ENDBRANCH   6   7
ENDBRANCH   5   6
ENDBRANCH   3   5
ENDBRANCH   2   3
ENDBRANCH   1   2
BRANCH   1  22
ATOM     22  C   UNL A   1      32.944  28.970  23.636  1.00  0.00     0.202 C 
BRANCH  22  23
ATOM     23  O   UNL A   1      31.735  28.926  24.400  1.00  0.00    -0.374 OA
BRANCH  23  24
ATOM     24  C   UNL A   1      31.807  29.268  25.784  1.00  0.00     0.202 C 
BRANCH  24  25
ATOM     25  C   UNL A   1      31.997  30.751  26.119  1.00  0.00     0.261 C 
BRANCH  25  26
ATOM     26  O   UNL A   1      32.486  30.956  27.456  1.00  0.00    -0.460 OA
BRANCH  26  27
ATOM     27  C   UNL A   1      33.326  32.011  27.581  1.00  0.00     0.338 C 
ATOM     28  O   UNL A   1      33.034  33.194  27.582  1.00  0.00    -0.246 OA
BRANCH  27  29
ATOM     29  C   UNL A   1      34.694  31.549  27.885  1.00  0.00     0.060 A 
ATOM     30  C   UNL A   1      34.864  30.179  28.115  1.00  0.00     0.016 A 
ATOM     31  C   UNL A   1      35.760  32.437  28.043  1.00  0.00     0.016 A 
ATOM     32  C   UNL A   1      36.087  29.697  28.573  1.00  0.00     0.010 A 
ATOM     33  C   UNL A   1      36.986  31.951  28.508  1.00  0.00     0.010 A 
ATOM     34  C   UNL A   1      37.138  30.588  28.819  1.00  0.00    -0.014 A 
BRANCH  34  35
ATOM     35  C   UNL A   1      38.326  30.106  29.563  1.00  0.00     0.031 A 
ATOM     36  C   UNL A   1      38.540  30.578  30.975  1.00  0.00     0.074 A 
ATOM     37  C   UNL A   1      39.164  29.209  29.017  1.00  0.00     0.049 A 
ATOM     38  N   UNL A   1      39.488  30.270  31.823  1.00  0.00    -0.248 NA
ATOM     39  C   UNL A   1      37.547  31.527  31.501  1.00  0.00     0.031 C 
ATOM     40  C   UNL A   1      39.032  28.639  27.679  1.00  0.00     0.029 A 
ATOM     41  N   UNL A   1      40.288  28.613  29.532  1.00  0.00    -0.354 N 
ATOM     42  C   UNL A   1      39.206  30.987  32.979  1.00  0.00     0.074 A 
ATOM     43  C   UNL A   1      38.021  31.773  32.711  1.00  0.00     0.031 C 
ATOM     44  C   UNL A   1      40.031  27.762  27.481  1.00  0.00     0.029 A 
ATOM     45  C   UNL A   1      40.890  27.738  28.664  1.00  0.00     0.049 A 
ATOM     46  H   UNL A   1      40.629  28.796  30.438  1.00  0.00     0.167 HD
ATOM     47  C   UNL A   1      39.870  30.983  34.160  1.00  0.00     0.037 A 
ATOM     48  C   UNL A   1      42.015  27.012  28.809  1.00  0.00     0.037 A 
ATOM     49  C   UNL A   1      41.053  30.205  34.421  1.00  0.00     0.049 A 
ATOM     50  C   UNL A   1      42.790  27.096  30.097  1.00  0.00     0.074 A 
ATOM     51  C   UNL A   1      41.792  30.118  35.588  1.00  0.00     0.029 A 
ATOM     52  N   UNL A   1      41.677  29.385  33.492  1.00  0.00    -0.354 N 
ATOM     53  N   UNL A   1      42.510  27.759  31.194  1.00  0.00    -0.248 NA
ATOM     54  C   UNL A   1      44.042  26.330  30.166  1.00  0.00     0.031 C 
ATOM     55  C   UNL A   1      42.893  29.289  35.347  1.00  0.00     0.029 A 
ATOM     56  C   UNL A   1      42.811  28.814  34.048  1.00  0.00     0.049 A 
ATOM     57  H   UNL A   1      41.360  29.231  32.572  1.00  0.00     0.167 HD
ATOM     58  C   UNL A   1      43.531  27.471  32.089  1.00  0.00     0.074 A 
ATOM     59  C   UNL A   1      44.435  26.564  31.410  1.00  0.00     0.031 C 
ATOM     60  C   UNL A   1      43.701  27.912  33.360  1.00  0.00     0.037 A 
BRANCH  47  61
ATOM     61  C   UNL A   1      39.345  31.882  35.243  1.00  0.00     0.064 A 
ATOM     62  C   UNL A   1      39.678  33.244  35.298  1.00  0.00     0.173 A 
ATOM     63  C   UNL A   1      38.506  31.371  36.244  1.00  0.00     0.173 A 
ATOM     64  F   UNL A   1      40.488  33.781  34.373  1.00  0.00    -0.203 F 
ATOM     65  C   UNL A   1      39.223  34.051  36.339  1.00  0.00     0.198 A 
ATOM     66  C   UNL A   1      38.028  32.187  37.265  1.00  0.00     0.198 A 
ATOM     67  F   UNL A   1      38.153  30.077  36.236  1.00  0.00    -0.203 F 
ATOM     68  F   UNL A   1      39.604  35.335  36.406  1.00  0.00    -0.200 F 
ATOM     69  C   UNL A   1      38.396  33.523  37.319  1.00  0.00     0.200 A 
ATOM     70  F   UNL A   1      37.220  31.679  38.206  1.00  0.00    -0.200 F 
ATOM     71  F   UNL A   1      37.963  34.299  38.322  1.00  0.00    -0.200 F 
ENDBRANCH  47  61
BRANCH  48  72
ATOM     72  C   UNL A   1      42.467  26.131  27.703  1.00  0.00     0.064 A 
ATOM     73  C   UNL A   1      41.914  24.856  27.526  1.00  0.00     0.173 A 
ATOM     74  C   UNL A   1      43.451  26.549  26.795  1.00  0.00     0.173 A 
ATOM     75  F   UNL A   1      40.989  24.404  28.385  1.00  0.00    -0.203 F 
ATOM     76  C   UNL A   1      42.330  24.030  26.485  1.00  0.00     0.198 A 
ATOM     77  C   UNL A   1      43.848  25.731  25.739  1.00  0.00     0.198 A 
ATOM     78  F   UNL A   1      44.017  27.758  26.922  1.00  0.00    -0.203 F 
ATOM     79  F   UNL A   1      41.807  22.802  26.357  1.00  0.00    -0.200 F 
ATOM     80  C   UNL A   1      43.291  24.470  25.587  1.00  0.00     0.200 A 
ATOM     81  F   UNL A   1      44.768  26.167  24.867  1.00  0.00    -0.200 F 
ATOM     82  F   UNL A   1      43.683  23.679  24.579  1.00  0.00    -0.200 F 
ENDBRANCH  48  72
BRANCH  60  83
ATOM     83  C   UNL A   1      44.894  27.398  34.114  1.00  0.00     0.064 A 
ATOM     84  C   UNL A   1      44.843  26.204  34.850  1.00  0.00     0.173 A 
ATOM     85  C   UNL A   1      46.115  28.089  34.068  1.00  0.00     0.173 A 
ATOM     86  F   UNL A   1      43.695  25.515  34.939  1.00  0.00    -0.203 F 
ATOM     87  C   UNL A   1      45.963  25.735  35.532  1.00  0.00     0.198 A 
ATOM     88  C   UNL A   1      47.241  27.600  34.726  1.00  0.00     0.198 A 
ATOM     89  F   UNL A   1      46.219  29.231  33.374  1.00  0.00    -0.203 F 
ATOM     90  F   UNL A   1      45.877  24.618  36.267  1.00  0.00    -0.200 F 
ATOM     91  C   UNL A   1      47.162  26.429  35.464  1.00  0.00     0.200 A 
ATOM     92  F   UNL A   1      48.402  28.265  34.648  1.00  0.00    -0.200 F 
ATOM     93  F   UNL A   1      48.240  25.972  36.114  1.00  0.00    -0.200 F 
ENDBRANCH  60  83
ENDBRANCH  34  35
ENDBRANCH  27  29
ENDBRANCH  26  27
ENDBRANCH  25  26
ENDBRANCH  24  25
ENDBRANCH  23  24
ENDBRANCH  22  23
ENDBRANCH   1  22
TORSDOF 19
ENDMDL
MODEL 2
REMARK VINA RESULT:     -10.4      4.235      9.739
REMARK SMILES CN(CCCC(=O)OCCOCCOC(=O)c1ccc(-c2c3nc(c(-c4c(F)c(F)c(F)c(F)c4F)c4ccc([nH]4)c(-c4c(F)c(F)c(F)c(F)c4F)c4nc(c(-c5c(F)c(F)c(F)c(F)c5F)c5ccc2[nH]5)C=C4)C=C3)cc1)c1cccc(F)c1C(N)=O
REMARK SMILES IDX 9 1 8 2 6 3 7 4 5 5 4 6 3 7 2 8 1 9 80 10 81 11 86 12 82 13
REMARK SMILES IDX 84 14 83 15 85 16 87 17 88 18 89 19 10 22 11 23 12 24 13 25
REMARK SMILES IDX 14 26 15 27 16 28 17 29 18 30 79 31 19 32 78 33 20 34 21 35
REMARK SMILES IDX 22 36 72 37 23 38 77 39 71 40 73 41 24 42 76 43 70 44 69 45
REMARK SMILES IDX 25 47 57 48 37 49 56 50 38 51 41 52 55 53 74 54 39 55 40 56
REMARK SMILES IDX 54 58 75 59 42 60 26 61 27 62 35 63 28 64 29 65 33 66 36 67
REMARK SMILES IDX 30 68 31 69 34 70 32 71 58 72 59 73 67 74 60 75 61 76 65 77
REMARK SMILES IDX 68 78 62 79 63 80 66 81 64 82 43 83 44 84 52 85 45 86 46 87
REMARK SMILES IDX 50 88 53 89 47 90 48 91 51 92 49 93
REMARK H PARENT 88 20 88 21 73 46 41 57
REMARK Flexibility Score: inf
ROOT
ATOM      1  C   UNL A   1      32.723  21.304  25.198  1.00  0.00     0.261 C 
ENDROOT
BRANCH   1   2
ATOM      2  O   UNL A   1      31.430  21.584  25.755  1.00  0.00    -0.463 OA
BRANCH   2   3
ATOM      3  C   UNL A   1      31.100  22.890  25.899  1.00  0.00     0.305 C 
ATOM      4  O   UNL A   1      31.099  23.501  26.960  1.00  0.00    -0.252 OA
BRANCH   3   5
ATOM      5  C   UNL A   1      30.909  23.573  24.560  1.00  0.00     0.124 C 
BRANCH   5   6
ATOM      6  C   UNL A   1      30.908  25.104  24.500  1.00  0.00     0.033 C 
BRANCH   6   7
ATOM      7  C   UNL A   1      31.244  25.806  23.176  1.00  0.00     0.117 C 
BRANCH   7   8
ATOM      8  N   UNL A   1      32.543  26.495  23.213  1.00  0.00    -0.374 N 
ATOM      9  C   UNL A   1      33.254  26.639  21.948  1.00  0.00     0.143 C 
BRANCH   8  10
ATOM     10  C   UNL A   1      32.622  27.558  24.121  1.00  0.00     0.052 A 
ATOM     11  C   UNL A   1      33.576  27.419  25.147  1.00  0.00     0.027 A 
ATOM     12  C   UNL A   1      31.791  28.697  24.159  1.00  0.00     0.098 A 
ATOM     13  C   UNL A   1      33.595  28.255  26.262  1.00  0.00     0.005 A 
ATOM     14  C   UNL A   1      31.828  29.541  25.280  1.00  0.00     0.138 A 
ATOM     15  C   UNL A   1      32.695  29.305  26.342  1.00  0.00     0.040 A 
ATOM     16  F   UNL A   1      31.007  30.599  25.370  1.00  0.00    -0.206 F 
BRANCH  12  17
ATOM     17  C   UNL A   1      30.874  29.077  23.056  1.00  0.00     0.253 C 
ATOM     18  N   UNL A   1      31.461  29.699  21.982  1.00  0.00    -0.365 N 
ATOM     19  O   UNL A   1      29.673  28.846  23.062  1.00  0.00    -0.269 OA
ATOM     20  H   UNL A   1      32.429  29.881  21.987  1.00  0.00     0.159 HD
ATOM     21  H   UNL A   1      30.915  29.966  21.208  1.00  0.00     0.159 HD
ENDBRANCH  12  17
ENDBRANCH   8  10
ENDBRANCH   7   8
ENDBRANCH   6   7
ENDBRANCH   5   6
ENDBRANCH   3   5
ENDBRANCH   2   3
ENDBRANCH   1   2
BRANCH   1  22
ATOM     22  C   UNL A   1      33.697  21.013  26.343  1.00  0.00     0.202 C 
BRANCH  22  23
ATOM     23  O   UNL A   1      34.882  21.814  26.372  1.00  0.00    -0.374 OA
BRANCH  23  24
ATOM     24  C   UNL A   1      35.738  21.780  25.230  1.00  0.00     0.202 C 
BRANCH  24  25
ATOM     25  C   UNL A   1      36.930  20.818  25.289  1.00  0.00     0.261 C 
BRANCH  25  26
ATOM     26  O   UNL A   1      38.179  21.470  25.003  1.00  0.00    -0.460 OA
BRANCH  26  27
ATOM     27  C   UNL A   1      39.161  21.197  25.895  1.00  0.00     0.338 C 
ATOM     28  O   UNL A   1      39.765  20.148  26.035  1.00  0.00    -0.246 OA
BRANCH  27  29
ATOM     29  C   UNL A   1      39.551  22.420  26.622  1.00  0.00     0.060 A 
ATOM     30  C   UNL A   1      38.880  23.601  26.284  1.00  0.00     0.016 A 
ATOM     31  C   UNL A   1      40.612  22.437  27.531  1.00  0.00     0.016 A 
ATOM     32  C   UNL A   1      39.310  24.819  26.802  1.00  0.00     0.010 A 
ATOM     33  C   UNL A   1      41.046  23.663  28.046  1.00  0.00     0.010 A 
ATOM     34  C   UNL A   1      40.426  24.861  27.646  1.00  0.00    -0.014 A 
BRANCH  34  35
ATOM     35  C   UNL A   1      41.037  26.175  27.961  1.00  0.00     0.031 A 
ATOM     36  C   UNL A   1      42.462  26.430  27.552  1.00  0.00     0.074 A 
ATOM     37  C   UNL A   1      40.316  27.149  28.539  1.00  0.00     0.049 A 
ATOM     38  N   UNL A   1      43.192  27.507  27.697  1.00  0.00    -0.248 NA
ATOM     39  C   UNL A   1      43.157  25.317  26.887  1.00  0.00     0.031 C 
ATOM     40  C   UNL A   1      38.914  27.039  28.933  1.00  0.00     0.029 A 
ATOM     41  N   UNL A   1      40.667  28.430  28.883  1.00  0.00    -0.354 N 
ATOM     42  C   UNL A   1      44.429  27.200  27.145  1.00  0.00     0.074 A 
ATOM     43  C   UNL A   1      44.363  25.826  26.695  1.00  0.00     0.031 C 
ATOM     44  C   UNL A   1      38.517  28.212  29.455  1.00  0.00     0.029 A 
ATOM     45  C   UNL A   1      39.647  29.140  29.463  1.00  0.00     0.049 A 
ATOM     46  H   UNL A   1      41.565  28.804  28.729  1.00  0.00     0.167 HD
ATOM     47  C   UNL A   1      45.517  27.996  27.015  1.00  0.00     0.037 A 
ATOM     48  C   UNL A   1      39.635  30.394  29.956  1.00  0.00     0.037 A 
ATOM     49  C   UNL A   1      45.582  29.360  27.469  1.00  0.00     0.049 A 
ATOM     50  C   UNL A   1      40.887  31.228  29.886  1.00  0.00     0.074 A 
ATOM     51  C   UNL A   1      46.632  30.256  27.371  1.00  0.00     0.029 A 
ATOM     52  N   UNL A   1      44.551  30.023  28.119  1.00  0.00    -0.354 N 
ATOM     53  N   UNL A   1      42.047  30.942  29.347  1.00  0.00    -0.248 NA
ATOM     54  C   UNL A   1      40.826  32.563  30.500  1.00  0.00     0.031 C 
ATOM     55  C   UNL A   1      46.255  31.442  28.011  1.00  0.00     0.029 A 
ATOM     56  C   UNL A   1      44.951  31.306  28.459  1.00  0.00     0.049 A 
ATOM     57  H   UNL A   1      43.665  29.638  28.311  1.00  0.00     0.167 HD
ATOM     58  C   UNL A   1      42.844  32.065  29.529  1.00  0.00     0.074 A 
ATOM     59  C   UNL A   1      42.030  33.043  30.223  1.00  0.00     0.031 C 
ATOM     60  C   UNL A   1      44.130  32.269  29.151  1.00  0.00     0.037 A 
BRANCH  47  61
ATOM     61  C   UNL A   1      46.739  27.387  26.388  1.00  0.00     0.064 A 
ATOM     62  C   UNL A   1      47.720  26.740  27.156  1.00  0.00     0.173 A 
ATOM     63  C   UNL A   1      46.935  27.460  25.001  1.00  0.00     0.173 A 
ATOM     64  F   UNL A   1      47.588  26.654  28.488  1.00  0.00    -0.203 F 
ATOM     65  C   UNL A   1      48.871  26.226  26.563  1.00  0.00     0.198 A 
ATOM     66  C   UNL A   1      48.072  26.917  24.407  1.00  0.00     0.198 A 
ATOM     67  F   UNL A   1      46.028  28.062  24.219  1.00  0.00    -0.203 F 
ATOM     68  F   UNL A   1      49.823  25.667  27.324  1.00  0.00    -0.200 F 
ATOM     69  C   UNL A   1      49.044  26.311  25.190  1.00  0.00     0.200 A 
ATOM     70  F   UNL A   1      48.234  26.991  23.079  1.00  0.00    -0.200 F 
ATOM     71  F   UNL A   1      50.154  25.821  24.621  1.00  0.00    -0.200 F 
ENDBRANCH  47  61
BRANCH  48  72
ATOM     72  C   UNL A   1      38.388  30.939  30.547  1.00  0.00     0.064 A 
ATOM     73  C   UNL A   1      37.407  31.530  29.740  1.00  0.00     0.173 A 
ATOM     74  C   UNL A   1      38.144  30.869  31.927  1.00  0.00     0.173 A 
ATOM     75  F   UNL A   1      37.607  31.643  28.419  1.00  0.00    -0.203 F 
ATOM     76  C   UNL A   1      36.231  32.035  30.290  1.00  0.00     0.198 A 
ATOM     77  C   UNL A   1      36.956  31.352  32.473  1.00  0.00     0.198 A 
ATOM     78  F   UNL A   1      39.052  30.318  32.744  1.00  0.00    -0.203 F 
ATOM     79  F   UNL A   1      35.323  32.625  29.500  1.00  0.00    -0.200 F 
ATOM     80  C   UNL A   1      36.003  31.939  31.655  1.00  0.00     0.200 A 
ATOM     81  F   UNL A   1      36.735  31.245  33.790  1.00  0.00    -0.200 F 
ATOM     82  F   UNL A   1      34.867  32.416  32.182  1.00  0.00    -0.200 F 
ENDBRANCH  48  72
BRANCH  60  83
ATOM     83  C   UNL A   1      44.731  33.612  29.450  1.00  0.00     0.064 A 
ATOM     84  C   UNL A   1      44.622  34.686  28.554  1.00  0.00     0.173 A 
ATOM     85  C   UNL A   1      45.393  33.838  30.668  1.00  0.00     0.173 A 
ATOM     86  F   UNL A   1      44.015  34.518  27.370  1.00  0.00    -0.203 F 
ATOM     87  C   UNL A   1      45.174  35.929  28.856  1.00  0.00     0.198 A 
ATOM     88  C   UNL A   1      45.916  35.090  30.979  1.00  0.00     0.198 A 
ATOM     89  F   UNL A   1      45.519  32.846  31.562  1.00  0.00    -0.203 F 
ATOM     90  F   UNL A   1      45.099  36.927  27.965  1.00  0.00    -0.200 F 
ATOM     91  C   UNL A   1      45.814  36.131  30.069  1.00  0.00     0.200 A 
ATOM     92  F   UNL A   1      46.523  35.287  32.158  1.00  0.00    -0.200 F 
ATOM     93  F   UNL A   1      46.338  37.330  30.361  1.00  0.00    -0.200 F 
ENDBRANCH  60  83
ENDBRANCH  34  35
ENDBRANCH  27  29
ENDBRANCH  26  27
ENDBRANCH  25  26
ENDBRANCH  24  25
ENDBRANCH  23  24
ENDBRANCH  22  23
ENDBRANCH   1  22
TORSDOF 19
ENDMDL
MODEL 3
REMARK VINA RESULT:     -10.2      1.359      2.111
REMARK SMILES CN(CCCC(=O)OCCOCCOC(=O)c1ccc(-c2c3nc(c(-c4c(F)c(F)c(F)c(F)c4F)c4ccc([nH]4)c(-c4c(F)c(F)c(F)c(F)c4F)c4nc(c(-c5c(F)c(F)c(F)c(F)c5F)c5ccc2[nH]5)C=C4)C=C3)cc1)c1cccc(F)c1C(N)=O
REMARK SMILES IDX 9 1 8 2 6 3 7 4 5 5 4 6 3 7 2 8 1 9 80 10 81 11 86 12 82 13
REMARK SMILES IDX 84 14 83 15 85 16 87 17 88 18 89 19 10 22 11 23 12 24 13 25
REMARK SMILES IDX 14 26 15 27 16 28 17 29 18 30 79 31 19 32 78 33 20 34 21 35
REMARK SMILES IDX 22 36 72 37 23 38 77 39 71 40 73 41 24 42 76 43 70 44 69 45
REMARK SMILES IDX 25 47 57 48 37 49 56 50 38 51 41 52 55 53 74 54 39 55 40 56
REMARK SMILES IDX 54 58 75 59 42 60 26 61 27 62 35 63 28 64 29 65 33 66 36 67
REMARK SMILES IDX 30 68 31 69 34 70 32 71 58 72 59 73 67 74 60 75 61 76 65 77
REMARK SMILES IDX 68 78 62 79 63 80 66 81 64 82 43 83 44 84 52 85 45 86 46 87
REMARK SMILES IDX 50 88 53 89 47 90 48 91 51 92 49 93
REMARK H PARENT 88 20 88 21 73 46 41 57
REMARK Flexibility Score: inf
ROOT
ATOM      1  C   UNL A   1      32.015  28.562  26.253  1.00  0.00     0.261 C 
ENDROOT
BRANCH   1   2
ATOM      2  O   UNL A   1      31.681  27.523  25.320  1.00  0.00    -0.463 OA
BRANCH   2   3
ATOM      3  C   UNL A   1      32.684  26.687  24.957  1.00  0.00     0.305 C 
ATOM      4  O   UNL A   1      33.203  26.654  23.848  1.00  0.00    -0.252 OA
BRANCH   3   5
ATOM      5  C   UNL A   1      33.229  25.915  26.141  1.00  0.00     0.124 C 
BRANCH   5   6
ATOM      6  C   UNL A   1      32.857  24.437  26.299  1.00  0.00     0.033 C 
BRANCH   6   7
ATOM      7  C   UNL A   1      33.973  23.386  26.394  1.00  0.00     0.117 C 
BRANCH   7   8
ATOM      8  N   UNL A   1      34.390  22.880  25.078  1.00  0.00    -0.374 N 
ATOM      9  C   UNL A   1      35.823  22.732  24.848  1.00  0.00     0.143 C 
BRANCH   8  10
ATOM     10  C   UNL A   1      33.545  21.913  24.521  1.00  0.00     0.052 A 
ATOM     11  C   UNL A   1      33.402  20.723  25.262  1.00  0.00     0.027 A 
ATOM     12  C   UNL A   1      32.902  21.976  23.268  1.00  0.00     0.098 A 
ATOM     13  C   UNL A   1      32.815  19.580  24.724  1.00  0.00     0.005 A 
ATOM     14  C   UNL A   1      32.300  20.822  22.741  1.00  0.00     0.138 A 
ATOM     15  C   UNL A   1      32.287  19.622  23.444  1.00  0.00     0.040 A 
ATOM     16  F   UNL A   1      31.733  20.839  21.525  1.00  0.00    -0.206 F 
BRANCH  12  17
ATOM     17  C   UNL A   1      32.804  23.219  22.462  1.00  0.00     0.253 C 
ATOM     18  N   UNL A   1      31.707  24.005  22.713  1.00  0.00    -0.365 N 
ATOM     19  O   UNL A   1      33.639  23.559  21.635  1.00  0.00    -0.269 OA
ATOM     20  H   UNL A   1      31.040  23.721  23.380  1.00  0.00     0.159 HD
ATOM     21  H   UNL A   1      31.585  24.851  22.225  1.00  0.00     0.159 HD
ENDBRANCH  12  17
ENDBRANCH   8  10
ENDBRANCH   7   8
ENDBRANCH   6   7
ENDBRANCH   5   6
ENDBRANCH   3   5
ENDBRANCH   2   3
ENDBRANCH   1   2
BRANCH   1  22
ATOM     22  C   UNL A   1      32.177  29.876  25.486  1.00  0.00     0.202 C 
BRANCH  22  23
ATOM     23  O   UNL A   1      31.044  30.750  25.501  1.00  0.00    -0.374 OA
BRANCH  23  24
ATOM     24  C   UNL A   1      31.163  31.983  26.211  1.00  0.00     0.202 C 
BRANCH  24  25
ATOM     25  C   UNL A   1      32.283  32.074  27.253  1.00  0.00     0.261 C 
BRANCH  25  26
ATOM     26  O   UNL A   1      33.055  33.281  27.130  1.00  0.00    -0.460 OA
BRANCH  26  27
ATOM     27  C   UNL A   1      33.634  33.686  28.285  1.00  0.00     0.338 C 
ATOM     28  O   UNL A   1      33.175  34.453  29.114  1.00  0.00    -0.246 OA
BRANCH  27  29
ATOM     29  C   UNL A   1      34.886  32.944  28.524  1.00  0.00     0.060 A 
ATOM     30  C   UNL A   1      34.766  31.625  28.975  1.00  0.00     0.016 A 
ATOM     31  C   UNL A   1      36.140  33.548  28.411  1.00  0.00     0.016 A 
ATOM     32  C   UNL A   1      35.895  30.923  29.383  1.00  0.00     0.010 A 
ATOM     33  C   UNL A   1      37.274  32.842  28.826  1.00  0.00     0.010 A 
ATOM     34  C   UNL A   1      37.149  31.545  29.357  1.00  0.00    -0.014 A 
BRANCH  34  35
ATOM     35  C   UNL A   1      38.287  30.894  30.049  1.00  0.00     0.031 A 
ATOM     36  C   UNL A   1      38.543  31.223  31.494  1.00  0.00     0.074 A 
ATOM     37  C   UNL A   1      39.038  29.974  29.422  1.00  0.00     0.049 A 
ATOM     38  N   UNL A   1      39.459  30.758  32.306  1.00  0.00    -0.248 NA
ATOM     39  C   UNL A   1      37.642  32.212  32.106  1.00  0.00     0.031 C 
ATOM     40  C   UNL A   1      38.854  29.535  28.042  1.00  0.00     0.029 A 
ATOM     41  N   UNL A   1      40.102  29.235  29.877  1.00  0.00    -0.354 N 
ATOM     42  C   UNL A   1      39.244  31.397  33.521  1.00  0.00     0.074 A 
ATOM     43  C   UNL A   1      38.137  32.309  33.329  1.00  0.00     0.031 C 
ATOM     44  C   UNL A   1      39.768  28.589  27.763  1.00  0.00     0.029 A 
ATOM     45  C   UNL A   1      40.620  28.385  28.933  1.00  0.00     0.049 A 
ATOM     46  H   UNL A   1      40.458  29.308  30.792  1.00  0.00     0.167 HD
ATOM     47  C   UNL A   1      39.904  31.231  34.692  1.00  0.00     0.037 A 
ATOM     48  C   UNL A   1      41.673  27.549  29.007  1.00  0.00     0.037 A 
ATOM     49  C   UNL A   1      41.010  30.328  34.877  1.00  0.00     0.049 A 
ATOM     50  C   UNL A   1      42.452  27.451  30.293  1.00  0.00     0.074 A 
ATOM     51  C   UNL A   1      41.737  30.075  36.027  1.00  0.00     0.029 A 
ATOM     52  N   UNL A   1      41.556  29.536  33.877  1.00  0.00    -0.354 N 
ATOM     53  N   UNL A   1      42.235  28.042  31.443  1.00  0.00    -0.248 NA
ATOM     54  C   UNL A   1      43.629  26.569  30.287  1.00  0.00     0.031 C 
ATOM     55  C   UNL A   1      42.757  29.171  35.708  1.00  0.00     0.029 A 
ATOM     56  C   UNL A   1      42.631  28.818  34.374  1.00  0.00     0.049 A 
ATOM     57  H   UNL A   1      41.226  29.491  32.950  1.00  0.00     0.167 HD
ATOM     58  C   UNL A   1      43.225  27.585  32.303  1.00  0.00     0.074 A 
ATOM     59  C   UNL A   1      44.040  26.659  31.543  1.00  0.00     0.031 C 
ATOM     60  C   UNL A   1      43.435  27.899  33.605  1.00  0.00     0.037 A 
BRANCH  47  61
ATOM     61  C   UNL A   1      39.465  32.079  35.851  1.00  0.00     0.064 A 
ATOM     62  C   UNL A   1      38.470  31.652  36.745  1.00  0.00     0.173 A 
ATOM     63  C   UNL A   1      40.040  33.341  36.064  1.00  0.00     0.173 A 
ATOM     64  F   UNL A   1      37.878  30.460  36.578  1.00  0.00    -0.203 F 
ATOM     65  C   UNL A   1      38.040  32.474  37.784  1.00  0.00     0.198 A 
ATOM     66  C   UNL A   1      39.630  34.147  37.123  1.00  0.00     0.198 A 
ATOM     67  F   UNL A   1      40.998  33.796  35.244  1.00  0.00    -0.203 F 
ATOM     68  F   UNL A   1      37.045  32.071  38.587  1.00  0.00    -0.200 F 
ATOM     69  C   UNL A   1      38.622  33.718  37.975  1.00  0.00     0.200 A 
ATOM     70  F   UNL A   1      40.200  35.345  37.313  1.00  0.00    -0.200 F 
ATOM     71  F   UNL A   1      38.204  34.510  38.971  1.00  0.00    -0.200 F 
ENDBRANCH  47  61
BRANCH  48  72
ATOM     72  C   UNL A   1      42.043  26.727  27.828  1.00  0.00     0.064 A 
ATOM     73  C   UNL A   1      41.443  25.481  27.602  1.00  0.00     0.173 A 
ATOM     74  C   UNL A   1      42.991  27.174  26.896  1.00  0.00     0.173 A 
ATOM     75  F   UNL A   1      40.549  25.000  28.480  1.00  0.00    -0.203 F 
ATOM     76  C   UNL A   1      41.780  24.710  26.493  1.00  0.00     0.198 A 
ATOM     77  C   UNL A   1      43.309  26.414  25.772  1.00  0.00     0.198 A 
ATOM     78  F   UNL A   1      43.598  28.357  27.067  1.00  0.00    -0.203 F 
ATOM     79  F   UNL A   1      41.215  23.508  26.317  1.00  0.00    -0.200 F 
ATOM     80  C   UNL A   1      42.708  25.181  25.574  1.00  0.00     0.200 A 
ATOM     81  F   UNL A   1      44.196  26.878  24.882  1.00  0.00    -0.200 F 
ATOM     82  F   UNL A   1      43.024  24.444  24.500  1.00  0.00    -0.200 F 
ENDBRANCH  48  72
BRANCH  60  83
ATOM     83  C   UNL A   1      44.574  27.214  34.304  1.00  0.00     0.064 A 
ATOM     84  C   UNL A   1      44.405  25.989  34.966  1.00  0.00     0.173 A 
ATOM     85  C   UNL A   1      45.862  27.774  34.279  1.00  0.00     0.173 A 
ATOM     86  F   UNL A   1      43.191  25.420  35.033  1.00  0.00    -0.203 F 
ATOM     87  C   UNL A   1      45.477  25.361  35.596  1.00  0.00     0.198 A 
ATOM     88  C   UNL A   1      46.936  27.128  34.884  1.00  0.00     0.198 A 
ATOM     89  F   UNL A   1      46.079  28.941  33.655  1.00  0.00    -0.203 F 
ATOM     90  F   UNL A   1      45.281  24.215  36.262  1.00  0.00    -0.200 F 
ATOM     91  C   UNL A   1      46.741  25.927  35.549  1.00  0.00     0.200 A 
ATOM     92  F   UNL A   1      48.161  27.670  34.826  1.00  0.00    -0.200 F 
ATOM     93  F   UNL A   1      47.773  25.318  36.150  1.00  0.00    -0.200 F 
ENDBRANCH  60  83
ENDBRANCH  34  35
ENDBRANCH  27  29
ENDBRANCH  26  27
ENDBRANCH  25  26
ENDBRANCH  24  25
ENDBRANCH  23  24
ENDBRANCH  22  23
ENDBRANCH   1  22
TORSDOF 19
ENDMDL
