MODEL 1
REMARK VINA RESULT:     -11.3      0.000      0.000
REMARK SMILES C[C@H](C(=O)OCCOCCOC(=O)c1ccc(-c2c3nc(c(-c4c(F)c(F)c(F)c(F)c4F)c4ccc([nH]4)c(-c4c(F)c(F)c(F)c(F)c4F)c4nc(c(-c5c(F)c(F)c(F)c(F)c5F)c5ccc2[nH]5)C=C4)C=C3)cc1)[C@H](C)n1cnc2cc(F)c(F)cc21
REMARK SMILES IDX 8 1 7 2 6 3 5 4 3 5 4 6 2 7 1 8 77 9 78 10 79 11 80 12 89 13
REMARK SMILES IDX 81 14 82 15 88 16 83 17 86 18 84 19 87 20 85 21 9 22 10 23
REMARK SMILES IDX 11 24 12 25 13 26 14 27 15 28 76 29 16 30 75 31 17 32 18 33
REMARK SMILES IDX 19 34 69 35 20 36 74 37 68 38 70 39 21 40 73 41 67 42 66 43
REMARK SMILES IDX 22 45 54 46 34 47 53 48 35 49 38 50 52 51 71 52 36 53 37 54
REMARK SMILES IDX 51 56 72 57 39 58 23 59 24 60 32 61 25 62 26 63 30 64 33 65
REMARK SMILES IDX 27 66 28 67 31 68 29 69 55 70 56 71 64 72 57 73 58 74 62 75
REMARK SMILES IDX 65 76 59 77 60 78 63 79 61 80 40 81 41 82 49 83 42 84 43 85
REMARK SMILES IDX 47 86 50 87 44 88 45 89 48 90 46 91
REMARK H PARENT 70 44 38 55
REMARK Flexibility Score: inf
ROOT
ATOM      1  O   UNL A   1      31.799  30.348  27.260  1.00  0.00    -0.374 OA
ENDROOT
BRANCH   1   2
ATOM      2  C   UNL A   1      32.292  29.122  26.727  1.00  0.00     0.202 C 
BRANCH   2   3
ATOM      3  C   UNL A   1      31.769  27.870  27.444  1.00  0.00     0.261 C 
BRANCH   3   4
ATOM      4  O   UNL A   1      30.762  27.075  26.777  1.00  0.00    -0.463 OA
BRANCH   4   5
ATOM      5  C   UNL A   1      31.168  25.908  26.218  1.00  0.00     0.310 C 
ATOM      6  O   UNL A   1      31.466  24.895  26.837  1.00  0.00    -0.252 OA
BRANCH   5   7
ATOM      7  C   UNL A   1      31.285  26.005  24.707  1.00  0.00     0.119 C 
ATOM      8  C   UNL A   1      30.431  27.168  24.201  1.00  0.00     0.022 C 
BRANCH   7   9
ATOM      9  C   UNL A   1      32.761  26.089  24.219  1.00  0.00     0.099 C 
ATOM     10  C   UNL A   1      32.955  27.149  23.130  1.00  0.00     0.032 C 
BRANCH   9  11
ATOM     11  N   UNL A   1      33.323  24.804  23.791  1.00  0.00    -0.327 N 
ATOM     12  C   UNL A   1      33.075  24.237  22.567  1.00  0.00     0.200 A 
ATOM     13  C   UNL A   1      34.415  24.157  24.335  1.00  0.00     0.071 A 
ATOM     14  N   UNL A   1      34.031  23.408  22.216  1.00  0.00    -0.237 NA
ATOM     15  C   UNL A   1      34.905  23.394  23.274  1.00  0.00     0.092 A 
ATOM     16  C   UNL A   1      35.090  24.270  25.558  1.00  0.00     0.071 A 
ATOM     17  C   UNL A   1      36.172  22.800  23.372  1.00  0.00     0.073 A 
ATOM     18  C   UNL A   1      36.348  23.673  25.633  1.00  0.00     0.161 A 
ATOM     19  C   UNL A   1      36.889  22.978  24.555  1.00  0.00     0.161 A 
ATOM     20  F   UNL A   1      37.061  23.816  26.758  1.00  0.00    -0.204 F 
ATOM     21  F   UNL A   1      38.130  22.478  24.641  1.00  0.00    -0.204 F 
ENDBRANCH   9  11
ENDBRANCH   7   9
ENDBRANCH   5   7
ENDBRANCH   4   5
ENDBRANCH   3   4
ENDBRANCH   2   3
ENDBRANCH   1   2
BRANCH   1  22
ATOM     22  C   UNL A   1      31.598  31.378  26.298  1.00  0.00     0.202 C 
BRANCH  22  23
ATOM     23  C   UNL A   1      31.744  32.761  26.941  1.00  0.00     0.261 C 
BRANCH  23  24
ATOM     24  O   UNL A   1      33.094  33.252  26.862  1.00  0.00    -0.460 OA
BRANCH  24  25
ATOM     25  C   UNL A   1      33.639  33.544  28.070  1.00  0.00     0.338 C 
ATOM     26  O   UNL A   1      33.194  34.298  28.924  1.00  0.00    -0.246 OA
BRANCH  25  27
ATOM     27  C   UNL A   1      34.885  32.785  28.276  1.00  0.00     0.060 A 
ATOM     28  C   UNL A   1      34.795  31.404  28.497  1.00  0.00     0.016 A 
ATOM     29  C   UNL A   1      36.112  33.442  28.388  1.00  0.00     0.016 A 
ATOM     30  C   UNL A   1      35.921  30.688  28.902  1.00  0.00     0.010 A 
ATOM     31  C   UNL A   1      37.238  32.725  28.802  1.00  0.00     0.010 A 
ATOM     32  C   UNL A   1      37.135  31.358  29.110  1.00  0.00    -0.014 A 
BRANCH  32  33
ATOM     33  C   UNL A   1      38.236  30.683  29.841  1.00  0.00     0.031 A 
ATOM     34  C   UNL A   1      38.467  31.043  31.284  1.00  0.00     0.074 A 
ATOM     35  C   UNL A   1      39.014  29.766  29.243  1.00  0.00     0.049 A 
ATOM     36  N   UNL A   1      39.392  30.622  32.109  1.00  0.00    -0.248 NA
ATOM     37  C   UNL A   1      37.530  32.011  31.875  1.00  0.00     0.031 C 
ATOM     38  C   UNL A   1      38.873  29.307  27.864  1.00  0.00     0.029 A 
ATOM     39  N   UNL A   1      40.088  29.063  29.727  1.00  0.00    -0.354 N 
ATOM     40  C   UNL A   1      39.147  31.274  33.312  1.00  0.00     0.074 A 
ATOM     41  C   UNL A   1      38.007  32.140  33.103  1.00  0.00     0.031 C 
ATOM     42  C   UNL A   1      39.836  28.405  27.606  1.00  0.00     0.029 A 
ATOM     43  C   UNL A   1      40.673  28.243  28.795  1.00  0.00     0.049 A 
ATOM     44  H   UNL A   1      40.409  29.140  30.654  1.00  0.00     0.167 HD
ATOM     45  C   UNL A   1      39.807  31.154  34.488  1.00  0.00     0.037 A 
ATOM     46  C   UNL A   1      41.768  27.464  28.890  1.00  0.00     0.037 A 
ATOM     47  C   UNL A   1      40.940  30.294  34.702  1.00  0.00     0.049 A 
ATOM     48  C   UNL A   1      42.523  27.394  30.192  1.00  0.00     0.074 A 
ATOM     49  C   UNL A   1      41.663  30.091  35.864  1.00  0.00     0.029 A 
ATOM     50  N   UNL A   1      41.516  29.496  33.727  1.00  0.00    -0.354 N 
ATOM     51  N   UNL A   1      42.271  27.994  31.331  1.00  0.00    -0.248 NA
ATOM     52  C   UNL A   1      43.718  26.537  30.221  1.00  0.00     0.031 C 
ATOM     53  C   UNL A   1      42.703  29.199  35.581  1.00  0.00     0.029 A 
ATOM     54  C   UNL A   1      42.601  28.816  34.254  1.00  0.00     0.049 A 
ATOM     55  H   UNL A   1      41.201  29.424  32.796  1.00  0.00     0.167 HD
ATOM     56  C   UNL A   1      43.254  27.567  32.215  1.00  0.00     0.074 A 
ATOM     57  C   UNL A   1      44.104  26.652  31.485  1.00  0.00     0.031 C 
ATOM     58  C   UNL A   1      43.434  27.903  33.516  1.00  0.00     0.037 A 
BRANCH  45  59
ATOM     59  C   UNL A   1      39.326  31.991  35.635  1.00  0.00     0.064 A 
ATOM     60  C   UNL A   1      38.403  31.497  36.567  1.00  0.00     0.173 A 
ATOM     61  C   UNL A   1      39.817  33.292  35.819  1.00  0.00     0.173 A 
ATOM     62  F   UNL A   1      37.894  30.264  36.425  1.00  0.00    -0.203 F 
ATOM     63  C   UNL A   1      37.971  32.283  37.632  1.00  0.00     0.198 A 
ATOM     64  C   UNL A   1      39.401  34.067  36.898  1.00  0.00     0.198 A 
ATOM     65  F   UNL A   1      40.703  33.809  34.954  1.00  0.00    -0.203 F 
ATOM     66  F   UNL A   1      37.059  31.805  38.490  1.00  0.00    -0.200 F 
ATOM     67  C   UNL A   1      38.475  33.564  37.800  1.00  0.00     0.200 A 
ATOM     68  F   UNL A   1      39.894  35.302  37.063  1.00  0.00    -0.200 F 
ATOM     69  F   UNL A   1      38.062  34.318  38.827  1.00  0.00    -0.200 F 
ENDBRANCH  45  59
BRANCH  46  70
ATOM     70  C   UNL A   1      42.225  26.685  27.711  1.00  0.00     0.064 A 
ATOM     71  C   UNL A   1      41.714  25.408  27.446  1.00  0.00     0.173 A 
ATOM     72  C   UNL A   1      43.199  27.194  26.840  1.00  0.00     0.173 A 
ATOM     73  F   UNL A   1      40.804  24.867  28.271  1.00  0.00    -0.203 F 
ATOM     74  C   UNL A   1      42.169  24.662  26.362  1.00  0.00     0.198 A 
ATOM     75  C   UNL A   1      43.636  26.457  25.741  1.00  0.00     0.198 A 
ATOM     76  F   UNL A   1      43.724  28.410  27.055  1.00  0.00    -0.203 F 
ATOM     77  F   UNL A   1      41.697  23.425  26.156  1.00  0.00    -0.200 F 
ATOM     78  C   UNL A   1      43.126  25.190  25.507  1.00  0.00     0.200 A 
ATOM     79  F   UNL A   1      44.558  26.973  24.916  1.00  0.00    -0.200 F 
ATOM     80  F   UNL A   1      43.565  24.471  24.465  1.00  0.00    -0.200 F 
ENDBRANCH  46  70
BRANCH  58  81
ATOM     81  C   UNL A   1      44.575  27.257  34.245  1.00  0.00     0.064 A 
ATOM     82  C   UNL A   1      45.825  27.884  34.353  1.00  0.00     0.173 A 
ATOM     83  C   UNL A   1      44.401  26.020  34.883  1.00  0.00     0.173 A 
ATOM     84  F   UNL A   1      46.043  29.061  33.748  1.00  0.00    -0.203 F 
ATOM     85  C   UNL A   1      46.865  27.286  35.060  1.00  0.00     0.198 A 
ATOM     86  C   UNL A   1      45.436  25.437  35.609  1.00  0.00     0.198 A 
ATOM     87  F   UNL A   1      43.222  25.383  34.813  1.00  0.00    -0.203 F 
ATOM     88  F   UNL A   1      48.062  27.885  35.121  1.00  0.00    -0.200 F 
ATOM     89  C   UNL A   1      46.668  26.068  35.692  1.00  0.00     0.200 A 
ATOM     90  F   UNL A   1      45.241  24.264  36.228  1.00  0.00    -0.200 F 
ATOM     91  F   UNL A   1      47.668  25.497  36.378  1.00  0.00    -0.200 F 
ENDBRANCH  58  81
ENDBRANCH  32  33
ENDBRANCH  25  27
ENDBRANCH  24  25
ENDBRANCH  23  24
ENDBRANCH  22  23
ENDBRANCH   1  22
TORSDOF 16
ENDMDL
MODEL 2
REMARK VINA RESULT:     -11.2      2.176      8.041
REMARK SMILES C[C@H](C(=O)OCCOCCOC(=O)c1ccc(-c2c3nc(c(-c4c(F)c(F)c(F)c(F)c4F)c4ccc([nH]4)c(-c4c(F)c(F)c(F)c(F)c4F)c4nc(c(-c5c(F)c(F)c(F)c(F)c5F)c5ccc2[nH]5)C=C4)C=C3)cc1)[C@H](C)n1cnc2cc(F)c(F)cc21
REMARK SMILES IDX 8 1 7 2 6 3 5 4 3 5 4 6 2 7 1 8 77 9 78 10 79 11 80 12 89 13
REMARK SMILES IDX 81 14 82 15 88 16 83 17 86 18 84 19 87 20 85 21 9 22 10 23
REMARK SMILES IDX 11 24 12 25 13 26 14 27 15 28 76 29 16 30 75 31 17 32 18 33
REMARK SMILES IDX 19 34 69 35 20 36 74 37 68 38 70 39 21 40 73 41 67 42 66 43
REMARK SMILES IDX 22 45 54 46 34 47 53 48 35 49 38 50 52 51 71 52 36 53 37 54
REMARK SMILES IDX 51 56 72 57 39 58 23 59 24 60 32 61 25 62 26 63 30 64 33 65
REMARK SMILES IDX 27 66 28 67 31 68 29 69 55 70 56 71 64 72 57 73 58 74 62 75
REMARK SMILES IDX 65 76 59 77 60 78 63 79 61 80 40 81 41 82 49 83 42 84 43 85
REMARK SMILES IDX 47 86 50 87 44 88 45 89 48 90 46 91
REMARK H PARENT 70 44 38 55
REMARK Flexibility Score: inf
ROOT
ATOM      1  O   UNL A   1      31.595  29.340  26.957  1.00  0.00    -0.374 OA
ENDROOT
BRANCH   1   2
ATOM      2  C   UNL A   1      32.645  28.419  27.241  1.00  0.00     0.202 C 
BRANCH   2   3
ATOM      3  C   UNL A   1      32.363  26.983  26.779  1.00  0.00     0.261 C 
BRANCH   3   4
ATOM      4  O   UNL A   1      30.985  26.549  26.707  1.00  0.00    -0.463 OA
BRANCH   4   5
ATOM      5  C   UNL A   1      30.746  25.349  26.123  1.00  0.00     0.310 C 
ATOM      6  O   UNL A   1      29.905  24.540  26.492  1.00  0.00    -0.252 OA
BRANCH   5   7
ATOM      7  C   UNL A   1      31.699  25.070  24.973  1.00  0.00     0.119 C 
ATOM      8  C   UNL A   1      32.048  23.582  24.949  1.00  0.00     0.022 C 
BRANCH   7   9
ATOM      9  C   UNL A   1      31.161  25.582  23.605  1.00  0.00     0.099 C 
ATOM     10  C   UNL A   1      31.850  24.902  22.417  1.00  0.00     0.032 C 
BRANCH   9  11
ATOM     11  N   UNL A   1      31.200  27.040  23.455  1.00  0.00    -0.327 N 
ATOM     12  C   UNL A   1      32.327  27.737  23.102  1.00  0.00     0.200 A 
ATOM     13  C   UNL A   1      30.120  27.882  23.281  1.00  0.00     0.071 A 
ATOM     14  N   UNL A   1      32.029  28.891  22.550  1.00  0.00    -0.237 NA
ATOM     15  C   UNL A   1      30.660  28.970  22.594  1.00  0.00     0.092 A 
ATOM     16  C   UNL A   1      28.744  27.744  23.514  1.00  0.00     0.071 A 
ATOM     17  C   UNL A   1      29.805  29.916  22.008  1.00  0.00     0.073 A 
ATOM     18  C   UNL A   1      27.913  28.695  22.921  1.00  0.00     0.161 A 
ATOM     19  C   UNL A   1      28.430  29.740  22.162  1.00  0.00     0.161 A 
ATOM     20  F   UNL A   1      26.587  28.562  23.056  1.00  0.00    -0.204 F 
ATOM     21  F   UNL A   1      27.596  30.593  21.550  1.00  0.00    -0.204 F 
ENDBRANCH   9  11
ENDBRANCH   7   9
ENDBRANCH   5   7
ENDBRANCH   4   5
ENDBRANCH   3   4
ENDBRANCH   2   3
ENDBRANCH   1   2
BRANCH   1  22
ATOM     22  C   UNL A   1      31.903  30.304  25.956  1.00  0.00     0.202 C 
BRANCH  22  23
ATOM     23  C   UNL A   1      31.781  31.726  26.513  1.00  0.00     0.261 C 
BRANCH  23  24
ATOM     24  O   UNL A   1      32.528  31.894  27.731  1.00  0.00    -0.460 OA
BRANCH  24  25
ATOM     25  C   UNL A   1      33.499  32.838  27.648  1.00  0.00     0.338 C 
ATOM     26  O   UNL A   1      33.367  34.018  27.350  1.00  0.00    -0.246 OA
BRANCH  25  27
ATOM     27  C   UNL A   1      34.811  32.270  28.006  1.00  0.00     0.060 A 
ATOM     28  C   UNL A   1      34.885  30.901  28.297  1.00  0.00     0.016 A 
ATOM     29  C   UNL A   1      35.923  33.095  28.188  1.00  0.00     0.016 A 
ATOM     30  C   UNL A   1      36.053  30.366  28.841  1.00  0.00     0.010 A 
ATOM     31  C   UNL A   1      37.090  32.560  28.741  1.00  0.00     0.010 A 
ATOM     32  C   UNL A   1      37.141  31.206  29.116  1.00  0.00    -0.014 A 
BRANCH  32  33
ATOM     33  C   UNL A   1      38.248  30.723  29.979  1.00  0.00     0.031 A 
ATOM     34  C   UNL A   1      39.222  29.729  29.408  1.00  0.00     0.074 A 
ATOM     35  C   UNL A   1      38.391  31.159  31.242  1.00  0.00     0.049 A 
ATOM     36  N   UNL A   1      40.235  29.132  29.983  1.00  0.00    -0.248 NA
ATOM     37  C   UNL A   1      39.024  29.353  27.999  1.00  0.00     0.031 C 
ATOM     38  C   UNL A   1      37.536  32.143  31.899  1.00  0.00     0.029 A 
ATOM     39  N   UNL A   1      39.312  30.815  32.198  1.00  0.00    -0.354 N 
ATOM     40  C   UNL A   1      40.793  28.314  29.008  1.00  0.00     0.074 A 
ATOM     41  C   UNL A   1      39.990  28.466  27.814  1.00  0.00     0.031 C 
ATOM     42  C   UNL A   1      37.965  32.315  33.161  1.00  0.00     0.029 A 
ATOM     43  C   UNL A   1      39.109  31.437  33.404  1.00  0.00     0.049 A 
ATOM     44  H   UNL A   1      40.048  30.182  32.035  1.00  0.00     0.167 HD
ATOM     45  C   UNL A   1      41.882  27.515  29.096  1.00  0.00     0.037 A 
ATOM     46  C   UNL A   1      39.765  31.299  34.573  1.00  0.00     0.037 A 
ATOM     47  C   UNL A   1      42.685  27.360  30.279  1.00  0.00     0.049 A 
ATOM     48  C   UNL A   1      40.937  30.356  34.664  1.00  0.00     0.074 A 
ATOM     49  C   UNL A   1      43.819  26.588  30.459  1.00  0.00     0.029 A 
ATOM     50  N   UNL A   1      42.433  27.990  31.488  1.00  0.00    -0.354 N 
ATOM     51  N   UNL A   1      41.473  29.606  33.731  1.00  0.00    -0.248 NA
ATOM     52  C   UNL A   1      41.597  30.242  35.973  1.00  0.00     0.031 C 
ATOM     53  C   UNL A   1      44.230  26.720  31.790  1.00  0.00     0.029 A 
ATOM     54  C   UNL A   1      43.378  27.606  32.426  1.00  0.00     0.049 A 
ATOM     55  H   UNL A   1      41.693  28.618  31.655  1.00  0.00     0.167 HD
ATOM     56  C   UNL A   1      42.543  28.955  34.331  1.00  0.00     0.074 A 
ATOM     57  C   UNL A   1      42.589  29.402  35.706  1.00  0.00     0.031 C 
ATOM     58  C   UNL A   1      43.412  28.067  33.789  1.00  0.00     0.037 A 
BRANCH  45  59
ATOM     59  C   UNL A   1      42.259  26.729  27.877  1.00  0.00     0.064 A 
ATOM     60  C   UNL A   1      43.191  27.217  26.949  1.00  0.00     0.173 A 
ATOM     61  C   UNL A   1      41.704  25.462  27.648  1.00  0.00     0.173 A 
ATOM     62  F   UNL A   1      43.738  28.431  27.117  1.00  0.00    -0.203 F 
ATOM     63  C   UNL A   1      43.538  26.473  25.825  1.00  0.00     0.198 A 
ATOM     64  C   UNL A   1      42.071  24.710  26.535  1.00  0.00     0.198 A 
ATOM     65  F   UNL A   1      40.809  24.951  28.507  1.00  0.00    -0.203 F 
ATOM     66  F   UNL A   1      44.401  26.975  24.931  1.00  0.00    -0.200 F 
ATOM     67  C   UNL A   1      42.982  25.219  25.622  1.00  0.00     0.200 A 
ATOM     68  F   UNL A   1      41.539  23.495  26.345  1.00  0.00    -0.200 F 
ATOM     69  F   UNL A   1      43.320  24.502  24.542  1.00  0.00    -0.200 F 
ENDBRANCH  45  59
BRANCH  46  70
ATOM     70  C   UNL A   1      39.325  32.071  35.763  1.00  0.00     0.064 A 
ATOM     71  C   UNL A   1      39.862  33.335  36.043  1.00  0.00     0.173 A 
ATOM     72  C   UNL A   1      38.377  31.550  36.654  1.00  0.00     0.173 A 
ATOM     73  F   UNL A   1      40.796  33.859  35.235  1.00  0.00    -0.203 F 
ATOM     74  C   UNL A   1      39.477  34.044  37.178  1.00  0.00     0.198 A 
ATOM     75  C   UNL A   1      37.974  32.271  37.777  1.00  0.00     0.198 A 
ATOM     76  F   UNL A   1      37.839  30.342  36.433  1.00  0.00    -0.203 F 
ATOM     77  F   UNL A   1      40.038  35.230  37.448  1.00  0.00    -0.200 F 
ATOM     78  C   UNL A   1      38.530  33.513  38.042  1.00  0.00     0.200 A 
ATOM     79  F   UNL A   1      37.055  31.756  38.606  1.00  0.00    -0.200 F 
ATOM     80  F   UNL A   1      38.161  34.195  39.135  1.00  0.00    -0.200 F 
ENDBRANCH  46  70
BRANCH  58  81
ATOM     81  C   UNL A   1      44.504  27.541  34.673  1.00  0.00     0.064 A 
ATOM     82  C   UNL A   1      45.734  28.203  34.794  1.00  0.00     0.173 A 
ATOM     83  C   UNL A   1      44.298  26.387  35.446  1.00  0.00     0.173 A 
ATOM     84  F   UNL A   1      45.983  29.301  34.064  1.00  0.00    -0.203 F 
ATOM     85  C   UNL A   1      46.727  27.719  35.643  1.00  0.00     0.198 A 
ATOM     86  C   UNL A   1      45.284  25.920  36.312  1.00  0.00     0.198 A 
ATOM     87  F   UNL A   1      43.136  25.722  35.371  1.00  0.00    -0.203 F 
ATOM     88  F   UNL A   1      47.908  28.346  35.715  1.00  0.00    -0.200 F 
ATOM     89  C   UNL A   1      46.497  26.583  36.405  1.00  0.00     0.200 A 
ATOM     90  F   UNL A   1      45.058  24.829  37.056  1.00  0.00    -0.200 F 
ATOM     91  F   UNL A   1      47.451  26.124  37.227  1.00  0.00    -0.200 F 
ENDBRANCH  58  81
ENDBRANCH  32  33
ENDBRANCH  25  27
ENDBRANCH  24  25
ENDBRANCH  23  24
ENDBRANCH  22  23
ENDBRANCH   1  22
TORSDOF 16
ENDMDL
MODEL 3
REMARK VINA RESULT:     -11.0      1.924      3.127
REMARK SMILES C[C@H](C(=O)OCCOCCOC(=O)c1ccc(-c2c3nc(c(-c4c(F)c(F)c(F)c(F)c4F)c4ccc([nH]4)c(-c4c(F)c(F)c(F)c(F)c4F)c4nc(c(-c5c(F)c(F)c(F)c(F)c5F)c5ccc2[nH]5)C=C4)C=C3)cc1)[C@H](C)n1cnc2cc(F)c(F)cc21
REMARK SMILES IDX 8 1 7 2 6 3 5 4 3 5 4 6 2 7 1 8 77 9 78 10 79 11 80 12 89 13
REMARK SMILES IDX 81 14 82 15 88 16 83 17 86 18 84 19 87 20 85 21 9 22 10 23
REMARK SMILES IDX 11 24 12 25 13 26 14 27 15 28 76 29 16 30 75 31 17 32 18 33
REMARK SMILES IDX 19 34 69 35 20 36 74 37 68 38 70 39 21 40 73 41 67 42 66 43
REMARK SMILES IDX 22 45 54 46 34 47 53 48 35 49 38 50 52 51 71 52 36 53 37 54
REMARK SMILES IDX 51 56 72 57 39 58 23 59 24 60 32 61 25 62 26 63 30 64 33 65
REMARK SMILES IDX 27 66 28 67 31 68 29 69 55 70 56 71 64 72 57 73 58 74 62 75
REMARK SMILES IDX 65 76 59 77 60 78 63 79 61 80 40 81 41 82 49 83 42 84 43 85
REMARK SMILES IDX 47 86 50 87 44 88 45 89 48 90 46 91
REMARK H PARENT 70 44 38 55
REMARK Flexibility Score: inf
ROOT
ATOM      1  O   UNL A   1      32.464  30.578  26.397  1.00  0.00    -0.374 OA
ENDROOT
BRANCH   1   2
ATOM      2  C   UNL A   1      32.031  29.274  26.774  1.00  0.00     0.202 C 
BRANCH   2   3
ATOM      3  C   UNL A   1      33.168  28.334  27.200  1.00  0.00     0.261 C 
BRANCH   3   4
ATOM      4  O   UNL A   1      33.538  27.263  26.301  1.00  0.00    -0.463 OA
BRANCH   4   5
ATOM      5  C   UNL A   1      32.675  26.223  26.193  1.00  0.00     0.310 C 
ATOM      6  O   UNL A   1      31.699  26.039  26.909  1.00  0.00    -0.252 OA
BRANCH   5   7
ATOM      7  C   UNL A   1      33.089  25.242  25.110  1.00  0.00     0.119 C 
ATOM      8  C   UNL A   1      32.620  23.837  25.486  1.00  0.00     0.022 C 
BRANCH   7   9
ATOM      9  C   UNL A   1      32.614  25.673  23.691  1.00  0.00     0.099 C 
ATOM     10  C   UNL A   1      33.730  25.565  22.647  1.00  0.00     0.032 C 
BRANCH   9  11
ATOM     11  N   UNL A   1      31.994  27.001  23.646  1.00  0.00    -0.327 N 
ATOM     12  C   UNL A   1      32.619  28.114  23.143  1.00  0.00     0.200 A 
ATOM     13  C   UNL A   1      30.647  27.288  23.739  1.00  0.00     0.071 A 
ATOM     14  N   UNL A   1      31.752  29.016  22.743  1.00  0.00    -0.237 NA
ATOM     15  C   UNL A   1      30.520  28.493  23.047  1.00  0.00     0.092 A 
ATOM     16  C   UNL A   1      29.540  26.569  24.211  1.00  0.00     0.071 A 
ATOM     17  C   UNL A   1      29.245  28.965  22.701  1.00  0.00     0.073 A 
ATOM     18  C   UNL A   1      28.282  27.056  23.855  1.00  0.00     0.161 A 
ATOM     19  C   UNL A   1      28.139  28.212  23.094  1.00  0.00     0.161 A 
ATOM     20  F   UNL A   1      27.197  26.362  24.224  1.00  0.00    -0.204 F 
ATOM     21  F   UNL A   1      26.917  28.609  22.712  1.00  0.00    -0.204 F 
ENDBRANCH   9  11
ENDBRANCH   7   9
ENDBRANCH   5   7
ENDBRANCH   4   5
ENDBRANCH   3   4
ENDBRANCH   2   3
ENDBRANCH   1   2
BRANCH   1  22
ATOM     22  C   UNL A   1      31.433  31.558  26.351  1.00  0.00     0.202 C 
BRANCH  22  23
ATOM     23  C   UNL A   1      31.781  32.758  27.238  1.00  0.00     0.261 C 
BRANCH  23  24
ATOM     24  O   UNL A   1      33.106  33.255  26.976  1.00  0.00    -0.460 OA
BRANCH  24  25
ATOM     25  C   UNL A   1      33.763  33.664  28.092  1.00  0.00     0.338 C 
ATOM     26  O   UNL A   1      33.431  34.548  28.869  1.00  0.00    -0.246 OA
BRANCH  25  27
ATOM     27  C   UNL A   1      34.980  32.859  28.303  1.00  0.00     0.060 A 
ATOM     28  C   UNL A   1      34.833  31.500  28.609  1.00  0.00     0.016 A 
ATOM     29  C   UNL A   1      36.239  33.462  28.336  1.00  0.00     0.016 A 
ATOM     30  C   UNL A   1      35.938  30.755  29.020  1.00  0.00     0.010 A 
ATOM     31  C   UNL A   1      37.344  32.717  28.757  1.00  0.00     0.010 A 
ATOM     32  C   UNL A   1      37.189  31.376  29.149  1.00  0.00    -0.014 A 
BRANCH  32  33
ATOM     33  C   UNL A   1      38.282  30.693  29.884  1.00  0.00     0.031 A 
ATOM     34  C   UNL A   1      38.510  31.051  31.328  1.00  0.00     0.074 A 
ATOM     35  C   UNL A   1      39.056  29.771  29.287  1.00  0.00     0.049 A 
ATOM     36  N   UNL A   1      39.429  30.623  32.156  1.00  0.00    -0.248 NA
ATOM     37  C   UNL A   1      37.578  32.026  31.915  1.00  0.00     0.031 C 
ATOM     38  C   UNL A   1      38.916  29.314  27.908  1.00  0.00     0.029 A 
ATOM     39  N   UNL A   1      40.123  29.060  29.775  1.00  0.00    -0.354 N 
ATOM     40  C   UNL A   1      39.185  31.276  33.358  1.00  0.00     0.074 A 
ATOM     41  C   UNL A   1      38.052  32.151  33.146  1.00  0.00     0.031 C 
ATOM     42  C   UNL A   1      39.873  28.405  27.654  1.00  0.00     0.029 A 
ATOM     43  C   UNL A   1      40.705  28.236  28.845  1.00  0.00     0.049 A 
ATOM     44  H   UNL A   1      40.441  29.135  30.704  1.00  0.00     0.167 HD
ATOM     45  C   UNL A   1      39.840  31.151  34.537  1.00  0.00     0.037 A 
ATOM     46  C   UNL A   1      41.794  27.449  28.944  1.00  0.00     0.037 A 
ATOM     47  C   UNL A   1      40.965  30.282  34.754  1.00  0.00     0.049 A 
ATOM     48  C   UNL A   1      42.544  27.373  30.249  1.00  0.00     0.074 A 
ATOM     49  C   UNL A   1      41.682  30.074  35.919  1.00  0.00     0.029 A 
ATOM     50  N   UNL A   1      41.539  29.481  33.781  1.00  0.00    -0.354 N 
ATOM     51  N   UNL A   1      42.291  27.974  31.387  1.00  0.00    -0.248 NA
ATOM     52  C   UNL A   1      43.732  26.508  30.282  1.00  0.00     0.031 C 
ATOM     53  C   UNL A   1      42.717  29.175  35.639  1.00  0.00     0.029 A 
ATOM     54  C   UNL A   1      42.617  28.792  34.312  1.00  0.00     0.049 A 
ATOM     55  H   UNL A   1      41.227  29.411  32.849  1.00  0.00     0.167 HD
ATOM     56  C   UNL A   1      43.268  27.540  32.274  1.00  0.00     0.074 A 
ATOM     57  C   UNL A   1      44.115  26.618  31.547  1.00  0.00     0.031 C 
ATOM     58  C   UNL A   1      43.446  27.874  33.576  1.00  0.00     0.037 A 
BRANCH  45  59
ATOM     59  C   UNL A   1      39.360  31.991  35.682  1.00  0.00     0.064 A 
ATOM     60  C   UNL A   1      39.797  33.312  35.856  1.00  0.00     0.173 A 
ATOM     61  C   UNL A   1      38.432  31.477  36.599  1.00  0.00     0.173 A 
ATOM     62  F   UNL A   1      40.696  33.842  35.012  1.00  0.00    -0.203 F 
ATOM     63  C   UNL A   1      39.338  34.083  36.919  1.00  0.00     0.198 A 
ATOM     64  C   UNL A   1      37.957  32.259  37.649  1.00  0.00     0.198 A 
ATOM     65  F   UNL A   1      37.983  30.219  36.475  1.00  0.00    -0.203 F 
ATOM     66  F   UNL A   1      39.797  35.330  37.090  1.00  0.00    -0.200 F 
ATOM     67  C   UNL A   1      38.413  33.558  37.811  1.00  0.00     0.200 A 
ATOM     68  F   UNL A   1      37.058  31.753  38.505  1.00  0.00    -0.200 F 
ATOM     69  F   UNL A   1      37.969  34.303  38.832  1.00  0.00    -0.200 F 
ENDBRANCH  45  59
BRANCH  46  70
ATOM     70  C   UNL A   1      42.250  26.668  27.766  1.00  0.00     0.064 A 
ATOM     71  C   UNL A   1      41.772  25.372  27.530  1.00  0.00     0.173 A 
ATOM     72  C   UNL A   1      43.189  27.193  26.868  1.00  0.00     0.173 A 
ATOM     73  F   UNL A   1      40.897  24.816  28.382  1.00  0.00    -0.203 F 
ATOM     74  C   UNL A   1      42.227  24.624  26.447  1.00  0.00     0.198 A 
ATOM     75  C   UNL A   1      43.625  26.454  25.770  1.00  0.00     0.198 A 
ATOM     76  F   UNL A   1      43.681  28.427  27.055  1.00  0.00    -0.203 F 
ATOM     77  F   UNL A   1      41.788  23.371  26.268  1.00  0.00    -0.200 F 
ATOM     78  C   UNL A   1      43.149  25.168  25.564  1.00  0.00     0.200 A 
ATOM     79  F   UNL A   1      44.513  26.985  24.918  1.00  0.00    -0.200 F 
ATOM     80  F   UNL A   1      43.588  24.448  24.523  1.00  0.00    -0.200 F 
ENDBRANCH  46  70
BRANCH  58  81
ATOM     81  C   UNL A   1      44.580  27.219  34.309  1.00  0.00     0.064 A 
ATOM     82  C   UNL A   1      45.845  27.818  34.387  1.00  0.00     0.173 A 
ATOM     83  C   UNL A   1      44.383  26.004  34.981  1.00  0.00     0.173 A 
ATOM     84  F   UNL A   1      46.085  28.973  33.748  1.00  0.00    -0.203 F 
ATOM     85  C   UNL A   1      46.879  27.213  35.097  1.00  0.00     0.198 A 
ATOM     86  C   UNL A   1      45.412  25.414  35.711  1.00  0.00     0.198 A 
ATOM     87  F   UNL A   1      43.188  25.395  34.942  1.00  0.00    -0.203 F 
ATOM     88  F   UNL A   1      48.091  27.784  35.129  1.00  0.00    -0.200 F 
ATOM     89  C   UNL A   1      46.660  26.017  35.764  1.00  0.00     0.200 A 
ATOM     90  F   UNL A   1      45.196  24.263  36.363  1.00  0.00    -0.200 F 
ATOM     91  F   UNL A   1      47.654  25.440  36.453  1.00  0.00    -0.200 F 
ENDBRANCH  58  81
ENDBRANCH  32  33
ENDBRANCH  25  27
ENDBRANCH  24  25
ENDBRANCH  23  24
ENDBRANCH  22  23
ENDBRANCH   1  22
TORSDOF 16
ENDMDL
