MODEL 1
REMARK VINA RESULT:     -13.6      0.000      0.000
REMARK SMILES O=C(OCCOCCOC(=O)c1ccc(-c2c3nc(c(-c4c(F)c(F)c(F)c(F)c4F)c4ccc([nH]4)c(-c4c(F)c(F)c(F)c(F)c4F)c4nc(c(-c5c(F)c(F)c(F)c(F)c5F)c5ccc2[nH]5)C=C4)C=C3)cc1)C1=Cc2c(ccc(Cl)c2-c2ccccc2)O[C@H]1C(F)(F)F
REMARK SMILES IDX 7 1 6 2 5 3 4 4 3 5 2 6 1 7 75 8 76 9 91 10 77 11 90 12
REMARK SMILES IDX 78 13 83 14 79 15 81 16 80 17 82 18 92 19 93 20 94 21 95 22
REMARK SMILES IDX 84 23 85 24 89 25 86 26 88 27 87 28 8 29 9 30 10 31 11 32
REMARK SMILES IDX 12 33 13 34 74 35 14 36 73 37 15 38 16 39 17 40 67 41 18 42
REMARK SMILES IDX 72 43 66 44 68 45 19 46 71 47 65 48 64 49 20 51 52 52 32 53
REMARK SMILES IDX 51 54 33 55 36 56 50 57 69 58 34 59 35 60 49 62 70 63 37 64
REMARK SMILES IDX 21 65 22 66 30 67 23 68 24 69 28 70 31 71 25 72 26 73 29 74
REMARK SMILES IDX 27 75 53 76 54 77 62 78 55 79 56 80 60 81 63 82 57 83 58 84
REMARK SMILES IDX 61 85 59 86 38 87 39 88 47 89 40 90 41 91 45 92 48 93 42 94
REMARK SMILES IDX 43 95 46 96 44 97
REMARK H PARENT 68 50 36 61
REMARK Flexibility Score: inf
ROOT
ATOM      1  C   UNL A   1      35.817  20.798  25.215  1.00  0.00     0.202 C 
ENDROOT
BRANCH   1   2
ATOM      2  O   UNL A   1      35.453  21.643  26.305  1.00  0.00    -0.374 OA
BRANCH   2   3
ATOM      3  C   UNL A   1      34.233  21.416  26.976  1.00  0.00     0.202 C 
BRANCH   3   4
ATOM      4  C   UNL A   1      33.430  22.630  27.483  1.00  0.00     0.261 C 
BRANCH   4   5
ATOM      5  O   UNL A   1      32.338  22.952  26.608  1.00  0.00    -0.460 OA
BRANCH   5   6
ATOM      6  C   UNL A   1      31.918  24.208  26.337  1.00  0.00     0.338 C 
ATOM      7  O   UNL A   1      31.164  24.780  27.119  1.00  0.00    -0.246 OA
BRANCH   6   8
ATOM      8  C   UNL A   1      32.291  24.897  25.081  1.00  0.00     0.087 C 
ATOM      9  C   UNL A   1      32.954  26.054  24.918  1.00  0.00     0.028 C 
ATOM     10  C   UNL A   1      32.006  24.124  23.821  1.00  0.00     0.316 C 
ATOM     11  C   UNL A   1      32.162  26.989  24.117  1.00  0.00     0.027 A 
ATOM     12  O   UNL A   1      31.745  25.023  22.689  1.00  0.00    -0.475 OA
ATOM     13  C   UNL A   1      31.528  26.354  23.007  1.00  0.00     0.128 A 
ATOM     14  C   UNL A   1      31.949  28.347  24.504  1.00  0.00     0.011 A 
ATOM     15  C   UNL A   1      30.653  27.060  22.217  1.00  0.00     0.049 A 
ATOM     16  C   UNL A   1      30.909  28.951  23.764  1.00  0.00     0.049 A 
ATOM     17  C   UNL A   1      30.317  28.345  22.623  1.00  0.00     0.025 A 
ATOM     18  Cl  UNL A   1      30.131  30.408  24.241  1.00  0.00    -0.084 Cl
BRANCH  10  19
ATOM     19  C   UNL A   1      33.206  23.181  23.567  1.00  0.00     0.430 C 
ATOM     20  F   UNL A   1      33.549  23.137  22.251  1.00  0.00    -0.167 F 
ATOM     21  F   UNL A   1      34.309  23.557  24.247  1.00  0.00    -0.167 F 
ATOM     22  F   UNL A   1      32.916  21.905  23.917  1.00  0.00    -0.167 F 
ENDBRANCH  10  19
BRANCH  14  23
ATOM     23  C   UNL A   1      32.764  29.065  25.603  1.00  0.00    -0.016 A 
ATOM     24  C   UNL A   1      32.153  30.559  26.432  1.00  0.00     0.009 A 
ATOM     25  C   UNL A   1      34.403  28.451  26.077  1.00  0.00     0.009 A 
ATOM     26  C   UNL A   1      33.167  31.478  27.626  1.00  0.00     0.001 A 
ATOM     27  C   UNL A   1      35.435  29.334  27.291  1.00  0.00     0.001 A 
ATOM     28  C   UNL A   1      34.807  30.855  28.074  1.00  0.00     0.000 A 
ENDBRANCH  14  23
ENDBRANCH   6   8
ENDBRANCH   5   6
ENDBRANCH   4   5
ENDBRANCH   3   4
ENDBRANCH   2   3
ENDBRANCH   1   2
BRANCH   1  29
ATOM     29  C   UNL A   1      37.391  20.501  24.850  1.00  0.00     0.261 C 
BRANCH  29  30
ATOM     30  O   UNL A   1      39.136  20.999  25.742  1.00  0.00    -0.460 OA
BRANCH  30  31
ATOM     31  C   UNL A   1      40.231  21.022  26.621  1.00  0.00     0.338 C 
ATOM     32  O   UNL A   1      40.956  20.110  27.013  1.00  0.00    -0.246 OA
BRANCH  31  33
ATOM     33  C   UNL A   1      40.452  22.374  27.122  1.00  0.00     0.060 A 
ATOM     34  C   UNL A   1      39.650  23.398  26.623  1.00  0.00     0.016 A 
ATOM     35  C   UNL A   1      41.480  22.611  28.041  1.00  0.00     0.016 A 
ATOM     36  C   UNL A   1      39.868  24.688  27.073  1.00  0.00     0.010 A 
ATOM     37  C   UNL A   1      41.660  23.885  28.542  1.00  0.00     0.010 A 
ATOM     38  C   UNL A   1      40.883  24.923  28.015  1.00  0.00    -0.014 A 
BRANCH  38  39
ATOM     39  C   UNL A   1      41.391  26.287  28.172  1.00  0.00     0.031 A 
ATOM     40  C   UNL A   1      42.756  26.535  27.612  1.00  0.00     0.074 A 
ATOM     41  C   UNL A   1      40.668  27.220  28.803  1.00  0.00     0.049 A 
ATOM     42  N   UNL A   1      43.469  27.625  27.615  1.00  0.00    -0.248 NA
ATOM     43  C   UNL A   1      43.421  25.382  26.969  1.00  0.00     0.031 C 
ATOM     44  C   UNL A   1      39.338  27.022  29.374  1.00  0.00     0.029 A 
ATOM     45  N   UNL A   1      40.962  28.525  29.076  1.00  0.00    -0.354 N 
ATOM     46  C   UNL A   1      44.652  27.290  26.974  1.00  0.00     0.074 A 
ATOM     47  C   UNL A   1      44.591  25.891  26.632  1.00  0.00     0.031 C 
ATOM     48  C   UNL A   1      38.922  28.175  29.924  1.00  0.00     0.029 A 
ATOM     49  C   UNL A   1      39.975  29.172  29.772  1.00  0.00     0.049 A 
ATOM     50  H   UNL A   1      41.803  28.958  28.800  1.00  0.00     0.167 HD
ATOM     51  C   UNL A   1      45.696  28.096  26.692  1.00  0.00     0.037 A 
ATOM     52  C   UNL A   1      39.958  30.434  30.235  1.00  0.00     0.037 A 
ATOM     53  C   UNL A   1      45.736  29.473  27.089  1.00  0.00     0.049 A 
ATOM     54  C   UNL A   1      41.160  31.297  29.955  1.00  0.00     0.074 A 
ATOM     55  C   UNL A   1      46.732  30.406  26.886  1.00  0.00     0.029 A 
ATOM     56  N   UNL A   1      44.720  30.106  27.798  1.00  0.00    -0.354 N 
ATOM     57  N   UNL A   1      42.263  30.999  29.305  1.00  0.00    -0.248 NA
ATOM     58  C   UNL A   1      41.115  32.671  30.461  1.00  0.00     0.031 C 
ATOM     59  C   UNL A   1      46.341  31.590  27.522  1.00  0.00     0.029 A 
ATOM     60  C   UNL A   1      45.074  31.414  28.061  1.00  0.00     0.049 A 
ATOM     61  H   UNL A   1      43.874  29.682  28.071  1.00  0.00     0.167 HD
ATOM     62  C   UNL A   1      43.026  32.156  29.291  1.00  0.00     0.074 A 
ATOM     63  C   UNL A   1      42.251  33.163  29.990  1.00  0.00     0.031 C 
ATOM     64  C   UNL A   1      44.253  32.377  28.753  1.00  0.00     0.037 A 
BRANCH  51  65
ATOM     65  C   UNL A   1      46.863  27.477  25.982  1.00  0.00     0.064 A 
ATOM     66  C   UNL A   1      47.895  26.829  26.681  1.00  0.00     0.173 A 
ATOM     67  C   UNL A   1      46.978  27.578  24.590  1.00  0.00     0.173 A 
ATOM     68  F   UNL A   1      47.853  26.738  28.019  1.00  0.00    -0.203 F 
ATOM     69  C   UNL A   1      49.009  26.329  26.012  1.00  0.00     0.198 A 
ATOM     70  C   UNL A   1      48.078  27.049  23.921  1.00  0.00     0.198 A 
ATOM     71  F   UNL A   1      46.031  28.206  23.876  1.00  0.00    -0.203 F 
ATOM     72  F   UNL A   1      50.012  25.772  26.706  1.00  0.00    -0.200 F 
ATOM     73  C   UNL A   1      49.097  26.434  24.633  1.00  0.00     0.200 A 
ATOM     74  F   UNL A   1      48.160  27.150  22.587  1.00  0.00    -0.200 F 
ATOM     75  F   UNL A   1      50.170  25.954  23.990  1.00  0.00    -0.200 F 
ENDBRANCH  51  65
BRANCH  52  76
ATOM     76  C   UNL A   1      38.778  30.948  30.977  1.00  0.00     0.064 A 
ATOM     77  C   UNL A   1      37.757  31.643  30.315  1.00  0.00     0.173 A 
ATOM     78  C   UNL A   1      38.643  30.758  32.361  1.00  0.00     0.173 A 
ATOM     79  F   UNL A   1      37.844  31.860  28.994  1.00  0.00    -0.203 F 
ATOM     80  C   UNL A   1      36.662  32.154  31.011  1.00  0.00     0.198 A 
ATOM     81  C   UNL A   1      37.533  31.245  33.051  1.00  0.00     0.198 A 
ATOM     82  F   UNL A   1      39.585  30.092  33.044  1.00  0.00    -0.203 F 
ATOM     83  F   UNL A   1      35.726  32.857  30.358  1.00  0.00    -0.200 F 
ATOM     84  C   UNL A   1      36.549  31.951  32.377  1.00  0.00     0.200 A 
ATOM     85  F   UNL A   1      37.418  31.031  34.369  1.00  0.00    -0.200 F 
ATOM     86  F   UNL A   1      35.496  32.440  33.045  1.00  0.00    -0.200 F 
ENDBRANCH  52  76
BRANCH  64  87
ATOM     87  C   UNL A   1      44.790  33.774  28.854  1.00  0.00     0.064 A 
ATOM     88  C   UNL A   1      45.599  34.180  29.924  1.00  0.00     0.173 A 
ATOM     89  C   UNL A   1      44.516  34.703  27.840  1.00  0.00     0.173 A 
ATOM     90  F   UNL A   1      45.878  33.328  30.922  1.00  0.00    -0.203 F 
ATOM     91  C   UNL A   1      46.083  35.482  29.994  1.00  0.00     0.198 A 
ATOM     92  C   UNL A   1      45.034  35.991  27.893  1.00  0.00     0.198 A 
ATOM     93  F   UNL A   1      43.757  34.355  26.789  1.00  0.00    -0.203 F 
ATOM     94  F   UNL A   1      46.802  35.870  31.055  1.00  0.00    -0.200 F 
ATOM     95  C   UNL A   1      45.807  36.383  28.975  1.00  0.00     0.200 A 
ATOM     96  F   UNL A   1      44.783  36.854  26.899  1.00  0.00    -0.200 F 
ATOM     97  F   UNL A   1      46.279  37.635  29.043  1.00  0.00    -0.200 F 
ENDBRANCH  64  87
ENDBRANCH  38  39
ENDBRANCH  31  33
ENDBRANCH  30  31
ENDBRANCH  29  30
ENDBRANCH   1  29
TORSDOF 16
ENDMDL
MODEL 2
REMARK VINA RESULT:     -13.6      4.328      6.755
REMARK SMILES O=C(OCCOCCOC(=O)c1ccc(-c2c3nc(c(-c4c(F)c(F)c(F)c(F)c4F)c4ccc([nH]4)c(-c4c(F)c(F)c(F)c(F)c4F)c4nc(c(-c5c(F)c(F)c(F)c(F)c5F)c5ccc2[nH]5)C=C4)C=C3)cc1)C1=Cc2c(ccc(Cl)c2-c2ccccc2)O[C@H]1C(F)(F)F
REMARK SMILES IDX 7 1 6 2 5 3 4 4 3 5 2 6 1 7 75 8 76 9 91 10 77 11 90 12
REMARK SMILES IDX 78 13 83 14 79 15 81 16 80 17 82 18 92 19 93 20 94 21 95 22
REMARK SMILES IDX 84 23 85 24 89 25 86 26 88 27 87 28 8 29 9 30 10 31 11 32
REMARK SMILES IDX 12 33 13 34 74 35 14 36 73 37 15 38 16 39 17 40 67 41 18 42
REMARK SMILES IDX 72 43 66 44 68 45 19 46 71 47 65 48 64 49 20 51 52 52 32 53
REMARK SMILES IDX 51 54 33 55 36 56 50 57 69 58 34 59 35 60 49 62 70 63 37 64
REMARK SMILES IDX 21 65 22 66 30 67 23 68 24 69 28 70 31 71 25 72 26 73 29 74
REMARK SMILES IDX 27 75 53 76 54 77 62 78 55 79 56 80 60 81 63 82 57 83 58 84
REMARK SMILES IDX 61 85 59 86 38 87 39 88 47 89 40 90 41 91 45 92 48 93 42 94
REMARK SMILES IDX 43 95 46 96 44 97
REMARK H PARENT 68 50 36 61
REMARK Flexibility Score: inf
ROOT
ATOM      1  C   UNL A   1      40.412  21.636  26.146  1.00  0.00     0.202 C 
ENDROOT
BRANCH   1   2
ATOM      2  O   UNL A   1      39.516  22.743  26.085  1.00  0.00    -0.374 OA
BRANCH   2   3
ATOM      3  C   UNL A   1      38.126  22.503  26.039  1.00  0.00     0.202 C 
BRANCH   3   4
ATOM      4  C   UNL A   1      37.577  21.535  24.972  1.00  0.00     0.261 C 
BRANCH   4   5
ATOM      5  O   UNL A   1      36.200  21.804  24.664  1.00  0.00    -0.460 OA
BRANCH   5   6
ATOM      6  C   UNL A   1      35.175  21.634  25.527  1.00  0.00     0.338 C 
ATOM      7  O   UNL A   1      35.407  21.387  26.708  1.00  0.00    -0.246 OA
BRANCH   6   8
ATOM      8  C   UNL A   1      33.765  21.674  25.076  1.00  0.00     0.087 C 
ATOM      9  C   UNL A   1      33.155  22.578  24.292  1.00  0.00     0.028 C 
ATOM     10  C   UNL A   1      32.948  20.462  25.435  1.00  0.00     0.316 C 
ATOM     11  C   UNL A   1      31.990  23.144  24.976  1.00  0.00     0.027 A 
ATOM     12  O   UNL A   1      31.527  20.802  25.593  1.00  0.00    -0.475 OA
ATOM     13  C   UNL A   1      31.231  22.154  25.668  1.00  0.00     0.128 A 
ATOM     14  C   UNL A   1      31.744  24.549  25.045  1.00  0.00     0.011 A 
ATOM     15  C   UNL A   1      30.170  22.526  26.458  1.00  0.00     0.049 A 
ATOM     16  C   UNL A   1      30.765  24.868  26.011  1.00  0.00     0.049 A 
ATOM     17  C   UNL A   1      29.967  23.886  26.658  1.00  0.00     0.025 A 
ATOM     18  Cl  UNL A   1      30.529  26.454  26.632  1.00  0.00    -0.084 Cl
BRANCH  10  19
ATOM     19  C   UNL A   1      33.185  19.394  24.341  1.00  0.00     0.430 C 
ATOM     20  F   UNL A   1      32.811  19.835  23.110  1.00  0.00    -0.167 F 
ATOM     21  F   UNL A   1      34.480  19.029  24.251  1.00  0.00    -0.167 F 
ATOM     22  F   UNL A   1      32.453  18.277  24.572  1.00  0.00    -0.167 F 
ENDBRANCH  10  19
BRANCH  14  23
ATOM     23  C   UNL A   1      32.469  25.592  24.164  1.00  0.00    -0.016 A 
ATOM     24  C   UNL A   1      33.454  26.937  24.880  1.00  0.00     0.009 A 
ATOM     25  C   UNL A   1      32.318  25.529  22.358  1.00  0.00     0.009 A 
ATOM     26  C   UNL A   1      34.192  28.239  23.852  1.00  0.00     0.001 A 
ATOM     27  C   UNL A   1      33.069  26.803  21.296  1.00  0.00     0.001 A 
ATOM     28  C   UNL A   1      34.018  28.165  22.051  1.00  0.00     0.000 A 
ENDBRANCH  14  23
ENDBRANCH   6   8
ENDBRANCH   5   6
ENDBRANCH   4   5
ENDBRANCH   3   4
ENDBRANCH   2   3
ENDBRANCH   1   2
BRANCH   1  29
ATOM     29  C   UNL A   1      42.011  21.807  25.807  1.00  0.00     0.261 C 
BRANCH  29  30
ATOM     30  O   UNL A   1      43.149  23.391  25.273  1.00  0.00    -0.460 OA
BRANCH  30  31
ATOM     31  C   UNL A   1      43.760  24.656  25.257  1.00  0.00     0.338 C 
ATOM     32  O   UNL A   1      44.774  25.041  24.680  1.00  0.00    -0.246 OA
BRANCH  31  33
ATOM     33  C   UNL A   1      43.026  25.585  26.108  1.00  0.00     0.060 A 
ATOM     34  C   UNL A   1      43.500  26.890  26.219  1.00  0.00     0.016 A 
ATOM     35  C   UNL A   1      41.907  25.134  26.819  1.00  0.00     0.016 A 
ATOM     36  C   UNL A   1      42.825  27.772  27.044  1.00  0.00     0.010 A 
ATOM     37  C   UNL A   1      41.192  26.026  27.593  1.00  0.00     0.010 A 
ATOM     38  C   UNL A   1      41.687  27.328  27.737  1.00  0.00    -0.014 A 
BRANCH  38  39
ATOM     39  C   UNL A   1      41.232  28.093  28.900  1.00  0.00     0.031 A 
ATOM     40  C   UNL A   1      42.017  27.884  30.156  1.00  0.00     0.074 A 
ATOM     41  C   UNL A   1      40.164  28.896  28.816  1.00  0.00     0.049 A 
ATOM     42  N   UNL A   1      41.843  28.405  31.338  1.00  0.00    -0.248 NA
ATOM     43  C   UNL A   1      43.151  26.942  30.073  1.00  0.00     0.031 C 
ATOM     44  C   UNL A   1      39.363  29.122  27.616  1.00  0.00     0.029 A 
ATOM     45  N   UNL A   1      39.567  29.666  29.772  1.00  0.00    -0.354 N 
ATOM     46  C   UNL A   1      42.845  27.859  32.127  1.00  0.00     0.074 A 
ATOM     47  C   UNL A   1      43.597  26.935  31.315  1.00  0.00     0.031 C 
ATOM     48  C   UNL A   1      38.377  29.988  27.905  1.00  0.00     0.029 A 
ATOM     49  C   UNL A   1      38.464  30.342  29.317  1.00  0.00     0.049 A 
ATOM     50  H   UNL A   1      39.896  29.728  30.698  1.00  0.00     0.167 HD
ATOM     51  C   UNL A   1      43.111  28.121  33.423  1.00  0.00     0.037 A 
ATOM     52  C   UNL A   1      37.627  31.143  29.996  1.00  0.00     0.037 A 
ATOM     53  C   UNL A   1      42.310  29.014  34.209  1.00  0.00     0.049 A 
ATOM     54  C   UNL A   1      37.914  31.376  31.456  1.00  0.00     0.074 A 
ATOM     55  C   UNL A   1      42.450  29.365  35.535  1.00  0.00     0.029 A 
ATOM     56  N   UNL A   1      41.194  29.686  33.722  1.00  0.00    -0.354 N 
ATOM     57  N   UNL A   1      38.890  30.901  32.197  1.00  0.00    -0.248 NA
ATOM     58  C   UNL A   1      36.993  32.261  32.174  1.00  0.00     0.031 C 
ATOM     59  C   UNL A   1      41.383  30.208  35.867  1.00  0.00     0.029 A 
ATOM     60  C   UNL A   1      40.620  30.436  34.730  1.00  0.00     0.049 A 
ATOM     61  H   UNL A   1      40.863  29.635  32.796  1.00  0.00     0.167 HD
ATOM     62  C   UNL A   1      38.724  31.456  33.457  1.00  0.00     0.074 A 
ATOM     63  C   UNL A   1      37.557  32.313  33.373  1.00  0.00     0.031 C 
ATOM     64  C   UNL A   1      39.461  31.283  34.583  1.00  0.00     0.037 A 
BRANCH  51  65
ATOM     65  C   UNL A   1      44.263  27.390  34.045  1.00  0.00     0.064 A 
ATOM     66  C   UNL A   1      44.099  26.136  34.658  1.00  0.00     0.173 A 
ATOM     67  C   UNL A   1      45.537  27.972  34.073  1.00  0.00     0.173 A 
ATOM     68  F   UNL A   1      42.892  25.552  34.693  1.00  0.00    -0.203 F 
ATOM     69  C   UNL A   1      45.164  25.508  35.299  1.00  0.00     0.198 A 
ATOM     70  C   UNL A   1      46.606  27.326  34.687  1.00  0.00     0.198 A 
ATOM     71  F   UNL A   1      45.743  29.177  33.521  1.00  0.00    -0.203 F 
ATOM     72  F   UNL A   1      44.970  24.343  35.933  1.00  0.00    -0.200 F 
ATOM     73  C   UNL A   1      46.418  26.100  35.307  1.00  0.00     0.200 A 
ATOM     74  F   UNL A   1      47.818  27.899  34.692  1.00  0.00    -0.200 F 
ATOM     75  F   UNL A   1      47.442  25.496  35.925  1.00  0.00    -0.200 F 
ENDBRANCH  51  65
BRANCH  52  76
ATOM     76  C   UNL A   1      36.476  31.786  29.310  1.00  0.00     0.064 A 
ATOM     77  C   UNL A   1      36.469  33.162  29.050  1.00  0.00     0.173 A 
ATOM     78  C   UNL A   1      35.359  31.041  28.901  1.00  0.00     0.173 A 
ATOM     79  F   UNL A   1      37.509  33.920  29.431  1.00  0.00    -0.203 F 
ATOM     80  C   UNL A   1      35.380  33.776  28.434  1.00  0.00     0.198 A 
ATOM     81  C   UNL A   1      34.283  31.651  28.257  1.00  0.00     0.198 A 
ATOM     82  F   UNL A   1      35.317  29.718  29.115  1.00  0.00    -0.203 F 
ATOM     83  F   UNL A   1      35.381  35.102  28.242  1.00  0.00    -0.200 F 
ATOM     84  C   UNL A   1      34.289  33.019  28.034  1.00  0.00     0.200 A 
ATOM     85  F   UNL A   1      33.238  30.913  27.857  1.00  0.00    -0.200 F 
ATOM     86  F   UNL A   1      33.244  33.608  27.440  1.00  0.00    -0.200 F 
ENDBRANCH  52  76
BRANCH  64  87
ATOM     87  C   UNL A   1      39.053  32.083  35.784  1.00  0.00     0.064 A 
ATOM     88  C   UNL A   1      38.241  31.545  36.791  1.00  0.00     0.173 A 
ATOM     89  C   UNL A   1      39.519  33.397  35.939  1.00  0.00     0.173 A 
ATOM     90  F   UNL A   1      37.764  30.295  36.680  1.00  0.00    -0.203 F 
ATOM     91  C   UNL A   1      37.876  32.309  37.894  1.00  0.00     0.198 A 
ATOM     92  C   UNL A   1      39.185  34.145  37.062  1.00  0.00     0.198 A 
ATOM     93  F   UNL A   1      40.310  33.950  35.007  1.00  0.00    -0.203 F 
ATOM     94  F   UNL A   1      37.048  31.799  38.814  1.00  0.00    -0.200 F 
ATOM     95  C   UNL A   1      38.355  33.605  38.032  1.00  0.00     0.200 A 
ATOM     96  F   UNL A   1      39.664  35.388  37.203  1.00  0.00    -0.200 F 
ATOM     97  F   UNL A   1      38.006  34.337  39.099  1.00  0.00    -0.200 F 
ENDBRANCH  64  87
ENDBRANCH  38  39
ENDBRANCH  31  33
ENDBRANCH  30  31
ENDBRANCH  29  30
ENDBRANCH   1  29
TORSDOF 16
ENDMDL
MODEL 3
REMARK VINA RESULT:     -13.5      4.303     10.006
REMARK SMILES O=C(OCCOCCOC(=O)c1ccc(-c2c3nc(c(-c4c(F)c(F)c(F)c(F)c4F)c4ccc([nH]4)c(-c4c(F)c(F)c(F)c(F)c4F)c4nc(c(-c5c(F)c(F)c(F)c(F)c5F)c5ccc2[nH]5)C=C4)C=C3)cc1)C1=Cc2c(ccc(Cl)c2-c2ccccc2)O[C@H]1C(F)(F)F
REMARK SMILES IDX 7 1 6 2 5 3 4 4 3 5 2 6 1 7 75 8 76 9 91 10 77 11 90 12
REMARK SMILES IDX 78 13 83 14 79 15 81 16 80 17 82 18 92 19 93 20 94 21 95 22
REMARK SMILES IDX 84 23 85 24 89 25 86 26 88 27 87 28 8 29 9 30 10 31 11 32
REMARK SMILES IDX 12 33 13 34 74 35 14 36 73 37 15 38 16 39 17 40 67 41 18 42
REMARK SMILES IDX 72 43 66 44 68 45 19 46 71 47 65 48 64 49 20 51 52 52 32 53
REMARK SMILES IDX 51 54 33 55 36 56 50 57 69 58 34 59 35 60 49 62 70 63 37 64
REMARK SMILES IDX 21 65 22 66 30 67 23 68 24 69 28 70 31 71 25 72 26 73 29 74
REMARK SMILES IDX 27 75 53 76 54 77 62 78 55 79 56 80 60 81 63 82 57 83 58 84
REMARK SMILES IDX 61 85 59 86 38 87 39 88 47 89 40 90 41 91 45 92 48 93 42 94
REMARK SMILES IDX 43 95 46 96 44 97
REMARK H PARENT 68 50 36 61
REMARK Flexibility Score: inf
ROOT
ATOM      1  C   UNL A   1      31.812  29.945  26.089  1.00  0.00     0.202 C 
ENDROOT
BRANCH   1   2
ATOM      2  O   UNL A   1      33.007  29.343  25.598  1.00  0.00    -0.374 OA
BRANCH   2   3
ATOM      3  C   UNL A   1      33.200  29.229  24.205  1.00  0.00     0.202 C 
BRANCH   3   4
ATOM      4  C   UNL A   1      33.980  28.014  23.663  1.00  0.00     0.261 C 
BRANCH   4   5
ATOM      5  O   UNL A   1      33.110  27.056  23.039  1.00  0.00    -0.460 OA
BRANCH   5   6
ATOM      6  C   UNL A   1      33.280  25.717  23.096  1.00  0.00     0.338 C 
ATOM      7  O   UNL A   1      33.741  25.120  22.127  1.00  0.00    -0.246 OA
BRANCH   6   8
ATOM      8  C   UNL A   1      32.862  24.930  24.279  1.00  0.00     0.087 C 
ATOM      9  C   UNL A   1      33.626  24.349  25.218  1.00  0.00     0.028 C 
ATOM     10  C   UNL A   1      31.378  24.899  24.531  1.00  0.00     0.316 C 
ATOM     11  C   UNL A   1      33.327  22.918  25.307  1.00  0.00     0.027 A 
ATOM     12  O   UNL A   1      30.977  23.658  25.208  1.00  0.00    -0.475 OA
ATOM     13  C   UNL A   1      31.927  22.650  25.243  1.00  0.00     0.128 A 
ATOM     14  C   UNL A   1      34.344  21.916  25.314  1.00  0.00     0.011 A 
ATOM     15  C   UNL A   1      31.475  21.353  25.196  1.00  0.00     0.049 A 
ATOM     16  C   UNL A   1      33.819  20.627  25.081  1.00  0.00     0.049 A 
ATOM     17  C   UNL A   1      32.425  20.348  25.074  1.00  0.00     0.025 A 
ATOM     18  Cl  UNL A   1      34.785  19.280  24.623  1.00  0.00    -0.084 Cl
BRANCH  10  19
ATOM     19  C   UNL A   1      31.013  26.164  25.342  1.00  0.00     0.430 C 
ATOM     20  F   UNL A   1      29.982  25.938  26.201  1.00  0.00    -0.167 F 
ATOM     21  F   UNL A   1      32.047  26.619  26.080  1.00  0.00    -0.167 F 
ATOM     22  F   UNL A   1      30.606  27.172  24.532  1.00  0.00    -0.167 F 
ENDBRANCH  10  19
BRANCH  14  23
ATOM     23  C   UNL A   1      35.842  22.216  25.549  1.00  0.00    -0.016 A 
ATOM     24  C   UNL A   1      37.128  20.967  25.267  1.00  0.00     0.009 A 
ATOM     25  C   UNL A   1      36.367  23.838  26.167  1.00  0.00     0.009 A 
ATOM     26  C   UNL A   1      38.871  21.274  25.672  1.00  0.00     0.001 A 
ATOM     27  C   UNL A   1      38.111  24.188  26.557  1.00  0.00     0.001 A 
ATOM     28  C   UNL A   1      39.372  22.897  26.301  1.00  0.00     0.000 A 
ENDBRANCH  14  23
ENDBRANCH   6   8
ENDBRANCH   5   6
ENDBRANCH   4   5
ENDBRANCH   3   4
ENDBRANCH   2   3
ENDBRANCH   1   2
BRANCH   1  29
ATOM     29  C   UNL A   1      31.778  31.514  26.574  1.00  0.00     0.261 C 
BRANCH  29  30
ATOM     30  O   UNL A   1      33.040  32.650  27.673  1.00  0.00    -0.460 OA
BRANCH  30  31
ATOM     31  C   UNL A   1      34.097  33.494  28.049  1.00  0.00     0.338 C 
ATOM     32  O   UNL A   1      34.153  34.720  28.108  1.00  0.00    -0.246 OA
BRANCH  31  33
ATOM     33  C   UNL A   1      35.282  32.709  28.376  1.00  0.00     0.060 A 
ATOM     34  C   UNL A   1      35.128  31.340  28.580  1.00  0.00     0.016 A 
ATOM     35  C   UNL A   1      36.518  33.351  28.521  1.00  0.00     0.016 A 
ATOM     36  C   UNL A   1      36.242  30.591  28.915  1.00  0.00     0.010 A 
ATOM     37  C   UNL A   1      37.644  32.599  28.791  1.00  0.00     0.010 A 
ATOM     38  C   UNL A   1      37.487  31.229  29.035  1.00  0.00    -0.014 A 
BRANCH  38  39
ATOM     39  C   UNL A   1      38.552  30.555  29.779  1.00  0.00     0.031 A 
ATOM     40  C   UNL A   1      38.675  30.940  31.220  1.00  0.00     0.074 A 
ATOM     41  C   UNL A   1      39.361  29.676  29.174  1.00  0.00     0.049 A 
ATOM     42  N   UNL A   1      39.524  30.530  32.118  1.00  0.00    -0.248 NA
ATOM     43  C   UNL A   1      37.712  31.945  31.715  1.00  0.00     0.031 C 
ATOM     44  C   UNL A   1      39.284  29.278  27.771  1.00  0.00     0.029 A 
ATOM     45  N   UNL A   1      40.416  28.967  29.671  1.00  0.00    -0.354 N 
ATOM     46  C   UNL A   1      39.192  31.218  33.275  1.00  0.00     0.074 A 
ATOM     47  C   UNL A   1      38.099  32.106  32.966  1.00  0.00     0.031 C 
ATOM     48  C   UNL A   1      40.251  28.380  27.518  1.00  0.00     0.029 A 
ATOM     49  C   UNL A   1      41.029  28.175  28.734  1.00  0.00     0.049 A 
ATOM     50  H   UNL A   1      40.708  29.019  30.610  1.00  0.00     0.167 HD
ATOM     51  C   UNL A   1      39.758  31.105  34.495  1.00  0.00     0.037 A 
ATOM     52  C   UNL A   1      42.111  27.390  28.872  1.00  0.00     0.037 A 
ATOM     53  C   UNL A   1      40.874  30.242  34.750  1.00  0.00     0.049 A 
ATOM     54  C   UNL A   1      42.757  27.324  30.231  1.00  0.00     0.074 A 
ATOM     55  C   UNL A   1      41.559  30.036  35.929  1.00  0.00     0.029 A 
ATOM     56  N   UNL A   1      41.480  29.451  33.780  1.00  0.00    -0.354 N 
ATOM     57  N   UNL A   1      42.417  27.937  31.343  1.00  0.00    -0.248 NA
ATOM     58  C   UNL A   1      43.929  26.455  30.360  1.00  0.00     0.031 C 
ATOM     59  C   UNL A   1      42.616  29.160  35.659  1.00  0.00     0.029 A 
ATOM     60  C   UNL A   1      42.548  28.768  34.329  1.00  0.00     0.049 A 
ATOM     61  H   UNL A   1      41.190  29.387  32.841  1.00  0.00     0.167 HD
ATOM     62  C   UNL A   1      43.307  27.499  32.312  1.00  0.00     0.074 A 
ATOM     63  C   UNL A   1      44.196  26.560  31.654  1.00  0.00     0.031 C 
ATOM     64  C   UNL A   1      43.391  27.834  33.625  1.00  0.00     0.037 A 
BRANCH  51  65
ATOM     65  C   UNL A   1      39.204  31.972  35.586  1.00  0.00     0.064 A 
ATOM     66  C   UNL A   1      39.571  33.321  35.718  1.00  0.00     0.173 A 
ATOM     67  C   UNL A   1      38.334  31.433  36.543  1.00  0.00     0.173 A 
ATOM     68  F   UNL A   1      40.432  33.876  34.851  1.00  0.00    -0.203 F 
ATOM     69  C   UNL A   1      39.109  34.089  36.783  1.00  0.00     0.198 A 
ATOM     70  C   UNL A   1      37.848  32.212  37.589  1.00  0.00     0.198 A 
ATOM     71  F   UNL A   1      37.968  30.144  36.476  1.00  0.00    -0.203 F 
ATOM     72  F   UNL A   1      39.523  35.356  36.925  1.00  0.00    -0.200 F 
ATOM     73  C   UNL A   1      38.242  33.536  37.714  1.00  0.00     0.200 A 
ATOM     74  F   UNL A   1      37.009  31.677  38.487  1.00  0.00    -0.200 F 
ATOM     75  F   UNL A   1      37.798  34.275  38.739  1.00  0.00    -0.200 F 
ENDBRANCH  51  65
BRANCH  52  76
ATOM     76  C   UNL A   1      42.625  26.606  27.720  1.00  0.00     0.064 A 
ATOM     77  C   UNL A   1      43.496  27.183  26.786  1.00  0.00     0.173 A 
ATOM     78  C   UNL A   1      42.258  25.266  27.524  1.00  0.00     0.173 A 
ATOM     79  F   UNL A   1      43.868  28.465  26.923  1.00  0.00    -0.203 F 
ATOM     80  C   UNL A   1      43.957  26.462  25.686  1.00  0.00     0.198 A 
ATOM     81  C   UNL A   1      42.744  24.536  26.440  1.00  0.00     0.198 A 
ATOM     82  F   UNL A   1      41.435  24.659  28.392  1.00  0.00    -0.203 F 
ATOM     83  F   UNL A   1      44.751  27.056  24.784  1.00  0.00    -0.200 F 
ATOM     84  C   UNL A   1      43.584  25.138  25.516  1.00  0.00     0.200 A 
ATOM     85  F   UNL A   1      42.395  23.251  26.288  1.00  0.00    -0.200 F 
ATOM     86  F   UNL A   1      44.030  24.444  24.460  1.00  0.00    -0.200 F 
ENDBRANCH  52  76
BRANCH  64  87
ATOM     87  C   UNL A   1      44.441  27.131  34.432  1.00  0.00     0.064 A 
ATOM     88  C   UNL A   1      44.197  25.899  35.053  1.00  0.00     0.173 A 
ATOM     89  C   UNL A   1      45.722  27.691  34.550  1.00  0.00     0.173 A 
ATOM     90  F   UNL A   1      42.983  25.333  34.976  1.00  0.00    -0.203 F 
ATOM     91  C   UNL A   1      45.189  25.270  35.798  1.00  0.00     0.198 A 
ATOM     92  C   UNL A   1      46.723  27.040  35.262  1.00  0.00     0.198 A 
ATOM     93  F   UNL A   1      46.007  28.862  33.962  1.00  0.00    -0.203 F 
ATOM     94  F   UNL A   1      44.917  24.124  36.436  1.00  0.00    -0.200 F 
ATOM     95  C   UNL A   1      46.452  25.836  35.895  1.00  0.00     0.200 A 
ATOM     96  F   UNL A   1      47.947  27.578  35.337  1.00  0.00    -0.200 F 
ATOM     97  F   UNL A   1      47.407  25.224  36.608  1.00  0.00    -0.200 F 
ENDBRANCH  64  87
ENDBRANCH  38  39
ENDBRANCH  31  33
ENDBRANCH  30  31
ENDBRANCH  29  30
ENDBRANCH   1  29
TORSDOF 16
ENDMDL
