MODEL 1
REMARK VINA RESULT:     -11.4      0.000      0.000
REMARK SMILES Cc1nsc(NC[C@@H]2C[C@H]3CC[C@@H]2C3)c1C(=O)OCCOCCOC(=O)c1ccc(-c2c3nc(c(-c4c(F)c(F)c(F)c(F)c4F)c4ccc([nH]4)c(-c4c(F)c(F)c(F)c(F)c4F)c4nc(c(-c5c(F)c(F)c(F)c(F)c5F)c5ccc2[nH]5)C=C4)C=C3)cc1
REMARK SMILES IDX 20 1 19 2 18 3 16 4 17 5 15 6 1 7 2 8 3 9 4 10 5 11 6 12
REMARK SMILES IDX 7 14 8 15 9 16 13 17 10 18 12 19 14 20 11 21 21 22 22 23
REMARK SMILES IDX 23 24 24 25 25 26 26 27 27 28 28 29 89 30 29 31 88 32 30 33
REMARK SMILES IDX 31 34 32 35 82 36 33 37 87 38 81 39 83 40 34 41 86 42 80 43
REMARK SMILES IDX 79 44 35 46 67 47 47 48 66 49 48 50 51 51 65 52 84 53 49 54
REMARK SMILES IDX 50 55 64 57 85 58 52 59 36 60 37 61 45 62 38 63 39 64 43 65
REMARK SMILES IDX 46 66 40 67 41 68 44 69 42 70 68 71 69 72 77 73 70 74 71 75
REMARK SMILES IDX 75 76 78 77 72 78 73 79 76 80 74 81 53 82 54 83 62 84 55 85
REMARK SMILES IDX 56 86 60 87 63 88 57 89 58 90 61 91 59 92
REMARK H PARENT 6 13 83 45 51 56
REMARK Flexibility Score: inf
ROOT
ATOM      1  C   UNL A   1      39.633  21.613  26.364  1.00  0.00     0.202 C 
ENDROOT
BRANCH   1   2
ATOM      2  C   UNL A   1      38.449  21.409  25.411  1.00  0.00     0.261 C 
BRANCH   2   3
ATOM      3  O   UNL A   1      37.426  22.402  25.594  1.00  0.00    -0.460 OA
BRANCH   3   4
ATOM      4  C   UNL A   1      36.621  22.605  24.503  1.00  0.00     0.343 C 
ATOM      5  O   UNL A   1      37.036  22.782  23.373  1.00  0.00    -0.246 OA
BRANCH   4   6
ATOM      6  C   UNL A   1      35.210  22.427  24.812  1.00  0.00     0.117 A 
ATOM      7  C   UNL A   1      35.127  19.824  24.933  1.00  0.00     0.069 C 
ATOM      8  C   UNL A   1      34.531  21.183  25.052  1.00  0.00     0.068 A 
ATOM      9  N   UNL A   1      33.251  21.276  25.409  1.00  0.00    -0.195 NA
ATOM     10  S   UNL A   1      32.808  22.867  25.404  1.00  0.00    -0.018 S 
ATOM     11  C   UNL A   1      34.309  23.491  24.843  1.00  0.00     0.124 A 
BRANCH  11  12
ATOM     12  N   UNL A   1      34.547  24.773  24.440  1.00  0.00    -0.375 N 
ATOM     13  H   UNL A   1      35.476  25.009  24.216  1.00  0.00     0.161 HD
BRANCH  12  14
ATOM     14  C   UNL A   1      33.548  25.816  24.311  1.00  0.00     0.117 C 
BRANCH  14  15
ATOM     15  C   UNL A   1      33.426  26.656  25.597  1.00  0.00     0.012 C 
ATOM     16  C   UNL A   1      32.054  26.566  26.306  1.00  0.00     0.009 C 
ATOM     17  C   UNL A   1      33.601  28.190  25.430  1.00  0.00    -0.006 C 
ATOM     18  C   UNL A   1      31.733  28.036  26.641  1.00  0.00    -0.011 C 
ATOM     19  C   UNL A   1      34.029  28.760  26.794  1.00  0.00     0.004 C 
ATOM     20  C   UNL A   1      32.161  28.723  25.353  1.00  0.00     0.007 C 
ATOM     21  C   UNL A   1      32.758  28.598  27.642  1.00  0.00     0.004 C 
ENDBRANCH  14  15
ENDBRANCH  12  14
ENDBRANCH  11  12
ENDBRANCH   4   6
ENDBRANCH   3   4
ENDBRANCH   2   3
ENDBRANCH   1   2
BRANCH   1  22
ATOM     22  O   UNL A   1      40.936  21.246  25.910  1.00  0.00    -0.374 OA
BRANCH  22  23
ATOM     23  C   UNL A   1      41.412  19.924  26.125  1.00  0.00     0.202 C 
BRANCH  23  24
ATOM     24  C   UNL A   1      42.895  19.634  25.977  1.00  0.00     0.261 C 
BRANCH  24  25
ATOM     25  O   UNL A   1      43.347  19.783  24.640  1.00  0.00    -0.460 OA
BRANCH  25  26
ATOM     26  C   UNL A   1      44.640  20.172  24.557  1.00  0.00     0.338 C 
ATOM     27  O   UNL A   1      45.614  19.470  24.359  1.00  0.00    -0.246 OA
BRANCH  26  28
ATOM     28  C   UNL A   1      44.723  21.584  24.938  1.00  0.00     0.060 A 
ATOM     29  C   UNL A   1      45.484  21.880  26.069  1.00  0.00     0.016 A 
ATOM     30  C   UNL A   1      43.849  22.519  24.363  1.00  0.00     0.016 A 
ATOM     31  C   UNL A   1      45.221  23.053  26.739  1.00  0.00     0.010 A 
ATOM     32  C   UNL A   1      43.583  23.686  25.036  1.00  0.00     0.010 A 
ATOM     33  C   UNL A   1      44.215  23.902  26.255  1.00  0.00    -0.014 A 
BRANCH  33  34
ATOM     34  C   UNL A   1      43.967  25.137  26.970  1.00  0.00     0.031 A 
ATOM     35  C   UNL A   1      45.046  26.116  26.715  1.00  0.00     0.074 A 
ATOM     36  C   UNL A   1      42.858  25.363  27.702  1.00  0.00     0.049 A 
ATOM     37  N   UNL A   1      45.949  26.499  27.551  1.00  0.00    -0.248 NA
ATOM     38  C   UNL A   1      45.294  26.546  25.328  1.00  0.00     0.031 C 
ATOM     39  C   UNL A   1      41.657  24.528  27.802  1.00  0.00     0.029 A 
ATOM     40  N   UNL A   1      42.538  26.444  28.471  1.00  0.00    -0.354 N 
ATOM     41  C   UNL A   1      46.742  27.404  26.855  1.00  0.00     0.074 A 
ATOM     42  C   UNL A   1      46.427  27.238  25.464  1.00  0.00     0.031 C 
ATOM     43  C   UNL A   1      40.665  25.231  28.398  1.00  0.00     0.029 A 
ATOM     44  C   UNL A   1      41.200  26.502  28.854  1.00  0.00     0.049 A 
ATOM     45  H   UNL A   1      43.199  27.126  28.732  1.00  0.00     0.167 HD
ATOM     46  C   UNL A   1      47.336  28.425  27.527  1.00  0.00     0.037 A 
ATOM     47  C   UNL A   1      40.590  27.538  29.483  1.00  0.00     0.037 A 
ATOM     48  C   UNL A   1      47.358  28.148  28.941  1.00  0.00     0.049 A 
ATOM     49  C   UNL A   1      41.652  28.333  30.139  1.00  0.00     0.074 A 
ATOM     50  C   UNL A   1      48.053  27.302  29.776  1.00  0.00     0.029 A 
ATOM     51  N   UNL A   1      46.208  28.513  29.591  1.00  0.00    -0.354 N 
ATOM     52  N   UNL A   1      42.337  27.900  31.159  1.00  0.00    -0.248 NA
ATOM     53  C   UNL A   1      42.231  29.467  29.431  1.00  0.00     0.031 C 
ATOM     54  C   UNL A   1      47.178  27.018  30.868  1.00  0.00     0.029 A 
ATOM     55  C   UNL A   1      46.001  27.747  30.704  1.00  0.00     0.049 A 
ATOM     56  H   UNL A   1      45.608  29.235  29.295  1.00  0.00     0.167 HD
ATOM     57  C   UNL A   1      43.609  28.393  30.947  1.00  0.00     0.074 A 
ATOM     58  C   UNL A   1      43.445  29.481  29.989  1.00  0.00     0.031 C 
ATOM     59  C   UNL A   1      44.697  27.659  31.318  1.00  0.00     0.037 A 
BRANCH  46  60
ATOM     60  C   UNL A   1      47.386  29.848  27.009  1.00  0.00     0.064 A 
ATOM     61  C   UNL A   1      48.597  30.562  27.107  1.00  0.00     0.173 A 
ATOM     62  C   UNL A   1      46.244  30.632  26.734  1.00  0.00     0.173 A 
ATOM     63  F   UNL A   1      49.743  29.928  27.398  1.00  0.00    -0.203 F 
ATOM     64  C   UNL A   1      48.645  31.957  27.000  1.00  0.00     0.198 A 
ATOM     65  C   UNL A   1      46.302  32.015  26.578  1.00  0.00     0.198 A 
ATOM     66  F   UNL A   1      45.008  30.122  26.720  1.00  0.00    -0.203 F 
ATOM     67  F   UNL A   1      49.798  32.603  27.216  1.00  0.00    -0.200 F 
ATOM     68  C   UNL A   1      47.496  32.681  26.738  1.00  0.00     0.200 A 
ATOM     69  F   UNL A   1      45.172  32.699  26.355  1.00  0.00    -0.200 F 
ATOM     70  F   UNL A   1      47.528  34.020  26.691  1.00  0.00    -0.200 F 
ENDBRANCH  46  60
BRANCH  47  71
ATOM     71  C   UNL A   1      39.200  28.042  29.389  1.00  0.00     0.064 A 
ATOM     72  C   UNL A   1      38.411  28.234  30.538  1.00  0.00     0.173 A 
ATOM     73  C   UNL A   1      38.741  28.649  28.207  1.00  0.00     0.173 A 
ATOM     74  F   UNL A   1      38.798  27.725  31.717  1.00  0.00    -0.203 F 
ATOM     75  C   UNL A   1      37.252  29.020  30.512  1.00  0.00     0.198 A 
ATOM     76  C   UNL A   1      37.585  29.434  28.182  1.00  0.00     0.198 A 
ATOM     77  F   UNL A   1      39.464  28.577  27.080  1.00  0.00    -0.203 F 
ATOM     78  F   UNL A   1      36.564  29.237  31.642  1.00  0.00    -0.200 F 
ATOM     79  C   UNL A   1      36.850  29.632  29.337  1.00  0.00     0.200 A 
ATOM     80  F   UNL A   1      37.229  30.057  27.050  1.00  0.00    -0.200 F 
ATOM     81  F   UNL A   1      35.784  30.446  29.327  1.00  0.00    -0.200 F 
ENDBRANCH  47  71
BRANCH  59  82
ATOM     82  C   UNL A   1      44.473  26.592  32.347  1.00  0.00     0.064 A 
ATOM     83  C   UNL A   1      44.301  26.825  33.721  1.00  0.00     0.173 A 
ATOM     84  C   UNL A   1      44.364  25.271  31.895  1.00  0.00     0.173 A 
ATOM     85  F   UNL A   1      44.313  28.071  34.217  1.00  0.00    -0.203 F 
ATOM     86  C   UNL A   1      44.074  25.772  34.606  1.00  0.00     0.198 A 
ATOM     87  C   UNL A   1      44.100  24.228  32.773  1.00  0.00     0.198 A 
ATOM     88  F   UNL A   1      44.481  24.998  30.586  1.00  0.00    -0.203 F 
ATOM     89  F   UNL A   1      43.935  26.013  35.918  1.00  0.00    -0.200 F 
ATOM     90  C   UNL A   1      43.968  24.475  34.129  1.00  0.00     0.200 A 
ATOM     91  F   UNL A   1      43.955  22.982  32.300  1.00  0.00    -0.200 F 
ATOM     92  F   UNL A   1      43.718  23.465  34.974  1.00  0.00    -0.200 F 
ENDBRANCH  59  82
ENDBRANCH  33  34
ENDBRANCH  26  28
ENDBRANCH  25  26
ENDBRANCH  24  25
ENDBRANCH  23  24
ENDBRANCH  22  23
ENDBRANCH   1  22
TORSDOF 17
ENDMDL
MODEL 2
REMARK VINA RESULT:     -11.3      3.479      8.770
REMARK SMILES Cc1nsc(NC[C@@H]2C[C@H]3CC[C@@H]2C3)c1C(=O)OCCOCCOC(=O)c1ccc(-c2c3nc(c(-c4c(F)c(F)c(F)c(F)c4F)c4ccc([nH]4)c(-c4c(F)c(F)c(F)c(F)c4F)c4nc(c(-c5c(F)c(F)c(F)c(F)c5F)c5ccc2[nH]5)C=C4)C=C3)cc1
REMARK SMILES IDX 20 1 19 2 18 3 16 4 17 5 15 6 1 7 2 8 3 9 4 10 5 11 6 12
REMARK SMILES IDX 7 14 8 15 9 16 13 17 10 18 12 19 14 20 11 21 21 22 22 23
REMARK SMILES IDX 23 24 24 25 25 26 26 27 27 28 28 29 89 30 29 31 88 32 30 33
REMARK SMILES IDX 31 34 32 35 82 36 33 37 87 38 81 39 83 40 34 41 86 42 80 43
REMARK SMILES IDX 79 44 35 46 67 47 47 48 66 49 48 50 51 51 65 52 84 53 49 54
REMARK SMILES IDX 50 55 64 57 85 58 52 59 36 60 37 61 45 62 38 63 39 64 43 65
REMARK SMILES IDX 46 66 40 67 41 68 44 69 42 70 68 71 69 72 77 73 70 74 71 75
REMARK SMILES IDX 75 76 78 77 72 78 73 79 76 80 74 81 53 82 54 83 62 84 55 85
REMARK SMILES IDX 56 86 60 87 63 88 57 89 58 90 61 91 59 92
REMARK H PARENT 6 13 83 45 51 56
REMARK Flexibility Score: inf
ROOT
ATOM      1  C   UNL A   1      33.235  29.216  24.636  1.00  0.00     0.202 C 
ENDROOT
BRANCH   1   2
ATOM      2  C   UNL A   1      34.029  28.429  23.586  1.00  0.00     0.261 C 
BRANCH   2   3
ATOM      3  O   UNL A   1      33.237  28.117  22.427  1.00  0.00    -0.460 OA
BRANCH   3   4
ATOM      4  C   UNL A   1      33.119  26.779  22.155  1.00  0.00     0.343 C 
ATOM      5  O   UNL A   1      33.686  26.217  21.237  1.00  0.00    -0.246 OA
BRANCH   4   6
ATOM      6  C   UNL A   1      32.368  26.068  23.180  1.00  0.00     0.117 A 
ATOM      7  C   UNL A   1      34.135  24.264  23.827  1.00  0.00     0.069 C 
ATOM      8  C   UNL A   1      32.828  24.961  23.972  1.00  0.00     0.068 A 
ATOM      9  N   UNL A   1      31.991  24.531  24.916  1.00  0.00    -0.195 NA
ATOM     10  S   UNL A   1      30.594  25.410  24.834  1.00  0.00    -0.018 S 
ATOM     11  C   UNL A   1      31.033  26.356  23.467  1.00  0.00     0.124 A 
BRANCH  11  12
ATOM     12  N   UNL A   1      30.207  27.180  22.760  1.00  0.00    -0.375 N 
ATOM     13  H   UNL A   1      30.328  27.209  21.783  1.00  0.00     0.161 HD
BRANCH  12  14
ATOM     14  C   UNL A   1      29.164  28.015  23.323  1.00  0.00     0.117 C 
BRANCH  14  15
ATOM     15  C   UNL A   1      29.205  29.447  22.754  1.00  0.00     0.012 C 
ATOM     16  C   UNL A   1      29.730  30.522  23.734  1.00  0.00     0.009 C 
ATOM     17  C   UNL A   1      27.842  30.048  22.318  1.00  0.00    -0.006 C 
ATOM     18  C   UNL A   1      28.720  31.675  23.565  1.00  0.00    -0.011 C 
ATOM     19  C   UNL A   1      28.130  31.153  21.287  1.00  0.00     0.004 C 
ATOM     20  C   UNL A   1      27.411  30.904  23.519  1.00  0.00     0.007 C 
ATOM     21  C   UNL A   1      28.789  32.248  22.140  1.00  0.00     0.004 C 
ENDBRANCH  14  15
ENDBRANCH  12  14
ENDBRANCH  11  12
ENDBRANCH   4   6
ENDBRANCH   3   4
ENDBRANCH   2   3
ENDBRANCH   1   2
BRANCH   1  22
ATOM     22  O   UNL A   1      33.266  28.758  25.988  1.00  0.00    -0.374 OA
BRANCH  22  23
ATOM     23  C   UNL A   1      34.185  29.334  26.907  1.00  0.00     0.202 C 
BRANCH  23  24
ATOM     24  C   UNL A   1      34.027  30.792  27.301  1.00  0.00     0.261 C 
BRANCH  24  25
ATOM     25  O   UNL A   1      35.248  31.373  27.735  1.00  0.00    -0.460 OA
BRANCH  25  26
ATOM     26  C   UNL A   1      35.293  31.580  29.071  1.00  0.00     0.338 C 
ATOM     27  O   UNL A   1      34.556  32.281  29.738  1.00  0.00    -0.246 OA
BRANCH  26  28
ATOM     28  C   UNL A   1      36.515  30.963  29.592  1.00  0.00     0.060 A 
ATOM     29  C   UNL A   1      37.693  31.698  29.452  1.00  0.00     0.016 A 
ATOM     30  C   UNL A   1      36.523  29.602  29.936  1.00  0.00     0.016 A 
ATOM     31  C   UNL A   1      38.888  31.016  29.467  1.00  0.00     0.010 A 
ATOM     32  C   UNL A   1      37.717  28.923  29.945  1.00  0.00     0.010 A 
ATOM     33  C   UNL A   1      38.876  29.624  29.633  1.00  0.00    -0.014 A 
BRANCH  33  34
ATOM     34  C   UNL A   1      40.148  28.933  29.660  1.00  0.00     0.031 A 
ATOM     35  C   UNL A   1      40.640  28.792  31.048  1.00  0.00     0.074 A 
ATOM     36  C   UNL A   1      40.745  28.430  28.560  1.00  0.00     0.049 A 
ATOM     37  N   UNL A   1      41.634  29.417  31.578  1.00  0.00    -0.248 NA
ATOM     38  C   UNL A   1      39.810  28.057  32.018  1.00  0.00     0.031 C 
ATOM     39  C   UNL A   1      40.201  28.335  27.203  1.00  0.00     0.029 A 
ATOM     40  N   UNL A   1      41.962  27.825  28.441  1.00  0.00    -0.354 N 
ATOM     41  C   UNL A   1      41.697  28.971  32.893  1.00  0.00     0.074 A 
ATOM     42  C   UNL A   1      40.450  28.310  33.161  1.00  0.00     0.031 C 
ATOM     43  C   UNL A   1      40.983  27.518  26.458  1.00  0.00     0.029 A 
ATOM     44  C   UNL A   1      42.155  27.155  27.235  1.00  0.00     0.049 A 
ATOM     45  H   UNL A   1      42.646  27.859  29.150  1.00  0.00     0.167 HD
ATOM     46  C   UNL A   1      42.901  28.907  33.519  1.00  0.00     0.037 A 
ATOM     47  C   UNL A   1      43.202  26.350  26.924  1.00  0.00     0.037 A 
ATOM     48  C   UNL A   1      43.873  29.708  32.818  1.00  0.00     0.049 A 
ATOM     49  C   UNL A   1      44.312  26.710  27.833  1.00  0.00     0.074 A 
ATOM     50  C   UNL A   1      44.120  31.053  32.657  1.00  0.00     0.029 A 
ATOM     51  N   UNL A   1      44.482  29.052  31.780  1.00  0.00    -0.354 N 
ATOM     52  N   UNL A   1      44.950  27.844  27.762  1.00  0.00    -0.248 NA
ATOM     53  C   UNL A   1      44.477  25.975  29.081  1.00  0.00     0.031 C 
ATOM     54  C   UNL A   1      44.731  31.192  31.374  1.00  0.00     0.029 A 
ATOM     55  C   UNL A   1      44.899  29.926  30.816  1.00  0.00     0.049 A 
ATOM     56  H   UNL A   1      44.604  28.076  31.735  1.00  0.00     0.167 HD
ATOM     57  C   UNL A   1      45.210  28.169  29.079  1.00  0.00     0.074 A 
ATOM     58  C   UNL A   1      45.065  26.921  29.820  1.00  0.00     0.031 C 
ATOM     59  C   UNL A   1      45.196  29.473  29.476  1.00  0.00     0.037 A 
BRANCH  46  60
ATOM     60  C   UNL A   1      43.331  27.741  34.387  1.00  0.00     0.064 A 
ATOM     61  C   UNL A   1      43.485  26.473  33.790  1.00  0.00     0.173 A 
ATOM     62  C   UNL A   1      43.276  27.742  35.798  1.00  0.00     0.173 A 
ATOM     63  F   UNL A   1      43.516  26.346  32.455  1.00  0.00    -0.203 F 
ATOM     64  C   UNL A   1      43.519  25.298  34.549  1.00  0.00     0.198 A 
ATOM     65  C   UNL A   1      43.360  26.574  36.553  1.00  0.00     0.198 A 
ATOM     66  F   UNL A   1      43.022  28.846  36.508  1.00  0.00    -0.203 F 
ATOM     67  F   UNL A   1      43.549  24.108  33.934  1.00  0.00    -0.200 F 
ATOM     68  C   UNL A   1      43.453  25.350  35.929  1.00  0.00     0.200 A 
ATOM     69  F   UNL A   1      43.263  26.646  37.888  1.00  0.00    -0.200 F 
ATOM     70  F   UNL A   1      43.427  24.225  36.655  1.00  0.00    -0.200 F 
ENDBRANCH  46  60
BRANCH  47  71
ATOM     71  C   UNL A   1      43.270  25.141  26.070  1.00  0.00     0.064 A 
ATOM     72  C   UNL A   1      44.325  24.946  25.158  1.00  0.00     0.173 A 
ATOM     73  C   UNL A   1      42.484  24.013  26.366  1.00  0.00     0.173 A 
ATOM     74  F   UNL A   1      45.149  25.959  24.852  1.00  0.00    -0.203 F 
ATOM     75  C   UNL A   1      44.599  23.688  24.608  1.00  0.00     0.198 A 
ATOM     76  C   UNL A   1      42.759  22.758  25.818  1.00  0.00     0.198 A 
ATOM     77  F   UNL A   1      41.502  24.089  27.276  1.00  0.00    -0.203 F 
ATOM     78  F   UNL A   1      45.655  23.527  23.798  1.00  0.00    -0.200 F 
ATOM     79  C   UNL A   1      43.825  22.592  24.951  1.00  0.00     0.200 A 
ATOM     80  F   UNL A   1      42.032  21.696  26.191  1.00  0.00    -0.200 F 
ATOM     81  F   UNL A   1      44.132  21.373  24.486  1.00  0.00    -0.200 F 
ENDBRANCH  47  71
BRANCH  59  82
ATOM     82  C   UNL A   1      45.366  30.508  28.405  1.00  0.00     0.064 A 
ATOM     83  C   UNL A   1      44.320  31.055  27.644  1.00  0.00     0.173 A 
ATOM     84  C   UNL A   1      46.655  31.013  28.193  1.00  0.00     0.173 A 
ATOM     85  F   UNL A   1      43.049  30.678  27.845  1.00  0.00    -0.203 F 
ATOM     86  C   UNL A   1      44.566  32.032  26.681  1.00  0.00     0.198 A 
ATOM     87  C   UNL A   1      46.892  32.015  27.261  1.00  0.00     0.198 A 
ATOM     88  F   UNL A   1      47.684  30.555  28.923  1.00  0.00    -0.203 F 
ATOM     89  F   UNL A   1      43.557  32.526  25.948  1.00  0.00    -0.200 F 
ATOM     90  C   UNL A   1      45.852  32.516  26.496  1.00  0.00     0.200 A 
ATOM     91  F   UNL A   1      48.130  32.509  27.117  1.00  0.00    -0.200 F 
ATOM     92  F   UNL A   1      46.087  33.479  25.593  1.00  0.00    -0.200 F 
ENDBRANCH  59  82
ENDBRANCH  33  34
ENDBRANCH  26  28
ENDBRANCH  25  26
ENDBRANCH  24  25
ENDBRANCH  23  24
ENDBRANCH  22  23
ENDBRANCH   1  22
TORSDOF 17
ENDMDL
MODEL 3
REMARK VINA RESULT:     -11.2      3.817      8.846
REMARK SMILES Cc1nsc(NC[C@@H]2C[C@H]3CC[C@@H]2C3)c1C(=O)OCCOCCOC(=O)c1ccc(-c2c3nc(c(-c4c(F)c(F)c(F)c(F)c4F)c4ccc([nH]4)c(-c4c(F)c(F)c(F)c(F)c4F)c4nc(c(-c5c(F)c(F)c(F)c(F)c5F)c5ccc2[nH]5)C=C4)C=C3)cc1
REMARK SMILES IDX 20 1 19 2 18 3 16 4 17 5 15 6 1 7 2 8 3 9 4 10 5 11 6 12
REMARK SMILES IDX 7 14 8 15 9 16 13 17 10 18 12 19 14 20 11 21 21 22 22 23
REMARK SMILES IDX 23 24 24 25 25 26 26 27 27 28 28 29 89 30 29 31 88 32 30 33
REMARK SMILES IDX 31 34 32 35 82 36 33 37 87 38 81 39 83 40 34 41 86 42 80 43
REMARK SMILES IDX 79 44 35 46 67 47 47 48 66 49 48 50 51 51 65 52 84 53 49 54
REMARK SMILES IDX 50 55 64 57 85 58 52 59 36 60 37 61 45 62 38 63 39 64 43 65
REMARK SMILES IDX 46 66 40 67 41 68 44 69 42 70 68 71 69 72 77 73 70 74 71 75
REMARK SMILES IDX 75 76 78 77 72 78 73 79 76 80 74 81 53 82 54 83 62 84 55 85
REMARK SMILES IDX 56 86 60 87 63 88 57 89 58 90 61 91 59 92
REMARK H PARENT 6 13 83 45 51 56
REMARK Flexibility Score: inf
ROOT
ATOM      1  C   UNL A   1      31.801  28.240  27.600  1.00  0.00     0.202 C 
ENDROOT
BRANCH   1   2
ATOM      2  C   UNL A   1      32.265  27.452  26.369  1.00  0.00     0.261 C 
BRANCH   2   3
ATOM      3  O   UNL A   1      31.278  27.445  25.324  1.00  0.00    -0.460 OA
BRANCH   3   4
ATOM      4  C   UNL A   1      31.029  26.214  24.777  1.00  0.00     0.343 C 
ATOM      5  O   UNL A   1      30.123  25.481  25.129  1.00  0.00    -0.246 OA
BRANCH   4   6
ATOM      6  C   UNL A   1      31.867  25.940  23.618  1.00  0.00     0.117 A 
ATOM      7  C   UNL A   1      33.654  24.407  24.738  1.00  0.00     0.069 C 
ATOM      8  C   UNL A   1      33.027  25.093  23.575  1.00  0.00     0.068 A 
ATOM      9  N   UNL A   1      33.580  24.922  22.375  1.00  0.00    -0.195 NA
ATOM     10  S   UNL A   1      32.754  25.831  21.270  1.00  0.00    -0.018 S 
ATOM     11  C   UNL A   1      31.662  26.555  22.383  1.00  0.00     0.124 A 
BRANCH  11  12
ATOM     12  N   UNL A   1      30.807  27.584  22.117  1.00  0.00    -0.375 N 
ATOM     13  H   UNL A   1      29.925  27.353  21.746  1.00  0.00     0.161 HD
BRANCH  12  14
ATOM     14  C   UNL A   1      31.086  28.991  22.334  1.00  0.00     0.117 C 
BRANCH  14  15
ATOM     15  C   UNL A   1      29.899  29.716  22.997  1.00  0.00     0.012 C 
ATOM     16  C   UNL A   1      28.637  28.846  23.203  1.00  0.00     0.009 C 
ATOM     17  C   UNL A   1      29.325  30.935  22.225  1.00  0.00    -0.006 C 
ATOM     18  C   UNL A   1      27.494  29.764  22.726  1.00  0.00    -0.011 C 
ATOM     19  C   UNL A   1      28.610  31.837  23.247  1.00  0.00     0.004 C 
ATOM     20  C   UNL A   1      28.114  30.363  21.473  1.00  0.00     0.007 C 
ATOM     21  C   UNL A   1      27.380  31.001  23.632  1.00  0.00     0.004 C 
ENDBRANCH  14  15
ENDBRANCH  12  14
ENDBRANCH  11  12
ENDBRANCH   4   6
ENDBRANCH   3   4
ENDBRANCH   2   3
ENDBRANCH   1   2
BRANCH   1  22
ATOM     22  O   UNL A   1      31.778  29.665  27.519  1.00  0.00    -0.374 OA
BRANCH  22  23
ATOM     23  C   UNL A   1      32.561  30.330  26.537  1.00  0.00     0.202 C 
BRANCH  23  24
ATOM     24  C   UNL A   1      34.038  30.565  26.798  1.00  0.00     0.261 C 
BRANCH  24  25
ATOM     25  O   UNL A   1      34.278  31.168  28.060  1.00  0.00    -0.460 OA
BRANCH  25  26
ATOM     26  C   UNL A   1      35.428  31.880  28.099  1.00  0.00     0.338 C 
ATOM     27  O   UNL A   1      35.653  32.953  27.575  1.00  0.00    -0.246 OA
BRANCH  26  28
ATOM     28  C   UNL A   1      36.460  31.054  28.732  1.00  0.00     0.060 A 
ATOM     29  C   UNL A   1      37.615  31.715  29.151  1.00  0.00     0.016 A 
ATOM     30  C   UNL A   1      36.392  29.655  28.645  1.00  0.00     0.016 A 
ATOM     31  C   UNL A   1      38.768  30.977  29.295  1.00  0.00     0.010 A 
ATOM     32  C   UNL A   1      37.544  28.922  28.783  1.00  0.00     0.010 A 
ATOM     33  C   UNL A   1      38.732  29.600  29.030  1.00  0.00    -0.014 A 
BRANCH  33  34
ATOM     34  C   UNL A   1      39.955  28.844  29.203  1.00  0.00     0.031 A 
ATOM     35  C   UNL A   1      40.235  28.621  30.638  1.00  0.00     0.074 A 
ATOM     36  C   UNL A   1      40.680  28.356  28.177  1.00  0.00     0.049 A 
ATOM     37  N   UNL A   1      41.170  29.172  31.333  1.00  0.00    -0.248 NA
ATOM     38  C   UNL A   1      39.242  27.891  31.445  1.00  0.00     0.031 C 
ATOM     39  C   UNL A   1      40.332  28.344  26.752  1.00  0.00     0.029 A 
ATOM     40  N   UNL A   1      41.872  27.694  28.202  1.00  0.00    -0.354 N 
ATOM     41  C   UNL A   1      41.023  28.671  32.621  1.00  0.00     0.074 A 
ATOM     42  C   UNL A   1      39.723  28.065  32.678  1.00  0.00     0.031 C 
ATOM     43  C   UNL A   1      41.176  27.519  26.088  1.00  0.00     0.029 A 
ATOM     44  C   UNL A   1      42.207  27.065  27.005  1.00  0.00     0.049 A 
ATOM     45  H   UNL A   1      42.448  27.664  29.001  1.00  0.00     0.167 HD
ATOM     46  C   UNL A   1      42.121  28.519  33.407  1.00  0.00     0.037 A 
ATOM     47  C   UNL A   1      43.250  26.220  26.807  1.00  0.00     0.037 A 
ATOM     48  C   UNL A   1      43.219  29.297  32.889  1.00  0.00     0.049 A 
ATOM     49  C   UNL A   1      44.233  26.486  27.880  1.00  0.00     0.074 A 
ATOM     50  C   UNL A   1      43.547  30.634  32.829  1.00  0.00     0.029 A 
ATOM     51  N   UNL A   1      43.940  28.654  31.918  1.00  0.00    -0.354 N 
ATOM     52  N   UNL A   1      44.925  27.587  27.954  1.00  0.00    -0.248 NA
ATOM     53  C   UNL A   1      44.184  25.693  29.102  1.00  0.00     0.031 C 
ATOM     54  C   UNL A   1      44.341  30.792  31.653  1.00  0.00     0.029 A 
ATOM     55  C   UNL A   1      44.530  29.543  31.065  1.00  0.00     0.049 A 
ATOM     56  H   UNL A   1      44.023  27.675  31.845  1.00  0.00     0.167 HD
ATOM     57  C   UNL A   1      45.008  27.845  29.308  1.00  0.00     0.074 A 
ATOM     58  C   UNL A   1      44.702  26.576  29.961  1.00  0.00     0.031 C 
ATOM     59  C   UNL A   1      44.995  29.131  29.761  1.00  0.00     0.037 A 
BRANCH  46  60
ATOM     60  C   UNL A   1      42.369  27.299  34.270  1.00  0.00     0.064 A 
ATOM     61  C   UNL A   1      42.118  27.387  35.655  1.00  0.00     0.173 A 
ATOM     62  C   UNL A   1      43.133  26.183  33.864  1.00  0.00     0.173 A 
ATOM     63  F   UNL A   1      41.431  28.422  36.160  1.00  0.00    -0.203 F 
ATOM     64  C   UNL A   1      42.648  26.462  36.562  1.00  0.00     0.198 A 
ATOM     65  C   UNL A   1      43.617  25.237  34.766  1.00  0.00     0.198 A 
ATOM     66  F   UNL A   1      43.550  26.016  32.605  1.00  0.00    -0.203 F 
ATOM     67  F   UNL A   1      42.482  26.650  37.878  1.00  0.00    -0.200 F 
ATOM     68  C   UNL A   1      43.398  25.390  36.116  1.00  0.00     0.200 A 
ATOM     69  F   UNL A   1      44.368  24.223  34.313  1.00  0.00    -0.200 F 
ATOM     70  F   UNL A   1      43.954  24.535  36.985  1.00  0.00    -0.200 F 
ENDBRANCH  46  60
BRANCH  47  71
ATOM     71  C   UNL A   1      43.385  25.045  25.914  1.00  0.00     0.064 A 
ATOM     72  C   UNL A   1      44.532  24.855  25.122  1.00  0.00     0.173 A 
ATOM     73  C   UNL A   1      42.542  23.931  26.070  1.00  0.00     0.173 A 
ATOM     74  F   UNL A   1      45.412  25.853  24.957  1.00  0.00    -0.203 F 
ATOM     75  C   UNL A   1      44.836  23.612  24.553  1.00  0.00     0.198 A 
ATOM     76  C   UNL A   1      42.846  22.690  25.503  1.00  0.00     0.198 A 
ATOM     77  F   UNL A   1      41.463  24.000  26.864  1.00  0.00    -0.203 F 
ATOM     78  F   UNL A   1      45.974  23.451  23.862  1.00  0.00    -0.200 F 
ATOM     79  C   UNL A   1      44.000  22.527  24.758  1.00  0.00     0.200 A 
ATOM     80  F   UNL A   1      42.053  21.637  25.744  1.00  0.00    -0.200 F 
ATOM     81  F   UNL A   1      44.327  21.319  24.278  1.00  0.00    -0.200 F 
ENDBRANCH  47  71
BRANCH  59  82
ATOM     82  C   UNL A   1      45.364  30.198  28.775  1.00  0.00     0.064 A 
ATOM     83  C   UNL A   1      44.457  30.858  27.930  1.00  0.00     0.173 A 
ATOM     84  C   UNL A   1      46.702  30.612  28.740  1.00  0.00     0.173 A 
ATOM     85  F   UNL A   1      43.148  30.572  27.964  1.00  0.00    -0.203 F 
ATOM     86  C   UNL A   1      44.884  31.858  27.057  1.00  0.00     0.198 A 
ATOM     87  C   UNL A   1      47.118  31.635  27.897  1.00  0.00     0.198 A 
ATOM     88  F   UNL A   1      47.602  30.042  29.556  1.00  0.00    -0.203 F 
ATOM     89  F   UNL A   1      44.006  32.461  26.242  1.00  0.00    -0.200 F 
ATOM     90  C   UNL A   1      46.214  32.249  27.047  1.00  0.00     0.200 A 
ATOM     91  F   UNL A   1      48.396  32.037  27.923  1.00  0.00    -0.200 F 
ATOM     92  F   UNL A   1      46.621  33.232  26.232  1.00  0.00    -0.200 F 
ENDBRANCH  59  82
ENDBRANCH  33  34
ENDBRANCH  26  28
ENDBRANCH  25  26
ENDBRANCH  24  25
ENDBRANCH  23  24
ENDBRANCH  22  23
ENDBRANCH   1  22
TORSDOF 17
ENDMDL
