MODEL 1
REMARK VINA RESULT:     -12.6      0.000      0.000
REMARK SMILES O=C(OCCOCCOC(=O)c1ccc2c(=O)n(CCc3c[nH]c4ccccc34)c(=O)[nH]c2c1)c1ccc(-c2c3nc(c(-c4c(F)c(F)c(F)c(F)c4F)c4ccc([nH]4)c(-c4c(F)c(F)c(F)c(F)c4F)c4nc(c(-c5c(F)c(F)c(F)c(F)c5F)c5ccc2[nH]5)C=C4)C=C3)cc1
REMARK SMILES IDX 7 1 6 2 5 3 4 4 3 5 2 6 1 7 35 8 36 9 97 10 37 11 96 12
REMARK SMILES IDX 38 13 39 14 40 15 90 16 41 17 95 18 89 19 91 20 42 21 94 22
REMARK SMILES IDX 88 23 87 24 43 26 75 27 55 28 74 29 56 30 59 31 73 32 92 33
REMARK SMILES IDX 57 34 58 35 72 37 93 38 60 39 44 40 45 41 53 42 46 43 47 44
REMARK SMILES IDX 51 45 54 46 48 47 49 48 52 49 50 50 76 51 77 52 85 53 78 54
REMARK SMILES IDX 79 55 83 56 86 57 80 58 81 59 84 60 82 61 61 62 62 63 70 64
REMARK SMILES IDX 63 65 64 66 68 67 71 68 65 69 66 70 69 71 67 72 8 73 9 74
REMARK SMILES IDX 10 75 11 76 12 77 13 78 34 79 14 80 33 81 15 82 32 83 16 84
REMARK SMILES IDX 30 85 17 87 18 88 31 89 19 90 20 91 21 92 22 93 29 94 23 95
REMARK SMILES IDX 24 96 28 97 25 99 27 100 26 101
REMARK H PARENT 91 25 59 36 32 86 23 98
REMARK Flexibility Score: inf
ROOT
ATOM      1  C   UNL A   1      43.850  19.223  25.097  1.00  0.00     0.202 C 
ENDROOT
BRANCH   1   2
ATOM      2  O   UNL A   1      44.852  20.178  25.449  1.00  0.00    -0.374 OA
BRANCH   2   3
ATOM      3  C   UNL A   1      45.265  21.132  24.468  1.00  0.00     0.202 C 
BRANCH   3   4
ATOM      4  C   UNL A   1      45.880  22.461  24.923  1.00  0.00     0.261 C 
BRANCH   4   5
ATOM      5  O   UNL A   1      45.040  23.208  25.800  1.00  0.00    -0.460 OA
BRANCH   5   6
ATOM      6  C   UNL A   1      44.679  24.506  25.677  1.00  0.00     0.338 C 
ATOM      7  O   UNL A   1      44.959  25.083  24.626  1.00  0.00    -0.246 OA
BRANCH   6   8
ATOM      8  C   UNL A   1      44.067  25.325  26.776  1.00  0.00     0.060 A 
ATOM      9  C   UNL A   1      43.144  24.660  27.599  1.00  0.00     0.016 A 
ATOM     10  C   UNL A   1      44.231  26.697  26.973  1.00  0.00     0.016 A 
ATOM     11  C   UNL A   1      42.365  25.364  28.518  1.00  0.00     0.010 A 
ATOM     12  C   UNL A   1      43.394  27.423  27.793  1.00  0.00     0.010 A 
ATOM     13  C   UNL A   1      42.474  26.754  28.585  1.00  0.00    -0.014 A 
BRANCH  13  14
ATOM     14  C   UNL A   1      41.897  27.557  29.660  1.00  0.00     0.031 A 
ATOM     15  C   UNL A   1      40.747  28.472  29.406  1.00  0.00     0.074 A 
ATOM     16  C   UNL A   1      42.644  27.609  30.776  1.00  0.00     0.049 A 
ATOM     17  N   UNL A   1      40.182  29.309  30.231  1.00  0.00    -0.248 NA
ATOM     18  C   UNL A   1      40.177  28.481  28.047  1.00  0.00     0.031 C 
ATOM     19  C   UNL A   1      43.891  26.858  30.982  1.00  0.00     0.029 A 
ATOM     20  N   UNL A   1      42.513  28.352  31.909  1.00  0.00    -0.354 N 
ATOM     21  C   UNL A   1      39.154  29.904  29.515  1.00  0.00     0.074 A 
ATOM     22  C   UNL A   1      39.225  29.400  28.161  1.00  0.00     0.031 C 
ATOM     23  C   UNL A   1      44.401  27.172  32.177  1.00  0.00     0.029 A 
ATOM     24  C   UNL A   1      43.523  28.141  32.811  1.00  0.00     0.049 A 
ATOM     25  H   UNL A   1      41.768  28.977  32.065  1.00  0.00     0.167 HD
ATOM     26  C   UNL A   1      38.221  30.761  29.988  1.00  0.00     0.037 A 
ATOM     27  C   UNL A   1      43.696  28.669  34.032  1.00  0.00     0.037 A 
ATOM     28  C   UNL A   1      38.238  31.266  31.340  1.00  0.00     0.049 A 
ATOM     29  C   UNL A   1      42.641  29.612  34.524  1.00  0.00     0.074 A 
ATOM     30  C   UNL A   1      37.330  32.100  31.964  1.00  0.00     0.029 A 
ATOM     31  N   UNL A   1      39.231  30.984  32.271  1.00  0.00    -0.354 N 
ATOM     32  N   UNL A   1      41.577  30.060  33.899  1.00  0.00    -0.248 NA
ATOM     33  C   UNL A   1      42.788  30.096  35.897  1.00  0.00     0.031 C 
ATOM     34  C   UNL A   1      37.798  32.361  33.254  1.00  0.00     0.029 A 
ATOM     35  C   UNL A   1      38.961  31.633  33.463  1.00  0.00     0.049 A 
ATOM     36  H   UNL A   1      40.013  30.408  32.106  1.00  0.00     0.167 HD
ATOM     37  C   UNL A   1      40.897  30.839  34.820  1.00  0.00     0.074 A 
ATOM     38  C   UNL A   1      41.665  30.780  36.050  1.00  0.00     0.031 C 
ATOM     39  C   UNL A   1      39.746  31.538  34.669  1.00  0.00     0.037 A 
BRANCH  26  40
ATOM     40  C   UNL A   1      37.075  31.146  29.099  1.00  0.00     0.064 A 
ATOM     41  C   UNL A   1      36.047  30.229  28.826  1.00  0.00     0.173 A 
ATOM     42  C   UNL A   1      36.907  32.465  28.651  1.00  0.00     0.173 A 
ATOM     43  F   UNL A   1      36.156  28.953  29.226  1.00  0.00    -0.203 F 
ATOM     44  C   UNL A   1      34.893  30.620  28.153  1.00  0.00     0.198 A 
ATOM     45  C   UNL A   1      35.738  32.860  28.002  1.00  0.00     0.198 A 
ATOM     46  F   UNL A   1      37.854  33.386  28.888  1.00  0.00    -0.203 F 
ATOM     47  F   UNL A   1      33.927  29.724  27.905  1.00  0.00    -0.200 F 
ATOM     48  C   UNL A   1      34.731  31.939  27.758  1.00  0.00     0.200 A 
ATOM     49  F   UNL A   1      35.575  34.139  27.637  1.00  0.00    -0.200 F 
ATOM     50  F   UNL A   1      33.600  32.324  27.150  1.00  0.00    -0.200 F 
ENDBRANCH  26  40
BRANCH  27  51
ATOM     51  C   UNL A   1      44.813  28.204  34.886  1.00  0.00     0.064 A 
ATOM     52  C   UNL A   1      44.662  27.057  35.679  1.00  0.00     0.173 A 
ATOM     53  C   UNL A   1      46.059  28.848  34.901  1.00  0.00     0.173 A 
ATOM     54  F   UNL A   1      43.496  26.394  35.681  1.00  0.00    -0.203 F 
ATOM     55  C   UNL A   1      45.695  26.602  36.493  1.00  0.00     0.198 A 
ATOM     56  C   UNL A   1      47.105  28.369  35.687  1.00  0.00     0.198 A 
ATOM     57  F   UNL A   1      46.271  29.922  34.127  1.00  0.00    -0.203 F 
ATOM     58  F   UNL A   1      45.500  25.538  37.283  1.00  0.00    -0.200 F 
ATOM     59  C   UNL A   1      46.916  27.257  36.495  1.00  0.00     0.200 A 
ATOM     60  F   UNL A   1      48.297  28.980  35.658  1.00  0.00    -0.200 F 
ATOM     61  F   UNL A   1      47.911  26.817  37.277  1.00  0.00    -0.200 F 
ENDBRANCH  27  51
BRANCH  39  62
ATOM     62  C   UNL A   1      39.229  32.249  35.885  1.00  0.00     0.064 A 
ATOM     63  C   UNL A   1      39.626  33.556  36.201  1.00  0.00     0.173 A 
ATOM     64  C   UNL A   1      38.305  31.617  36.730  1.00  0.00     0.173 A 
ATOM     65  F   UNL A   1      40.517  34.198  35.428  1.00  0.00    -0.203 F 
ATOM     66  C   UNL A   1      39.156  34.185  37.347  1.00  0.00     0.198 A 
ATOM     67  C   UNL A   1      37.799  32.268  37.848  1.00  0.00     0.198 A 
ATOM     68  F   UNL A   1      37.884  30.371  36.465  1.00  0.00    -0.203 F 
ATOM     69  F   UNL A   1      39.611  35.403  37.674  1.00  0.00    -0.200 F 
ATOM     70  C   UNL A   1      38.236  33.546  38.164  1.00  0.00     0.200 A 
ATOM     71  F   UNL A   1      36.890  31.659  38.621  1.00  0.00    -0.200 F 
ATOM     72  F   UNL A   1      37.777  34.158  39.264  1.00  0.00    -0.200 F 
ENDBRANCH  39  62
ENDBRANCH  13  14
ENDBRANCH   6   8
ENDBRANCH   5   6
ENDBRANCH   4   5
ENDBRANCH   3   4
ENDBRANCH   2   3
ENDBRANCH   1   2
BRANCH   1  73
ATOM     73  C   UNL A   1      42.490  19.408  25.754  1.00  0.00     0.261 C 
BRANCH  73  74
ATOM     74  O   UNL A   1      42.502  20.532  26.661  1.00  0.00    -0.460 OA
BRANCH  74  75
ATOM     75  C   UNL A   1      41.731  21.530  26.175  1.00  0.00     0.338 C 
ATOM     76  O   UNL A   1      42.035  22.181  25.169  1.00  0.00    -0.246 OA
BRANCH  75  77
ATOM     77  C   UNL A   1      40.392  21.945  26.960  1.00  0.00     0.062 A 
ATOM     78  C   UNL A   1      39.674  23.753  27.584  1.00  0.00     0.016 A 
ATOM     79  C   UNL A   1      39.346  20.969  25.880  1.00  0.00     0.042 A 
ATOM     80  C   UNL A   1      38.122  24.345  26.863  1.00  0.00     0.017 A 
ATOM     81  C   UNL A   1      37.897  21.644  25.306  1.00  0.00     0.056 A 
ATOM     82  C   UNL A   1      37.325  23.255  25.728  1.00  0.00     0.064 A 
ATOM     83  N   UNL A   1      36.976  20.769  24.732  1.00  0.00    -0.307 N 
ATOM     84  C   UNL A   1      35.985  23.427  25.247  1.00  0.00     0.264 A 
ATOM     85  C   UNL A   1      35.648  20.960  25.001  1.00  0.00     0.328 A 
ATOM     86  H   UNL A   1      37.272  20.034  24.148  1.00  0.00     0.171 HD
ATOM     87  O   UNL A   1      35.533  24.522  24.961  1.00  0.00    -0.268 OA
ATOM     88  N   UNL A   1      35.290  22.240  25.437  1.00  0.00    -0.260 N 
ATOM     89  O   UNL A   1      34.897  19.985  25.033  1.00  0.00    -0.248 OA
BRANCH  88  90
ATOM     90  C   UNL A   1      34.620  22.278  26.687  1.00  0.00     0.136 C 
BRANCH  90  91
ATOM     91  C   UNL A   1      33.099  22.466  26.552  1.00  0.00     0.060 C 
BRANCH  91  92
ATOM     92  C   UNL A   1      32.237  23.597  25.930  1.00  0.00    -0.021 A 
ATOM     93  C   UNL A   1      31.850  23.289  24.600  1.00  0.00     0.087 A 
ATOM     94  C   UNL A   1      31.815  25.157  25.986  1.00  0.00     0.003 A 
ATOM     95  N   UNL A   1      30.528  23.701  24.494  1.00  0.00    -0.361 N 
ATOM     96  C   UNL A   1      30.685  25.062  24.621  1.00  0.00     0.046 A 
ATOM     97  C   UNL A   1      32.349  27.035  26.563  1.00  0.00     0.010 A 
ATOM     98  H   UNL A   1      29.710  23.170  24.363  1.00  0.00     0.166 HD
ATOM     99  C   UNL A   1      30.180  26.492  23.782  1.00  0.00     0.026 A 
ATOM    100  C   UNL A   1      31.841  28.432  25.505  1.00  0.00     0.001 A 
ATOM    101  C   UNL A   1      30.762  28.096  24.168  1.00  0.00     0.002 A 
ENDBRANCH  91  92
ENDBRANCH  90  91
ENDBRANCH  88  90
ENDBRANCH  75  77
ENDBRANCH  74  75
ENDBRANCH  73  74
ENDBRANCH   1  73
TORSDOF 17
ENDMDL
MODEL 2
REMARK VINA RESULT:     -12.2      3.887     10.130
REMARK SMILES O=C(OCCOCCOC(=O)c1ccc2c(=O)n(CCc3c[nH]c4ccccc34)c(=O)[nH]c2c1)c1ccc(-c2c3nc(c(-c4c(F)c(F)c(F)c(F)c4F)c4ccc([nH]4)c(-c4c(F)c(F)c(F)c(F)c4F)c4nc(c(-c5c(F)c(F)c(F)c(F)c5F)c5ccc2[nH]5)C=C4)C=C3)cc1
REMARK SMILES IDX 7 1 6 2 5 3 4 4 3 5 2 6 1 7 35 8 36 9 97 10 37 11 96 12
REMARK SMILES IDX 38 13 39 14 40 15 90 16 41 17 95 18 89 19 91 20 42 21 94 22
REMARK SMILES IDX 88 23 87 24 43 26 75 27 55 28 74 29 56 30 59 31 73 32 92 33
REMARK SMILES IDX 57 34 58 35 72 37 93 38 60 39 44 40 45 41 53 42 46 43 47 44
REMARK SMILES IDX 51 45 54 46 48 47 49 48 52 49 50 50 76 51 77 52 85 53 78 54
REMARK SMILES IDX 79 55 83 56 86 57 80 58 81 59 84 60 82 61 61 62 62 63 70 64
REMARK SMILES IDX 63 65 64 66 68 67 71 68 65 69 66 70 69 71 67 72 8 73 9 74
REMARK SMILES IDX 10 75 11 76 12 77 13 78 34 79 14 80 33 81 15 82 32 83 16 84
REMARK SMILES IDX 30 85 17 87 18 88 31 89 19 90 20 91 21 92 22 93 29 94 23 95
REMARK SMILES IDX 24 96 28 97 25 99 27 100 26 101
REMARK H PARENT 91 25 59 36 32 86 23 98
REMARK Flexibility Score: inf
ROOT
ATOM      1  C   UNL A   1      34.466  32.599  29.089  1.00  0.00     0.202 C 
ENDROOT
BRANCH   1   2
ATOM      2  O   UNL A   1      34.528  34.003  28.834  1.00  0.00    -0.374 OA
BRANCH   2   3
ATOM      3  C   UNL A   1      33.314  34.703  28.558  1.00  0.00     0.202 C 
BRANCH   3   4
ATOM      4  C   UNL A   1      32.902  35.879  29.452  1.00  0.00     0.261 C 
BRANCH   4   5
ATOM      5  O   UNL A   1      32.277  35.479  30.670  1.00  0.00    -0.460 OA
BRANCH   5   6
ATOM      6  C   UNL A   1      32.791  35.564  31.918  1.00  0.00     0.338 C 
ATOM      7  O   UNL A   1      32.303  36.395  32.684  1.00  0.00    -0.246 OA
BRANCH   6   8
ATOM      8  C   UNL A   1      33.990  34.799  32.396  1.00  0.00     0.060 A 
ATOM      9  C   UNL A   1      35.239  35.291  31.986  1.00  0.00     0.016 A 
ATOM     10  C   UNL A   1      33.974  33.590  33.094  1.00  0.00     0.016 A 
ATOM     11  C   UNL A   1      36.406  34.555  32.196  1.00  0.00     0.010 A 
ATOM     12  C   UNL A   1      35.097  32.799  33.212  1.00  0.00     0.010 A 
ATOM     13  C   UNL A   1      36.320  33.290  32.783  1.00  0.00    -0.014 A 
BRANCH  13  14
ATOM     14  C   UNL A   1      37.480  32.546  33.267  1.00  0.00     0.031 A 
ATOM     15  C   UNL A   1      38.210  32.970  34.496  1.00  0.00     0.074 A 
ATOM     16  C   UNL A   1      37.977  31.661  32.386  1.00  0.00     0.049 A 
ATOM     17  N   UNL A   1      39.302  32.468  35.003  1.00  0.00    -0.248 NA
ATOM     18  C   UNL A   1      37.673  34.126  35.237  1.00  0.00     0.031 C 
ATOM     19  C   UNL A   1      37.380  31.359  31.078  1.00  0.00     0.029 A 
ATOM     20  N   UNL A   1      39.109  30.905  32.417  1.00  0.00    -0.354 N 
ATOM     21  C   UNL A   1      39.555  33.203  36.151  1.00  0.00     0.074 A 
ATOM     22  C   UNL A   1      38.554  34.245  36.223  1.00  0.00     0.031 C 
ATOM     23  C   UNL A   1      38.148  30.471  30.438  1.00  0.00     0.029 A 
ATOM     24  C   UNL A   1      39.282  30.149  31.287  1.00  0.00     0.049 A 
ATOM     25  H   UNL A   1      39.739  30.901  33.174  1.00  0.00     0.167 HD
ATOM     26  C   UNL A   1      40.523  32.976  37.067  1.00  0.00     0.037 A 
ATOM     27  C   UNL A   1      40.253  29.272  30.991  1.00  0.00     0.037 A 
ATOM     28  C   UNL A   1      41.523  31.948  36.908  1.00  0.00     0.049 A 
ATOM     29  C   UNL A   1      41.306  29.044  32.032  1.00  0.00     0.074 A 
ATOM     30  C   UNL A   1      42.529  31.578  37.780  1.00  0.00     0.029 A 
ATOM     31  N   UNL A   1      41.643  31.135  35.787  1.00  0.00    -0.354 N 
ATOM     32  N   UNL A   1      41.461  29.633  33.195  1.00  0.00    -0.248 NA
ATOM     33  C   UNL A   1      42.297  28.007  31.740  1.00  0.00     0.031 C 
ATOM     34  C   UNL A   1      43.287  30.576  37.166  1.00  0.00     0.029 A 
ATOM     35  C   UNL A   1      42.710  30.269  35.942  1.00  0.00     0.049 A 
ATOM     36  H   UNL A   1      41.055  31.172  34.998  1.00  0.00     0.167 HD
ATOM     37  C   UNL A   1      42.536  29.004  33.799  1.00  0.00     0.074 A 
ATOM     38  C   UNL A   1      42.977  27.974  32.876  1.00  0.00     0.031 C 
ATOM     39  C   UNL A   1      43.108  29.249  35.002  1.00  0.00     0.037 A 
BRANCH  26  40
ATOM     40  C   UNL A   1      40.513  33.769  38.342  1.00  0.00     0.064 A 
ATOM     41  C   UNL A   1      41.330  34.902  38.481  1.00  0.00     0.173 A 
ATOM     42  C   UNL A   1      39.583  33.507  39.359  1.00  0.00     0.173 A 
ATOM     43  F   UNL A   1      42.241  35.199  37.541  1.00  0.00    -0.203 F 
ATOM     44  C   UNL A   1      41.207  35.749  39.579  1.00  0.00     0.198 A 
ATOM     45  C   UNL A   1      39.444  34.371  40.444  1.00  0.00     0.198 A 
ATOM     46  F   UNL A   1      38.773  32.440  39.278  1.00  0.00    -0.203 F 
ATOM     47  F   UNL A   1      41.999  36.825  39.687  1.00  0.00    -0.200 F 
ATOM     48  C   UNL A   1      40.251  35.493  40.550  1.00  0.00     0.200 A 
ATOM     49  F   UNL A   1      38.506  34.133  41.373  1.00  0.00    -0.200 F 
ATOM     50  F   UNL A   1      40.103  36.333  41.584  1.00  0.00    -0.200 F 
ENDBRANCH  26  40
BRANCH  27  51
ATOM     51  C   UNL A   1      40.174  28.475  29.745  1.00  0.00     0.064 A 
ATOM     52  C   UNL A   1      40.824  28.919  28.584  1.00  0.00     0.173 A 
ATOM     53  C   UNL A   1      39.503  27.245  29.688  1.00  0.00     0.173 A 
ATOM     54  F   UNL A   1      41.497  30.079  28.597  1.00  0.00    -0.203 F 
ATOM     55  C   UNL A   1      40.762  28.190  27.400  1.00  0.00     0.198 A 
ATOM     56  C   UNL A   1      39.474  26.498  28.513  1.00  0.00     0.198 A 
ATOM     57  F   UNL A   1      38.903  26.754  30.782  1.00  0.00    -0.203 F 
ATOM     58  F   UNL A   1      41.344  28.669  26.293  1.00  0.00    -0.200 F 
ATOM     59  C   UNL A   1      40.088  26.979  27.366  1.00  0.00     0.200 A 
ATOM     60  F   UNL A   1      38.855  25.309  28.492  1.00  0.00    -0.200 F 
ATOM     61  F   UNL A   1      40.032  26.277  26.227  1.00  0.00    -0.200 F 
ENDBRANCH  27  51
BRANCH  39  62
ATOM     62  C   UNL A   1      44.241  28.350  35.402  1.00  0.00     0.064 A 
ATOM     63  C   UNL A   1      45.575  28.666  35.108  1.00  0.00     0.173 A 
ATOM     64  C   UNL A   1      43.983  27.166  36.109  1.00  0.00     0.173 A 
ATOM     65  F   UNL A   1      45.870  29.782  34.423  1.00  0.00    -0.203 F 
ATOM     66  C   UNL A   1      46.605  27.804  35.463  1.00  0.00     0.198 A 
ATOM     67  C   UNL A   1      45.021  26.332  36.507  1.00  0.00     0.198 A 
ATOM     68  F   UNL A   1      42.725  26.825  36.426  1.00  0.00    -0.203 F 
ATOM     69  F   UNL A   1      47.865  28.086  35.102  1.00  0.00    -0.200 F 
ATOM     70  C   UNL A   1      46.329  26.644  36.171  1.00  0.00     0.200 A 
ATOM     71  F   UNL A   1      44.754  25.225  37.213  1.00  0.00    -0.200 F 
ATOM     72  F   UNL A   1      47.326  25.819  36.520  1.00  0.00    -0.200 F 
ENDBRANCH  39  62
ENDBRANCH  13  14
ENDBRANCH   6   8
ENDBRANCH   5   6
ENDBRANCH   4   5
ENDBRANCH   3   4
ENDBRANCH   2   3
ENDBRANCH   1   2
BRANCH   1  73
ATOM     73  C   UNL A   1      35.105  31.701  28.038  1.00  0.00     0.261 C 
BRANCH  73  74
ATOM     74  O   UNL A   1      34.136  30.790  27.477  1.00  0.00    -0.460 OA
BRANCH  74  75
ATOM     75  C   UNL A   1      34.668  29.552  27.372  1.00  0.00     0.338 C 
ATOM     76  O   UNL A   1      35.876  29.328  27.512  1.00  0.00    -0.246 OA
BRANCH  75  77
ATOM     77  C   UNL A   1      33.717  28.315  26.986  1.00  0.00     0.062 A 
ATOM     78  C   UNL A   1      31.724  27.975  27.281  1.00  0.00     0.016 A 
ATOM     79  C   UNL A   1      34.324  28.254  25.301  1.00  0.00     0.042 A 
ATOM     80  C   UNL A   1      30.663  27.825  25.821  1.00  0.00     0.017 A 
ATOM     81  C   UNL A   1      33.212  28.075  24.030  1.00  0.00     0.056 A 
ATOM     82  C   UNL A   1      31.474  27.914  24.257  1.00  0.00     0.064 A 
ATOM     83  N   UNL A   1      33.729  27.728  22.782  1.00  0.00    -0.307 N 
ATOM     84  C   UNL A   1      30.859  27.572  23.007  1.00  0.00     0.264 A 
ATOM     85  C   UNL A   1      33.034  26.825  22.023  1.00  0.00     0.328 A 
ATOM     86  H   UNL A   1      34.570  28.122  22.455  1.00  0.00     0.171 HD
ATOM     87  O   UNL A   1      29.704  27.865  22.750  1.00  0.00    -0.268 OA
ATOM     88  N   UNL A   1      31.680  26.674  22.340  1.00  0.00    -0.260 N 
ATOM     89  O   UNL A   1      33.652  26.080  21.263  1.00  0.00    -0.248 OA
BRANCH  88  90
ATOM     90  C   UNL A   1      31.285  25.348  22.652  1.00  0.00     0.136 C 
BRANCH  90  91
ATOM     91  C   UNL A   1      32.054  24.754  23.845  1.00  0.00     0.060 C 
BRANCH  91  92
ATOM     92  C   UNL A   1      32.876  23.447  24.013  1.00  0.00    -0.021 A 
ATOM     93  C   UNL A   1      32.296  22.585  24.979  1.00  0.00     0.087 A 
ATOM     94  C   UNL A   1      34.305  22.718  23.815  1.00  0.00     0.003 A 
ATOM     95  N   UNL A   1      32.406  21.305  24.449  1.00  0.00    -0.361 N 
ATOM     96  C   UNL A   1      33.772  21.152  24.461  1.00  0.00     0.046 A 
ATOM     97  C   UNL A   1      36.318  22.961  23.634  1.00  0.00     0.010 A 
ATOM     98  H   UNL A   1      31.704  20.684  24.150  1.00  0.00     0.166 HD
ATOM     99  C   UNL A   1      34.924  19.974  25.001  1.00  0.00     0.026 A 
ATOM    100  C   UNL A   1      37.402  21.688  24.364  1.00  0.00     0.001 A 
ATOM    101  C   UNL A   1      36.653  20.241  25.002  1.00  0.00     0.002 A 
ENDBRANCH  91  92
ENDBRANCH  90  91
ENDBRANCH  88  90
ENDBRANCH  75  77
ENDBRANCH  74  75
ENDBRANCH  73  74
ENDBRANCH   1  73
TORSDOF 17
ENDMDL
MODEL 3
REMARK VINA RESULT:     -12.2      5.469     10.789
REMARK SMILES O=C(OCCOCCOC(=O)c1ccc2c(=O)n(CCc3c[nH]c4ccccc34)c(=O)[nH]c2c1)c1ccc(-c2c3nc(c(-c4c(F)c(F)c(F)c(F)c4F)c4ccc([nH]4)c(-c4c(F)c(F)c(F)c(F)c4F)c4nc(c(-c5c(F)c(F)c(F)c(F)c5F)c5ccc2[nH]5)C=C4)C=C3)cc1
REMARK SMILES IDX 7 1 6 2 5 3 4 4 3 5 2 6 1 7 35 8 36 9 97 10 37 11 96 12
REMARK SMILES IDX 38 13 39 14 40 15 90 16 41 17 95 18 89 19 91 20 42 21 94 22
REMARK SMILES IDX 88 23 87 24 43 26 75 27 55 28 74 29 56 30 59 31 73 32 92 33
REMARK SMILES IDX 57 34 58 35 72 37 93 38 60 39 44 40 45 41 53 42 46 43 47 44
REMARK SMILES IDX 51 45 54 46 48 47 49 48 52 49 50 50 76 51 77 52 85 53 78 54
REMARK SMILES IDX 79 55 83 56 86 57 80 58 81 59 84 60 82 61 61 62 62 63 70 64
REMARK SMILES IDX 63 65 64 66 68 67 71 68 65 69 66 70 69 71 67 72 8 73 9 74
REMARK SMILES IDX 10 75 11 76 12 77 13 78 34 79 14 80 33 81 15 82 32 83 16 84
REMARK SMILES IDX 30 85 17 87 18 88 31 89 19 90 20 91 21 92 22 93 29 94 23 95
REMARK SMILES IDX 24 96 28 97 25 99 27 100 26 101
REMARK H PARENT 91 25 59 36 32 86 23 98
REMARK Flexibility Score: inf
ROOT
ATOM      1  C   UNL A   1      34.813  33.760  28.110  1.00  0.00     0.202 C 
ENDROOT
BRANCH   1   2
ATOM      2  O   UNL A   1      35.135  34.320  29.384  1.00  0.00    -0.374 OA
BRANCH   2   3
ATOM      3  C   UNL A   1      34.115  34.385  30.382  1.00  0.00     0.202 C 
BRANCH   3   4
ATOM      4  C   UNL A   1      34.411  33.868  31.796  1.00  0.00     0.261 C 
BRANCH   4   5
ATOM      5  O   UNL A   1      34.805  32.499  31.832  1.00  0.00    -0.460 OA
BRANCH   5   6
ATOM      6  C   UNL A   1      35.923  31.985  32.395  1.00  0.00     0.338 C 
ATOM      7  O   UNL A   1      36.036  32.059  33.618  1.00  0.00    -0.246 OA
BRANCH   6   8
ATOM      8  C   UNL A   1      37.087  31.438  31.623  1.00  0.00     0.060 A 
ATOM      9  C   UNL A   1      38.102  30.834  32.382  1.00  0.00     0.016 A 
ATOM     10  C   UNL A   1      37.311  31.584  30.252  1.00  0.00     0.016 A 
ATOM     11  C   UNL A   1      39.317  30.473  31.799  1.00  0.00     0.010 A 
ATOM     12  C   UNL A   1      38.542  31.338  29.682  1.00  0.00     0.010 A 
ATOM     13  C   UNL A   1      39.541  30.760  30.451  1.00  0.00    -0.014 A 
BRANCH  13  14
ATOM     14  C   UNL A   1      40.661  30.217  29.686  1.00  0.00     0.031 A 
ATOM     15  C   UNL A   1      40.701  28.780  29.291  1.00  0.00     0.074 A 
ATOM     16  C   UNL A   1      41.734  31.025  29.626  1.00  0.00     0.049 A 
ATOM     17  N   UNL A   1      41.660  28.132  28.690  1.00  0.00    -0.248 NA
ATOM     18  C   UNL A   1      39.535  27.950  29.643  1.00  0.00     0.031 C 
ATOM     19  C   UNL A   1      41.786  32.386  30.178  1.00  0.00     0.029 A 
ATOM     20  N   UNL A   1      42.988  30.816  29.141  1.00  0.00    -0.354 N 
ATOM     21  C   UNL A   1      41.197  26.834  28.537  1.00  0.00     0.074 A 
ATOM     22  C   UNL A   1      39.906  26.759  29.187  1.00  0.00     0.031 C 
ATOM     23  C   UNL A   1      43.009  32.892  29.987  1.00  0.00     0.029 A 
ATOM     24  C   UNL A   1      43.817  31.894  29.307  1.00  0.00     0.049 A 
ATOM     25  H   UNL A   1      43.271  29.975  28.713  1.00  0.00     0.167 HD
ATOM     26  C   UNL A   1      41.803  25.826  27.870  1.00  0.00     0.037 A 
ATOM     27  C   UNL A   1      45.092  32.053  28.924  1.00  0.00     0.037 A 
ATOM     28  C   UNL A   1      43.116  25.953  27.287  1.00  0.00     0.049 A 
ATOM     29  C   UNL A   1      45.730  30.916  28.184  1.00  0.00     0.074 A 
ATOM     30  C   UNL A   1      43.826  25.030  26.544  1.00  0.00     0.029 A 
ATOM     31  N   UNL A   1      43.919  27.083  27.399  1.00  0.00    -0.354 N 
ATOM     32  N   UNL A   1      45.235  29.733  27.902  1.00  0.00    -0.248 NA
ATOM     33  C   UNL A   1      47.084  31.144  27.679  1.00  0.00     0.031 C 
ATOM     34  C   UNL A   1      45.076  25.582  26.249  1.00  0.00     0.029 A 
ATOM     35  C   UNL A   1      45.120  26.877  26.745  1.00  0.00     0.049 A 
ATOM     36  H   UNL A   1      43.670  27.907  27.877  1.00  0.00     0.167 HD
ATOM     37  C   UNL A   1      46.197  29.092  27.140  1.00  0.00     0.074 A 
ATOM     38  C   UNL A   1      47.293  30.032  26.991  1.00  0.00     0.031 C 
ATOM     39  C   UNL A   1      46.181  27.845  26.610  1.00  0.00     0.037 A 
BRANCH  26  40
ATOM     40  C   UNL A   1      41.050  24.545  27.655  1.00  0.00     0.064 A 
ATOM     41  C   UNL A   1      39.970  24.497  26.758  1.00  0.00     0.173 A 
ATOM     42  C   UNL A   1      41.493  23.335  28.208  1.00  0.00     0.173 A 
ATOM     43  F   UNL A   1      39.501  25.624  26.202  1.00  0.00    -0.203 F 
ATOM     44  C   UNL A   1      39.375  23.286  26.412  1.00  0.00     0.198 A 
ATOM     45  C   UNL A   1      40.912  22.122  27.839  1.00  0.00     0.198 A 
ATOM     46  F   UNL A   1      42.523  23.320  29.068  1.00  0.00    -0.203 F 
ATOM     47  F   UNL A   1      38.347  23.268  25.553  1.00  0.00    -0.200 F 
ATOM     48  C   UNL A   1      39.859  22.098  26.939  1.00  0.00     0.200 A 
ATOM     49  F   UNL A   1      41.393  20.972  28.334  1.00  0.00    -0.200 F 
ATOM     50  F   UNL A   1      39.314  20.930  26.571  1.00  0.00    -0.200 F 
ENDBRANCH  26  40
BRANCH  27  51
ATOM     51  C   UNL A   1      45.762  33.361  29.109  1.00  0.00     0.064 A 
ATOM     52  C   UNL A   1      45.599  34.376  28.155  1.00  0.00     0.173 A 
ATOM     53  C   UNL A   1      46.532  33.650  30.245  1.00  0.00     0.173 A 
ATOM     54  F   UNL A   1      44.853  34.153  27.062  1.00  0.00    -0.203 F 
ATOM     55  C   UNL A   1      46.221  35.612  28.304  1.00  0.00     0.198 A 
ATOM     56  C   UNL A   1      47.123  34.901  30.411  1.00  0.00     0.198 A 
ATOM     57  F   UNL A   1      46.683  32.730  31.208  1.00  0.00    -0.203 F 
ATOM     58  F   UNL A   1      46.092  36.540  27.347  1.00  0.00    -0.200 F 
ATOM     59  C   UNL A   1      46.981  35.874  29.433  1.00  0.00     0.200 A 
ATOM     60  F   UNL A   1      47.825  35.166  31.521  1.00  0.00    -0.200 F 
ATOM     61  F   UNL A   1      47.576  37.065  29.577  1.00  0.00    -0.200 F 
ENDBRANCH  27  51
BRANCH  39  62
ATOM     62  C   UNL A   1      47.368  27.454  25.779  1.00  0.00     0.064 A 
ATOM     63  C   UNL A   1      48.500  26.852  26.345  1.00  0.00     0.173 A 
ATOM     64  C   UNL A   1      47.357  27.668  24.392  1.00  0.00     0.173 A 
ATOM     65  F   UNL A   1      48.562  26.638  27.668  1.00  0.00    -0.203 F 
ATOM     66  C   UNL A   1      49.599  26.525  25.560  1.00  0.00     0.198 A 
ATOM     67  C   UNL A   1      48.437  27.293  23.604  1.00  0.00     0.198 A 
ATOM     68  F   UNL A   1      46.291  28.230  23.801  1.00  0.00    -0.203 F 
ATOM     69  F   UNL A   1      50.703  26.025  26.133  1.00  0.00    -0.200 F 
ATOM     70  C   UNL A   1      49.564  26.736  24.190  1.00  0.00     0.200 A 
ATOM     71  F   UNL A   1      48.390  27.473  22.277  1.00  0.00    -0.200 F 
ATOM     72  F   UNL A   1      50.621  26.410  23.434  1.00  0.00    -0.200 F 
ENDBRANCH  39  62
ENDBRANCH  13  14
ENDBRANCH   6   8
ENDBRANCH   5   6
ENDBRANCH   4   5
ENDBRANCH   3   4
ENDBRANCH   2   3
ENDBRANCH   1   2
BRANCH   1  73
ATOM     73  C   UNL A   1      33.758  32.663  28.111  1.00  0.00     0.261 C 
BRANCH  73  74
ATOM     74  O   UNL A   1      33.878  31.827  26.940  1.00  0.00    -0.460 OA
BRANCH  74  75
ATOM     75  C   UNL A   1      32.784  31.043  26.813  1.00  0.00     0.338 C 
ATOM     76  O   UNL A   1      31.638  31.500  26.737  1.00  0.00    -0.246 OA
BRANCH  75  77
ATOM     77  C   UNL A   1      32.955  29.446  26.826  1.00  0.00     0.062 A 
ATOM     78  C   UNL A   1      31.834  27.954  27.657  1.00  0.00     0.016 A 
ATOM     79  C   UNL A   1      33.248  29.371  25.059  1.00  0.00     0.042 A 
ATOM     80  C   UNL A   1      31.048  26.761  26.545  1.00  0.00     0.017 A 
ATOM     81  C   UNL A   1      32.467  28.173  24.144  1.00  0.00     0.056 A 
ATOM     82  C   UNL A   1      31.390  26.958  24.825  1.00  0.00     0.064 A 
ATOM     83  N   UNL A   1      32.945  27.951  22.853  1.00  0.00    -0.307 N 
ATOM     84  C   UNL A   1      31.073  25.984  23.821  1.00  0.00     0.264 A 
ATOM     85  C   UNL A   1      33.020  26.661  22.403  1.00  0.00     0.328 A 
ATOM     86  H   UNL A   1      33.220  28.703  22.279  1.00  0.00     0.171 HD
ATOM     87  O   UNL A   1      30.032  25.350  23.837  1.00  0.00    -0.268 OA
ATOM     88  N   UNL A   1      32.213  25.733  23.071  1.00  0.00    -0.260 N 
ATOM     89  O   UNL A   1      33.901  26.357  21.599  1.00  0.00    -0.248 OA
BRANCH  88  90
ATOM     90  C   UNL A   1      32.909  24.626  23.621  1.00  0.00     0.136 C 
BRANCH  90  91
ATOM     91  C   UNL A   1      32.370  23.270  23.134  1.00  0.00     0.060 C 
BRANCH  91  92
ATOM     92  C   UNL A   1      32.368  21.855  23.773  1.00  0.00    -0.021 A 
ATOM     93  C   UNL A   1      32.959  21.863  25.064  1.00  0.00     0.087 A 
ATOM     94  C   UNL A   1      32.281  20.261  23.519  1.00  0.00     0.003 A 
ATOM     95  N   UNL A   1      32.161  21.033  25.842  1.00  0.00    -0.361 N 
ATOM     96  C   UNL A   1      32.403  19.822  25.235  1.00  0.00     0.046 A 
ATOM     97  C   UNL A   1      32.564  18.740  22.195  1.00  0.00     0.010 A 
ATOM     98  H   UNL A   1      31.587  21.250  26.610  1.00  0.00     0.166 HD
ATOM     99  C   UNL A   1      32.852  18.218  25.714  1.00  0.00     0.026 A 
ATOM    100  C   UNL A   1      33.156  17.141  22.844  1.00  0.00     0.001 A 
ATOM    101  C   UNL A   1      33.257  16.948  24.580  1.00  0.00     0.002 A 
ENDBRANCH  91  92
ENDBRANCH  90  91
ENDBRANCH  88  90
ENDBRANCH  75  77
ENDBRANCH  74  75
ENDBRANCH  73  74
ENDBRANCH   1  73
TORSDOF 17
ENDMDL
