MODEL 1
REMARK VINA RESULT:     -12.1      0.000      0.000
REMARK SMILES Cc1cc(C(=O)OCCOCCOC(=O)c2ccc(-c3c4nc(c(-c5c(F)c(F)c(F)c(F)c5F)c5ccc([nH]5)c(-c5c(F)c(F)c(F)c(F)c5F)c5nc(c(-c6c(F)c(F)c(F)c(F)c6F)c6ccc3[nH]6)C=C5)C=C4)cc2)c(C#Cc2ccccc2)s1
REMARK SMILES IDX 10 1 9 2 8 3 7 4 5 5 6 6 4 7 1 8 2 9 3 10 88 11 79 12 80 13
REMARK SMILES IDX 81 14 82 15 83 16 87 17 84 18 86 19 85 20 11 21 12 22 13 23
REMARK SMILES IDX 14 24 15 25 16 26 17 27 78 28 18 29 77 30 19 31 20 32 21 33
REMARK SMILES IDX 71 34 22 35 76 36 70 37 72 38 23 39 75 40 69 41 68 42 24 44
REMARK SMILES IDX 56 45 36 46 55 47 37 48 40 49 54 50 73 51 38 52 39 53 53 55
REMARK SMILES IDX 74 56 41 57 25 58 26 59 34 60 27 61 28 62 32 63 35 64 29 65
REMARK SMILES IDX 30 66 33 67 31 68 57 69 58 70 66 71 59 72 60 73 64 74 67 75
REMARK SMILES IDX 61 76 62 77 65 78 63 79 42 80 43 81 51 82 44 83 45 84 49 85
REMARK SMILES IDX 52 86 46 87 47 88 50 89 48 90
REMARK H PARENT 72 43 40 54
REMARK Flexibility Score: inf
ROOT
ATOM      1  O   UNL A   1      36.494  22.306  25.473  1.00  0.00    -0.374 OA
ENDROOT
BRANCH   1   2
ATOM      2  C   UNL A   1      35.380  23.178  25.545  1.00  0.00     0.202 C 
BRANCH   2   3
ATOM      3  C   UNL A   1      34.359  23.056  26.687  1.00  0.00     0.261 C 
BRANCH   3   4
ATOM      4  O   UNL A   1      33.469  24.164  26.748  1.00  0.00    -0.460 OA
BRANCH   4   5
ATOM      5  C   UNL A   1      32.161  23.784  26.797  1.00  0.00     0.340 C 
ATOM      6  O   UNL A   1      31.631  23.220  27.744  1.00  0.00    -0.246 OA
BRANCH   5   7
ATOM      7  C   UNL A   1      31.441  24.240  25.622  1.00  0.00     0.086 A 
ATOM      8  C   UNL A   1      29.399  26.815  23.764  1.00  0.00     0.056 C 
ATOM      9  C   UNL A   1      30.147  25.631  24.265  1.00  0.00     0.004 A 
ATOM     10  C   UNL A   1      30.623  25.415  25.539  1.00  0.00     0.032 A 
ATOM     11  S   UNL A   1      30.525  24.328  23.226  1.00  0.00    -0.131 S 
ATOM     12  C   UNL A   1      31.400  23.515  24.445  1.00  0.00     0.092 A 
BRANCH  12  13
ATOM     13  C   UNL A   1      31.970  22.211  24.261  1.00  0.00    -0.050 C 
ATOM     14  C   UNL A   1      32.414  21.119  24.068  1.00  0.00    -0.061 C 
BRANCH  14  15
ATOM     15  C   UNL A   1      32.900  19.779  23.901  1.00  0.00     0.025 A 
ATOM     16  C   UNL A   1      33.990  19.302  24.633  1.00  0.00     0.017 A 
ATOM     17  C   UNL A   1      32.286  18.958  22.953  1.00  0.00     0.017 A 
ATOM     18  C   UNL A   1      34.474  18.011  24.397  1.00  0.00     0.001 A 
ATOM     19  C   UNL A   1      32.770  17.671  22.718  1.00  0.00     0.001 A 
ATOM     20  C   UNL A   1      33.869  17.199  23.436  1.00  0.00     0.000 A 
ENDBRANCH  14  15
ENDBRANCH  12  13
ENDBRANCH   5   7
ENDBRANCH   4   5
ENDBRANCH   3   4
ENDBRANCH   2   3
ENDBRANCH   1   2
BRANCH   1  21
ATOM     21  C   UNL A   1      37.774  22.842  25.797  1.00  0.00     0.202 C 
BRANCH  21  22
ATOM     22  C   UNL A   1      38.961  21.900  26.096  1.00  0.00     0.261 C 
BRANCH  22  23
ATOM     23  O   UNL A   1      39.942  22.494  26.965  1.00  0.00    -0.460 OA
BRANCH  23  24
ATOM     24  C   UNL A   1      41.194  22.625  26.437  1.00  0.00     0.338 C 
ATOM     25  O   UNL A   1      41.713  21.919  25.591  1.00  0.00    -0.246 OA
BRANCH  24  26
ATOM     26  C   UNL A   1      41.627  24.013  26.737  1.00  0.00     0.060 A 
ATOM     27  C   UNL A   1      42.550  24.287  27.755  1.00  0.00     0.016 A 
ATOM     28  C   UNL A   1      40.768  25.016  26.261  1.00  0.00     0.016 A 
ATOM     29  C   UNL A   1      42.487  25.520  28.407  1.00  0.00     0.010 A 
ATOM     30  C   UNL A   1      40.692  26.229  26.932  1.00  0.00     0.010 A 
ATOM     31  C   UNL A   1      41.489  26.449  28.059  1.00  0.00    -0.014 A 
BRANCH  31  32
ATOM     32  C   UNL A   1      41.401  27.747  28.746  1.00  0.00     0.031 A 
ATOM     33  C   UNL A   1      42.558  28.627  28.394  1.00  0.00     0.074 A 
ATOM     34  C   UNL A   1      40.343  28.185  29.474  1.00  0.00     0.049 A 
ATOM     35  N   UNL A   1      43.432  29.147  29.192  1.00  0.00    -0.248 NA
ATOM     36  C   UNL A   1      42.879  28.811  26.967  1.00  0.00     0.031 C 
ATOM     37  C   UNL A   1      39.068  27.532  29.758  1.00  0.00     0.029 A 
ATOM     38  N   UNL A   1      40.167  29.393  30.104  1.00  0.00    -0.354 N 
ATOM     39  C   UNL A   1      44.323  29.852  28.384  1.00  0.00     0.074 A 
ATOM     40  C   UNL A   1      44.026  29.485  27.027  1.00  0.00     0.031 C 
ATOM     41  C   UNL A   1      38.183  28.391  30.305  1.00  0.00     0.029 A 
ATOM     42  C   UNL A   1      38.847  29.651  30.511  1.00  0.00     0.049 A 
ATOM     43  H   UNL A   1      40.905  30.026  30.257  1.00  0.00     0.167 HD
ATOM     44  C   UNL A   1      45.127  30.830  28.882  1.00  0.00     0.037 A 
ATOM     45  C   UNL A   1      38.337  30.831  30.956  1.00  0.00     0.037 A 
ATOM     46  C   UNL A   1      45.231  30.731  30.311  1.00  0.00     0.049 A 
ATOM     47  C   UNL A   1      39.495  31.637  31.414  1.00  0.00     0.074 A 
ATOM     48  C   UNL A   1      45.805  29.808  31.162  1.00  0.00     0.029 A 
ATOM     49  N   UNL A   1      44.343  31.451  31.072  1.00  0.00    -0.354 N 
ATOM     50  N   UNL A   1      40.205  31.301  32.460  1.00  0.00    -0.248 NA
ATOM     51  C   UNL A   1      40.185  32.422  30.397  1.00  0.00     0.031 C 
ATOM     52  C   UNL A   1      44.878  29.677  32.234  1.00  0.00     0.029 A 
ATOM     53  C   UNL A   1      43.854  30.604  32.037  1.00  0.00     0.049 A 
ATOM     54  H   UNL A   1      44.103  32.397  30.948  1.00  0.00     0.167 HD
ATOM     55  C   UNL A   1      41.519  31.455  32.048  1.00  0.00     0.074 A 
ATOM     56  C   UNL A   1      41.444  32.160  30.766  1.00  0.00     0.031 C 
ATOM     57  C   UNL A   1      42.533  30.731  32.603  1.00  0.00     0.037 A 
BRANCH  44  58
ATOM     58  C   UNL A   1      45.574  32.048  28.121  1.00  0.00     0.064 A 
ATOM     59  C   UNL A   1      44.627  33.018  27.740  1.00  0.00     0.173 A 
ATOM     60  C   UNL A   1      46.841  32.158  27.508  1.00  0.00     0.173 A 
ATOM     61  F   UNL A   1      43.385  33.000  28.249  1.00  0.00    -0.203 F 
ATOM     62  C   UNL A   1      44.908  33.983  26.769  1.00  0.00     0.198 A 
ATOM     63  C   UNL A   1      47.133  33.152  26.576  1.00  0.00     0.198 A 
ATOM     64  F   UNL A   1      47.805  31.252  27.701  1.00  0.00    -0.203 F 
ATOM     65  F   UNL A   1      43.943  34.815  26.358  1.00  0.00    -0.200 F 
ATOM     66  C   UNL A   1      46.159  34.045  26.183  1.00  0.00     0.200 A 
ATOM     67  F   UNL A   1      48.347  33.185  26.007  1.00  0.00    -0.200 F 
ATOM     68  F   UNL A   1      46.415  34.932  25.213  1.00  0.00    -0.200 F 
ENDBRANCH  44  58
BRANCH  45  69
ATOM     69  C   UNL A   1      36.992  31.409  30.673  1.00  0.00     0.064 A 
ATOM     70  C   UNL A   1      36.077  31.740  31.689  1.00  0.00     0.173 A 
ATOM     71  C   UNL A   1      36.680  31.894  29.385  1.00  0.00     0.173 A 
ATOM     72  F   UNL A   1      36.311  31.367  32.955  1.00  0.00    -0.203 F 
ATOM     73  C   UNL A   1      34.932  32.512  31.431  1.00  0.00     0.198 A 
ATOM     74  C   UNL A   1      35.541  32.662  29.129  1.00  0.00     0.198 A 
ATOM     75  F   UNL A   1      37.525  31.710  28.362  1.00  0.00    -0.203 F 
ATOM     76  F   UNL A   1      34.105  32.847  32.432  1.00  0.00    -0.200 F 
ATOM     77  C   UNL A   1      34.671  32.980  30.152  1.00  0.00     0.200 A 
ATOM     78  F   UNL A   1      35.328  33.140  27.894  1.00  0.00    -0.200 F 
ATOM     79  F   UNL A   1      33.612  33.766  29.915  1.00  0.00    -0.200 F 
ENDBRANCH  45  69
BRANCH  57  80
ATOM     80  C   UNL A   1      42.217  29.836  33.773  1.00  0.00     0.064 A 
ATOM     81  C   UNL A   1      41.802  28.497  33.646  1.00  0.00     0.173 A 
ATOM     82  C   UNL A   1      42.551  30.283  35.056  1.00  0.00     0.173 A 
ATOM     83  F   UNL A   1      41.576  27.958  32.443  1.00  0.00    -0.203 F 
ATOM     84  C   UNL A   1      41.696  27.661  34.759  1.00  0.00     0.198 A 
ATOM     85  C   UNL A   1      42.478  29.437  36.160  1.00  0.00     0.198 A 
ATOM     86  F   UNL A   1      43.025  31.527  35.228  1.00  0.00    -0.203 F 
ATOM     87  F   UNL A   1      41.311  26.385  34.607  1.00  0.00    -0.200 F 
ATOM     88  C   UNL A   1      42.041  28.131  36.014  1.00  0.00     0.200 A 
ATOM     89  F   UNL A   1      42.879  29.879  37.360  1.00  0.00    -0.200 F 
ATOM     90  F   UNL A   1      41.992  27.316  37.077  1.00  0.00    -0.200 F 
ENDBRANCH  57  80
ENDBRANCH  31  32
ENDBRANCH  24  26
ENDBRANCH  23  24
ENDBRANCH  22  23
ENDBRANCH  21  22
ENDBRANCH   1  21
TORSDOF 16
ENDMDL
MODEL 2
REMARK VINA RESULT:     -11.6      3.385      9.101
REMARK SMILES Cc1cc(C(=O)OCCOCCOC(=O)c2ccc(-c3c4nc(c(-c5c(F)c(F)c(F)c(F)c5F)c5ccc([nH]5)c(-c5c(F)c(F)c(F)c(F)c5F)c5nc(c(-c6c(F)c(F)c(F)c(F)c6F)c6ccc3[nH]6)C=C5)C=C4)cc2)c(C#Cc2ccccc2)s1
REMARK SMILES IDX 10 1 9 2 8 3 7 4 5 5 6 6 4 7 1 8 2 9 3 10 88 11 79 12 80 13
REMARK SMILES IDX 81 14 82 15 83 16 87 17 84 18 86 19 85 20 11 21 12 22 13 23
REMARK SMILES IDX 14 24 15 25 16 26 17 27 78 28 18 29 77 30 19 31 20 32 21 33
REMARK SMILES IDX 71 34 22 35 76 36 70 37 72 38 23 39 75 40 69 41 68 42 24 44
REMARK SMILES IDX 56 45 36 46 55 47 37 48 40 49 54 50 73 51 38 52 39 53 53 55
REMARK SMILES IDX 74 56 41 57 25 58 26 59 34 60 27 61 28 62 32 63 35 64 29 65
REMARK SMILES IDX 30 66 33 67 31 68 57 69 58 70 66 71 59 72 60 73 64 74 67 75
REMARK SMILES IDX 61 76 62 77 65 78 63 79 42 80 43 81 51 82 44 83 45 84 49 85
REMARK SMILES IDX 52 86 46 87 47 88 50 89 48 90
REMARK H PARENT 72 43 40 54
REMARK Flexibility Score: inf
ROOT
ATOM      1  O   UNL A   1      33.220  29.800  25.727  1.00  0.00    -0.374 OA
ENDROOT
BRANCH   1   2
ATOM      2  C   UNL A   1      33.828  28.595  25.297  1.00  0.00     0.202 C 
BRANCH   2   3
ATOM      3  C   UNL A   1      33.742  28.151  23.829  1.00  0.00     0.261 C 
BRANCH   3   4
ATOM      4  O   UNL A   1      34.099  26.787  23.646  1.00  0.00    -0.460 OA
BRANCH   4   5
ATOM      5  C   UNL A   1      33.569  26.254  22.509  1.00  0.00     0.340 C 
ATOM      6  O   UNL A   1      33.817  26.638  21.374  1.00  0.00    -0.246 OA
BRANCH   5   7
ATOM      7  C   UNL A   1      32.757  25.088  22.807  1.00  0.00     0.086 A 
ATOM      8  C   UNL A   1      32.341  21.378  23.366  1.00  0.00     0.056 C 
ATOM      9  C   UNL A   1      32.213  22.846  23.162  1.00  0.00     0.004 A 
ATOM     10  C   UNL A   1      33.183  23.722  22.727  1.00  0.00     0.032 A 
ATOM     11  S   UNL A   1      30.739  23.651  23.481  1.00  0.00    -0.131 S 
ATOM     12  C   UNL A   1      31.414  25.178  23.128  1.00  0.00     0.092 A 
BRANCH  12  13
ATOM     13  C   UNL A   1      30.644  26.389  23.119  1.00  0.00    -0.050 C 
ATOM     14  C   UNL A   1      30.044  27.422  23.124  1.00  0.00    -0.061 C 
BRANCH  14  15
ATOM     15  C   UNL A   1      29.291  28.642  23.206  1.00  0.00     0.025 A 
ATOM     16  C   UNL A   1      29.903  29.857  23.522  1.00  0.00     0.017 A 
ATOM     17  C   UNL A   1      27.910  28.589  23.004  1.00  0.00     0.017 A 
ATOM     18  C   UNL A   1      29.126  31.013  23.654  1.00  0.00     0.001 A 
ATOM     19  C   UNL A   1      27.137  29.742  23.138  1.00  0.00     0.001 A 
ATOM     20  C   UNL A   1      27.743  30.953  23.470  1.00  0.00     0.000 A 
ENDBRANCH  14  15
ENDBRANCH  12  13
ENDBRANCH   5   7
ENDBRANCH   4   5
ENDBRANCH   3   4
ENDBRANCH   2   3
ENDBRANCH   1   2
BRANCH   1  21
ATOM     21  C   UNL A   1      33.192  30.063  27.127  1.00  0.00     0.202 C 
BRANCH  21  22
ATOM     22  C   UNL A   1      34.065  31.186  27.728  1.00  0.00     0.261 C 
BRANCH  22  23
ATOM     23  O   UNL A   1      35.021  30.701  28.687  1.00  0.00    -0.460 OA
BRANCH  23  24
ATOM     24  C   UNL A   1      35.467  31.621  29.591  1.00  0.00     0.338 C 
ATOM     25  O   UNL A   1      34.832  32.537  30.082  1.00  0.00    -0.246 OA
BRANCH  24  26
ATOM     26  C   UNL A   1      36.695  31.047  30.196  1.00  0.00     0.060 A 
ATOM     27  C   UNL A   1      37.923  31.717  30.134  1.00  0.00     0.016 A 
ATOM     28  C   UNL A   1      36.647  29.664  30.432  1.00  0.00     0.016 A 
ATOM     29  C   UNL A   1      39.101  30.969  30.139  1.00  0.00     0.010 A 
ATOM     30  C   UNL A   1      37.820  28.923  30.406  1.00  0.00     0.010 A 
ATOM     31  C   UNL A   1      39.041  29.563  30.172  1.00  0.00    -0.014 A 
BRANCH  31  32
ATOM     32  C   UNL A   1      40.272  28.759  30.164  1.00  0.00     0.031 A 
ATOM     33  C   UNL A   1      40.838  28.618  31.541  1.00  0.00     0.074 A 
ATOM     34  C   UNL A   1      40.765  28.081  29.096  1.00  0.00     0.049 A 
ATOM     35  N   UNL A   1      42.007  28.977  31.960  1.00  0.00    -0.248 NA
ATOM     36  C   UNL A   1      39.933  28.178  32.619  1.00  0.00     0.031 C 
ATOM     37  C   UNL A   1      40.239  27.962  27.740  1.00  0.00     0.029 A 
ATOM     38  N   UNL A   1      41.876  27.277  29.021  1.00  0.00    -0.354 N 
ATOM     39  C   UNL A   1      42.042  28.668  33.319  1.00  0.00     0.074 A 
ATOM     40  C   UNL A   1      40.700  28.326  33.699  1.00  0.00     0.031 C 
ATOM     41  C   UNL A   1      40.879  26.999  27.043  1.00  0.00     0.029 A 
ATOM     42  C   UNL A   1      41.943  26.482  27.864  1.00  0.00     0.049 A 
ATOM     43  H   UNL A   1      42.569  27.260  29.720  1.00  0.00     0.167 HD
ATOM     44  C   UNL A   1      43.215  28.541  33.997  1.00  0.00     0.037 A 
ATOM     45  C   UNL A   1      42.796  25.450  27.619  1.00  0.00     0.037 A 
ATOM     46  C   UNL A   1      44.295  29.153  33.276  1.00  0.00     0.049 A 
ATOM     47  C   UNL A   1      43.946  25.638  28.537  1.00  0.00     0.074 A 
ATOM     48  C   UNL A   1      44.606  30.460  32.957  1.00  0.00     0.029 A 
ATOM     49  N   UNL A   1      45.022  28.368  32.416  1.00  0.00    -0.354 N 
ATOM     50  N   UNL A   1      44.778  26.639  28.413  1.00  0.00    -0.248 NA
ATOM     51  C   UNL A   1      43.805  25.085  29.879  1.00  0.00     0.031 C 
ATOM     52  C   UNL A   1      45.085  30.402  31.618  1.00  0.00     0.029 A 
ATOM     53  C   UNL A   1      45.147  29.061  31.238  1.00  0.00     0.049 A 
ATOM     54  H   UNL A   1      45.385  27.474  32.609  1.00  0.00     0.167 HD
ATOM     55  C   UNL A   1      44.937  27.117  29.704  1.00  0.00     0.074 A 
ATOM     56  C   UNL A   1      44.319  26.110  30.569  1.00  0.00     0.031 C 
ATOM     57  C   UNL A   1      45.262  28.419  29.950  1.00  0.00     0.037 A 
BRANCH  44  58
ATOM     58  C   UNL A   1      43.442  27.610  35.157  1.00  0.00     0.064 A 
ATOM     59  C   UNL A   1      43.855  28.132  36.398  1.00  0.00     0.173 A 
ATOM     60  C   UNL A   1      43.544  26.208  35.020  1.00  0.00     0.173 A 
ATOM     61  F   UNL A   1      43.815  29.452  36.633  1.00  0.00    -0.203 F 
ATOM     62  C   UNL A   1      44.393  27.318  37.399  1.00  0.00     0.198 A 
ATOM     63  C   UNL A   1      44.035  25.394  36.039  1.00  0.00     0.198 A 
ATOM     64  F   UNL A   1      43.278  25.586  33.866  1.00  0.00    -0.203 F 
ATOM     65  F   UNL A   1      44.875  27.871  38.520  1.00  0.00    -0.200 F 
ATOM     66  C   UNL A   1      44.488  25.950  37.216  1.00  0.00     0.200 A 
ATOM     67  F   UNL A   1      44.135  24.073  35.834  1.00  0.00    -0.200 F 
ATOM     68  F   UNL A   1      45.054  25.175  38.150  1.00  0.00    -0.200 F 
ENDBRANCH  44  58
BRANCH  45  69
ATOM     69  C   UNL A   1      42.500  24.167  26.921  1.00  0.00     0.064 A 
ATOM     70  C   UNL A   1      43.327  23.641  25.912  1.00  0.00     0.173 A 
ATOM     71  C   UNL A   1      41.516  23.290  27.425  1.00  0.00     0.173 A 
ATOM     72  F   UNL A   1      44.324  24.381  25.404  1.00  0.00    -0.203 F 
ATOM     73  C   UNL A   1      43.182  22.324  25.447  1.00  0.00     0.198 A 
ATOM     74  C   UNL A   1      41.372  21.980  26.962  1.00  0.00     0.198 A 
ATOM     75  F   UNL A   1      40.730  23.659  28.446  1.00  0.00    -0.203 F 
ATOM     76  F   UNL A   1      44.019  21.841  24.516  1.00  0.00    -0.200 F 
ATOM     77  C   UNL A   1      42.210  21.492  25.980  1.00  0.00     0.200 A 
ATOM     78  F   UNL A   1      40.453  21.178  27.520  1.00  0.00    -0.200 F 
ATOM     79  F   UNL A   1      42.108  20.216  25.581  1.00  0.00    -0.200 F 
ENDBRANCH  45  69
BRANCH  57  80
ATOM     80  C   UNL A   1      45.571  29.315  28.780  1.00  0.00     0.064 A 
ATOM     81  C   UNL A   1      44.605  30.088  28.108  1.00  0.00     0.173 A 
ATOM     82  C   UNL A   1      46.913  29.559  28.470  1.00  0.00     0.173 A 
ATOM     83  F   UNL A   1      43.309  30.000  28.429  1.00  0.00    -0.203 F 
ATOM     84  C   UNL A   1      44.971  31.035  27.149  1.00  0.00     0.198 A 
ATOM     85  C   UNL A   1      47.278  30.528  27.539  1.00  0.00     0.198 A 
ATOM     86  F   UNL A   1      47.881  28.906  29.131  1.00  0.00    -0.203 F 
ATOM     87  F   UNL A   1      44.030  31.768  26.535  1.00  0.00    -0.200 F 
ATOM     88  C   UNL A   1      46.308  31.258  26.871  1.00  0.00     0.200 A 
ATOM     89  F   UNL A   1      48.575  30.786  27.324  1.00  0.00    -0.200 F 
ATOM     90  F   UNL A   1      46.666  32.203  25.990  1.00  0.00    -0.200 F 
ENDBRANCH  57  80
ENDBRANCH  31  32
ENDBRANCH  24  26
ENDBRANCH  23  24
ENDBRANCH  22  23
ENDBRANCH  21  22
ENDBRANCH   1  21
TORSDOF 16
ENDMDL
MODEL 3
REMARK VINA RESULT:     -11.6      4.479      7.635
REMARK SMILES Cc1cc(C(=O)OCCOCCOC(=O)c2ccc(-c3c4nc(c(-c5c(F)c(F)c(F)c(F)c5F)c5ccc([nH]5)c(-c5c(F)c(F)c(F)c(F)c5F)c5nc(c(-c6c(F)c(F)c(F)c(F)c6F)c6ccc3[nH]6)C=C5)C=C4)cc2)c(C#Cc2ccccc2)s1
REMARK SMILES IDX 10 1 9 2 8 3 7 4 5 5 6 6 4 7 1 8 2 9 3 10 88 11 79 12 80 13
REMARK SMILES IDX 81 14 82 15 83 16 87 17 84 18 86 19 85 20 11 21 12 22 13 23
REMARK SMILES IDX 14 24 15 25 16 26 17 27 78 28 18 29 77 30 19 31 20 32 21 33
REMARK SMILES IDX 71 34 22 35 76 36 70 37 72 38 23 39 75 40 69 41 68 42 24 44
REMARK SMILES IDX 56 45 36 46 55 47 37 48 40 49 54 50 73 51 38 52 39 53 53 55
REMARK SMILES IDX 74 56 41 57 25 58 26 59 34 60 27 61 28 62 32 63 35 64 29 65
REMARK SMILES IDX 30 66 33 67 31 68 57 69 58 70 66 71 59 72 60 73 64 74 67 75
REMARK SMILES IDX 61 76 62 77 65 78 63 79 42 80 43 81 51 82 44 83 45 84 49 85
REMARK SMILES IDX 52 86 46 87 47 88 50 89 48 90
REMARK H PARENT 72 43 40 54
REMARK Flexibility Score: inf
ROOT
ATOM      1  O   UNL A   1      44.740  19.935  25.545  1.00  0.00    -0.374 OA
ENDROOT
BRANCH   1   2
ATOM      2  C   UNL A   1      45.192  21.217  25.148  1.00  0.00     0.202 C 
BRANCH   2   3
ATOM      3  C   UNL A   1      45.483  22.306  26.193  1.00  0.00     0.261 C 
BRANCH   3   4
ATOM      4  O   UNL A   1      46.547  23.167  25.807  1.00  0.00    -0.460 OA
BRANCH   4   5
ATOM      5  C   UNL A   1      46.120  24.424  25.498  1.00  0.00     0.340 C 
ATOM      6  O   UNL A   1      44.948  24.772  25.447  1.00  0.00    -0.246 OA
BRANCH   5   7
ATOM      7  C   UNL A   1      47.239  25.336  25.351  1.00  0.00     0.086 A 
ATOM      8  C   UNL A   1      49.886  27.046  23.272  1.00  0.00     0.056 C 
ATOM      9  C   UNL A   1      48.979  26.499  24.317  1.00  0.00     0.004 A 
ATOM     10  C   UNL A   1      48.053  25.489  24.180  1.00  0.00     0.032 A 
ATOM     11  S   UNL A   1      48.994  27.126  25.907  1.00  0.00    -0.131 S 
ATOM     12  C   UNL A   1      47.706  26.117  26.393  1.00  0.00     0.092 A 
BRANCH  12  13
ATOM     13  C   UNL A   1      47.220  26.065  27.743  1.00  0.00    -0.050 C 
ATOM     14  C   UNL A   1      46.824  25.974  28.866  1.00  0.00    -0.061 C 
BRANCH  14  15
ATOM     15  C   UNL A   1      46.268  25.870  30.185  1.00  0.00     0.025 A 
ATOM     16  C   UNL A   1      47.076  25.916  31.323  1.00  0.00     0.017 A 
ATOM     17  C   UNL A   1      44.891  25.677  30.317  1.00  0.00     0.017 A 
ATOM     18  C   UNL A   1      46.505  25.749  32.589  1.00  0.00     0.001 A 
ATOM     19  C   UNL A   1      44.323  25.510  31.580  1.00  0.00     0.001 A 
ATOM     20  C   UNL A   1      45.131  25.538  32.716  1.00  0.00     0.000 A 
ENDBRANCH  14  15
ENDBRANCH  12  13
ENDBRANCH   5   7
ENDBRANCH   4   5
ENDBRANCH   3   4
ENDBRANCH   2   3
ENDBRANCH   1   2
BRANCH   1  21
ATOM     21  C   UNL A   1      43.350  19.653  25.405  1.00  0.00     0.202 C 
BRANCH  21  22
ATOM     22  C   UNL A   1      42.327  20.259  26.389  1.00  0.00     0.261 C 
BRANCH  22  23
ATOM     23  O   UNL A   1      41.835  21.542  25.964  1.00  0.00    -0.460 OA
BRANCH  23  24
ATOM     24  C   UNL A   1      40.898  22.112  26.778  1.00  0.00     0.338 C 
ATOM     25  O   UNL A   1      40.159  21.542  27.561  1.00  0.00    -0.246 OA
BRANCH  24  26
ATOM     26  C   UNL A   1      41.246  23.552  26.866  1.00  0.00     0.060 A 
ATOM     27  C   UNL A   1      42.426  23.983  27.486  1.00  0.00     0.016 A 
ATOM     28  C   UNL A   1      40.166  24.433  26.696  1.00  0.00     0.016 A 
ATOM     29  C   UNL A   1      42.453  25.244  28.083  1.00  0.00     0.010 A 
ATOM     30  C   UNL A   1      40.189  25.674  27.317  1.00  0.00     0.010 A 
ATOM     31  C   UNL A   1      41.296  26.047  28.084  1.00  0.00    -0.014 A 
BRANCH  31  32
ATOM     32  C   UNL A   1      41.304  27.373  28.720  1.00  0.00     0.031 A 
ATOM     33  C   UNL A   1      42.464  28.192  28.253  1.00  0.00     0.074 A 
ATOM     34  C   UNL A   1      40.316  27.879  29.500  1.00  0.00     0.049 A 
ATOM     35  N   UNL A   1      43.410  28.709  28.967  1.00  0.00    -0.248 NA
ATOM     36  C   UNL A   1      42.691  28.308  26.801  1.00  0.00     0.031 C 
ATOM     37  C   UNL A   1      39.042  27.288  29.898  1.00  0.00     0.029 A 
ATOM     38  N   UNL A   1      40.229  29.117  30.090  1.00  0.00    -0.354 N 
ATOM     39  C   UNL A   1      44.268  29.346  28.072  1.00  0.00     0.074 A 
ATOM     40  C   UNL A   1      43.864  28.938  26.755  1.00  0.00     0.031 C 
ATOM     41  C   UNL A   1      38.228  28.202  30.468  1.00  0.00     0.029 A 
ATOM     42  C   UNL A   1      38.951  29.442  30.576  1.00  0.00     0.049 A 
ATOM     43  H   UNL A   1      40.999  29.726  30.166  1.00  0.00     0.167 HD
ATOM     44  C   UNL A   1      45.139  30.311  28.472  1.00  0.00     0.037 A 
ATOM     45  C   UNL A   1      38.516  30.658  31.005  1.00  0.00     0.037 A 
ATOM     46  C   UNL A   1      45.340  30.263  29.893  1.00  0.00     0.049 A 
ATOM     47  C   UNL A   1      39.732  31.435  31.349  1.00  0.00     0.074 A 
ATOM     48  C   UNL A   1      45.938  29.353  30.740  1.00  0.00     0.029 A 
ATOM     49  N   UNL A   1      44.534  31.046  30.683  1.00  0.00    -0.354 N 
ATOM     50  N   UNL A   1      40.501  31.113  32.356  1.00  0.00    -0.248 NA
ATOM     51  C   UNL A   1      40.377  32.152  30.255  1.00  0.00     0.031 C 
ATOM     52  C   UNL A   1      45.084  29.300  31.878  1.00  0.00     0.029 A 
ATOM     53  C   UNL A   1      44.084  30.258  31.713  1.00  0.00     0.049 A 
ATOM     54  H   UNL A   1      44.320  31.996  30.537  1.00  0.00     0.167 HD
ATOM     55  C   UNL A   1      41.787  31.200  31.849  1.00  0.00     0.074 A 
ATOM     56  C   UNL A   1      41.648  31.856  30.547  1.00  0.00     0.031 C 
ATOM     57  C   UNL A   1      42.811  30.458  32.363  1.00  0.00     0.037 A 
BRANCH  44  58
ATOM     58  C   UNL A   1      45.576  31.479  27.632  1.00  0.00     0.064 A 
ATOM     59  C   UNL A   1      46.906  31.550  27.174  1.00  0.00     0.173 A 
ATOM     60  C   UNL A   1      44.821  32.665  27.498  1.00  0.00     0.173 A 
ATOM     61  F   UNL A   1      47.719  30.486  27.267  1.00  0.00    -0.203 F 
ATOM     62  C   UNL A   1      47.457  32.737  26.684  1.00  0.00     0.198 A 
ATOM     63  C   UNL A   1      45.359  33.834  26.962  1.00  0.00     0.198 A 
ATOM     64  F   UNL A   1      43.577  32.772  27.976  1.00  0.00    -0.203 F 
ATOM     65  F   UNL A   1      48.756  32.787  26.364  1.00  0.00    -0.200 F 
ATOM     66  C   UNL A   1      46.684  33.880  26.583  1.00  0.00     0.200 A 
ATOM     67  F   UNL A   1      44.598  34.936  26.890  1.00  0.00    -0.200 F 
ATOM     68  F   UNL A   1      47.222  35.033  26.167  1.00  0.00    -0.200 F 
ENDBRANCH  44  58
BRANCH  45  69
ATOM     69  C   UNL A   1      37.177  31.276  30.791  1.00  0.00     0.064 A 
ATOM     70  C   UNL A   1      36.298  31.574  31.848  1.00  0.00     0.173 A 
ATOM     71  C   UNL A   1      36.839  31.833  29.539  1.00  0.00     0.173 A 
ATOM     72  F   UNL A   1      36.560  31.132  33.087  1.00  0.00    -0.203 F 
ATOM     73  C   UNL A   1      35.163  32.380  31.664  1.00  0.00     0.198 A 
ATOM     74  C   UNL A   1      35.710  32.636  29.355  1.00  0.00     0.198 A 
ATOM     75  F   UNL A   1      37.651  31.684  28.483  1.00  0.00    -0.203 F 
ATOM     76  F   UNL A   1      34.372  32.680  32.704  1.00  0.00    -0.200 F 
ATOM     77  C   UNL A   1      34.876  32.918  30.419  1.00  0.00     0.200 A 
ATOM     78  F   UNL A   1      35.473  33.180  28.153  1.00  0.00    -0.200 F 
ATOM     79  F   UNL A   1      33.828  33.737  30.252  1.00  0.00    -0.200 F 
ENDBRANCH  45  69
BRANCH  57  80
ATOM     80  C   UNL A   1      42.546  29.622  33.588  1.00  0.00     0.064 A 
ATOM     81  C   UNL A   1      42.136  28.276  33.545  1.00  0.00     0.173 A 
ATOM     82  C   UNL A   1      42.924  30.136  34.833  1.00  0.00     0.173 A 
ATOM     83  F   UNL A   1      41.870  27.675  32.380  1.00  0.00    -0.203 F 
ATOM     84  C   UNL A   1      42.078  27.497  34.702  1.00  0.00     0.198 A 
ATOM     85  C   UNL A   1      42.899  29.348  35.981  1.00  0.00     0.198 A 
ATOM     86  F   UNL A   1      43.394  31.390  34.924  1.00  0.00    -0.203 F 
ATOM     87  F   UNL A   1      41.698  26.213  34.630  1.00  0.00    -0.200 F 
ATOM     88  C   UNL A   1      42.466  28.033  35.918  1.00  0.00     0.200 A 
ATOM     89  F   UNL A   1      43.340  29.852  37.141  1.00  0.00    -0.200 F 
ATOM     90  F   UNL A   1      42.463  27.274  37.022  1.00  0.00    -0.200 F 
ENDBRANCH  57  80
ENDBRANCH  31  32
ENDBRANCH  24  26
ENDBRANCH  23  24
ENDBRANCH  22  23
ENDBRANCH  21  22
ENDBRANCH   1  21
TORSDOF 16
ENDMDL
