MODEL 1
REMARK VINA RESULT:     -13.1      0.000      0.000
REMARK SMILES C[C@H]1c2ccc(O)cc2OC(=O)[C@@H]1CC(=O)N[C@@H](CC1=c2ccccc2=NC1)C(=O)OCCOCCOC(=O)c1ccc(-c2c3nc(c(-c4c(F)c(F)c(F)c(F)c4F)c4ccc([nH]4)c(-c4c(F)c(F)c(F)c(F)c4F)c4nc(c(-c5c(F)c(F)c(F)c(F)c5F)c5ccc2[nH]5)C=C4)C=C3)cc1
REMARK SMILES IDX 33 1 32 2 31 3 29 4 30 5 18 6 17 7 15 8 16 9 14 11 13 12
REMARK SMILES IDX 1 13 2 14 3 15 4 16 9 17 11 18 5 19 8 20 10 21 12 22 6 23
REMARK SMILES IDX 7 24 19 26 20 27 21 28 28 29 22 30 26 31 27 32 23 33 25 34
REMARK SMILES IDX 24 35 34 36 35 37 36 38 37 39 38 40 39 41 40 42 41 43 102 44
REMARK SMILES IDX 42 45 101 46 43 47 44 48 45 49 95 50 46 51 100 52 94 53
REMARK SMILES IDX 96 54 47 55 99 56 93 57 92 58 48 60 80 61 60 62 79 63 61 64
REMARK SMILES IDX 64 65 78 66 97 67 62 68 63 69 77 71 98 72 65 73 49 74 50 75
REMARK SMILES IDX 58 76 51 77 52 78 56 79 59 80 53 81 54 82 57 83 55 84 81 85
REMARK SMILES IDX 82 86 90 87 83 88 84 89 88 90 91 91 85 92 86 93 89 94 87 95
REMARK SMILES IDX 66 96 67 97 75 98 68 99 69 100 73 101 76 102 70 103 71 104
REMARK SMILES IDX 74 105 72 106
REMARK H PARENT 17 10 7 25 96 59 64 70
REMARK Flexibility Score: inf
ROOT
ATOM      1  C   UNL A   1      32.250  30.242  26.965  1.00  0.00     0.202 C 
ENDROOT
BRANCH   1   2
ATOM      2  C   UNL A   1      32.683  28.955  26.254  1.00  0.00     0.261 C 
BRANCH   2   3
ATOM      3  O   UNL A   1      31.940  27.811  26.700  1.00  0.00    -0.462 OA
BRANCH   3   4
ATOM      4  C   UNL A   1      32.414  26.633  26.229  1.00  0.00     0.329 C 
ATOM      5  O   UNL A   1      33.601  26.381  26.040  1.00  0.00    -0.250 OA
BRANCH   4   6
ATOM      6  C   UNL A   1      31.330  25.597  25.950  1.00  0.00     0.196 C 
BRANCH   6   7
ATOM      7  N   UNL A   1      30.813  24.671  26.967  1.00  0.00    -0.342 N 
ATOM      8  C   UNL A   1      30.382  23.380  26.794  1.00  0.00     0.221 C 
ATOM      9  O   UNL A   1      29.616  22.898  27.629  1.00  0.00    -0.275 OA
ATOM     10  H   UNL A   1      30.771  25.020  27.888  1.00  0.00     0.164 HD
BRANCH   8  11
ATOM     11  C   UNL A   1      30.952  22.509  25.674  1.00  0.00     0.116 C 
BRANCH  11  12
ATOM     12  C   UNL A   1      32.342  22.878  25.100  1.00  0.00     0.116 C 
ATOM     13  C   UNL A   1      33.913  22.765  23.076  1.00  0.00     0.014 C 
ATOM     14  C   UNL A   1      32.614  22.242  23.709  1.00  0.00     0.034 C 
ATOM     15  C   UNL A   1      32.666  20.739  23.867  1.00  0.00    -0.001 A 
ATOM     16  C   UNL A   1      32.315  19.866  22.834  1.00  0.00     0.011 A 
ATOM     17  C   UNL A   1      33.019  20.194  25.106  1.00  0.00     0.138 A 
ATOM     18  C   UNL A   1      33.476  22.383  25.961  1.00  0.00     0.315 C 
ATOM     19  C   UNL A   1      32.237  18.490  23.074  1.00  0.00     0.047 A 
ATOM     20  C   UNL A   1      32.903  18.836  25.374  1.00  0.00     0.093 A 
ATOM     21  O   UNL A   1      33.534  21.008  26.128  1.00  0.00    -0.426 OA
ATOM     22  O   UNL A   1      34.286  23.129  26.496  1.00  0.00    -0.251 OA
ATOM     23  C   UNL A   1      32.496  17.993  24.351  1.00  0.00     0.119 A 
BRANCH  23  24
ATOM     24  O   UNL A   1      32.367  16.667  24.638  1.00  0.00    -0.508 OA
ATOM     25  H   UNL A   1      32.982  16.249  25.209  1.00  0.00     0.293 HD
ENDBRANCH  23  24
ENDBRANCH  11  12
ENDBRANCH   8  11
ENDBRANCH   6   7
BRANCH   6  26
ATOM     26  C   UNL A   1      30.182  26.330  25.235  1.00  0.00     0.070 C 
BRANCH  26  27
ATOM     27  C   UNL A   1      30.207  26.545  23.717  1.00  0.00    -0.037 C 
ATOM     28  C   UNL A   1      31.364  26.424  23.051  1.00  0.00     0.001 A 
ATOM     29  C   UNL A   1      29.669  27.941  23.427  1.00  0.00     0.174 C 
ATOM     30  C   UNL A   1      31.730  25.583  21.942  1.00  0.00     0.010 A 
ATOM     31  C   UNL A   1      31.757  27.847  22.895  1.00  0.00     0.065 A 
ATOM     32  N   UNL A   1      30.868  28.757  23.135  1.00  0.00    -0.280 NA
ATOM     33  C   UNL A   1      32.826  25.935  21.243  1.00  0.00     0.001 A 
ATOM     34  C   UNL A   1      33.148  28.038  22.445  1.00  0.00     0.028 A 
ATOM     35  C   UNL A   1      33.645  27.067  21.659  1.00  0.00     0.002 A 
ENDBRANCH  26  27
ENDBRANCH   6  26
ENDBRANCH   4   6
ENDBRANCH   3   4
ENDBRANCH   2   3
ENDBRANCH   1   2
BRANCH   1  36
ATOM     36  O   UNL A   1      31.430  31.145  26.234  1.00  0.00    -0.374 OA
BRANCH  36  37
ATOM     37  C   UNL A   1      31.442  32.527  26.588  1.00  0.00     0.202 C 
BRANCH  37  38
ATOM     38  C   UNL A   1      32.437  33.004  27.659  1.00  0.00     0.261 C 
BRANCH  38  39
ATOM     39  O   UNL A   1      32.863  34.371  27.482  1.00  0.00    -0.460 OA
BRANCH  39  40
ATOM     40  C   UNL A   1      33.052  35.072  28.628  1.00  0.00     0.338 C 
ATOM     41  O   UNL A   1      32.333  35.935  29.099  1.00  0.00    -0.246 OA
BRANCH  40  42
ATOM     42  C   UNL A   1      34.206  34.529  29.363  1.00  0.00     0.060 A 
ATOM     43  C   UNL A   1      34.023  33.879  30.582  1.00  0.00     0.016 A 
ATOM     44  C   UNL A   1      35.466  34.557  28.753  1.00  0.00     0.016 A 
ATOM     45  C   UNL A   1      35.114  33.244  31.185  1.00  0.00     0.010 A 
ATOM     46  C   UNL A   1      36.555  33.939  29.369  1.00  0.00     0.010 A 
ATOM     47  C   UNL A   1      36.387  33.273  30.590  1.00  0.00    -0.014 A 
BRANCH  47  48
ATOM     48  C   UNL A   1      37.524  32.534  31.197  1.00  0.00     0.031 A 
ATOM     49  C   UNL A   1      38.048  32.894  32.557  1.00  0.00     0.074 A 
ATOM     50  C   UNL A   1      38.104  31.543  30.494  1.00  0.00     0.049 A 
ATOM     51  N   UNL A   1      39.004  32.329  33.250  1.00  0.00    -0.248 NA
ATOM     52  C   UNL A   1      37.418  34.042  33.225  1.00  0.00     0.031 C 
ATOM     53  C   UNL A   1      37.707  31.124  29.151  1.00  0.00     0.029 A 
ATOM     54  N   UNL A   1      39.150  30.713  30.810  1.00  0.00    -0.354 N 
ATOM     55  C   UNL A   1      39.075  33.032  34.445  1.00  0.00     0.074 A 
ATOM     56  C   UNL A   1      38.097  34.098  34.364  1.00  0.00     0.031 C 
ATOM     57  C   UNL A   1      38.486  30.102  28.763  1.00  0.00     0.029 A 
ATOM     58  C   UNL A   1      39.454  29.814  29.818  1.00  0.00     0.049 A 
ATOM     59  H   UNL A   1      39.635  30.757  31.665  1.00  0.00     0.167 HD
ATOM     60  C   UNL A   1      39.872  32.799  35.516  1.00  0.00     0.037 A 
ATOM     61  C   UNL A   1      40.407  28.865  29.763  1.00  0.00     0.037 A 
ATOM     62  C   UNL A   1      40.870  31.760  35.579  1.00  0.00     0.049 A 
ATOM     63  C   UNL A   1      41.321  28.669  30.942  1.00  0.00     0.074 A 
ATOM     64  C   UNL A   1      41.709  31.433  36.630  1.00  0.00     0.029 A 
ATOM     65  N   UNL A   1      41.179  30.894  34.540  1.00  0.00    -0.354 N 
ATOM     66  N   UNL A   1      41.331  29.292  32.094  1.00  0.00    -0.248 NA
ATOM     67  C   UNL A   1      42.354  27.633  30.810  1.00  0.00     0.031 C 
ATOM     68  C   UNL A   1      42.562  30.407  36.208  1.00  0.00     0.029 A 
ATOM     69  C   UNL A   1      42.217  30.055  34.914  1.00  0.00     0.049 A 
ATOM     70  H   UNL A   1      40.726  30.878  33.666  1.00  0.00     0.167 HD
ATOM     71  C   UNL A   1      42.359  28.719  32.831  1.00  0.00     0.074 A 
ATOM     72  C   UNL A   1      42.930  27.675  32.004  1.00  0.00     0.031 C 
ATOM     73  C   UNL A   1      42.794  29.033  34.076  1.00  0.00     0.037 A 
BRANCH  60  74
ATOM     74  C   UNL A   1      39.700  33.683  36.718  1.00  0.00     0.064 A 
ATOM     75  C   UNL A   1      40.342  34.928  36.804  1.00  0.00     0.173 A 
ATOM     76  C   UNL A   1      38.838  33.317  37.762  1.00  0.00     0.173 A 
ATOM     77  F   UNL A   1      41.185  35.321  35.837  1.00  0.00    -0.203 F 
ATOM     78  C   UNL A   1      40.139  35.766  37.898  1.00  0.00     0.198 A 
ATOM     79  C   UNL A   1      38.616  34.169  38.842  1.00  0.00     0.198 A 
ATOM     80  F   UNL A   1      38.194  32.141  37.727  1.00  0.00    -0.203 F 
ATOM     81  F   UNL A   1      40.789  36.935  37.974  1.00  0.00    -0.200 F 
ATOM     82  C   UNL A   1      39.269  35.391  38.911  1.00  0.00     0.200 A 
ATOM     83  F   UNL A   1      37.766  33.811  39.813  1.00  0.00    -0.200 F 
ATOM     84  F   UNL A   1      39.064  36.204  39.956  1.00  0.00    -0.200 F 
ENDBRANCH  60  74
BRANCH  61  85
ATOM     85  C   UNL A   1      40.523  28.008  28.555  1.00  0.00     0.064 A 
ATOM     86  C   UNL A   1      41.289  28.417  27.455  1.00  0.00     0.173 A 
ATOM     87  C   UNL A   1      39.886  26.761  28.480  1.00  0.00     0.173 A 
ATOM     88  F   UNL A   1      41.897  29.612  27.472  1.00  0.00    -0.203 F 
ATOM     89  C   UNL A   1      41.407  27.616  26.322  1.00  0.00     0.198 A 
ATOM     90  C   UNL A   1      40.027  25.947  27.358  1.00  0.00     0.198 A 
ATOM     91  F   UNL A   1      39.143  26.323  29.507  1.00  0.00    -0.203 F 
ATOM     92  F   UNL A   1      42.115  28.047  25.270  1.00  0.00    -0.200 F 
ATOM     93  C   UNL A   1      40.783  26.377  26.278  1.00  0.00     0.200 A 
ATOM     94  F   UNL A   1      39.434  24.746  27.325  1.00  0.00    -0.200 F 
ATOM     95  F   UNL A   1      40.905  25.602  25.192  1.00  0.00    -0.200 F 
ENDBRANCH  61  85
BRANCH  73  96
ATOM     96  C   UNL A   1      43.950  28.242  34.619  1.00  0.00     0.064 A 
ATOM     97  C   UNL A   1      45.271  28.706  34.508  1.00  0.00     0.173 A 
ATOM     98  C   UNL A   1      43.738  27.027  35.287  1.00  0.00     0.173 A 
ATOM     99  F   UNL A   1      45.530  29.856  33.866  1.00  0.00    -0.203 F 
ATOM    100  C   UNL A   1      46.335  27.969  35.018  1.00  0.00     0.198 A 
ATOM    101  C   UNL A   1      44.803  26.308  35.826  1.00  0.00     0.198 A 
ATOM    102  F   UNL A   1      42.496  26.540  35.428  1.00  0.00    -0.203 F 
ATOM    103  F   UNL A   1      47.591  28.407  34.853  1.00  0.00    -0.200 F 
ATOM    104  C   UNL A   1      46.100  26.775  35.682  1.00  0.00     0.200 A 
ATOM    105  F   UNL A   1      44.573  25.162  36.481  1.00  0.00    -0.200 F 
ATOM    106  F   UNL A   1      47.126  26.070  36.179  1.00  0.00    -0.200 F 
ENDBRANCH  73  96
ENDBRANCH  47  48
ENDBRANCH  40  42
ENDBRANCH  39  40
ENDBRANCH  38  39
ENDBRANCH  37  38
ENDBRANCH  36  37
ENDBRANCH   1  36
TORSDOF 20
ENDMDL
MODEL 2
REMARK VINA RESULT:     -13.1      0.561      6.841
REMARK SMILES C[C@H]1c2ccc(O)cc2OC(=O)[C@@H]1CC(=O)N[C@@H](CC1=c2ccccc2=NC1)C(=O)OCCOCCOC(=O)c1ccc(-c2c3nc(c(-c4c(F)c(F)c(F)c(F)c4F)c4ccc([nH]4)c(-c4c(F)c(F)c(F)c(F)c4F)c4nc(c(-c5c(F)c(F)c(F)c(F)c5F)c5ccc2[nH]5)C=C4)C=C3)cc1
REMARK SMILES IDX 33 1 32 2 31 3 29 4 30 5 18 6 17 7 15 8 16 9 14 11 13 12
REMARK SMILES IDX 1 13 2 14 3 15 4 16 9 17 11 18 5 19 8 20 10 21 12 22 6 23
REMARK SMILES IDX 7 24 19 26 20 27 21 28 28 29 22 30 26 31 27 32 23 33 25 34
REMARK SMILES IDX 24 35 34 36 35 37 36 38 37 39 38 40 39 41 40 42 41 43 102 44
REMARK SMILES IDX 42 45 101 46 43 47 44 48 45 49 95 50 46 51 100 52 94 53
REMARK SMILES IDX 96 54 47 55 99 56 93 57 92 58 48 60 80 61 60 62 79 63 61 64
REMARK SMILES IDX 64 65 78 66 97 67 62 68 63 69 77 71 98 72 65 73 49 74 50 75
REMARK SMILES IDX 58 76 51 77 52 78 56 79 59 80 53 81 54 82 57 83 55 84 81 85
REMARK SMILES IDX 82 86 90 87 83 88 84 89 88 90 91 91 85 92 86 93 89 94 87 95
REMARK SMILES IDX 66 96 67 97 75 98 68 99 69 100 73 101 76 102 70 103 71 104
REMARK SMILES IDX 74 105 72 106
REMARK H PARENT 17 10 7 25 96 59 64 70
REMARK Flexibility Score: inf
ROOT
ATOM      1  C   UNL A   1      32.192  30.245  27.077  1.00  0.00     0.202 C 
ENDROOT
BRANCH   1   2
ATOM      2  C   UNL A   1      32.689  28.974  26.381  1.00  0.00     0.261 C 
BRANCH   2   3
ATOM      3  O   UNL A   1      31.928  27.816  26.755  1.00  0.00    -0.462 OA
BRANCH   3   4
ATOM      4  C   UNL A   1      32.410  26.657  26.246  1.00  0.00     0.329 C 
ATOM      5  O   UNL A   1      33.596  26.427  26.030  1.00  0.00    -0.250 OA
BRANCH   4   6
ATOM      6  C   UNL A   1      31.335  25.613  25.960  1.00  0.00     0.196 C 
BRANCH   6   7
ATOM      7  N   UNL A   1      30.822  24.681  26.974  1.00  0.00    -0.342 N 
ATOM      8  C   UNL A   1      30.397  23.389  26.795  1.00  0.00     0.221 C 
ATOM      9  O   UNL A   1      29.632  22.899  27.627  1.00  0.00    -0.275 OA
ATOM     10  H   UNL A   1      30.775  25.026  27.895  1.00  0.00     0.164 HD
BRANCH   8  11
ATOM     11  C   UNL A   1      30.974  22.524  25.673  1.00  0.00     0.116 C 
BRANCH  11  12
ATOM     12  C   UNL A   1      32.375  22.885  25.122  1.00  0.00     0.116 C 
ATOM     13  C   UNL A   1      33.976  22.772  23.122  1.00  0.00     0.014 C 
ATOM     14  C   UNL A   1      32.665  22.255  23.733  1.00  0.00     0.034 C 
ATOM     15  C   UNL A   1      32.703  20.751  23.883  1.00  0.00    -0.001 A 
ATOM     16  C   UNL A   1      32.360  19.887  22.839  1.00  0.00     0.011 A 
ATOM     17  C   UNL A   1      33.032  20.197  25.124  1.00  0.00     0.138 A 
ATOM     18  C   UNL A   1      33.493  22.377  25.998  1.00  0.00     0.315 C 
ATOM     19  C   UNL A   1      32.269  18.510  23.071  1.00  0.00     0.047 A 
ATOM     20  C   UNL A   1      32.902  18.838  25.382  1.00  0.00     0.093 A 
ATOM     21  O   UNL A   1      33.538  21.001  26.158  1.00  0.00    -0.426 OA
ATOM     22  O   UNL A   1      34.300  23.114  26.550  1.00  0.00    -0.251 OA
ATOM     23  C   UNL A   1      32.504  18.004  24.348  1.00  0.00     0.119 A 
BRANCH  23  24
ATOM     24  O   UNL A   1      32.361  16.677  24.626  1.00  0.00    -0.508 OA
ATOM     25  H   UNL A   1      31.962  16.407  25.429  1.00  0.00     0.293 HD
ENDBRANCH  23  24
ENDBRANCH  11  12
ENDBRANCH   8  11
ENDBRANCH   6   7
BRANCH   6  26
ATOM     26  C   UNL A   1      30.185  26.339  25.241  1.00  0.00     0.070 C 
BRANCH  26  27
ATOM     27  C   UNL A   1      30.224  26.573  23.726  1.00  0.00    -0.037 C 
ATOM     28  C   UNL A   1      31.383  26.440  23.067  1.00  0.00     0.001 A 
ATOM     29  C   UNL A   1      29.712  27.981  23.452  1.00  0.00     0.174 C 
ATOM     30  C   UNL A   1      31.742  25.607  21.948  1.00  0.00     0.010 A 
ATOM     31  C   UNL A   1      31.802  27.858  22.932  1.00  0.00     0.065 A 
ATOM     32  N   UNL A   1      30.928  28.780  23.179  1.00  0.00    -0.280 NA
ATOM     33  C   UNL A   1      32.849  25.949  21.262  1.00  0.00     0.001 A 
ATOM     34  C   UNL A   1      33.199  28.030  22.493  1.00  0.00     0.028 A 
ATOM     35  C   UNL A   1      33.685  27.061  21.698  1.00  0.00     0.002 A 
ENDBRANCH  26  27
ENDBRANCH   6  26
ENDBRANCH   4   6
ENDBRANCH   3   4
ENDBRANCH   2   3
ENDBRANCH   1   2
BRANCH   1  36
ATOM     36  O   UNL A   1      31.417  31.152  26.301  1.00  0.00    -0.374 OA
BRANCH  36  37
ATOM     37  C   UNL A   1      31.570  32.554  26.525  1.00  0.00     0.202 C 
BRANCH  37  38
ATOM     38  C   UNL A   1      32.517  33.023  27.641  1.00  0.00     0.261 C 
BRANCH  38  39
ATOM     39  O   UNL A   1      33.001  34.369  27.458  1.00  0.00    -0.460 OA
BRANCH  39  40
ATOM     40  C   UNL A   1      33.130  35.097  28.595  1.00  0.00     0.338 C 
ATOM     41  O   UNL A   1      32.387  35.969  29.009  1.00  0.00    -0.246 OA
BRANCH  40  42
ATOM     42  C   UNL A   1      34.247  34.576  29.400  1.00  0.00     0.060 A 
ATOM     43  C   UNL A   1      34.022  34.087  30.685  1.00  0.00     0.016 A 
ATOM     44  C   UNL A   1      35.508  34.453  28.802  1.00  0.00     0.016 A 
ATOM     45  C   UNL A   1      35.070  33.463  31.370  1.00  0.00     0.010 A 
ATOM     46  C   UNL A   1      36.555  33.847  29.497  1.00  0.00     0.010 A 
ATOM     47  C   UNL A   1      36.344  33.343  30.787  1.00  0.00    -0.014 A 
BRANCH  47  48
ATOM     48  C   UNL A   1      37.431  32.612  31.487  1.00  0.00     0.031 A 
ATOM     49  C   UNL A   1      38.096  31.421  30.862  1.00  0.00     0.074 A 
ATOM     50  C   UNL A   1      37.799  33.019  32.717  1.00  0.00     0.049 A 
ATOM     51  N   UNL A   1      39.085  30.693  31.317  1.00  0.00    -0.248 NA
ATOM     52  C   UNL A   1      37.581  30.986  29.556  1.00  0.00     0.031 C 
ATOM     53  C   UNL A   1      37.205  34.141  33.442  1.00  0.00     0.029 A 
ATOM     54  N   UNL A   1      38.757  32.535  33.573  1.00  0.00    -0.354 N 
ATOM     55  C   UNL A   1      39.330  29.733  30.345  1.00  0.00     0.074 A 
ATOM     56  C   UNL A   1      38.353  29.939  29.295  1.00  0.00     0.031 C 
ATOM     57  C   UNL A   1      37.823  34.273  34.626  1.00  0.00     0.029 A 
ATOM     58  C   UNL A   1      38.836  33.229  34.754  1.00  0.00     0.049 A 
ATOM     59  H   UNL A   1      39.332  31.766  33.359  1.00  0.00     0.167 HD
ATOM     60  C   UNL A   1      40.291  28.778  30.324  1.00  0.00     0.037 A 
ATOM     61  C   UNL A   1      39.634  33.044  35.822  1.00  0.00     0.037 A 
ATOM     62  C   UNL A   1      41.239  28.552  31.388  1.00  0.00     0.049 A 
ATOM     63  C   UNL A   1      40.651  31.936  35.800  1.00  0.00     0.074 A 
ATOM     64  C   UNL A   1      42.264  27.624  31.447  1.00  0.00     0.029 A 
ATOM     65  N   UNL A   1      41.263  29.248  32.589  1.00  0.00    -0.354 N 
ATOM     66  N   UNL A   1      40.922  31.080  34.846  1.00  0.00    -0.248 NA
ATOM     67  C   UNL A   1      41.476  31.773  37.005  1.00  0.00     0.031 C 
ATOM     68  C   UNL A   1      42.873  27.721  32.703  1.00  0.00     0.029 A 
ATOM     69  C   UNL A   1      42.265  28.747  33.406  1.00  0.00     0.049 A 
ATOM     70  H   UNL A   1      40.659  29.988  32.824  1.00  0.00     0.167 HD
ATOM     71  C   UNL A   1      41.954  30.285  35.326  1.00  0.00     0.074 A 
ATOM     72  C   UNL A   1      42.281  30.782  36.647  1.00  0.00     0.031 C 
ATOM     73  C   UNL A   1      42.569  29.234  34.729  1.00  0.00     0.037 A 
BRANCH  60  74
ATOM     74  C   UNL A   1      40.375  27.898  29.110  1.00  0.00     0.064 A 
ATOM     75  C   UNL A   1      39.643  26.704  29.024  1.00  0.00     0.173 A 
ATOM     76  C   UNL A   1      41.137  28.281  27.996  1.00  0.00     0.173 A 
ATOM     77  F   UNL A   1      38.907  26.288  30.065  1.00  0.00    -0.203 F 
ATOM     78  C   UNL A   1      39.684  25.918  27.875  1.00  0.00     0.198 A 
ATOM     79  C   UNL A   1      41.155  27.507  26.839  1.00  0.00     0.198 A 
ATOM     80  F   UNL A   1      41.850  29.416  28.023  1.00  0.00    -0.203 F 
ATOM     81  F   UNL A   1      39.003  24.765  27.829  1.00  0.00    -0.200 F 
ATOM     82  C   UNL A   1      40.432  26.325  26.780  1.00  0.00     0.200 A 
ATOM     83  F   UNL A   1      41.867  27.907  25.777  1.00  0.00    -0.200 F 
ATOM     84  F   UNL A   1      40.460  25.575  25.670  1.00  0.00    -0.200 F 
ENDBRANCH  60  74
BRANCH  61  85
ATOM     85  C   UNL A   1      39.520  33.954  36.992  1.00  0.00     0.064 A 
ATOM     86  C   UNL A   1      40.184  35.188  37.008  1.00  0.00     0.173 A 
ATOM     87  C   UNL A   1      38.738  33.617  38.106  1.00  0.00     0.173 A 
ATOM     88  F   UNL A   1      40.962  35.542  35.975  1.00  0.00    -0.203 F 
ATOM     89  C   UNL A   1      40.076  36.048  38.098  1.00  0.00     0.198 A 
ATOM     90  C   UNL A   1      38.608  34.491  39.184  1.00  0.00     0.198 A 
ATOM     91  F   UNL A   1      38.081  32.449  38.138  1.00  0.00    -0.203 F 
ATOM     92  F   UNL A   1      40.751  37.205  38.104  1.00  0.00    -0.200 F 
ATOM     93  C   UNL A   1      39.281  35.703  39.182  1.00  0.00     0.200 A 
ATOM     94  F   UNL A   1      37.829  34.160  40.221  1.00  0.00    -0.200 F 
ATOM     95  F   UNL A   1      39.170  36.536  40.225  1.00  0.00    -0.200 F 
ENDBRANCH  61  85
BRANCH  73  96
ATOM     96  C   UNL A   1      43.656  28.545  35.504  1.00  0.00     0.064 A 
ATOM     97  C   UNL A   1      45.004  28.908  35.355  1.00  0.00     0.173 A 
ATOM     98  C   UNL A   1      43.349  27.537  36.431  1.00  0.00     0.173 A 
ATOM     99  F   UNL A   1      45.354  29.856  34.473  1.00  0.00    -0.203 F 
ATOM    100  C   UNL A   1      46.004  28.267  36.082  1.00  0.00     0.198 A 
ATOM    101  C   UNL A   1      44.348  26.922  37.180  1.00  0.00     0.198 A 
ATOM    102  F   UNL A   1      42.076  27.156  36.618  1.00  0.00    -0.203 F 
ATOM    103  F   UNL A   1      47.288  28.594  35.883  1.00  0.00    -0.200 F 
ATOM    104  C   UNL A   1      45.675  27.280  36.998  1.00  0.00     0.200 A 
ATOM    105  F   UNL A   1      44.027  25.978  38.076  1.00  0.00    -0.200 F 
ATOM    106  F   UNL A   1      46.638  26.668  37.701  1.00  0.00    -0.200 F 
ENDBRANCH  73  96
ENDBRANCH  47  48
ENDBRANCH  40  42
ENDBRANCH  39  40
ENDBRANCH  38  39
ENDBRANCH  37  38
ENDBRANCH  36  37
ENDBRANCH   1  36
TORSDOF 20
ENDMDL
MODEL 3
REMARK VINA RESULT:     -13.0      5.014      9.821
REMARK SMILES C[C@H]1c2ccc(O)cc2OC(=O)[C@@H]1CC(=O)N[C@@H](CC1=c2ccccc2=NC1)C(=O)OCCOCCOC(=O)c1ccc(-c2c3nc(c(-c4c(F)c(F)c(F)c(F)c4F)c4ccc([nH]4)c(-c4c(F)c(F)c(F)c(F)c4F)c4nc(c(-c5c(F)c(F)c(F)c(F)c5F)c5ccc2[nH]5)C=C4)C=C3)cc1
REMARK SMILES IDX 33 1 32 2 31 3 29 4 30 5 18 6 17 7 15 8 16 9 14 11 13 12
REMARK SMILES IDX 1 13 2 14 3 15 4 16 9 17 11 18 5 19 8 20 10 21 12 22 6 23
REMARK SMILES IDX 7 24 19 26 20 27 21 28 28 29 22 30 26 31 27 32 23 33 25 34
REMARK SMILES IDX 24 35 34 36 35 37 36 38 37 39 38 40 39 41 40 42 41 43 102 44
REMARK SMILES IDX 42 45 101 46 43 47 44 48 45 49 95 50 46 51 100 52 94 53
REMARK SMILES IDX 96 54 47 55 99 56 93 57 92 58 48 60 80 61 60 62 79 63 61 64
REMARK SMILES IDX 64 65 78 66 97 67 62 68 63 69 77 71 98 72 65 73 49 74 50 75
REMARK SMILES IDX 58 76 51 77 52 78 56 79 59 80 53 81 54 82 57 83 55 84 81 85
REMARK SMILES IDX 82 86 90 87 83 88 84 89 88 90 91 91 85 92 86 93 89 94 87 95
REMARK SMILES IDX 66 96 67 97 75 98 68 99 69 100 73 101 76 102 70 103 71 104
REMARK SMILES IDX 74 105 72 106
REMARK H PARENT 17 10 7 25 96 59 64 70
REMARK Flexibility Score: inf
ROOT
ATOM      1  C   UNL A   1      38.484  23.503  26.240  1.00  0.00     0.202 C 
ENDROOT
BRANCH   1   2
ATOM      2  C   UNL A   1      37.391  23.666  25.179  1.00  0.00     0.261 C 
BRANCH   2   3
ATOM      3  O   UNL A   1      36.187  24.230  25.721  1.00  0.00    -0.462 OA
BRANCH   3   4
ATOM      4  C   UNL A   1      35.229  23.313  25.998  1.00  0.00     0.329 C 
ATOM      5  O   UNL A   1      34.931  22.931  27.126  1.00  0.00    -0.250 OA
BRANCH   4   6
ATOM      6  C   UNL A   1      34.513  22.775  24.764  1.00  0.00     0.196 C 
BRANCH   6   7
ATOM      7  N   UNL A   1      34.356  23.542  23.520  1.00  0.00    -0.342 N 
ATOM      8  C   UNL A   1      33.429  24.512  23.236  1.00  0.00     0.221 C 
ATOM      9  O   UNL A   1      33.169  24.751  22.057  1.00  0.00    -0.275 OA
ATOM     10  H   UNL A   1      34.995  23.333  22.800  1.00  0.00     0.164 HD
BRANCH   8  11
ATOM     11  C   UNL A   1      32.840  25.380  24.349  1.00  0.00     0.116 C 
BRANCH  11  12
ATOM     12  C   UNL A   1      31.305  25.361  24.554  1.00  0.00     0.116 C 
ATOM     13  C   UNL A   1      29.089  26.601  24.198  1.00  0.00     0.014 C 
ATOM     14  C   UNL A   1      30.622  26.700  24.164  1.00  0.00     0.034 C 
ATOM     15  C   UNL A   1      31.108  27.781  25.104  1.00  0.00    -0.001 A 
ATOM     16  C   UNL A   1      31.181  29.124  24.723  1.00  0.00     0.011 A 
ATOM     17  C   UNL A   1      31.557  27.426  26.379  1.00  0.00     0.138 A 
ATOM     18  C   UNL A   1      30.915  25.152  25.995  1.00  0.00     0.315 C 
ATOM     19  C   UNL A   1      31.775  30.062  25.574  1.00  0.00     0.047 A 
ATOM     20  C   UNL A   1      32.190  28.337  27.217  1.00  0.00     0.093 A 
ATOM     21  O   UNL A   1      31.360  26.127  26.874  1.00  0.00    -0.426 OA
ATOM     22  O   UNL A   1      30.265  24.189  26.382  1.00  0.00    -0.251 OA
ATOM     23  C   UNL A   1      32.306  29.652  26.796  1.00  0.00     0.119 A 
BRANCH  23  24
ATOM     24  O   UNL A   1      32.948  30.526  27.622  1.00  0.00    -0.508 OA
ATOM     25  H   UNL A   1      33.875  30.461  27.744  1.00  0.00     0.293 HD
ENDBRANCH  23  24
ENDBRANCH  11  12
ENDBRANCH   8  11
ENDBRANCH   6   7
BRANCH   6  26
ATOM     26  C   UNL A   1      35.088  21.376  24.484  1.00  0.00     0.070 C 
BRANCH  26  27
ATOM     27  C   UNL A   1      34.464  20.125  25.114  1.00  0.00    -0.037 C 
ATOM     28  C   UNL A   1      34.351  19.005  24.387  1.00  0.00     0.001 A 
ATOM     29  C   UNL A   1      33.065  20.487  25.597  1.00  0.00     0.174 C 
ATOM     30  C   UNL A   1      34.839  17.672  24.626  1.00  0.00     0.010 A 
ATOM     31  C   UNL A   1      32.925  19.069  23.978  1.00  0.00     0.065 A 
ATOM     32  N   UNL A   1      32.153  19.913  24.583  1.00  0.00    -0.280 NA
ATOM     33  C   UNL A   1      34.265  16.676  23.926  1.00  0.00     0.001 A 
ATOM     34  C   UNL A   1      32.562  18.110  22.919  1.00  0.00     0.028 A 
ATOM     35  C   UNL A   1      33.259  16.960  22.909  1.00  0.00     0.002 A 
ENDBRANCH  26  27
ENDBRANCH   6  26
ENDBRANCH   4   6
ENDBRANCH   3   4
ENDBRANCH   2   3
ENDBRANCH   1   2
BRANCH   1  36
ATOM     36  O   UNL A   1      39.003  22.194  26.444  1.00  0.00    -0.374 OA
BRANCH  36  37
ATOM     37  C   UNL A   1      38.452  21.110  25.695  1.00  0.00     0.202 C 
BRANCH  37  38
ATOM     38  C   UNL A   1      39.315  19.859  25.466  1.00  0.00     0.261 C 
BRANCH  38  39
ATOM     39  O   UNL A   1      40.198  19.559  26.566  1.00  0.00    -0.460 OA
BRANCH  39  40
ATOM     40  C   UNL A   1      41.518  19.524  26.256  1.00  0.00     0.338 C 
ATOM     41  O   UNL A   1      42.139  18.606  25.749  1.00  0.00    -0.246 OA
BRANCH  40  42
ATOM     42  C   UNL A   1      42.118  20.852  26.463  1.00  0.00     0.060 A 
ATOM     43  C   UNL A   1      42.359  21.694  25.379  1.00  0.00     0.016 A 
ATOM     44  C   UNL A   1      42.313  21.306  27.773  1.00  0.00     0.016 A 
ATOM     45  C   UNL A   1      42.789  23.004  25.615  1.00  0.00     0.010 A 
ATOM     46  C   UNL A   1      42.761  22.607  28.004  1.00  0.00     0.010 A 
ATOM     47  C   UNL A   1      43.000  23.469  26.925  1.00  0.00    -0.014 A 
BRANCH  47  48
ATOM     48  C   UNL A   1      43.384  24.882  27.174  1.00  0.00     0.031 A 
ATOM     49  C   UNL A   1      42.406  25.864  27.751  1.00  0.00     0.074 A 
ATOM     50  C   UNL A   1      44.626  25.285  26.845  1.00  0.00     0.049 A 
ATOM     51  N   UNL A   1      42.587  27.121  28.068  1.00  0.00    -0.248 NA
ATOM     52  C   UNL A   1      41.046  25.370  28.004  1.00  0.00     0.031 C 
ATOM     53  C   UNL A   1      45.653  24.434  26.246  1.00  0.00     0.029 A 
ATOM     54  N   UNL A   1      45.233  26.510  26.965  1.00  0.00    -0.354 N 
ATOM     55  C   UNL A   1      41.376  27.563  28.581  1.00  0.00     0.074 A 
ATOM     56  C   UNL A   1      40.450  26.452  28.489  1.00  0.00     0.031 C 
ATOM     57  C   UNL A   1      46.770  25.155  26.068  1.00  0.00     0.029 A 
ATOM     58  C   UNL A   1      46.529  26.525  26.513  1.00  0.00     0.049 A 
ATOM     59  H   UNL A   1      44.782  27.301  27.340  1.00  0.00     0.167 HD
ATOM     60  C   UNL A   1      41.069  28.779  29.095  1.00  0.00     0.037 A 
ATOM     61  C   UNL A   1      47.422  27.531  26.462  1.00  0.00     0.037 A 
ATOM     62  C   UNL A   1      41.982  29.894  29.151  1.00  0.00     0.049 A 
ATOM     63  C   UNL A   1      47.036  28.889  26.981  1.00  0.00     0.074 A 
ATOM     64  C   UNL A   1      41.769  31.158  29.675  1.00  0.00     0.029 A 
ATOM     65  N   UNL A   1      43.275  29.886  28.646  1.00  0.00    -0.354 N 
ATOM     66  N   UNL A   1      45.911  29.275  27.530  1.00  0.00    -0.248 NA
ATOM     67  C   UNL A   1      48.048  29.948  26.876  1.00  0.00     0.031 C 
ATOM     68  C   UNL A   1      42.912  31.930  29.438  1.00  0.00     0.029 A 
ATOM     69  C   UNL A   1      43.859  31.132  28.818  1.00  0.00     0.049 A 
ATOM     70  H   UNL A   1      43.712  29.110  28.229  1.00  0.00     0.167 HD
ATOM     71  C   UNL A   1      46.081  30.616  27.848  1.00  0.00     0.074 A 
ATOM     72  C   UNL A   1      47.431  30.967  27.457  1.00  0.00     0.031 C 
ATOM     73  C   UNL A   1      45.196  31.479  28.406  1.00  0.00     0.037 A 
BRANCH  60  74
ATOM     74  C   UNL A   1      39.685  28.975  29.645  1.00  0.00     0.064 A 
ATOM     75  C   UNL A   1      39.400  28.738  30.998  1.00  0.00     0.173 A 
ATOM     76  C   UNL A   1      38.652  29.467  28.834  1.00  0.00     0.173 A 
ATOM     77  F   UNL A   1      40.349  28.257  31.814  1.00  0.00    -0.203 F 
ATOM     78  C   UNL A   1      38.127  28.970  31.514  1.00  0.00     0.198 A 
ATOM     79  C   UNL A   1      37.388  29.724  29.358  1.00  0.00     0.198 A 
ATOM     80  F   UNL A   1      38.873  29.717  27.534  1.00  0.00    -0.203 F 
ATOM     81  F   UNL A   1      37.869  28.704  32.802  1.00  0.00    -0.200 F 
ATOM     82  C   UNL A   1      37.125  29.472  30.697  1.00  0.00     0.200 A 
ATOM     83  F   UNL A   1      36.425  30.221  28.571  1.00  0.00    -0.200 F 
ATOM     84  F   UNL A   1      35.905  29.708  31.197  1.00  0.00    -0.200 F 
ENDBRANCH  60  74
BRANCH  61  85
ATOM     85  C   UNL A   1      48.783  27.278  25.922  1.00  0.00     0.064 A 
ATOM     86  C   UNL A   1      49.828  26.879  26.767  1.00  0.00     0.173 A 
ATOM     87  C   UNL A   1      49.065  27.414  24.555  1.00  0.00     0.173 A 
ATOM     88  F   UNL A   1      49.612  26.758  28.085  1.00  0.00    -0.203 F 
ATOM     89  C   UNL A   1      51.105  26.634  26.267  1.00  0.00     0.198 A 
ATOM     90  C   UNL A   1      50.336  27.141  24.051  1.00  0.00     0.198 A 
ATOM     91  F   UNL A   1      48.099  27.791  23.705  1.00  0.00    -0.203 F 
ATOM     92  F   UNL A   1      52.093  26.290  27.103  1.00  0.00    -0.200 F 
ATOM     93  C   UNL A   1      51.355  26.757  24.908  1.00  0.00     0.200 A 
ATOM     94  F   UNL A   1      50.569  27.248  22.737  1.00  0.00    -0.200 F 
ATOM     95  F   UNL A   1      52.581  26.511  24.427  1.00  0.00    -0.200 F 
ENDBRANCH  61  85
BRANCH  73  96
ATOM     96  C   UNL A   1      45.659  32.892  28.622  1.00  0.00     0.064 A 
ATOM     97  C   UNL A   1      46.331  33.272  29.794  1.00  0.00     0.173 A 
ATOM     98  C   UNL A   1      45.462  33.870  27.634  1.00  0.00     0.173 A 
ATOM     99  F   UNL A   1      46.532  32.380  30.775  1.00  0.00    -0.203 F 
ATOM    100  C   UNL A   1      46.760  34.583  29.982  1.00  0.00     0.198 A 
ATOM    101  C   UNL A   1      45.922  35.172  27.812  1.00  0.00     0.198 A 
ATOM    102  F   UNL A   1      44.832  33.560  26.491  1.00  0.00    -0.203 F 
ATOM    103  F   UNL A   1      47.350  34.934  31.133  1.00  0.00    -0.200 F 
ATOM    104  C   UNL A   1      46.561  35.530  28.989  1.00  0.00     0.200 A 
ATOM    105  F   UNL A   1      45.744  36.082  26.845  1.00  0.00    -0.200 F 
ATOM    106  F   UNL A   1      46.981  36.790  29.169  1.00  0.00    -0.200 F 
ENDBRANCH  73  96
ENDBRANCH  47  48
ENDBRANCH  40  42
ENDBRANCH  39  40
ENDBRANCH  38  39
ENDBRANCH  37  38
ENDBRANCH  36  37
ENDBRANCH   1  36
TORSDOF 20
ENDMDL
