MODEL 1
REMARK VINA RESULT:     -12.1      0.000      0.000
REMARK SMILES CC(C)c1ccc(O[C@H](C)C(=O)Nc2cccc(C(=O)OCCOCCOC(=O)c3ccc(-c4c5nc(c(-c6c(F)c(F)c(F)c(F)c6F)c6ccc([nH]6)c(-c6c(F)c(F)c(F)c(F)c6F)c6nc(c(-c7c(F)c(F)c(F)c(F)c7F)c7ccc4[nH]7)C=C6)C=C5)cc3)c2)cc1
REMARK SMILES IDX 22 1 21 2 19 3 20 4 18 5 14 6 15 7 93 8 16 9 17 10 13 11
REMARK SMILES IDX 11 12 12 13 9 15 10 16 8 17 7 18 4 19 5 20 95 21 6 22 94 23
REMARK SMILES IDX 2 24 1 25 3 26 23 27 24 28 25 29 26 30 27 31 28 32 29 33
REMARK SMILES IDX 30 34 31 35 92 36 32 37 91 38 33 39 34 40 35 41 85 42 36 43
REMARK SMILES IDX 90 44 84 45 86 46 37 47 89 48 83 49 82 50 38 52 70 53 50 54
REMARK SMILES IDX 69 55 51 56 54 57 68 58 87 59 52 60 53 61 67 63 88 64 55 65
REMARK SMILES IDX 39 66 40 67 48 68 41 69 42 70 46 71 49 72 43 73 44 74 47 75
REMARK SMILES IDX 45 76 71 77 72 78 80 79 73 80 74 81 78 82 81 83 75 84 76 85
REMARK SMILES IDX 79 86 77 87 56 88 57 89 65 90 58 91 59 92 63 93 66 94 60 95
REMARK SMILES IDX 61 96 64 97 62 98
REMARK H PARENT 13 14 86 51 54 62
REMARK Flexibility Score: inf
ROOT
ATOM      1  C   UNL A   1      35.440  23.376  24.825  1.00  0.00     0.261 C 
ENDROOT
BRANCH   1   2
ATOM      2  O   UNL A   1      34.863  24.681  24.985  1.00  0.00    -0.460 OA
BRANCH   2   3
ATOM      3  C   UNL A   1      34.313  25.226  23.871  1.00  0.00     0.338 C 
ATOM      4  O   UNL A   1      34.236  24.697  22.768  1.00  0.00    -0.246 OA
BRANCH   3   5
ATOM      5  C   UNL A   1      33.680  26.535  24.176  1.00  0.00     0.062 A 
ATOM      6  C   UNL A   1      32.384  28.474  23.505  1.00  0.00     0.042 A 
ATOM      7  C   UNL A   1      32.441  28.952  24.817  1.00  0.00     0.026 A 
ATOM      8  C   UNL A   1      33.086  27.319  23.182  1.00  0.00     0.041 A 
ATOM      9  C   UNL A   1      33.079  28.206  25.812  1.00  0.00     0.003 A 
ATOM     10  C   UNL A   1      33.670  26.983  25.498  1.00  0.00     0.016 A 
BRANCH   6  11
ATOM     11  N   UNL A   1      31.620  29.192  22.572  1.00  0.00    -0.323 N 
ATOM     12  C   UNL A   1      30.276  29.189  22.296  1.00  0.00     0.265 C 
ATOM     13  O   UNL A   1      29.908  29.846  21.313  1.00  0.00    -0.270 OA
ATOM     14  H   UNL A   1      32.144  29.811  22.014  1.00  0.00     0.170 HD
BRANCH  12  15
ATOM     15  C   UNL A   1      29.218  28.457  23.166  1.00  0.00     0.259 C 
ATOM     16  C   UNL A   1      27.867  29.154  23.023  1.00  0.00     0.064 C 
BRANCH  15  17
ATOM     17  O   UNL A   1      29.385  27.052  23.038  1.00  0.00    -0.481 OA
BRANCH  17  18
ATOM     18  C   UNL A   1      29.919  26.149  23.892  1.00  0.00     0.120 A 
ATOM     19  C   UNL A   1      30.899  23.911  25.341  1.00  0.00    -0.045 A 
ATOM     20  C   UNL A   1      30.424  25.058  25.994  1.00  0.00     0.008 A 
ATOM     21  C   UNL A   1      30.917  23.918  23.945  1.00  0.00     0.008 A 
ATOM     22  C   UNL A   1      29.954  26.172  25.277  1.00  0.00     0.047 A 
ATOM     23  C   UNL A   1      30.436  25.024  23.237  1.00  0.00     0.047 A 
BRANCH  19  24
ATOM     24  C   UNL A   1      31.321  22.692  26.146  1.00  0.00     0.013 C 
ATOM     25  C   UNL A   1      31.943  21.628  25.236  1.00  0.00     0.012 C 
ATOM     26  C   UNL A   1      32.274  23.023  27.298  1.00  0.00     0.012 C 
ENDBRANCH  19  24
ENDBRANCH  17  18
ENDBRANCH  15  17
ENDBRANCH  12  15
ENDBRANCH   6  11
ENDBRANCH   3   5
ENDBRANCH   2   3
ENDBRANCH   1   2
BRANCH   1  27
ATOM     27  C   UNL A   1      35.532  22.625  26.157  1.00  0.00     0.202 C 
BRANCH  27  28
ATOM     28  O   UNL A   1      35.543  21.200  26.087  1.00  0.00    -0.374 OA
BRANCH  28  29
ATOM     29  C   UNL A   1      36.130  20.605  24.931  1.00  0.00     0.202 C 
BRANCH  29  30
ATOM     30  C   UNL A   1      37.619  20.255  25.021  1.00  0.00     0.261 C 
BRANCH  30  31
ATOM     31  O   UNL A   1      38.442  21.408  25.267  1.00  0.00    -0.460 OA
BRANCH  31  32
ATOM     32  C   UNL A   1      39.456  21.190  26.134  1.00  0.00     0.338 C 
ATOM     33  O   UNL A   1      40.070  20.144  26.314  1.00  0.00    -0.246 OA
BRANCH  32  34
ATOM     34  C   UNL A   1      39.864  22.449  26.779  1.00  0.00     0.060 A 
ATOM     35  C   UNL A   1      39.219  23.621  26.363  1.00  0.00     0.016 A 
ATOM     36  C   UNL A   1      40.916  22.504  27.697  1.00  0.00     0.016 A 
ATOM     37  C   UNL A   1      39.665  24.859  26.816  1.00  0.00     0.010 A 
ATOM     38  C   UNL A   1      41.365  23.749  28.148  1.00  0.00     0.010 A 
ATOM     39  C   UNL A   1      40.767  24.933  27.678  1.00  0.00    -0.014 A 
BRANCH  39  40
ATOM     40  C   UNL A   1      41.368  26.255  27.972  1.00  0.00     0.031 A 
ATOM     41  C   UNL A   1      42.763  26.553  27.495  1.00  0.00     0.074 A 
ATOM     42  C   UNL A   1      40.663  27.196  28.622  1.00  0.00     0.049 A 
ATOM     43  N   UNL A   1      43.472  27.645  27.628  1.00  0.00    -0.248 NA
ATOM     44  C   UNL A   1      43.451  25.471  26.772  1.00  0.00     0.031 C 
ATOM     45  C   UNL A   1      39.296  27.034  29.112  1.00  0.00     0.029 A 
ATOM     46  N   UNL A   1      41.004  28.475  28.984  1.00  0.00    -0.354 N 
ATOM     47  C   UNL A   1      44.687  27.381  27.011  1.00  0.00     0.074 A 
ATOM     48  C   UNL A   1      44.633  26.017  26.532  1.00  0.00     0.031 C 
ATOM     49  C   UNL A   1      38.916  28.170  29.721  1.00  0.00     0.029 A 
ATOM     50  C   UNL A   1      40.020  29.126  29.683  1.00  0.00     0.049 A 
ATOM     51  H   UNL A   1      41.871  28.884  28.764  1.00  0.00     0.167 HD
ATOM     52  C   UNL A   1      45.750  28.207  26.851  1.00  0.00     0.037 A 
ATOM     53  C   UNL A   1      40.019  30.353  30.241  1.00  0.00     0.037 A 
ATOM     54  C   UNL A   1      45.800  29.566  27.326  1.00  0.00     0.049 A 
ATOM     55  C   UNL A   1      41.229  31.235  30.093  1.00  0.00     0.074 A 
ATOM     56  C   UNL A   1      46.813  30.497  27.174  1.00  0.00     0.029 A 
ATOM     57  N   UNL A   1      44.796  30.184  28.057  1.00  0.00    -0.354 N 
ATOM     58  N   UNL A   1      42.356  30.997  29.468  1.00  0.00    -0.248 NA
ATOM     59  C   UNL A   1      41.163  32.561  30.724  1.00  0.00     0.031 C 
ATOM     60  C   UNL A   1      46.443  31.660  27.859  1.00  0.00     0.029 A 
ATOM     61  C   UNL A   1      45.179  31.472  28.394  1.00  0.00     0.049 A 
ATOM     62  H   UNL A   1      43.937  29.767  28.301  1.00  0.00     0.167 HD
ATOM     63  C   UNL A   1      43.125  32.145  29.612  1.00  0.00     0.074 A 
ATOM     64  C   UNL A   1      42.327  33.086  30.370  1.00  0.00     0.031 C 
ATOM     65  C   UNL A   1      44.377  32.396  29.157  1.00  0.00     0.037 A 
BRANCH  52  66
ATOM     66  C   UNL A   1      46.957  27.651  26.154  1.00  0.00     0.064 A 
ATOM     67  C   UNL A   1      47.997  27.029  26.860  1.00  0.00     0.173 A 
ATOM     68  C   UNL A   1      47.065  27.725  24.757  1.00  0.00     0.173 A 
ATOM     69  F   UNL A   1      47.949  26.944  28.199  1.00  0.00    -0.203 F 
ATOM     70  C   UNL A   1      49.115  26.529  26.196  1.00  0.00     0.198 A 
ATOM     71  C   UNL A   1      48.171  27.199  24.094  1.00  0.00     0.198 A 
ATOM     72  F   UNL A   1      46.096  28.306  24.033  1.00  0.00    -0.203 F 
ATOM     73  F   UNL A   1      50.120  25.984  26.895  1.00  0.00    -0.200 F 
ATOM     74  C   UNL A   1      49.199  26.609  24.814  1.00  0.00     0.200 A 
ATOM     75  F   UNL A   1      48.244  27.268  22.758  1.00  0.00    -0.200 F 
ATOM     76  F   UNL A   1      50.274  26.126  24.177  1.00  0.00    -0.200 F 
ENDBRANCH  52  66
BRANCH  53  77
ATOM     77  C   UNL A   1      38.825  30.812  30.997  1.00  0.00     0.064 A 
ATOM     78  C   UNL A   1      37.745  31.419  30.345  1.00  0.00     0.173 A 
ATOM     79  C   UNL A   1      38.740  30.642  32.387  1.00  0.00     0.173 A 
ATOM     80  F   UNL A   1      37.791  31.623  29.021  1.00  0.00    -0.203 F 
ATOM     81  C   UNL A   1      36.625  31.847  31.056  1.00  0.00     0.198 A 
ATOM     82  C   UNL A   1      37.610  31.046  33.093  1.00  0.00     0.198 A 
ATOM     83  F   UNL A   1      39.749  30.064  33.056  1.00  0.00    -0.203 F 
ATOM     84  F   UNL A   1      35.618  32.455  30.415  1.00  0.00    -0.200 F 
ATOM     85  C   UNL A   1      36.556  31.653  32.428  1.00  0.00     0.200 A 
ATOM     86  F   UNL A   1      37.542  30.845  34.416  1.00  0.00    -0.200 F 
ATOM     87  F   UNL A   1      35.474  32.055  33.110  1.00  0.00    -0.200 F 
ENDBRANCH  53  77
BRANCH  65  88
ATOM     88  C   UNL A   1      44.958  33.749  29.452  1.00  0.00     0.064 A 
ATOM     89  C   UNL A   1      45.739  33.980  30.594  1.00  0.00     0.173 A 
ATOM     90  C   UNL A   1      44.759  34.819  28.564  1.00  0.00     0.173 A 
ATOM     91  F   UNL A   1      45.946  32.995  31.481  1.00  0.00    -0.203 F 
ATOM     92  C   UNL A   1      46.278  35.239  30.850  1.00  0.00     0.198 A 
ATOM     93  C   UNL A   1      45.324  36.068  28.809  1.00  0.00     0.198 A 
ATOM     94  F   UNL A   1      44.026  34.649  27.455  1.00  0.00    -0.203 F 
ATOM     95  F   UNL A   1      46.980  35.449  31.972  1.00  0.00    -0.200 F 
ATOM     96  C   UNL A   1      46.076  36.279  29.955  1.00  0.00     0.200 A 
ATOM     97  F   UNL A   1      45.138  37.068  27.936  1.00  0.00    -0.200 F 
ATOM     98  F   UNL A   1      46.599  37.487  30.201  1.00  0.00    -0.200 F 
ENDBRANCH  65  88
ENDBRANCH  39  40
ENDBRANCH  32  34
ENDBRANCH  31  32
ENDBRANCH  30  31
ENDBRANCH  29  30
ENDBRANCH  28  29
ENDBRANCH  27  28
ENDBRANCH   1  27
TORSDOF 19
ENDMDL
MODEL 2
REMARK VINA RESULT:     -11.9      0.558      7.091
REMARK SMILES CC(C)c1ccc(O[C@H](C)C(=O)Nc2cccc(C(=O)OCCOCCOC(=O)c3ccc(-c4c5nc(c(-c6c(F)c(F)c(F)c(F)c6F)c6ccc([nH]6)c(-c6c(F)c(F)c(F)c(F)c6F)c6nc(c(-c7c(F)c(F)c(F)c(F)c7F)c7ccc4[nH]7)C=C6)C=C5)cc3)c2)cc1
REMARK SMILES IDX 22 1 21 2 19 3 20 4 18 5 14 6 15 7 93 8 16 9 17 10 13 11
REMARK SMILES IDX 11 12 12 13 9 15 10 16 8 17 7 18 4 19 5 20 95 21 6 22 94 23
REMARK SMILES IDX 2 24 1 25 3 26 23 27 24 28 25 29 26 30 27 31 28 32 29 33
REMARK SMILES IDX 30 34 31 35 92 36 32 37 91 38 33 39 34 40 35 41 85 42 36 43
REMARK SMILES IDX 90 44 84 45 86 46 37 47 89 48 83 49 82 50 38 52 70 53 50 54
REMARK SMILES IDX 69 55 51 56 54 57 68 58 87 59 52 60 53 61 67 63 88 64 55 65
REMARK SMILES IDX 39 66 40 67 48 68 41 69 42 70 46 71 49 72 43 73 44 74 47 75
REMARK SMILES IDX 45 76 71 77 72 78 80 79 73 80 74 81 78 82 81 83 75 84 76 85
REMARK SMILES IDX 79 86 77 87 56 88 57 89 65 90 58 91 59 92 63 93 66 94 60 95
REMARK SMILES IDX 61 96 64 97 62 98
REMARK H PARENT 13 14 86 51 54 62
REMARK Flexibility Score: inf
ROOT
ATOM      1  C   UNL A   1      34.890  23.289  24.508  1.00  0.00     0.261 C 
ENDROOT
BRANCH   1   2
ATOM      2  O   UNL A   1      34.314  24.596  24.666  1.00  0.00    -0.460 OA
BRANCH   2   3
ATOM      3  C   UNL A   1      34.080  25.283  23.520  1.00  0.00     0.338 C 
ATOM      4  O   UNL A   1      34.147  24.835  22.381  1.00  0.00    -0.246 OA
BRANCH   3   5
ATOM      5  C   UNL A   1      33.593  26.655  23.813  1.00  0.00     0.062 A 
ATOM      6  C   UNL A   1      32.316  28.629  23.207  1.00  0.00     0.042 A 
ATOM      7  C   UNL A   1      32.642  29.202  24.440  1.00  0.00     0.026 A 
ATOM      8  C   UNL A   1      32.876  27.402  22.871  1.00  0.00     0.041 A 
ATOM      9  C   UNL A   1      33.404  28.490  25.370  1.00  0.00     0.003 A 
ATOM     10  C   UNL A   1      33.852  27.205  25.069  1.00  0.00     0.016 A 
BRANCH   6  11
ATOM     11  N   UNL A   1      31.440  29.327  22.363  1.00  0.00    -0.323 N 
ATOM     12  C   UNL A   1      30.078  29.269  22.210  1.00  0.00     0.265 C 
ATOM     13  O   UNL A   1      29.593  29.926  21.278  1.00  0.00    -0.270 OA
ATOM     14  H   UNL A   1      31.884  29.979  21.773  1.00  0.00     0.170 HD
BRANCH  12  15
ATOM     15  C   UNL A   1      29.136  28.476  23.157  1.00  0.00     0.259 C 
ATOM     16  C   UNL A   1      27.739  29.090  23.121  1.00  0.00     0.064 C 
BRANCH  15  17
ATOM     17  O   UNL A   1      29.378  27.083  23.012  1.00  0.00    -0.481 OA
BRANCH  17  18
ATOM     18  C   UNL A   1      29.938  26.195  23.864  1.00  0.00     0.120 A 
ATOM     19  C   UNL A   1      30.896  23.979  25.363  1.00  0.00    -0.045 A 
ATOM     20  C   UNL A   1      30.620  25.213  25.971  1.00  0.00     0.008 A 
ATOM     21  C   UNL A   1      30.725  23.884  23.980  1.00  0.00     0.008 A 
ATOM     22  C   UNL A   1      30.162  26.315  25.226  1.00  0.00     0.047 A 
ATOM     23  C   UNL A   1      30.256  24.978  23.247  1.00  0.00     0.047 A 
BRANCH  19  24
ATOM     24  C   UNL A   1      31.309  22.785  26.208  1.00  0.00     0.013 C 
ATOM     25  C   UNL A   1      31.778  21.628  25.321  1.00  0.00     0.012 C 
ATOM     26  C   UNL A   1      32.380  23.119  27.250  1.00  0.00     0.012 C 
ENDBRANCH  19  24
ENDBRANCH  17  18
ENDBRANCH  15  17
ENDBRANCH  12  15
ENDBRANCH   6  11
ENDBRANCH   3   5
ENDBRANCH   2   3
ENDBRANCH   1   2
BRANCH   1  27
ATOM     27  C   UNL A   1      35.755  22.897  25.710  1.00  0.00     0.202 C 
BRANCH  27  28
ATOM     28  O   UNL A   1      35.782  21.513  26.051  1.00  0.00    -0.374 OA
BRANCH  28  29
ATOM     29  C   UNL A   1      36.128  20.590  25.020  1.00  0.00     0.202 C 
BRANCH  29  30
ATOM     30  C   UNL A   1      37.580  20.102  24.994  1.00  0.00     0.261 C 
BRANCH  30  31
ATOM     31  O   UNL A   1      38.524  21.173  25.159  1.00  0.00    -0.460 OA
BRANCH  31  32
ATOM     32  C   UNL A   1      39.449  20.954  26.120  1.00  0.00     0.338 C 
ATOM     33  O   UNL A   1      39.942  19.881  26.449  1.00  0.00    -0.246 OA
BRANCH  32  34
ATOM     34  C   UNL A   1      39.932  22.231  26.672  1.00  0.00     0.060 A 
ATOM     35  C   UNL A   1      39.377  23.406  26.151  1.00  0.00     0.016 A 
ATOM     36  C   UNL A   1      40.971  22.288  27.605  1.00  0.00     0.016 A 
ATOM     37  C   UNL A   1      39.901  24.643  26.513  1.00  0.00     0.010 A 
ATOM     38  C   UNL A   1      41.498  23.532  27.966  1.00  0.00     0.010 A 
ATOM     39  C   UNL A   1      40.992  24.712  27.390  1.00  0.00    -0.014 A 
BRANCH  39  40
ATOM     40  C   UNL A   1      41.678  26.010  27.591  1.00  0.00     0.031 A 
ATOM     41  C   UNL A   1      40.979  27.101  28.354  1.00  0.00     0.074 A 
ATOM     42  C   UNL A   1      42.926  26.200  27.133  1.00  0.00     0.049 A 
ATOM     43  N   UNL A   1      41.399  28.303  28.658  1.00  0.00    -0.248 NA
ATOM     44  C   UNL A   1      39.623  26.796  28.837  1.00  0.00     0.031 C 
ATOM     45  C   UNL A   1      43.714  25.210  26.402  1.00  0.00     0.029 A 
ATOM     46  N   UNL A   1      43.748  27.296  27.215  1.00  0.00    -0.354 N 
ATOM     47  C   UNL A   1      40.360  28.897  29.362  1.00  0.00     0.074 A 
ATOM     48  C   UNL A   1      39.279  27.938  29.413  1.00  0.00     0.031 C 
ATOM     49  C   UNL A   1      44.906  25.748  26.092  1.00  0.00     0.029 A 
ATOM     50  C   UNL A   1      44.954  27.123  26.583  1.00  0.00     0.049 A 
ATOM     51  H   UNL A   1      43.498  28.124  27.683  1.00  0.00     0.167 HD
ATOM     52  C   UNL A   1      40.318  30.130  29.925  1.00  0.00     0.037 A 
ATOM     53  C   UNL A   1      45.974  27.986  26.409  1.00  0.00     0.037 A 
ATOM     54  C   UNL A   1      41.397  31.082  29.876  1.00  0.00     0.049 A 
ATOM     55  C   UNL A   1      45.884  29.368  26.999  1.00  0.00     0.074 A 
ATOM     56  C   UNL A   1      41.467  32.338  30.452  1.00  0.00     0.029 A 
ATOM     57  N   UNL A   1      42.593  30.885  29.200  1.00  0.00    -0.354 N 
ATOM     58  N   UNL A   1      44.919  29.906  27.705  1.00  0.00    -0.248 NA
ATOM     59  C   UNL A   1      47.031  30.260  26.775  1.00  0.00     0.031 C 
ATOM     60  C   UNL A   1      42.683  32.922  30.079  1.00  0.00     0.029 A 
ATOM     61  C   UNL A   1      43.394  32.010  29.315  1.00  0.00     0.049 A 
ATOM     62  H   UNL A   1      42.836  30.065  28.710  1.00  0.00     0.167 HD
ATOM     63  C   UNL A   1      45.346  31.189  28.025  1.00  0.00     0.074 A 
ATOM     64  C   UNL A   1      46.667  31.341  27.450  1.00  0.00     0.031 C 
ATOM     65  C   UNL A   1      44.703  32.151  28.730  1.00  0.00     0.037 A 
BRANCH  52  66
ATOM     66  C   UNL A   1      39.048  30.528  30.618  1.00  0.00     0.064 A 
ATOM     67  C   UNL A   1      37.952  31.046  29.915  1.00  0.00     0.173 A 
ATOM     68  C   UNL A   1      38.920  30.370  32.007  1.00  0.00     0.173 A 
ATOM     69  F   UNL A   1      38.027  31.230  28.587  1.00  0.00    -0.203 F 
ATOM     70  C   UNL A   1      36.785  31.421  30.579  1.00  0.00     0.198 A 
ATOM     71  C   UNL A   1      37.743  30.718  32.664  1.00  0.00     0.198 A 
ATOM     72  F   UNL A   1      39.937  29.874  32.728  1.00  0.00    -0.203 F 
ATOM     73  F   UNL A   1      35.769  31.961  29.893  1.00  0.00    -0.200 F 
ATOM     74  C   UNL A   1      36.680  31.251  31.951  1.00  0.00     0.200 A 
ATOM     75  F   UNL A   1      37.640  30.544  33.989  1.00  0.00    -0.200 F 
ATOM     76  F   UNL A   1      35.557  31.610  32.588  1.00  0.00    -0.200 F 
ENDBRANCH  52  66
BRANCH  53  77
ATOM     77  C   UNL A   1      47.167  27.562  25.633  1.00  0.00     0.064 A 
ATOM     78  C   UNL A   1      47.215  27.708  24.241  1.00  0.00     0.173 A 
ATOM     79  C   UNL A   1      48.288  27.012  26.273  1.00  0.00     0.173 A 
ATOM     80  F   UNL A   1      46.159  28.208  23.584  1.00  0.00    -0.203 F 
ATOM     81  C   UNL A   1      48.337  27.311  23.515  1.00  0.00     0.198 A 
ATOM     82  C   UNL A   1      49.418  26.639  25.550  1.00  0.00     0.198 A 
ATOM     83  F   UNL A   1      48.290  26.853  27.605  1.00  0.00    -0.203 F 
ATOM     84  F   UNL A   1      48.347  27.430  22.182  1.00  0.00    -0.200 F 
ATOM     85  C   UNL A   1      49.440  26.785  24.172  1.00  0.00     0.200 A 
ATOM     86  F   UNL A   1      50.486  26.144  26.191  1.00  0.00    -0.200 F 
ATOM     87  F   UNL A   1      50.523  26.413  23.475  1.00  0.00    -0.200 F 
ENDBRANCH  53  77
BRANCH  65  88
ATOM     88  C   UNL A   1      45.426  33.452  28.935  1.00  0.00     0.064 A 
ATOM     89  C   UNL A   1      46.294  33.647  30.019  1.00  0.00     0.173 A 
ATOM     90  C   UNL A   1      45.274  34.503  28.017  1.00  0.00     0.173 A 
ATOM     91  F   UNL A   1      46.462  32.679  30.932  1.00  0.00    -0.203 F 
ATOM     92  C   UNL A   1      46.964  34.856  30.191  1.00  0.00     0.198 A 
ATOM     93  C   UNL A   1      45.968  35.700  28.177  1.00  0.00     0.198 A 
ATOM     94  F   UNL A   1      44.462  34.366  26.960  1.00  0.00    -0.203 F 
ATOM     95  F   UNL A   1      47.752  35.037  31.261  1.00  0.00    -0.200 F 
ATOM     96  C   UNL A   1      46.806  35.878  29.267  1.00  0.00     0.200 A 
ATOM     97  F   UNL A   1      45.824  36.681  27.276  1.00  0.00    -0.200 F 
ATOM     98  F   UNL A   1      47.455  37.038  29.432  1.00  0.00    -0.200 F 
ENDBRANCH  65  88
ENDBRANCH  39  40
ENDBRANCH  32  34
ENDBRANCH  31  32
ENDBRANCH  30  31
ENDBRANCH  29  30
ENDBRANCH  28  29
ENDBRANCH  27  28
ENDBRANCH   1  27
TORSDOF 19
ENDMDL
MODEL 3
REMARK VINA RESULT:     -11.4      1.921      7.497
REMARK SMILES CC(C)c1ccc(O[C@H](C)C(=O)Nc2cccc(C(=O)OCCOCCOC(=O)c3ccc(-c4c5nc(c(-c6c(F)c(F)c(F)c(F)c6F)c6ccc([nH]6)c(-c6c(F)c(F)c(F)c(F)c6F)c6nc(c(-c7c(F)c(F)c(F)c(F)c7F)c7ccc4[nH]7)C=C6)C=C5)cc3)c2)cc1
REMARK SMILES IDX 22 1 21 2 19 3 20 4 18 5 14 6 15 7 93 8 16 9 17 10 13 11
REMARK SMILES IDX 11 12 12 13 9 15 10 16 8 17 7 18 4 19 5 20 95 21 6 22 94 23
REMARK SMILES IDX 2 24 1 25 3 26 23 27 24 28 25 29 26 30 27 31 28 32 29 33
REMARK SMILES IDX 30 34 31 35 92 36 32 37 91 38 33 39 34 40 35 41 85 42 36 43
REMARK SMILES IDX 90 44 84 45 86 46 37 47 89 48 83 49 82 50 38 52 70 53 50 54
REMARK SMILES IDX 69 55 51 56 54 57 68 58 87 59 52 60 53 61 67 63 88 64 55 65
REMARK SMILES IDX 39 66 40 67 48 68 41 69 42 70 46 71 49 72 43 73 44 74 47 75
REMARK SMILES IDX 45 76 71 77 72 78 80 79 73 80 74 81 78 82 81 83 75 84 76 85
REMARK SMILES IDX 79 86 77 87 56 88 57 89 65 90 58 91 59 92 63 93 66 94 60 95
REMARK SMILES IDX 61 96 64 97 62 98
REMARK H PARENT 13 14 86 51 54 62
REMARK Flexibility Score: inf
ROOT
ATOM      1  C   UNL A   1      37.038  23.242  25.376  1.00  0.00     0.261 C 
ENDROOT
BRANCH   1   2
ATOM      2  O   UNL A   1      35.712  23.779  25.240  1.00  0.00    -0.460 OA
BRANCH   2   3
ATOM      3  C   UNL A   1      34.790  23.309  26.118  1.00  0.00     0.338 C 
ATOM      4  O   UNL A   1      34.911  22.325  26.838  1.00  0.00    -0.246 OA
BRANCH   3   5
ATOM      5  C   UNL A   1      33.625  24.226  26.206  1.00  0.00     0.062 A 
ATOM      6  C   UNL A   1      32.564  26.362  25.752  1.00  0.00     0.042 A 
ATOM      7  C   UNL A   1      31.384  25.884  26.327  1.00  0.00     0.026 A 
ATOM      8  C   UNL A   1      33.698  25.558  25.786  1.00  0.00     0.041 A 
ATOM      9  C   UNL A   1      31.311  24.571  26.802  1.00  0.00     0.003 A 
ATOM     10  C   UNL A   1      32.421  23.733  26.712  1.00  0.00     0.016 A 
BRANCH   6  11
ATOM     11  N   UNL A   1      32.548  27.638  25.171  1.00  0.00    -0.323 N 
ATOM     12  C   UNL A   1      31.972  28.111  24.019  1.00  0.00     0.265 C 
ATOM     13  O   UNL A   1      32.244  29.276  23.697  1.00  0.00    -0.270 OA
ATOM     14  H   UNL A   1      33.040  28.320  25.684  1.00  0.00     0.170 HD
BRANCH  12  15
ATOM     15  C   UNL A   1      30.982  27.288  23.149  1.00  0.00     0.259 C 
ATOM     16  C   UNL A   1      29.861  28.198  22.652  1.00  0.00     0.064 C 
BRANCH  15  17
ATOM     17  O   UNL A   1      31.710  26.414  22.298  1.00  0.00    -0.481 OA
BRANCH  17  18
ATOM     18  C   UNL A   1      32.046  25.113  22.456  1.00  0.00     0.120 A 
ATOM     19  C   UNL A   1      32.437  22.395  23.186  1.00  0.00    -0.045 A 
ATOM     20  C   UNL A   1      33.453  23.145  22.574  1.00  0.00     0.008 A 
ATOM     21  C   UNL A   1      31.202  23.017  23.388  1.00  0.00     0.008 A 
ATOM     22  C   UNL A   1      33.254  24.486  22.198  1.00  0.00     0.047 A 
ATOM     23  C   UNL A   1      31.015  24.354  23.024  1.00  0.00     0.047 A 
BRANCH  19  24
ATOM     24  C   UNL A   1      32.711  20.976  23.655  1.00  0.00     0.013 C 
ATOM     25  C   UNL A   1      32.151  20.751  25.063  1.00  0.00     0.012 C 
ATOM     26  C   UNL A   1      32.180  19.905  22.699  1.00  0.00     0.012 C 
ENDBRANCH  19  24
ENDBRANCH  17  18
ENDBRANCH  15  17
ENDBRANCH  12  15
ENDBRANCH   6  11
ENDBRANCH   3   5
ENDBRANCH   2   3
ENDBRANCH   1   2
BRANCH   1  27
ATOM     27  C   UNL A   1      37.289  22.089  24.399  1.00  0.00     0.202 C 
BRANCH  27  28
ATOM     28  O   UNL A   1      37.134  20.769  24.917  1.00  0.00    -0.374 OA
BRANCH  28  29
ATOM     29  C   UNL A   1      38.304  19.959  25.008  1.00  0.00     0.202 C 
BRANCH  29  30
ATOM     30  C   UNL A   1      39.522  20.588  25.692  1.00  0.00     0.261 C 
BRANCH  30  31
ATOM     31  O   UNL A   1      40.208  19.664  26.554  1.00  0.00    -0.460 OA
BRANCH  31  32
ATOM     32  C   UNL A   1      41.503  19.458  26.226  1.00  0.00     0.338 C 
ATOM     33  O   UNL A   1      41.988  18.466  25.693  1.00  0.00    -0.246 OA
BRANCH  32  34
ATOM     34  C   UNL A   1      42.296  20.676  26.464  1.00  0.00     0.060 A 
ATOM     35  C   UNL A   1      42.304  21.191  27.766  1.00  0.00     0.016 A 
ATOM     36  C   UNL A   1      42.937  21.356  25.425  1.00  0.00     0.016 A 
ATOM     37  C   UNL A   1      42.901  22.422  28.023  1.00  0.00     0.010 A 
ATOM     38  C   UNL A   1      43.533  22.594  25.684  1.00  0.00     0.010 A 
ATOM     39  C   UNL A   1      43.482  23.151  26.976  1.00  0.00    -0.014 A 
BRANCH  39  40
ATOM     40  C   UNL A   1      43.911  24.548  27.218  1.00  0.00     0.031 A 
ATOM     41  C   UNL A   1      42.895  25.563  27.666  1.00  0.00     0.074 A 
ATOM     42  C   UNL A   1      45.199  24.900  27.079  1.00  0.00     0.049 A 
ATOM     43  N   UNL A   1      43.055  26.830  27.948  1.00  0.00    -0.248 NA
ATOM     44  C   UNL A   1      41.512  25.082  27.813  1.00  0.00     0.031 C 
ATOM     45  C   UNL A   1      46.278  24.002  26.674  1.00  0.00     0.029 A 
ATOM     46  N   UNL A   1      45.817  26.112  27.261  1.00  0.00    -0.354 N 
ATOM     47  C   UNL A   1      41.796  27.299  28.301  1.00  0.00     0.074 A 
ATOM     48  C   UNL A   1      40.878  26.189  28.167  1.00  0.00     0.031 C 
ATOM     49  C   UNL A   1      47.428  24.697  26.630  1.00  0.00     0.029 A 
ATOM     50  C   UNL A   1      47.160  26.090  26.979  1.00  0.00     0.049 A 
ATOM     51  H   UNL A   1      45.343  26.919  27.566  1.00  0.00     0.167 HD
ATOM     52  C   UNL A   1      41.442  28.541  28.711  1.00  0.00     0.037 A 
ATOM     53  C   UNL A   1      48.065  27.088  26.989  1.00  0.00     0.037 A 
ATOM     54  C   UNL A   1      42.359  29.643  28.847  1.00  0.00     0.049 A 
ATOM     55  C   UNL A   1      47.638  28.472  27.399  1.00  0.00     0.074 A 
ATOM     56  C   UNL A   1      42.105  30.928  29.296  1.00  0.00     0.029 A 
ATOM     57  N   UNL A   1      43.707  29.592  28.523  1.00  0.00    -0.354 N 
ATOM     58  N   UNL A   1      46.457  28.896  27.777  1.00  0.00    -0.248 NA
ATOM     59  C   UNL A   1      48.674  29.514  27.389  1.00  0.00     0.031 C 
ATOM     60  C   UNL A   1      43.287  31.668  29.192  1.00  0.00     0.029 A 
ATOM     61  C   UNL A   1      44.291  30.833  28.729  1.00  0.00     0.049 A 
ATOM     62  H   UNL A   1      44.178  28.793  28.194  1.00  0.00     0.167 HD
ATOM     63  C   UNL A   1      46.608  30.246  28.068  1.00  0.00     0.074 A 
ATOM     64  C   UNL A   1      48.003  30.565  27.840  1.00  0.00     0.031 C 
ATOM     65  C   UNL A   1      45.679  31.138  28.488  1.00  0.00     0.037 A 
BRANCH  52  66
ATOM     66  C   UNL A   1      39.991  28.780  29.013  1.00  0.00     0.064 A 
ATOM     67  C   UNL A   1      39.466  28.608  30.302  1.00  0.00     0.173 A 
ATOM     68  C   UNL A   1      39.118  29.206  28.000  1.00  0.00     0.173 A 
ATOM     69  F   UNL A   1      40.256  28.189  31.303  1.00  0.00    -0.203 F 
ATOM     70  C   UNL A   1      38.114  28.824  30.559  1.00  0.00     0.198 A 
ATOM     71  C   UNL A   1      37.773  29.448  28.267  1.00  0.00     0.198 A 
ATOM     72  F   UNL A   1      39.569  29.391  26.750  1.00  0.00    -0.203 F 
ATOM     73  F   UNL A   1      37.624  28.604  31.787  1.00  0.00    -0.200 F 
ATOM     74  C   UNL A   1      37.270  29.249  29.545  1.00  0.00     0.200 A 
ATOM     75  F   UNL A   1      36.962  29.869  27.288  1.00  0.00    -0.200 F 
ATOM     76  F   UNL A   1      35.970  29.458  29.795  1.00  0.00    -0.200 F 
ENDBRANCH  52  66
BRANCH  53  77
ATOM     77  C   UNL A   1      49.468  26.807  26.590  1.00  0.00     0.064 A 
ATOM     78  C   UNL A   1      49.876  26.911  25.254  1.00  0.00     0.173 A 
ATOM     79  C   UNL A   1      50.431  26.439  27.542  1.00  0.00     0.173 A 
ATOM     80  F   UNL A   1      48.986  27.238  24.306  1.00  0.00    -0.203 F 
ATOM     81  C   UNL A   1      51.194  26.649  24.883  1.00  0.00     0.198 A 
ATOM     82  C   UNL A   1      51.752  26.202  27.174  1.00  0.00     0.198 A 
ATOM     83  F   UNL A   1      50.088  26.327  28.834  1.00  0.00    -0.203 F 
ATOM     84  F   UNL A   1      51.552  26.723  23.595  1.00  0.00    -0.200 F 
ATOM     85  C   UNL A   1      52.132  26.302  25.845  1.00  0.00     0.200 A 
ATOM     86  F   UNL A   1      52.658  25.881  28.108  1.00  0.00    -0.200 F 
ATOM     87  F   UNL A   1      53.401  26.061  25.488  1.00  0.00    -0.200 F 
ENDBRANCH  53  77
BRANCH  65  88
ATOM     88  C   UNL A   1      46.141  32.544  28.743  1.00  0.00     0.064 A 
ATOM     89  C   UNL A   1      46.075  33.531  27.749  1.00  0.00     0.173 A 
ATOM     90  C   UNL A   1      46.624  32.916  30.008  1.00  0.00     0.173 A 
ATOM     91  F   UNL A   1      45.636  33.223  26.519  1.00  0.00    -0.203 F 
ATOM     92  C   UNL A   1      46.499  34.833  28.004  1.00  0.00     0.198 A 
ATOM     93  C   UNL A   1      47.020  34.227  30.267  1.00  0.00     0.198 A 
ATOM     94  F   UNL A   1      46.701  32.013  30.995  1.00  0.00    -0.203 F 
ATOM     95  F   UNL A   1      46.472  35.748  27.024  1.00  0.00    -0.200 F 
ATOM     96  C   UNL A   1      46.964  35.181  29.263  1.00  0.00     0.200 A 
ATOM     97  F   UNL A   1      47.456  34.563  31.488  1.00  0.00    -0.200 F 
ATOM     98  F   UNL A   1      47.368  36.435  29.506  1.00  0.00    -0.200 F 
ENDBRANCH  65  88
ENDBRANCH  39  40
ENDBRANCH  32  34
ENDBRANCH  31  32
ENDBRANCH  30  31
ENDBRANCH  29  30
ENDBRANCH  28  29
ENDBRANCH  27  28
ENDBRANCH   1  27
TORSDOF 19
ENDMDL
