MODEL 1
REMARK VINA RESULT:     -10.5      0.000      0.000
REMARK SMILES CC[C@@H](C(=O)OCCOCCOC(=O)c1ccc(-c2c3nc(c(-c4c(F)c(F)c(F)c(F)c4F)c4ccc([nH]4)c(-c4c(F)c(F)c(F)c(F)c4F)c4nc(c(-c5c(F)c(F)c(F)c(F)c5F)c5ccc2[nH]5)C=C4)C=C3)cc1)N(C)C(=O)N(C)C[C@@H]1CCC[N@H+]1C
REMARK SMILES IDX 7 1 6 2 4 3 5 4 3 5 2 6 1 7 78 8 79 9 80 10 81 11 82 12
REMARK SMILES IDX 83 13 84 14 85 15 86 16 89 17 87 18 88 19 90 20 8 22 9 23
REMARK SMILES IDX 10 24 11 25 12 26 13 27 14 28 15 29 16 30 77 31 17 32 76 33
REMARK SMILES IDX 18 34 19 35 20 36 70 37 21 38 75 39 69 40 71 41 22 42 74 43
REMARK SMILES IDX 68 44 67 45 23 47 55 48 35 49 54 50 36 51 39 52 53 53 72 54
REMARK SMILES IDX 37 55 38 56 52 58 73 59 40 60 24 61 25 62 33 63 26 64 27 65
REMARK SMILES IDX 31 66 34 67 28 68 29 69 32 70 30 71 56 72 57 73 65 74 58 75
REMARK SMILES IDX 59 76 63 77 66 78 60 79 61 80 64 81 62 82 41 83 42 84 50 85
REMARK SMILES IDX 43 86 44 87 48 88 51 89 45 90 46 91 49 92 47 93
REMARK H PARENT 89 21 71 46 39 57
REMARK Flexibility Score: inf
ROOT
ATOM      1  C   UNL A   1      34.008  23.678  25.649  1.00  0.00     0.261 C 
ENDROOT
BRANCH   1   2
ATOM      2  O   UNL A   1      34.410  24.772  24.800  1.00  0.00    -0.462 OA
BRANCH   2   3
ATOM      3  C   UNL A   1      33.886  24.783  23.548  1.00  0.00     0.328 C 
ATOM      4  O   UNL A   1      34.457  24.312  22.567  1.00  0.00    -0.250 OA
BRANCH   3   5
ATOM      5  C   UNL A   1      32.541  25.538  23.462  1.00  0.00     0.196 C 
BRANCH   5   6
ATOM      6  C   UNL A   1      31.218  24.744  23.617  1.00  0.00     0.034 C 
ATOM      7  C   UNL A   1      30.447  25.005  24.907  1.00  0.00     0.007 C 
ENDBRANCH   5   6
BRANCH   5   8
ATOM      8  N   UNL A   1      32.584  26.411  22.234  1.00  0.00    -0.314 N 
ATOM      9  C   UNL A   1      31.880  25.862  21.090  1.00  0.00     0.149 C 
BRANCH   8  10
ATOM     10  C   UNL A   1      33.063  27.703  22.363  1.00  0.00     0.320 C 
ATOM     11  O   UNL A   1      34.142  27.995  21.834  1.00  0.00    -0.248 OA
BRANCH  10  12
ATOM     12  N   UNL A   1      32.401  28.701  23.052  1.00  0.00    -0.322 N 
ATOM     13  C   UNL A   1      32.608  29.250  24.386  1.00  0.00     0.149 C 
BRANCH  12  14
ATOM     14  C   UNL A   1      31.328  29.392  22.312  1.00  0.00     0.185 C 
BRANCH  14  15
ATOM     15  C   UNL A   1      29.912  29.400  22.963  1.00  0.00     0.203 C 
ATOM     16  C   UNL A   1      29.295  28.034  23.290  1.00  0.00     0.073 C 
ATOM     17  N   UNL A   1      28.850  30.054  22.159  1.00  0.00    -0.333 N 
ATOM     18  C   UNL A   1      27.787  28.217  23.151  1.00  0.00     0.068 C 
ATOM     19  C   UNL A   1      27.596  29.685  22.831  1.00  0.00     0.262 C 
ATOM     20  C   UNL A   1      28.985  31.508  22.105  1.00  0.00     0.333 C 
ATOM     21  H   UNL A   1      28.894  29.748  21.187  1.00  0.00     0.348 HD
ENDBRANCH  14  15
ENDBRANCH  12  14
ENDBRANCH  10  12
ENDBRANCH   8  10
ENDBRANCH   5   8
ENDBRANCH   3   5
ENDBRANCH   2   3
ENDBRANCH   1   2
BRANCH   1  22
ATOM     22  C   UNL A   1      35.202  22.751  25.893  1.00  0.00     0.202 C 
BRANCH  22  23
ATOM     23  O   UNL A   1      35.641  21.986  24.765  1.00  0.00    -0.374 OA
BRANCH  23  24
ATOM     24  C   UNL A   1      36.132  20.675  25.041  1.00  0.00     0.202 C 
BRANCH  24  25
ATOM     25  C   UNL A   1      37.649  20.493  25.019  1.00  0.00     0.261 C 
BRANCH  25  26
ATOM     26  O   UNL A   1      38.331  21.681  25.442  1.00  0.00    -0.460 OA
BRANCH  26  27
ATOM     27  C   UNL A   1      39.466  21.434  26.128  1.00  0.00     0.338 C 
ATOM     28  O   UNL A   1      40.192  20.450  26.044  1.00  0.00    -0.246 OA
BRANCH  27  29
ATOM     29  C   UNL A   1      39.837  22.607  26.933  1.00  0.00     0.060 A 
ATOM     30  C   UNL A   1      39.106  23.780  26.709  1.00  0.00     0.016 A 
ATOM     31  C   UNL A   1      40.919  22.596  27.818  1.00  0.00     0.016 A 
ATOM     32  C   UNL A   1      39.516  24.972  27.289  1.00  0.00     0.010 A 
ATOM     33  C   UNL A   1      41.332  23.798  28.401  1.00  0.00     0.010 A 
ATOM     34  C   UNL A   1      40.668  24.997  28.086  1.00  0.00    -0.014 A 
BRANCH  34  35
ATOM     35  C   UNL A   1      41.284  26.311  28.382  1.00  0.00     0.031 A 
ATOM     36  C   UNL A   1      42.672  26.581  27.867  1.00  0.00     0.074 A 
ATOM     37  C   UNL A   1      40.586  27.274  29.004  1.00  0.00     0.049 A 
ATOM     38  N   UNL A   1      43.389  27.673  27.941  1.00  0.00    -0.248 NA
ATOM     39  C   UNL A   1      43.342  25.469  27.172  1.00  0.00     0.031 C 
ATOM     40  C   UNL A   1      39.220  27.138  29.504  1.00  0.00     0.029 A 
ATOM     41  N   UNL A   1      40.931  28.566  29.305  1.00  0.00    -0.354 N 
ATOM     42  C   UNL A   1      44.588  27.380  27.302  1.00  0.00     0.074 A 
ATOM     43  C   UNL A   1      44.521  25.997  26.884  1.00  0.00     0.031 C 
ATOM     44  C   UNL A   1      38.839  28.307  30.050  1.00  0.00     0.029 A 
ATOM     45  C   UNL A   1      39.941  29.262  29.952  1.00  0.00     0.049 A 
ATOM     46  H   UNL A   1      41.806  28.958  29.079  1.00  0.00     0.167 HD
ATOM     47  C   UNL A   1      45.643  28.195  27.069  1.00  0.00     0.037 A 
ATOM     48  C   UNL A   1      39.935  30.527  30.414  1.00  0.00     0.037 A 
ATOM     49  C   UNL A   1      45.704  29.572  27.481  1.00  0.00     0.049 A 
ATOM     50  C   UNL A   1      41.144  31.397  30.190  1.00  0.00     0.074 A 
ATOM     51  C   UNL A   1      46.724  30.486  27.293  1.00  0.00     0.029 A 
ATOM     52  N   UNL A   1      44.697  30.231  28.171  1.00  0.00    -0.354 N 
ATOM     53  N   UNL A   1      42.265  31.119  29.568  1.00  0.00    -0.248 NA
ATOM     54  C   UNL A   1      41.080  32.765  30.725  1.00  0.00     0.031 C 
ATOM     55  C   UNL A   1      46.352  31.687  27.908  1.00  0.00     0.029 A 
ATOM     56  C   UNL A   1      45.079  31.536  28.433  1.00  0.00     0.049 A 
ATOM     57  H   UNL A   1      43.836  29.830  28.434  1.00  0.00     0.167 HD
ATOM     58  C   UNL A   1      43.024  32.280  29.611  1.00  0.00     0.074 A 
ATOM     59  C   UNL A   1      42.230  33.272  30.305  1.00  0.00     0.031 C 
ATOM     60  C   UNL A   1      44.269  32.508  29.121  1.00  0.00     0.037 A 
BRANCH  47  61
ATOM     61  C   UNL A   1      46.824  27.607  26.356  1.00  0.00     0.064 A 
ATOM     62  C   UNL A   1      46.930  27.635  24.956  1.00  0.00     0.173 A 
ATOM     63  C   UNL A   1      47.873  27.023  27.082  1.00  0.00     0.173 A 
ATOM     64  F   UNL A   1      45.945  28.166  24.216  1.00  0.00    -0.203 F 
ATOM     65  C   UNL A   1      48.030  27.078  24.310  1.00  0.00     0.198 A 
ATOM     66  C   UNL A   1      48.984  26.491  26.434  1.00  0.00     0.198 A 
ATOM     67  F   UNL A   1      47.821  26.970  28.421  1.00  0.00    -0.203 F 
ATOM     68  F   UNL A   1      48.088  27.073  22.971  1.00  0.00    -0.200 F 
ATOM     69  C   UNL A   1      49.059  26.512  25.049  1.00  0.00     0.200 A 
ATOM     70  F   UNL A   1      49.982  25.954  27.149  1.00  0.00    -0.200 F 
ATOM     71  F   UNL A   1      50.119  25.980  24.425  1.00  0.00    -0.200 F 
ENDBRANCH  47  61
BRANCH  48  72
ATOM     72  C   UNL A   1      38.743  31.049  31.131  1.00  0.00     0.064 A 
ATOM     73  C   UNL A   1      38.631  30.948  32.524  1.00  0.00     0.173 A 
ATOM     74  C   UNL A   1      37.679  31.637  30.431  1.00  0.00     0.173 A 
ATOM     75  F   UNL A   1      39.612  30.371  33.235  1.00  0.00    -0.203 F 
ATOM     76  C   UNL A   1      37.492  31.397  33.189  1.00  0.00     0.198 A 
ATOM     77  C   UNL A   1      36.552  32.111  31.099  1.00  0.00     0.198 A 
ATOM     78  F   UNL A   1      37.736  31.756  29.097  1.00  0.00    -0.203 F 
ATOM     79  F   UNL A   1      37.388  31.245  34.516  1.00  0.00    -0.200 F 
ATOM     80  C   UNL A   1      36.455  31.983  32.476  1.00  0.00     0.200 A 
ATOM     81  F   UNL A   1      35.559  32.686  30.409  1.00  0.00    -0.200 F 
ATOM     82  F   UNL A   1      35.359  32.413  33.116  1.00  0.00    -0.200 F 
ENDBRANCH  48  72
BRANCH  60  83
ATOM     83  C   UNL A   1      44.828  33.891  29.290  1.00  0.00     0.064 A 
ATOM     84  C   UNL A   1      45.614  34.239  30.398  1.00  0.00     0.173 A 
ATOM     85  C   UNL A   1      44.593  34.875  28.316  1.00  0.00     0.173 A 
ATOM     86  F   UNL A   1      45.857  33.338  31.362  1.00  0.00    -0.203 F 
ATOM     87  C   UNL A   1      46.115  35.530  30.543  1.00  0.00     0.198 A 
ATOM     88  C   UNL A   1      45.121  36.156  28.449  1.00  0.00     0.198 A 
ATOM     89  F   UNL A   1      43.855  34.591  27.232  1.00  0.00    -0.203 F 
ATOM     90  F   UNL A   1      46.814  35.855  31.638  1.00  0.00    -0.200 F 
ATOM     91  C   UNL A   1      45.872  36.485  29.567  1.00  0.00     0.200 A 
ATOM     92  F   UNL A   1      44.896  37.074  27.498  1.00  0.00    -0.200 F 
ATOM     93  F   UNL A   1      46.354  37.728  29.709  1.00  0.00    -0.200 F 
ENDBRANCH  60  83
ENDBRANCH  34  35
ENDBRANCH  27  29
ENDBRANCH  26  27
ENDBRANCH  25  26
ENDBRANCH  24  25
ENDBRANCH  23  24
ENDBRANCH  22  23
ENDBRANCH   1  22
TORSDOF 20
ENDMDL
MODEL 2
REMARK VINA RESULT:     -10.5      4.339     10.121
REMARK SMILES CC[C@@H](C(=O)OCCOCCOC(=O)c1ccc(-c2c3nc(c(-c4c(F)c(F)c(F)c(F)c4F)c4ccc([nH]4)c(-c4c(F)c(F)c(F)c(F)c4F)c4nc(c(-c5c(F)c(F)c(F)c(F)c5F)c5ccc2[nH]5)C=C4)C=C3)cc1)N(C)C(=O)N(C)C[C@@H]1CCC[N@H+]1C
REMARK SMILES IDX 7 1 6 2 4 3 5 4 3 5 2 6 1 7 78 8 79 9 80 10 81 11 82 12
REMARK SMILES IDX 83 13 84 14 85 15 86 16 89 17 87 18 88 19 90 20 8 22 9 23
REMARK SMILES IDX 10 24 11 25 12 26 13 27 14 28 15 29 16 30 77 31 17 32 76 33
REMARK SMILES IDX 18 34 19 35 20 36 70 37 21 38 75 39 69 40 71 41 22 42 74 43
REMARK SMILES IDX 68 44 67 45 23 47 55 48 35 49 54 50 36 51 39 52 53 53 72 54
REMARK SMILES IDX 37 55 38 56 52 58 73 59 40 60 24 61 25 62 33 63 26 64 27 65
REMARK SMILES IDX 31 66 34 67 28 68 29 69 32 70 30 71 56 72 57 73 65 74 58 75
REMARK SMILES IDX 59 76 63 77 66 78 60 79 61 80 64 81 62 82 41 83 42 84 50 85
REMARK SMILES IDX 43 86 44 87 48 88 51 89 45 90 46 91 49 92 47 93
REMARK H PARENT 89 21 71 46 39 57
REMARK Flexibility Score: inf
ROOT
ATOM      1  C   UNL A   1      31.282  27.180  25.264  1.00  0.00     0.261 C 
ENDROOT
BRANCH   1   2
ATOM      2  O   UNL A   1      32.625  26.717  25.508  1.00  0.00    -0.462 OA
BRANCH   2   3
ATOM      3  C   UNL A   1      33.105  25.786  24.645  1.00  0.00     0.328 C 
ATOM      4  O   UNL A   1      32.950  25.842  23.428  1.00  0.00    -0.250 OA
BRANCH   3   5
ATOM      5  C   UNL A   1      33.783  24.594  25.357  1.00  0.00     0.196 C 
BRANCH   5   6
ATOM      6  C   UNL A   1      34.992  23.899  24.681  1.00  0.00     0.034 C 
ATOM      7  C   UNL A   1      36.204  23.676  25.581  1.00  0.00     0.007 C 
ENDBRANCH   5   6
BRANCH   5   8
ATOM      8  N   UNL A   1      32.697  23.641  25.786  1.00  0.00    -0.314 N 
ATOM      9  C   UNL A   1      32.507  23.564  27.223  1.00  0.00     0.149 C 
BRANCH   8  10
ATOM     10  C   UNL A   1      31.856  23.123  24.817  1.00  0.00     0.320 C 
ATOM     11  O   UNL A   1      30.766  23.673  24.617  1.00  0.00    -0.248 OA
BRANCH  10  12
ATOM     12  N   UNL A   1      32.162  22.018  24.047  1.00  0.00    -0.322 N 
ATOM     13  C   UNL A   1      32.509  21.892  22.637  1.00  0.00     0.149 C 
BRANCH  12  14
ATOM     14  C   UNL A   1      32.211  20.729  24.763  1.00  0.00     0.185 C 
BRANCH  14  15
ATOM     15  C   UNL A   1      33.095  19.607  24.138  1.00  0.00     0.203 C 
ATOM     16  C   UNL A   1      32.400  18.276  23.825  1.00  0.00     0.073 C 
ATOM     17  N   UNL A   1      34.255  19.183  24.962  1.00  0.00    -0.333 N 
ATOM     18  C   UNL A   1      33.469  17.201  23.992  1.00  0.00     0.068 C 
ATOM     19  C   UNL A   1      34.741  17.957  24.315  1.00  0.00     0.262 C 
ATOM     20  C   UNL A   1      35.318  20.184  25.012  1.00  0.00     0.333 C 
ATOM     21  H   UNL A   1      33.976  19.045  25.933  1.00  0.00     0.348 HD
ENDBRANCH  14  15
ENDBRANCH  12  14
ENDBRANCH  10  12
ENDBRANCH   8  10
ENDBRANCH   5   8
ENDBRANCH   3   5
ENDBRANCH   2   3
ENDBRANCH   1   2
BRANCH   1  22
ATOM     22  C   UNL A   1      31.316  28.650  24.834  1.00  0.00     0.202 C 
BRANCH  22  23
ATOM     23  O   UNL A   1      31.808  29.576  25.808  1.00  0.00    -0.374 OA
BRANCH  23  24
ATOM     24  C   UNL A   1      31.256  30.891  25.767  1.00  0.00     0.202 C 
BRANCH  24  25
ATOM     25  C   UNL A   1      31.740  31.872  26.834  1.00  0.00     0.261 C 
BRANCH  25  26
ATOM     26  O   UNL A   1      33.018  31.491  27.362  1.00  0.00    -0.460 OA
BRANCH  26  27
ATOM     27  C   UNL A   1      33.787  32.541  27.719  1.00  0.00     0.338 C 
ATOM     28  O   UNL A   1      33.425  33.690  27.945  1.00  0.00    -0.246 OA
BRANCH  27  29
ATOM     29  C   UNL A   1      35.168  32.098  27.961  1.00  0.00     0.060 A 
ATOM     30  C   UNL A   1      35.402  30.719  27.921  1.00  0.00     0.016 A 
ATOM     31  C   UNL A   1      36.190  32.988  28.301  1.00  0.00     0.016 A 
ATOM     32  C   UNL A   1      36.631  30.214  28.322  1.00  0.00     0.010 A 
ATOM     33  C   UNL A   1      37.427  32.479  28.706  1.00  0.00     0.010 A 
ATOM     34  C   UNL A   1      37.626  31.089  28.777  1.00  0.00    -0.014 A 
BRANCH  34  35
ATOM     35  C   UNL A   1      38.765  30.518  29.532  1.00  0.00     0.031 A 
ATOM     36  C   UNL A   1      38.936  30.914  30.974  1.00  0.00     0.074 A 
ATOM     37  C   UNL A   1      39.565  29.594  28.977  1.00  0.00     0.049 A 
ATOM     38  N   UNL A   1      39.811  30.497  31.853  1.00  0.00    -0.248 NA
ATOM     39  C   UNL A   1      37.989  31.913  31.496  1.00  0.00     0.031 C 
ATOM     40  C   UNL A   1      39.464  29.103  27.605  1.00  0.00     0.029 A 
ATOM     41  N   UNL A   1      40.614  28.891  29.513  1.00  0.00    -0.354 N 
ATOM     42  C   UNL A   1      39.518  31.180  33.027  1.00  0.00     0.074 A 
ATOM     43  C   UNL A   1      38.414  32.068  32.740  1.00  0.00     0.031 C 
ATOM     44  C   UNL A   1      40.414  28.172  27.405  1.00  0.00     0.029 A 
ATOM     45  C   UNL A   1      41.198  28.019  28.630  1.00  0.00     0.049 A 
ATOM     46  H   UNL A   1      40.919  29.003  30.443  1.00  0.00     0.167 HD
ATOM     47  C   UNL A   1      40.106  31.064  34.241  1.00  0.00     0.037 A 
ATOM     48  C   UNL A   1      42.250  27.195  28.797  1.00  0.00     0.037 A 
ATOM     49  C   UNL A   1      41.201  30.176  34.525  1.00  0.00     0.049 A 
ATOM     50  C   UNL A   1      42.921  27.124  30.144  1.00  0.00     0.074 A 
ATOM     51  C   UNL A   1      41.867  29.978  35.721  1.00  0.00     0.029 A 
ATOM     52  N   UNL A   1      41.792  29.335  33.593  1.00  0.00    -0.354 N 
ATOM     53  N   UNL A   1      42.626  27.757  31.254  1.00  0.00    -0.248 NA
ATOM     54  C   UNL A   1      44.069  26.213  30.261  1.00  0.00     0.031 C 
ATOM     55  C   UNL A   1      42.891  29.050  35.502  1.00  0.00     0.029 A 
ATOM     56  C   UNL A   1      42.829  28.630  34.183  1.00  0.00     0.049 A 
ATOM     57  H   UNL A   1      41.515  29.251  32.652  1.00  0.00     0.167 HD
ATOM     58  C   UNL A   1      43.528  27.302  32.206  1.00  0.00     0.074 A 
ATOM     59  C   UNL A   1      44.370  26.326  31.547  1.00  0.00     0.031 C 
ATOM     60  C   UNL A   1      43.651  27.659  33.509  1.00  0.00     0.037 A 
BRANCH  47  61
ATOM     61  C   UNL A   1      39.588  31.939  35.344  1.00  0.00     0.064 A 
ATOM     62  C   UNL A   1      40.019  33.266  35.498  1.00  0.00     0.173 A 
ATOM     63  C   UNL A   1      38.633  31.450  36.249  1.00  0.00     0.173 A 
ATOM     64  F   UNL A   1      40.944  33.775  34.670  1.00  0.00    -0.203 F 
ATOM     65  C   UNL A   1      39.534  34.061  36.533  1.00  0.00     0.198 A 
ATOM     66  C   UNL A   1      38.129  32.257  37.265  1.00  0.00     0.198 A 
ATOM     67  F   UNL A   1      38.188  30.189  36.146  1.00  0.00    -0.203 F 
ATOM     68  F   UNL A   1      39.995  35.309  36.690  1.00  0.00    -0.200 F 
ATOM     69  C   UNL A   1      38.584  33.559  37.411  1.00  0.00     0.200 A 
ATOM     70  F   UNL A   1      37.206  31.773  38.108  1.00  0.00    -0.200 F 
ATOM     71  F   UNL A   1      38.115  34.327  38.403  1.00  0.00    -0.200 F 
ENDBRANCH  47  61
BRANCH  48  72
ATOM     72  C   UNL A   1      42.730  26.365  27.662  1.00  0.00     0.064 A 
ATOM     73  C   UNL A   1      43.696  26.848  26.769  1.00  0.00     0.173 A 
ATOM     74  C   UNL A   1      42.213  25.082  27.434  1.00  0.00     0.173 A 
ATOM     75  F   UNL A   1      44.203  28.079  26.930  1.00  0.00    -0.203 F 
ATOM     76  C   UNL A   1      44.112  26.085  25.678  1.00  0.00     0.198 A 
ATOM     77  C   UNL A   1      42.650  24.309  26.361  1.00  0.00     0.198 A 
ATOM     78  F   UNL A   1      41.286  24.575  28.260  1.00  0.00    -0.203 F 
ATOM     79  F   UNL A   1      45.000  26.589  24.811  1.00  0.00    -0.200 F 
ATOM     80  C   UNL A   1      43.592  24.815  25.478  1.00  0.00     0.200 A 
ATOM     81  F   UNL A   1      42.153  23.079  26.177  1.00  0.00    -0.200 F 
ATOM     82  F   UNL A   1      43.991  24.083  24.429  1.00  0.00    -0.200 F 
ENDBRANCH  48  72
BRANCH  60  83
ATOM     83  C   UNL A   1      44.711  26.962  34.312  1.00  0.00     0.064 A 
ATOM     84  C   UNL A   1      46.003  27.492  34.444  1.00  0.00     0.173 A 
ATOM     85  C   UNL A   1      44.423  25.760  34.976  1.00  0.00     0.173 A 
ATOM     86  F   UNL A   1      46.332  28.632  33.819  1.00  0.00    -0.203 F 
ATOM     87  C   UNL A   1      46.977  26.826  35.183  1.00  0.00     0.198 A 
ATOM     88  C   UNL A   1      45.390  25.112  35.740  1.00  0.00     0.198 A 
ATOM     89  F   UNL A   1      43.199  25.215  34.889  1.00  0.00    -0.203 F 
ATOM     90  F   UNL A   1      48.220  27.321  35.248  1.00  0.00    -0.200 F 
ATOM     91  C   UNL A   1      46.669  25.641  35.834  1.00  0.00     0.200 A 
ATOM     92  F   UNL A   1      45.086  23.974  36.379  1.00  0.00    -0.200 F 
ATOM     93  F   UNL A   1      47.608  25.000  36.544  1.00  0.00    -0.200 F 
ENDBRANCH  60  83
ENDBRANCH  34  35
ENDBRANCH  27  29
ENDBRANCH  26  27
ENDBRANCH  25  26
ENDBRANCH  24  25
ENDBRANCH  23  24
ENDBRANCH  22  23
ENDBRANCH   1  22
TORSDOF 20
ENDMDL
MODEL 3
REMARK VINA RESULT:     -10.2      2.047      3.048
REMARK SMILES CC[C@@H](C(=O)OCCOCCOC(=O)c1ccc(-c2c3nc(c(-c4c(F)c(F)c(F)c(F)c4F)c4ccc([nH]4)c(-c4c(F)c(F)c(F)c(F)c4F)c4nc(c(-c5c(F)c(F)c(F)c(F)c5F)c5ccc2[nH]5)C=C4)C=C3)cc1)N(C)C(=O)N(C)C[C@@H]1CCC[N@H+]1C
REMARK SMILES IDX 7 1 6 2 4 3 5 4 3 5 2 6 1 7 78 8 79 9 80 10 81 11 82 12
REMARK SMILES IDX 83 13 84 14 85 15 86 16 89 17 87 18 88 19 90 20 8 22 9 23
REMARK SMILES IDX 10 24 11 25 12 26 13 27 14 28 15 29 16 30 77 31 17 32 76 33
REMARK SMILES IDX 18 34 19 35 20 36 70 37 21 38 75 39 69 40 71 41 22 42 74 43
REMARK SMILES IDX 68 44 67 45 23 47 55 48 35 49 54 50 36 51 39 52 53 53 72 54
REMARK SMILES IDX 37 55 38 56 52 58 73 59 40 60 24 61 25 62 33 63 26 64 27 65
REMARK SMILES IDX 31 66 34 67 28 68 29 69 32 70 30 71 56 72 57 73 65 74 58 75
REMARK SMILES IDX 59 76 63 77 66 78 60 79 61 80 64 81 62 82 41 83 42 84 50 85
REMARK SMILES IDX 43 86 44 87 48 88 51 89 45 90 46 91 49 92 47 93
REMARK H PARENT 89 21 71 46 39 57
REMARK Flexibility Score: inf
ROOT
ATOM      1  C   UNL A   1      36.702  23.623  25.017  1.00  0.00     0.261 C 
ENDROOT
BRANCH   1   2
ATOM      2  O   UNL A   1      35.548  23.305  25.820  1.00  0.00    -0.462 OA
BRANCH   2   3
ATOM      3  C   UNL A   1      34.396  23.945  25.495  1.00  0.00     0.328 C 
ATOM      4  O   UNL A   1      34.181  25.128  25.744  1.00  0.00    -0.250 OA
BRANCH   3   5
ATOM      5  C   UNL A   1      33.340  23.008  24.868  1.00  0.00     0.196 C 
BRANCH   5   6
ATOM      6  C   UNL A   1      33.786  21.628  24.318  1.00  0.00     0.034 C 
ATOM      7  C   UNL A   1      32.805  20.483  24.554  1.00  0.00     0.007 C 
ENDBRANCH   5   6
BRANCH   5   8
ATOM      8  N   UNL A   1      32.534  23.819  23.887  1.00  0.00    -0.314 N 
ATOM      9  C   UNL A   1      33.261  24.196  22.689  1.00  0.00     0.149 C 
BRANCH   8  10
ATOM     10  C   UNL A   1      31.170  23.931  24.090  1.00  0.00     0.320 C 
ATOM     11  O   UNL A   1      30.408  23.765  23.129  1.00  0.00    -0.248 OA
BRANCH  10  12
ATOM     12  N   UNL A   1      30.597  24.217  25.314  1.00  0.00    -0.322 N 
ATOM     13  C   UNL A   1      30.460  23.417  26.524  1.00  0.00     0.149 C 
BRANCH  12  14
ATOM     14  C   UNL A   1      30.076  25.588  25.475  1.00  0.00     0.185 C 
BRANCH  14  15
ATOM     15  C   UNL A   1      31.090  26.756  25.285  1.00  0.00     0.203 C 
ATOM     16  C   UNL A   1      31.468  27.553  26.540  1.00  0.00     0.073 C 
ATOM     17  N   UNL A   1      30.660  27.819  24.341  1.00  0.00    -0.333 N 
ATOM     18  C   UNL A   1      31.762  28.970  26.058  1.00  0.00     0.068 C 
ATOM     19  C   UNL A   1      31.620  28.911  24.551  1.00  0.00     0.262 C 
ATOM     20  C   UNL A   1      30.683  27.388  22.945  1.00  0.00     0.333 C 
ATOM     21  H   UNL A   1      29.693  28.089  24.519  1.00  0.00     0.348 HD
ENDBRANCH  14  15
ENDBRANCH  12  14
ENDBRANCH  10  12
ENDBRANCH   8  10
ENDBRANCH   5   8
ENDBRANCH   3   5
ENDBRANCH   2   3
ENDBRANCH   1   2
BRANCH   1  22
ATOM     22  C   UNL A   1      37.287  22.338  24.424  1.00  0.00     0.202 C 
BRANCH  22  23
ATOM     23  O   UNL A   1      37.864  21.423  25.361  1.00  0.00    -0.374 OA
BRANCH  23  24
ATOM     24  C   UNL A   1      37.830  20.043  25.002  1.00  0.00     0.202 C 
BRANCH  24  25
ATOM     25  C   UNL A   1      39.049  19.204  25.382  1.00  0.00     0.261 C 
BRANCH  25  26
ATOM     26  O   UNL A   1      39.910  19.904  26.290  1.00  0.00    -0.460 OA
BRANCH  26  27
ATOM     27  C   UNL A   1      41.215  19.591  26.144  1.00  0.00     0.338 C 
ATOM     28  O   UNL A   1      41.690  18.533  25.752  1.00  0.00    -0.246 OA
BRANCH  27  29
ATOM     29  C   UNL A   1      42.050  20.776  26.388  1.00  0.00     0.060 A 
ATOM     30  C   UNL A   1      42.267  21.128  27.726  1.00  0.00     0.016 A 
ATOM     31  C   UNL A   1      42.538  21.574  25.350  1.00  0.00     0.016 A 
ATOM     32  C   UNL A   1      42.884  22.333  28.033  1.00  0.00     0.010 A 
ATOM     33  C   UNL A   1      43.157  22.788  25.659  1.00  0.00     0.010 A 
ATOM     34  C   UNL A   1      43.273  23.197  27.000  1.00  0.00    -0.014 A 
BRANCH  34  35
ATOM     35  C   UNL A   1      43.580  24.604  27.346  1.00  0.00     0.031 A 
ATOM     36  C   UNL A   1      44.966  25.121  27.071  1.00  0.00     0.074 A 
ATOM     37  C   UNL A   1      42.621  25.427  27.798  1.00  0.00     0.049 A 
ATOM     38  N   UNL A   1      45.450  26.327  27.225  1.00  0.00    -0.248 NA
ATOM     39  C   UNL A   1      45.938  24.146  26.549  1.00  0.00     0.031 C 
ATOM     40  C   UNL A   1      41.234  25.046  28.058  1.00  0.00     0.029 A 
ATOM     41  N   UNL A   1      42.669  26.763  28.103  1.00  0.00    -0.354 N 
ATOM     42  C   UNL A   1      46.777  26.254  26.817  1.00  0.00     0.074 A 
ATOM     43  C   UNL A   1      47.035  24.880  26.449  1.00  0.00     0.031 C 
ATOM     44  C   UNL A   1      40.558  26.128  28.482  1.00  0.00     0.029 A 
ATOM     45  C   UNL A   1      41.471  27.269  28.540  1.00  0.00     0.049 A 
ATOM     46  H   UNL A   1      43.485  27.307  28.017  1.00  0.00     0.167 HD
ATOM     47  C   UNL A   1      47.692  27.247  26.739  1.00  0.00     0.037 A 
ATOM     48  C   UNL A   1      41.155  28.515  28.943  1.00  0.00     0.037 A 
ATOM     49  C   UNL A   1      47.431  28.615  27.100  1.00  0.00     0.049 A 
ATOM     50  C   UNL A   1      42.208  29.591  28.898  1.00  0.00     0.074 A 
ATOM     51  C   UNL A   1      48.287  29.700  27.056  1.00  0.00     0.029 A 
ATOM     52  N   UNL A   1      46.215  29.082  27.577  1.00  0.00    -0.354 N 
ATOM     53  N   UNL A   1      43.453  29.519  28.492  1.00  0.00    -0.248 NA
ATOM     54  C   UNL A   1      41.805  30.927  29.359  1.00  0.00     0.031 C 
ATOM     55  C   UNL A   1      47.602  30.817  27.548  1.00  0.00     0.029 A 
ATOM     56  C   UNL A   1      46.304  30.438  27.849  1.00  0.00     0.049 A 
ATOM     57  H   UNL A   1      45.408  28.532  27.702  1.00  0.00     0.167 HD
ATOM     58  C   UNL A   1      43.972  30.800  28.620  1.00  0.00     0.074 A 
ATOM     59  C   UNL A   1      42.901  31.634  29.126  1.00  0.00     0.031 C 
ATOM     60  C   UNL A   1      45.223  31.249  28.346  1.00  0.00     0.037 A 
BRANCH  47  61
ATOM     61  C   UNL A   1      49.068  26.881  26.266  1.00  0.00     0.064 A 
ATOM     62  C   UNL A   1      49.440  26.996  24.917  1.00  0.00     0.173 A 
ATOM     63  C   UNL A   1      50.034  26.426  27.176  1.00  0.00     0.173 A 
ATOM     64  F   UNL A   1      48.548  27.409  24.005  1.00  0.00    -0.203 F 
ATOM     65  C   UNL A   1      50.719  26.644  24.495  1.00  0.00     0.198 A 
ATOM     66  C   UNL A   1      51.320  26.102  26.755  1.00  0.00     0.198 A 
ATOM     67  F   UNL A   1      49.730  26.299  28.476  1.00  0.00    -0.203 F 
ATOM     68  F   UNL A   1      51.037  26.716  23.195  1.00  0.00    -0.200 F 
ATOM     69  C   UNL A   1      51.660  26.204  25.414  1.00  0.00     0.200 A 
ATOM     70  F   UNL A   1      52.232  25.686  27.645  1.00  0.00    -0.200 F 
ATOM     71  F   UNL A   1      52.892  25.871  25.006  1.00  0.00    -0.200 F 
ENDBRANCH  47  61
BRANCH  48  72
ATOM     72  C   UNL A   1      39.780  28.814  29.420  1.00  0.00     0.064 A 
ATOM     73  C   UNL A   1      39.420  28.629  30.761  1.00  0.00     0.173 A 
ATOM     74  C   UNL A   1      38.790  29.268  28.535  1.00  0.00     0.173 A 
ATOM     75  F   UNL A   1      40.325  28.174  31.641  1.00  0.00    -0.203 F 
ATOM     76  C   UNL A   1      38.117  28.867  31.196  1.00  0.00     0.198 A 
ATOM     77  C   UNL A   1      37.496  29.532  28.975  1.00  0.00     0.198 A 
ATOM     78  F   UNL A   1      39.084  29.459  27.240  1.00  0.00    -0.203 F 
ATOM     79  F   UNL A   1      37.787  28.635  32.474  1.00  0.00    -0.200 F 
ATOM     80  C   UNL A   1      37.158  29.323  30.304  1.00  0.00     0.200 A 
ATOM     81  F   UNL A   1      36.575  29.982  28.113  1.00  0.00    -0.200 F 
ATOM     82  F   UNL A   1      35.905  29.550  30.722  1.00  0.00    -0.200 F 
ENDBRANCH  48  72
BRANCH  60  83
ATOM     83  C   UNL A   1      45.485  32.713  28.554  1.00  0.00     0.064 A 
ATOM     84  C   UNL A   1      45.998  33.206  29.763  1.00  0.00     0.173 A 
ATOM     85  C   UNL A   1      45.241  33.631  27.521  1.00  0.00     0.173 A 
ATOM     86  F   UNL A   1      46.236  32.371  30.785  1.00  0.00    -0.203 F 
ATOM     87  C   UNL A   1      46.224  34.568  29.942  1.00  0.00     0.198 A 
ATOM     88  C   UNL A   1      45.498  34.989  27.692  1.00  0.00     0.198 A 
ATOM     89  F   UNL A   1      44.760  33.210  26.341  1.00  0.00    -0.203 F 
ATOM     90  F   UNL A   1      46.660  35.023  31.124  1.00  0.00    -0.200 F 
ATOM     91  C   UNL A   1      45.979  35.457  28.906  1.00  0.00     0.200 A 
ATOM     92  F   UNL A   1      45.273  35.844  26.685  1.00  0.00    -0.200 F 
ATOM     93  F   UNL A   1      46.196  36.768  29.080  1.00  0.00    -0.200 F 
ENDBRANCH  60  83
ENDBRANCH  34  35
ENDBRANCH  27  29
ENDBRANCH  26  27
ENDBRANCH  25  26
ENDBRANCH  24  25
ENDBRANCH  23  24
ENDBRANCH  22  23
ENDBRANCH   1  22
TORSDOF 20
ENDMDL
