MODEL 1
REMARK VINA RESULT:     -12.2      0.000      0.000
REMARK SMILES CC1(C)C[C@@H](Nc2ccc(Cl)c(C(=O)OCCOCCOC(=O)c3ccc(-c4c5nc(c(-c6c(F)c(F)c(F)c(F)c6F)c6ccc([nH]6)c(-c6c(F)c(F)c(F)c(F)c6F)c6nc(c(-c7c(F)c(F)c(F)c(F)c7F)c7ccc4[nH]7)C=C6)C=C5)cc3)c2)C(C)(C)O1
REMARK SMILES IDX 18 1 17 2 16 3 15 4 13 5 14 6 12 7 7 8 8 9 87 10 9 11 10 12
REMARK SMILES IDX 11 13 6 14 5 16 1 17 2 18 3 19 4 20 91 21 88 22 89 23 90 24
REMARK SMILES IDX 19 25 20 26 21 27 22 28 23 29 24 30 25 31 86 32 26 33 85 34
REMARK SMILES IDX 27 35 28 36 29 37 79 38 30 39 84 40 78 41 80 42 31 43 83 44
REMARK SMILES IDX 77 45 76 46 32 48 64 49 44 50 63 51 45 52 48 53 62 54 81 55
REMARK SMILES IDX 46 56 47 57 61 59 82 60 49 61 33 62 34 63 42 64 35 65 36 66
REMARK SMILES IDX 40 67 43 68 37 69 38 70 41 71 39 72 65 73 66 74 74 75 67 76
REMARK SMILES IDX 68 77 72 78 75 79 69 80 70 81 73 82 71 83 50 84 51 85 59 86
REMARK SMILES IDX 52 87 53 88 57 89 60 90 54 91 55 92 58 93 56 94
REMARK H PARENT 6 15 80 47 48 58
REMARK Flexibility Score: inf
ROOT
ATOM      1  O   UNL A   1      44.534  20.717  23.920  1.00  0.00    -0.374 OA
ENDROOT
BRANCH   1   2
ATOM      2  C   UNL A   1      44.720  19.334  24.236  1.00  0.00     0.202 C 
BRANCH   2   3
ATOM      3  C   UNL A   1      43.779  18.781  25.307  1.00  0.00     0.261 C 
BRANCH   3   4
ATOM      4  O   UNL A   1      42.629  19.633  25.426  1.00  0.00    -0.460 OA
BRANCH   4   5
ATOM      5  C   UNL A   1      42.009  19.617  26.625  1.00  0.00     0.339 C 
ATOM      6  O   UNL A   1      42.332  18.968  27.611  1.00  0.00    -0.246 OA
BRANCH   5   7
ATOM      7  C   UNL A   1      40.986  20.678  26.680  1.00  0.00     0.080 A 
ATOM      8  C   UNL A   1      38.863  21.447  25.767  1.00  0.00     0.035 A 
ATOM      9  C   UNL A   1      38.991  22.617  26.517  1.00  0.00     0.027 A 
ATOM     10  C   UNL A   1      39.863  20.480  25.857  1.00  0.00     0.043 A 
ATOM     11  C   UNL A   1      40.084  22.805  27.367  1.00  0.00     0.023 A 
ATOM     12  C   UNL A   1      41.092  21.838  27.448  1.00  0.00     0.055 A 
ATOM     13  Cl  UNL A   1      42.444  22.182  28.464  1.00  0.00    -0.083 Cl
BRANCH   8  14
ATOM     14  N   UNL A   1      37.828  21.304  24.848  1.00  0.00    -0.379 N 
ATOM     15  H   UNL A   1      37.988  21.038  23.914  1.00  0.00     0.160 HD
BRANCH  14  16
ATOM     16  C   UNL A   1      36.483  21.574  25.365  1.00  0.00     0.113 C 
ATOM     17  C   UNL A   1      33.104  20.401  24.374  1.00  0.00     0.042 C 
ATOM     18  C   UNL A   1      34.172  21.088  25.219  1.00  0.00     0.065 C 
ATOM     19  C   UNL A   1      33.716  21.147  26.682  1.00  0.00     0.042 C 
ATOM     20  C   UNL A   1      35.539  20.428  25.059  1.00  0.00     0.062 C 
ATOM     21  O   UNL A   1      34.331  22.442  24.756  1.00  0.00    -0.367 OA
ATOM     22  C   UNL A   1      35.743  22.778  24.729  1.00  0.00     0.083 C 
ATOM     23  C   UNL A   1      36.085  23.054  23.260  1.00  0.00     0.044 C 
ATOM     24  C   UNL A   1      35.934  24.056  25.547  1.00  0.00     0.044 C 
ENDBRANCH  14  16
ENDBRANCH   8  14
ENDBRANCH   5   7
ENDBRANCH   4   5
ENDBRANCH   3   4
ENDBRANCH   2   3
ENDBRANCH   1   2
BRANCH   1  25
ATOM     25  C   UNL A   1      45.376  21.656  24.590  1.00  0.00     0.202 C 
BRANCH  25  26
ATOM     26  C   UNL A   1      44.666  22.638  25.530  1.00  0.00     0.261 C 
BRANCH  26  27
ATOM     27  O   UNL A   1      44.083  23.746  24.822  1.00  0.00    -0.460 OA
BRANCH  27  28
ATOM     28  C   UNL A   1      44.647  24.946  25.094  1.00  0.00     0.338 C 
ATOM     29  O   UNL A   1      45.648  25.429  24.582  1.00  0.00    -0.246 OA
BRANCH  28  30
ATOM     30  C   UNL A   1      43.796  25.718  26.018  1.00  0.00     0.060 A 
ATOM     31  C   UNL A   1      44.260  26.979  26.414  1.00  0.00     0.016 A 
ATOM     32  C   UNL A   1      42.617  25.196  26.558  1.00  0.00     0.016 A 
ATOM     33  C   UNL A   1      43.581  27.696  27.394  1.00  0.00     0.010 A 
ATOM     34  C   UNL A   1      41.938  25.918  27.548  1.00  0.00     0.010 A 
ATOM     35  C   UNL A   1      42.440  27.152  27.998  1.00  0.00    -0.014 A 
BRANCH  35  36
ATOM     36  C   UNL A   1      41.868  27.827  29.190  1.00  0.00     0.031 A 
ATOM     37  C   UNL A   1      42.568  27.697  30.514  1.00  0.00     0.074 A 
ATOM     38  C   UNL A   1      40.775  28.601  29.079  1.00  0.00     0.049 A 
ATOM     39  N   UNL A   1      42.278  28.248  31.667  1.00  0.00    -0.248 NA
ATOM     40  C   UNL A   1      43.755  26.830  30.546  1.00  0.00     0.031 C 
ATOM     41  C   UNL A   1      40.021  28.825  27.847  1.00  0.00     0.029 A 
ATOM     42  N   UNL A   1      40.114  29.349  30.021  1.00  0.00    -0.354 N 
ATOM     43  C   UNL A   1      43.246  27.798  32.555  1.00  0.00     0.074 A 
ATOM     44  C   UNL A   1      44.110  26.900  31.821  1.00  0.00     0.031 C 
ATOM     45  C   UNL A   1      39.000  29.658  28.108  1.00  0.00     0.029 A 
ATOM     46  C   UNL A   1      39.019  30.011  29.527  1.00  0.00     0.049 A 
ATOM     47  H   UNL A   1      40.399  29.406  30.962  1.00  0.00     0.167 HD
ATOM     48  C   UNL A   1      43.409  28.118  33.862  1.00  0.00     0.037 A 
ATOM     49  C   UNL A   1      38.130  30.808  30.151  1.00  0.00     0.037 A 
ATOM     50  C   UNL A   1      42.549  29.011  34.595  1.00  0.00     0.049 A 
ATOM     51  C   UNL A   1      38.309  31.113  31.616  1.00  0.00     0.074 A 
ATOM     52  C   UNL A   1      42.642  29.407  35.918  1.00  0.00     0.029 A 
ATOM     53  N   UNL A   1      41.433  29.642  34.066  1.00  0.00    -0.354 N 
ATOM     54  N   UNL A   1      39.248  30.713  32.438  1.00  0.00    -0.248 NA
ATOM     55  C   UNL A   1      37.306  31.993  32.235  1.00  0.00     0.031 C 
ATOM     56  C   UNL A   1      41.557  30.245  36.202  1.00  0.00     0.029 A 
ATOM     57  C   UNL A   1      40.817  30.410  35.042  1.00  0.00     0.049 A 
ATOM     58  H   UNL A   1      41.125  29.558  33.136  1.00  0.00     0.167 HD
ATOM     59  C   UNL A   1      38.969  31.314  33.660  1.00  0.00     0.074 A 
ATOM     60  C   UNL A   1      37.780  32.118  33.466  1.00  0.00     0.031 C 
ATOM     61  C   UNL A   1      39.636  31.209  34.835  1.00  0.00     0.037 A 
BRANCH  48  62
ATOM     62  C   UNL A   1      44.555  27.479  34.591  1.00  0.00     0.064 A 
ATOM     63  C   UNL A   1      44.418  26.238  35.232  1.00  0.00     0.173 A 
ATOM     64  C   UNL A   1      45.812  28.099  34.622  1.00  0.00     0.173 A 
ATOM     65  F   UNL A   1      43.232  25.611  35.243  1.00  0.00    -0.203 F 
ATOM     66  C   UNL A   1      45.492  25.653  35.897  1.00  0.00     0.198 A 
ATOM     67  C   UNL A   1      46.892  27.498  35.264  1.00  0.00     0.198 A 
ATOM     68  F   UNL A   1      45.997  29.284  34.022  1.00  0.00    -0.203 F 
ATOM     69  F   UNL A   1      45.328  24.488  36.540  1.00  0.00    -0.200 F 
ATOM     70  C   UNL A   1      46.729  26.280  35.908  1.00  0.00     0.200 A 
ATOM     71  F   UNL A   1      48.089  28.100  35.265  1.00  0.00    -0.200 F 
ATOM     72  F   UNL A   1      47.764  25.713  36.543  1.00  0.00    -0.200 F 
ENDBRANCH  48  62
BRANCH  49  73
ATOM     73  C   UNL A   1      36.992  31.387  29.392  1.00  0.00     0.064 A 
ATOM     74  C   UNL A   1      36.964  32.747  29.052  1.00  0.00     0.173 A 
ATOM     75  C   UNL A   1      35.900  30.595  29.009  1.00  0.00     0.173 A 
ATOM     76  F   UNL A   1      37.973  33.549  29.421  1.00  0.00    -0.203 F 
ATOM     77  C   UNL A   1      35.877  33.295  28.375  1.00  0.00     0.198 A 
ATOM     78  C   UNL A   1      34.826  31.139  28.307  1.00  0.00     0.198 A 
ATOM     79  F   UNL A   1      35.879  29.289  29.312  1.00  0.00    -0.203 F 
ATOM     80  F   UNL A   1      35.853  34.608  28.105  1.00  0.00    -0.200 F 
ATOM     81  C   UNL A   1      34.812  32.491  27.998  1.00  0.00     0.200 A 
ATOM     82  F   UNL A   1      33.804  30.357  27.938  1.00  0.00    -0.200 F 
ATOM     83  F   UNL A   1      33.768  33.020  27.346  1.00  0.00    -0.200 F 
ENDBRANCH  49  73
BRANCH  61  84
ATOM     84  C   UNL A   1      39.115  32.011  35.993  1.00  0.00     0.064 A 
ATOM     85  C   UNL A   1      39.499  33.344  36.200  1.00  0.00     0.173 A 
ATOM     86  C   UNL A   1      38.207  31.442  36.900  1.00  0.00     0.173 A 
ATOM     87  F   UNL A   1      40.375  33.930  35.370  1.00  0.00    -0.203 F 
ATOM     88  C   UNL A   1      39.020  34.066  37.289  1.00  0.00     0.198 A 
ATOM     89  C   UNL A   1      37.707  32.177  37.971  1.00  0.00     0.198 A 
ATOM     90  F   UNL A   1      37.801  30.173  36.743  1.00  0.00    -0.203 F 
ATOM     91  F   UNL A   1      39.445  35.321  37.498  1.00  0.00    -0.200 F 
ATOM     92  C   UNL A   1      38.122  33.484  38.171  1.00  0.00     0.200 A 
ATOM     93  F   UNL A   1      36.829  31.616  38.814  1.00  0.00    -0.200 F 
ATOM     94  F   UNL A   1      37.663  34.181  39.221  1.00  0.00    -0.200 F 
ENDBRANCH  61  84
ENDBRANCH  35  36
ENDBRANCH  28  30
ENDBRANCH  27  28
ENDBRANCH  26  27
ENDBRANCH  25  26
ENDBRANCH   1  25
TORSDOF 16
ENDMDL
MODEL 2
REMARK VINA RESULT:     -11.6      0.847      7.237
REMARK SMILES CC1(C)C[C@@H](Nc2ccc(Cl)c(C(=O)OCCOCCOC(=O)c3ccc(-c4c5nc(c(-c6c(F)c(F)c(F)c(F)c6F)c6ccc([nH]6)c(-c6c(F)c(F)c(F)c(F)c6F)c6nc(c(-c7c(F)c(F)c(F)c(F)c7F)c7ccc4[nH]7)C=C6)C=C5)cc3)c2)C(C)(C)O1
REMARK SMILES IDX 18 1 17 2 16 3 15 4 13 5 14 6 12 7 7 8 8 9 87 10 9 11 10 12
REMARK SMILES IDX 11 13 6 14 5 16 1 17 2 18 3 19 4 20 91 21 88 22 89 23 90 24
REMARK SMILES IDX 19 25 20 26 21 27 22 28 23 29 24 30 25 31 86 32 26 33 85 34
REMARK SMILES IDX 27 35 28 36 29 37 79 38 30 39 84 40 78 41 80 42 31 43 83 44
REMARK SMILES IDX 77 45 76 46 32 48 64 49 44 50 63 51 45 52 48 53 62 54 81 55
REMARK SMILES IDX 46 56 47 57 61 59 82 60 49 61 33 62 34 63 42 64 35 65 36 66
REMARK SMILES IDX 40 67 43 68 37 69 38 70 41 71 39 72 65 73 66 74 74 75 67 76
REMARK SMILES IDX 68 77 72 78 75 79 69 80 70 81 73 82 71 83 50 84 51 85 59 86
REMARK SMILES IDX 52 87 53 88 57 89 60 90 54 91 55 92 58 93 56 94
REMARK H PARENT 6 15 80 47 48 58
REMARK Flexibility Score: inf
ROOT
ATOM      1  O   UNL A   1      45.897  21.058  25.355  1.00  0.00    -0.374 OA
ENDROOT
BRANCH   1   2
ATOM      2  C   UNL A   1      44.881  20.335  24.655  1.00  0.00     0.202 C 
BRANCH   2   3
ATOM      3  C   UNL A   1      43.772  19.755  25.535  1.00  0.00     0.261 C 
BRANCH   3   4
ATOM      4  O   UNL A   1      42.700  20.705  25.647  1.00  0.00    -0.460 OA
BRANCH   4   5
ATOM      5  C   UNL A   1      41.588  20.263  26.273  1.00  0.00     0.339 C 
ATOM      6  O   UNL A   1      41.397  19.143  26.728  1.00  0.00    -0.246 OA
BRANCH   5   7
ATOM      7  C   UNL A   1      40.681  21.392  26.549  1.00  0.00     0.080 A 
ATOM      8  C   UNL A   1      38.628  22.511  25.867  1.00  0.00     0.035 A 
ATOM      9  C   UNL A   1      38.891  23.514  26.800  1.00  0.00     0.027 A 
ATOM     10  C   UNL A   1      39.525  21.451  25.749  1.00  0.00     0.043 A 
ATOM     11  C   UNL A   1      40.017  23.444  27.627  1.00  0.00     0.023 A 
ATOM     12  C   UNL A   1      40.922  22.385  27.500  1.00  0.00     0.055 A 
ATOM     13  Cl  UNL A   1      42.324  22.413  28.506  1.00  0.00    -0.083 Cl
BRANCH   8  14
ATOM     14  N   UNL A   1      37.563  22.631  24.979  1.00  0.00    -0.379 N 
ATOM     15  H   UNL A   1      37.698  22.778  24.015  1.00  0.00     0.160 HD
BRANCH  14  16
ATOM     16  C   UNL A   1      36.228  22.524  25.574  1.00  0.00     0.113 C 
ATOM     17  C   UNL A   1      33.498  20.032  25.246  1.00  0.00     0.042 C 
ATOM     18  C   UNL A   1      34.259  21.233  25.799  1.00  0.00     0.065 C 
ATOM     19  C   UNL A   1      33.852  21.477  27.257  1.00  0.00     0.042 C 
ATOM     20  C   UNL A   1      35.768  21.082  25.629  1.00  0.00     0.062 C 
ATOM     21  O   UNL A   1      33.893  22.403  25.041  1.00  0.00    -0.367 OA
ATOM     22  C   UNL A   1      35.079  23.199  24.784  1.00  0.00     0.083 C 
ATOM     23  C   UNL A   1      35.254  23.216  23.261  1.00  0.00     0.044 C 
ATOM     24  C   UNL A   1      34.805  24.618  25.283  1.00  0.00     0.044 C 
ENDBRANCH  14  16
ENDBRANCH   8  14
ENDBRANCH   5   7
ENDBRANCH   4   5
ENDBRANCH   3   4
ENDBRANCH   2   3
ENDBRANCH   1   2
BRANCH   1  25
ATOM     25  C   UNL A   1      45.707  22.465  25.506  1.00  0.00     0.202 C 
BRANCH  25  26
ATOM     26  C   UNL A   1      45.031  23.178  24.329  1.00  0.00     0.261 C 
BRANCH  26  27
ATOM     27  O   UNL A   1      44.131  24.213  24.763  1.00  0.00    -0.460 OA
BRANCH  27  28
ATOM     28  C   UNL A   1      44.734  25.373  25.112  1.00  0.00     0.338 C 
ATOM     29  O   UNL A   1      45.750  25.855  24.630  1.00  0.00    -0.246 OA
BRANCH  28  30
ATOM     30  C   UNL A   1      43.910  26.110  26.088  1.00  0.00     0.060 A 
ATOM     31  C   UNL A   1      44.157  27.482  26.226  1.00  0.00     0.016 A 
ATOM     32  C   UNL A   1      42.981  25.470  26.912  1.00  0.00     0.016 A 
ATOM     33  C   UNL A   1      43.520  28.207  27.229  1.00  0.00     0.010 A 
ATOM     34  C   UNL A   1      42.345  26.201  27.924  1.00  0.00     0.010 A 
ATOM     35  C   UNL A   1      42.642  27.563  28.111  1.00  0.00    -0.014 A 
BRANCH  35  36
ATOM     36  C   UNL A   1      42.153  28.301  29.303  1.00  0.00     0.031 A 
ATOM     37  C   UNL A   1      40.830  29.012  29.237  1.00  0.00     0.074 A 
ATOM     38  C   UNL A   1      42.850  28.280  30.453  1.00  0.00     0.049 A 
ATOM     39  N   UNL A   1      40.188  29.664  30.174  1.00  0.00    -0.248 NA
ATOM     40  C   UNL A   1      40.135  28.984  27.941  1.00  0.00     0.031 C 
ATOM     41  C   UNL A   1      44.133  27.608  30.650  1.00  0.00     0.029 A 
ATOM     42  N   UNL A   1      42.569  28.838  31.675  1.00  0.00    -0.354 N 
ATOM     43  C   UNL A   1      39.017  30.119  29.583  1.00  0.00     0.074 A 
ATOM     44  C   UNL A   1      39.052  29.702  28.197  1.00  0.00     0.031 C 
ATOM     45  C   UNL A   1      44.528  27.791  31.921  1.00  0.00     0.029 A 
ATOM     46  C   UNL A   1      43.535  28.606  32.620  1.00  0.00     0.049 A 
ATOM     47  H   UNL A   1      41.751  29.355  31.856  1.00  0.00     0.167 HD
ATOM     48  C   UNL A   1      37.996  30.809  30.147  1.00  0.00     0.037 A 
ATOM     49  C   UNL A   1      43.612  29.009  33.903  1.00  0.00     0.037 A 
ATOM     50  C   UNL A   1      37.959  31.226  31.525  1.00  0.00     0.049 A 
ATOM     51  C   UNL A   1      42.483  29.813  34.495  1.00  0.00     0.074 A 
ATOM     52  C   UNL A   1      36.963  31.916  32.193  1.00  0.00     0.029 A 
ATOM     53  N   UNL A   1      38.970  30.994  32.446  1.00  0.00    -0.354 N 
ATOM     54  N   UNL A   1      41.363  30.206  33.939  1.00  0.00    -0.248 NA
ATOM     55  C   UNL A   1      42.627  30.218  35.901  1.00  0.00     0.031 C 
ATOM     56  C   UNL A   1      37.389  32.140  33.507  1.00  0.00     0.029 A 
ATOM     57  C   UNL A   1      38.630  31.546  33.671  1.00  0.00     0.049 A 
ATOM     58  H   UNL A   1      39.806  30.509  32.257  1.00  0.00     0.167 HD
ATOM     59  C   UNL A   1      40.658  30.877  34.931  1.00  0.00     0.074 A 
ATOM     60  C   UNL A   1      41.470  30.824  36.128  1.00  0.00     0.031 C 
ATOM     61  C   UNL A   1      39.447  31.482  34.856  1.00  0.00     0.037 A 
BRANCH  48  62
ATOM     62  C   UNL A   1      36.838  31.175  29.265  1.00  0.00     0.064 A 
ATOM     63  C   UNL A   1      35.868  30.230  28.897  1.00  0.00     0.173 A 
ATOM     64  C   UNL A   1      36.680  32.491  28.809  1.00  0.00     0.173 A 
ATOM     65  F   UNL A   1      35.981  28.954  29.296  1.00  0.00    -0.203 F 
ATOM     66  C   UNL A   1      34.795  30.586  28.084  1.00  0.00     0.198 A 
ATOM     67  C   UNL A   1      35.590  32.849  28.019  1.00  0.00     0.198 A 
ATOM     68  F   UNL A   1      37.577  33.433  29.135  1.00  0.00    -0.203 F 
ATOM     69  F   UNL A   1      33.903  29.658  27.709  1.00  0.00    -0.200 F 
ATOM     70  C   UNL A   1      34.653  31.896  27.651  1.00  0.00     0.200 A 
ATOM     71  F   UNL A   1      35.449  34.119  27.610  1.00  0.00    -0.200 F 
ATOM     72  F   UNL A   1      33.616  32.238  26.875  1.00  0.00    -0.200 F 
ENDBRANCH  48  62
BRANCH  49  73
ATOM     73  C   UNL A   1      44.796  28.651  34.723  1.00  0.00     0.064 A 
ATOM     74  C   UNL A   1      44.865  27.428  35.404  1.00  0.00     0.173 A 
ATOM     75  C   UNL A   1      45.876  29.535  34.860  1.00  0.00     0.173 A 
ATOM     76  F   UNL A   1      43.844  26.561  35.326  1.00  0.00    -0.203 F 
ATOM     77  C   UNL A   1      45.959  27.111  36.205  1.00  0.00     0.198 A 
ATOM     78  C   UNL A   1      46.984  29.206  35.639  1.00  0.00     0.198 A 
ATOM     79  F   UNL A   1      45.858  30.720  34.231  1.00  0.00    -0.203 F 
ATOM     80  F   UNL A   1      45.977  25.955  36.884  1.00  0.00    -0.200 F 
ATOM     81  C   UNL A   1      47.020  27.997  36.318  1.00  0.00     0.200 A 
ATOM     82  F   UNL A   1      48.009  30.061  35.739  1.00  0.00    -0.200 F 
ATOM     83  F   UNL A   1      48.072  27.691  37.088  1.00  0.00    -0.200 F 
ENDBRANCH  49  73
BRANCH  61  84
ATOM     84  C   UNL A   1      38.912  32.103  36.115  1.00  0.00     0.064 A 
ATOM     85  C   UNL A   1      39.186  33.437  36.454  1.00  0.00     0.173 A 
ATOM     86  C   UNL A   1      38.102  31.358  36.986  1.00  0.00     0.173 A 
ATOM     87  F   UNL A   1      39.966  34.188  35.661  1.00  0.00    -0.203 F 
ATOM     88  C   UNL A   1      38.697  33.991  37.633  1.00  0.00     0.198 A 
ATOM     89  C   UNL A   1      37.590  31.925  38.151  1.00  0.00     0.198 A 
ATOM     90  F   UNL A   1      37.803  30.081  36.706  1.00  0.00    -0.203 F 
ATOM     91  F   UNL A   1      39.018  35.250  37.964  1.00  0.00    -0.200 F 
ATOM     92  C   UNL A   1      37.896  33.236  38.478  1.00  0.00     0.200 A 
ATOM     93  F   UNL A   1      36.806  31.198  38.959  1.00  0.00    -0.200 F 
ATOM     94  F   UNL A   1      37.428  33.771  39.615  1.00  0.00    -0.200 F 
ENDBRANCH  61  84
ENDBRANCH  35  36
ENDBRANCH  28  30
ENDBRANCH  27  28
ENDBRANCH  26  27
ENDBRANCH  25  26
ENDBRANCH   1  25
TORSDOF 16
ENDMDL
MODEL 3
REMARK VINA RESULT:     -11.5      3.753      9.446
REMARK SMILES CC1(C)C[C@@H](Nc2ccc(Cl)c(C(=O)OCCOCCOC(=O)c3ccc(-c4c5nc(c(-c6c(F)c(F)c(F)c(F)c6F)c6ccc([nH]6)c(-c6c(F)c(F)c(F)c(F)c6F)c6nc(c(-c7c(F)c(F)c(F)c(F)c7F)c7ccc4[nH]7)C=C6)C=C5)cc3)c2)C(C)(C)O1
REMARK SMILES IDX 18 1 17 2 16 3 15 4 13 5 14 6 12 7 7 8 8 9 87 10 9 11 10 12
REMARK SMILES IDX 11 13 6 14 5 16 1 17 2 18 3 19 4 20 91 21 88 22 89 23 90 24
REMARK SMILES IDX 19 25 20 26 21 27 22 28 23 29 24 30 25 31 86 32 26 33 85 34
REMARK SMILES IDX 27 35 28 36 29 37 79 38 30 39 84 40 78 41 80 42 31 43 83 44
REMARK SMILES IDX 77 45 76 46 32 48 64 49 44 50 63 51 45 52 48 53 62 54 81 55
REMARK SMILES IDX 46 56 47 57 61 59 82 60 49 61 33 62 34 63 42 64 35 65 36 66
REMARK SMILES IDX 40 67 43 68 37 69 38 70 41 71 39 72 65 73 66 74 74 75 67 76
REMARK SMILES IDX 68 77 72 78 75 79 69 80 70 81 73 82 71 83 50 84 51 85 59 86
REMARK SMILES IDX 52 87 53 88 57 89 60 90 54 91 55 92 58 93 56 94
REMARK H PARENT 6 15 80 47 48 58
REMARK Flexibility Score: inf
ROOT
ATOM      1  O   UNL A   1      31.885  29.863  27.268  1.00  0.00    -0.374 OA
ENDROOT
BRANCH   1   2
ATOM      2  C   UNL A   1      32.324  28.620  26.712  1.00  0.00     0.202 C 
BRANCH   2   3
ATOM      3  C   UNL A   1      31.491  28.104  25.537  1.00  0.00     0.261 C 
BRANCH   3   4
ATOM      4  O   UNL A   1      31.086  26.750  25.791  1.00  0.00    -0.460 OA
BRANCH   4   5
ATOM      5  C   UNL A   1      30.319  26.179  24.839  1.00  0.00     0.339 C 
ATOM      6  O   UNL A   1      29.101  26.246  24.738  1.00  0.00    -0.246 OA
BRANCH   5   7
ATOM      7  C   UNL A   1      31.169  25.625  23.769  1.00  0.00     0.080 A 
ATOM      8  C   UNL A   1      32.695  23.825  23.168  1.00  0.00     0.035 A 
ATOM      9  C   UNL A   1      32.933  24.463  21.950  1.00  0.00     0.027 A 
ATOM     10  C   UNL A   1      31.810  24.410  24.071  1.00  0.00     0.043 A 
ATOM     11  C   UNL A   1      32.271  25.651  21.624  1.00  0.00     0.023 A 
ATOM     12  C   UNL A   1      31.389  26.242  22.536  1.00  0.00     0.055 A 
ATOM     13  Cl  UNL A   1      30.672  27.746  22.088  1.00  0.00    -0.083 Cl
BRANCH   8  14
ATOM     14  N   UNL A   1      33.427  22.698  23.531  1.00  0.00    -0.379 N 
ATOM     15  H   UNL A   1      33.249  21.810  23.146  1.00  0.00     0.160 HD
BRANCH  14  16
ATOM     16  C   UNL A   1      34.482  22.923  24.524  1.00  0.00     0.113 C 
ATOM     17  C   UNL A   1      37.843  21.434  25.033  1.00  0.00     0.042 C 
ATOM     18  C   UNL A   1      36.675  22.393  25.236  1.00  0.00     0.065 C 
ATOM     19  C   UNL A   1      37.191  23.731  25.780  1.00  0.00     0.042 C 
ATOM     20  C   UNL A   1      35.843  22.559  23.967  1.00  0.00     0.062 C 
ATOM     21  O   UNL A   1      35.783  21.836  26.221  1.00  0.00    -0.367 OA
ATOM     22  C   UNL A   1      34.410  22.043  25.798  1.00  0.00     0.083 C 
ATOM     23  C   UNL A   1      33.815  20.645  25.594  1.00  0.00     0.044 C 
ATOM     24  C   UNL A   1      33.673  22.752  26.935  1.00  0.00     0.044 C 
ENDBRANCH  14  16
ENDBRANCH   8  14
ENDBRANCH   5   7
ENDBRANCH   4   5
ENDBRANCH   3   4
ENDBRANCH   2   3
ENDBRANCH   1   2
BRANCH   1  25
ATOM     25  C   UNL A   1      31.678  30.945  26.360  1.00  0.00     0.202 C 
BRANCH  25  26
ATOM     26  C   UNL A   1      31.642  32.345  26.985  1.00  0.00     0.261 C 
BRANCH  26  27
ATOM     27  O   UNL A   1      32.881  33.054  26.806  1.00  0.00    -0.460 OA
BRANCH  27  28
ATOM     28  C   UNL A   1      33.417  33.545  27.947  1.00  0.00     0.338 C 
ATOM     29  O   UNL A   1      32.916  34.359  28.712  1.00  0.00    -0.246 OA
BRANCH  28  30
ATOM     30  C   UNL A   1      34.675  32.847  28.270  1.00  0.00     0.060 A 
ATOM     31  C   UNL A   1      34.571  31.581  28.859  1.00  0.00     0.016 A 
ATOM     32  C   UNL A   1      35.926  33.442  28.086  1.00  0.00     0.016 A 
ATOM     33  C   UNL A   1      35.711  30.931  29.322  1.00  0.00     0.010 A 
ATOM     34  C   UNL A   1      37.072  32.789  28.557  1.00  0.00     0.010 A 
ATOM     35  C   UNL A   1      36.965  31.549  29.212  1.00  0.00    -0.014 A 
BRANCH  35  36
ATOM     36  C   UNL A   1      38.126  30.944  29.910  1.00  0.00     0.031 A 
ATOM     37  C   UNL A   1      38.382  31.295  31.350  1.00  0.00     0.074 A 
ATOM     38  C   UNL A   1      38.904  30.041  29.288  1.00  0.00     0.049 A 
ATOM     39  N   UNL A   1      39.300  30.841  32.167  1.00  0.00    -0.248 NA
ATOM     40  C   UNL A   1      37.484  32.291  31.952  1.00  0.00     0.031 C 
ATOM     41  C   UNL A   1      38.745  29.602  27.904  1.00  0.00     0.029 A 
ATOM     42  N   UNL A   1      39.982  29.327  29.748  1.00  0.00    -0.354 N 
ATOM     43  C   UNL A   1      39.087  31.491  33.375  1.00  0.00     0.074 A 
ATOM     44  C   UNL A   1      37.978  32.399  33.177  1.00  0.00     0.031 C 
ATOM     45  C   UNL A   1      39.691  28.689  27.626  1.00  0.00     0.029 A 
ATOM     46  C   UNL A   1      40.532  28.495  28.807  1.00  0.00     0.049 A 
ATOM     47  H   UNL A   1      40.328  29.404  30.667  1.00  0.00     0.167 HD
ATOM     48  C   UNL A   1      39.745  31.334  34.549  1.00  0.00     0.037 A 
ATOM     49  C   UNL A   1      41.595  27.672  28.888  1.00  0.00     0.037 A 
ATOM     50  C   UNL A   1      40.850  30.432  34.748  1.00  0.00     0.049 A 
ATOM     51  C   UNL A   1      42.338  27.548  30.193  1.00  0.00     0.074 A 
ATOM     52  C   UNL A   1      41.572  30.192  35.904  1.00  0.00     0.029 A 
ATOM     53  N   UNL A   1      41.395  29.623  33.762  1.00  0.00    -0.354 N 
ATOM     54  N   UNL A   1      42.105  28.139  31.339  1.00  0.00    -0.248 NA
ATOM     55  C   UNL A   1      43.487  26.630  30.215  1.00  0.00     0.031 C 
ATOM     56  C   UNL A   1      42.583  29.271  35.607  1.00  0.00     0.029 A 
ATOM     57  C   UNL A   1      42.458  28.898  34.278  1.00  0.00     0.049 A 
ATOM     58  H   UNL A   1      41.074  29.571  32.833  1.00  0.00     0.167 HD
ATOM     59  C   UNL A   1      43.056  27.645  32.225  1.00  0.00     0.074 A 
ATOM     60  C   UNL A   1      43.859  26.693  31.485  1.00  0.00     0.031 C 
ATOM     61  C   UNL A   1      43.246  27.951  33.532  1.00  0.00     0.037 A 
BRANCH  48  62
ATOM     62  C   UNL A   1      39.299  32.175  35.709  1.00  0.00     0.064 A 
ATOM     63  C   UNL A   1      39.794  33.473  35.909  1.00  0.00     0.173 A 
ATOM     64  C   UNL A   1      38.342  31.690  36.612  1.00  0.00     0.173 A 
ATOM     65  F   UNL A   1      40.721  33.977  35.081  1.00  0.00    -0.203 F 
ATOM     66  C   UNL A   1      39.363  34.244  36.985  1.00  0.00     0.198 A 
ATOM     67  C   UNL A   1      37.893  32.476  37.670  1.00  0.00     0.198 A 
ATOM     68  F   UNL A   1      37.834  30.458  36.463  1.00  0.00    -0.203 F 
ATOM     69  F   UNL A   1      39.881  35.465  37.183  1.00  0.00    -0.200 F 
ATOM     70  C   UNL A   1      38.410  33.748  37.861  1.00  0.00     0.200 A 
ATOM     71  F   UNL A   1      36.963  31.998  38.510  1.00  0.00    -0.200 F 
ATOM     72  F   UNL A   1      37.991  34.495  38.893  1.00  0.00    -0.200 F 
ENDBRANCH  48  62
BRANCH  49  73
ATOM     73  C   UNL A   1      42.019  26.888  27.700  1.00  0.00     0.064 A 
ATOM     74  C   UNL A   1      41.518  25.600  27.464  1.00  0.00     0.173 A 
ATOM     75  C   UNL A   1      42.949  27.404  26.787  1.00  0.00     0.173 A 
ATOM     76  F   UNL A   1      40.646  25.054  28.325  1.00  0.00    -0.203 F 
ATOM     77  C   UNL A   1      41.946  24.852  26.371  1.00  0.00     0.198 A 
ATOM     78  C   UNL A   1      43.357  26.665  25.677  1.00  0.00     0.198 A 
ATOM     79  F   UNL A   1      43.460  28.631  26.969  1.00  0.00    -0.203 F 
ATOM     80  F   UNL A   1      41.489  23.604  26.195  1.00  0.00    -0.200 F 
ATOM     81  C   UNL A   1      42.861  25.386  25.475  1.00  0.00     0.200 A 
ATOM     82  F   UNL A   1      44.233  27.188  24.811  1.00  0.00    -0.200 F 
ATOM     83  F   UNL A   1      43.272  24.665  24.424  1.00  0.00    -0.200 F 
ENDBRANCH  49  73
BRANCH  61  84
ATOM     84  C   UNL A   1      44.344  27.223  34.254  1.00  0.00     0.064 A 
ATOM     85  C   UNL A   1      44.126  25.979  34.865  1.00  0.00     0.173 A 
ATOM     86  C   UNL A   1      45.634  27.770  34.321  1.00  0.00     0.173 A 
ATOM     87  F   UNL A   1      42.907  25.420  34.841  1.00  0.00    -0.203 F 
ATOM     88  C   UNL A   1      45.151  25.328  35.546  1.00  0.00     0.198 A 
ATOM     89  C   UNL A   1      46.664  27.101  34.977  1.00  0.00     0.198 A 
ATOM     90  F   UNL A   1      45.898  28.953  33.746  1.00  0.00    -0.203 F 
ATOM     91  F   UNL A   1      44.906  24.167  36.171  1.00  0.00    -0.200 F 
ATOM     92  C   UNL A   1      46.419  25.886  35.597  1.00  0.00     0.200 A 
ATOM     93  F   UNL A   1      47.892  27.637  35.014  1.00  0.00    -0.200 F 
ATOM     94  F   UNL A   1      47.404  25.258  36.255  1.00  0.00    -0.200 F 
ENDBRANCH  61  84
ENDBRANCH  35  36
ENDBRANCH  28  30
ENDBRANCH  27  28
ENDBRANCH  26  27
ENDBRANCH  25  26
ENDBRANCH   1  25
TORSDOF 16
ENDMDL
