MODEL 1
REMARK VINA RESULT:     -10.2      0.000      0.000
REMARK SMILES C[C@@H](C(=O)OCCOCCOC(=O)c1ccc(-c2c3nc(c(-c4c(F)c(F)c(F)c(F)c4F)c4ccc([nH]4)c(-c4c(F)c(F)c(F)c(F)c4F)c4nc(c(-c5c(F)c(F)c(F)c(F)c5F)c5ccc2[nH]5)C=C4)C=C3)cc1)c1ccc(-c2ccccc2)c(F)c1
REMARK SMILES IDX 8 1 7 2 6 3 5 4 3 5 4 6 2 7 1 8 77 9 78 10 89 11 79 12 87 13
REMARK SMILES IDX 80 14 88 15 81 16 82 17 86 18 83 19 85 20 84 21 9 22 10 23
REMARK SMILES IDX 11 24 12 25 13 26 14 27 15 28 76 29 16 30 75 31 17 32 18 33
REMARK SMILES IDX 19 34 69 35 20 36 74 37 68 38 70 39 21 40 73 41 67 42 66 43
REMARK SMILES IDX 22 45 54 46 34 47 53 48 35 49 38 50 52 51 71 52 36 53 37 54
REMARK SMILES IDX 51 56 72 57 39 58 23 59 24 60 32 61 25 62 26 63 30 64 33 65
REMARK SMILES IDX 27 66 28 67 31 68 29 69 55 70 56 71 64 72 57 73 58 74 62 75
REMARK SMILES IDX 65 76 59 77 60 78 63 79 61 80 40 81 41 82 49 83 42 84 43 85
REMARK SMILES IDX 47 86 50 87 44 88 45 89 48 90 46 91
REMARK H PARENT 70 44 38 55
REMARK Flexibility Score: inf
ROOT
ATOM      1  O   UNL A   1      32.685  34.988  29.914  1.00  0.00    -0.374 OA
ENDROOT
BRANCH   1   2
ATOM      2  C   UNL A   1      32.838  36.202  30.652  1.00  0.00     0.202 C 
BRANCH   2   3
ATOM      3  C   UNL A   1      33.030  36.038  32.163  1.00  0.00     0.261 C 
BRANCH   3   4
ATOM      4  O   UNL A   1      34.429  36.090  32.488  1.00  0.00    -0.463 OA
BRANCH   4   5
ATOM      5  C   UNL A   1      34.975  34.929  32.936  1.00  0.00     0.313 C 
ATOM      6  O   UNL A   1      35.121  34.649  34.122  1.00  0.00    -0.252 OA
BRANCH   5   7
ATOM      7  C   UNL A   1      35.296  33.957  31.798  1.00  0.00     0.126 C 
ATOM      8  C   UNL A   1      34.884  32.506  32.076  1.00  0.00     0.025 C 
BRANCH   7   9
ATOM      9  C   UNL A   1      36.746  34.032  31.318  1.00  0.00    -0.031 A 
ATOM     10  C   UNL A   1      37.046  33.698  29.989  1.00  0.00     0.005 A 
ATOM     11  C   UNL A   1      37.807  34.426  32.146  1.00  0.00     0.044 A 
ATOM     12  C   UNL A   1      38.355  33.788  29.497  1.00  0.00     0.012 A 
ATOM     13  C   UNL A   1      39.112  34.507  31.650  1.00  0.00     0.131 A 
ATOM     14  C   UNL A   1      39.413  34.212  30.316  1.00  0.00     0.017 A 
ATOM     15  F   UNL A   1      40.081  34.907  32.489  1.00  0.00    -0.206 F 
BRANCH  14  16
ATOM     16  C   UNL A   1      40.769  34.375  29.768  1.00  0.00    -0.015 A 
ATOM     17  C   UNL A   1      41.801  33.501  30.153  1.00  0.00     0.009 A 
ATOM     18  C   UNL A   1      41.076  35.390  28.847  1.00  0.00     0.009 A 
ATOM     19  C   UNL A   1      43.092  33.635  29.637  1.00  0.00     0.001 A 
ATOM     20  C   UNL A   1      42.370  35.528  28.334  1.00  0.00     0.001 A 
ATOM     21  C   UNL A   1      43.377  34.651  28.729  1.00  0.00     0.000 A 
ENDBRANCH  14  16
ENDBRANCH   7   9
ENDBRANCH   5   7
ENDBRANCH   4   5
ENDBRANCH   3   4
ENDBRANCH   2   3
ENDBRANCH   1   2
BRANCH   1  22
ATOM     22  C   UNL A   1      33.460  34.839  28.724  1.00  0.00     0.202 C 
BRANCH  22  23
ATOM     23  C   UNL A   1      33.389  33.475  28.027  1.00  0.00     0.261 C 
BRANCH  23  24
ATOM     24  O   UNL A   1      34.325  32.534  28.584  1.00  0.00    -0.460 OA
BRANCH  24  25
ATOM     25  C   UNL A   1      34.321  31.318  27.993  1.00  0.00     0.338 C 
ATOM     26  O   UNL A   1      33.510  30.888  27.182  1.00  0.00    -0.246 OA
BRANCH  25  27
ATOM     27  C   UNL A   1      35.556  30.586  28.321  1.00  0.00     0.060 A 
ATOM     28  C   UNL A   1      35.583  29.881  29.530  1.00  0.00     0.016 A 
ATOM     29  C   UNL A   1      36.693  30.654  27.512  1.00  0.00     0.016 A 
ATOM     30  C   UNL A   1      36.763  29.286  29.966  1.00  0.00     0.010 A 
ATOM     31  C   UNL A   1      37.882  30.063  27.955  1.00  0.00     0.010 A 
ATOM     32  C   UNL A   1      37.931  29.411  29.201  1.00  0.00    -0.014 A 
BRANCH  32  33
ATOM     33  C   UNL A   1      39.228  28.998  29.790  1.00  0.00     0.031 A 
ATOM     34  C   UNL A   1      39.737  29.720  31.007  1.00  0.00     0.074 A 
ATOM     35  C   UNL A   1      39.920  27.968  29.275  1.00  0.00     0.049 A 
ATOM     36  N   UNL A   1      40.841  29.534  31.683  1.00  0.00    -0.248 NA
ATOM     37  C   UNL A   1      38.882  30.797  31.532  1.00  0.00     0.031 C 
ATOM     38  C   UNL A   1      39.508  27.164  28.126  1.00  0.00     0.029 A 
ATOM     39  N   UNL A   1      41.119  27.421  29.658  1.00  0.00    -0.354 N 
ATOM     40  C   UNL A   1      40.817  30.470  32.708  1.00  0.00     0.074 A 
ATOM     41  C   UNL A   1      39.604  31.242  32.550  1.00  0.00     0.031 C 
ATOM     42  C   UNL A   1      40.444  26.228  27.892  1.00  0.00     0.029 A 
ATOM     43  C   UNL A   1      41.532  26.386  28.856  1.00  0.00     0.049 A 
ATOM     44  H   UNL A   1      41.635  27.741  30.433  1.00  0.00     0.167 HD
ATOM     45  C   UNL A   1      41.722  30.662  33.698  1.00  0.00     0.037 A 
ATOM     46  C   UNL A   1      42.666  25.662  28.889  1.00  0.00     0.037 A 
ATOM     47  C   UNL A   1      42.925  29.889  33.857  1.00  0.00     0.049 A 
ATOM     48  C   UNL A   1      43.690  25.940  29.960  1.00  0.00     0.074 A 
ATOM     49  C   UNL A   1      43.892  29.989  34.841  1.00  0.00     0.029 A 
ATOM     50  N   UNL A   1      43.328  28.874  33.001  1.00  0.00    -0.354 N 
ATOM     51  N   UNL A   1      43.647  26.808  30.941  1.00  0.00    -0.248 NA
ATOM     52  C   UNL A   1      44.920  25.135  29.927  1.00  0.00     0.031 C 
ATOM     53  C   UNL A   1      44.906  29.068  34.553  1.00  0.00     0.029 A 
ATOM     54  C   UNL A   1      44.545  28.360  33.419  1.00  0.00     0.049 A 
ATOM     55  H   UNL A   1      42.825  28.567  32.213  1.00  0.00     0.167 HD
ATOM     56  C   UNL A   1      44.825  26.635  31.657  1.00  0.00     0.074 A 
ATOM     57  C   UNL A   1      45.558  25.571  31.003  1.00  0.00     0.031 C 
ATOM     58  C   UNL A   1      45.259  27.296  32.759  1.00  0.00     0.037 A 
BRANCH  45  59
ATOM     59  C   UNL A   1      41.457  31.771  34.672  1.00  0.00     0.064 A 
ATOM     60  C   UNL A   1      41.985  33.058  34.488  1.00  0.00     0.173 A 
ATOM     61  C   UNL A   1      40.637  31.551  35.789  1.00  0.00     0.173 A 
ATOM     62  F   UNL A   1      42.788  33.315  33.444  1.00  0.00    -0.203 F 
ATOM     63  C   UNL A   1      41.723  34.076  35.401  1.00  0.00     0.198 A 
ATOM     64  C   UNL A   1      40.355  32.579  36.685  1.00  0.00     0.198 A 
ATOM     65  F   UNL A   1      40.105  30.340  36.009  1.00  0.00    -0.203 F 
ATOM     66  F   UNL A   1      42.274  35.286  35.230  1.00  0.00    -0.200 F 
ATOM     67  C   UNL A   1      40.904  33.838  36.494  1.00  0.00     0.200 A 
ATOM     68  F   UNL A   1      39.555  32.350  37.735  1.00  0.00    -0.200 F 
ATOM     69  F   UNL A   1      40.647  34.822  37.369  1.00  0.00    -0.200 F 
ENDBRANCH  45  59
BRANCH  46  70
ATOM     70  C   UNL A   1      42.902  24.604  27.872  1.00  0.00     0.064 A 
ATOM     71  C   UNL A   1      43.475  24.909  26.631  1.00  0.00     0.173 A 
ATOM     72  C   UNL A   1      42.545  23.270  28.117  1.00  0.00     0.173 A 
ATOM     73  F   UNL A   1      43.809  26.175  26.340  1.00  0.00    -0.203 F 
ATOM     74  C   UNL A   1      43.669  23.921  25.667  1.00  0.00     0.198 A 
ATOM     75  C   UNL A   1      42.763  22.280  27.163  1.00  0.00     0.198 A 
ATOM     76  F   UNL A   1      41.989  22.927  29.289  1.00  0.00    -0.203 F 
ATOM     77  F   UNL A   1      44.179  24.247  24.471  1.00  0.00    -0.200 F 
ATOM     78  C   UNL A   1      43.318  22.607  25.936  1.00  0.00     0.200 A 
ATOM     79  F   UNL A   1      42.432  21.009  27.431  1.00  0.00    -0.200 F 
ATOM     80  F   UNL A   1      43.508  21.658  25.009  1.00  0.00    -0.200 F 
ENDBRANCH  46  70
BRANCH  58  81
ATOM     81  C   UNL A   1      46.571  26.867  33.348  1.00  0.00     0.064 A 
ATOM     82  C   UNL A   1      46.650  25.838  34.297  1.00  0.00     0.173 A 
ATOM     83  C   UNL A   1      47.768  27.464  32.923  1.00  0.00     0.173 A 
ATOM     84  F   UNL A   1      45.533  25.246  34.745  1.00  0.00    -0.203 F 
ATOM     85  C   UNL A   1      47.879  25.437  34.817  1.00  0.00     0.198 A 
ATOM     86  C   UNL A   1      48.996  27.042  33.424  1.00  0.00     0.198 A 
ATOM     87  F   UNL A   1      47.747  28.448  32.012  1.00  0.00    -0.203 F 
ATOM     88  F   UNL A   1      47.927  24.482  35.754  1.00  0.00    -0.200 F 
ATOM     89  C   UNL A   1      49.050  26.034  34.374  1.00  0.00     0.200 A 
ATOM     90  F   UNL A   1      50.129  27.610  32.986  1.00  0.00    -0.200 F 
ATOM     91  F   UNL A   1      50.232  25.642  34.870  1.00  0.00    -0.200 F 
ENDBRANCH  58  81
ENDBRANCH  32  33
ENDBRANCH  25  27
ENDBRANCH  24  25
ENDBRANCH  23  24
ENDBRANCH  22  23
ENDBRANCH   1  22
TORSDOF 16
ENDMDL
MODEL 2
REMARK VINA RESULT:     -10.1      4.699     11.459
REMARK SMILES C[C@@H](C(=O)OCCOCCOC(=O)c1ccc(-c2c3nc(c(-c4c(F)c(F)c(F)c(F)c4F)c4ccc([nH]4)c(-c4c(F)c(F)c(F)c(F)c4F)c4nc(c(-c5c(F)c(F)c(F)c(F)c5F)c5ccc2[nH]5)C=C4)C=C3)cc1)c1ccc(-c2ccccc2)c(F)c1
REMARK SMILES IDX 8 1 7 2 6 3 5 4 3 5 4 6 2 7 1 8 77 9 78 10 89 11 79 12 87 13
REMARK SMILES IDX 80 14 88 15 81 16 82 17 86 18 83 19 85 20 84 21 9 22 10 23
REMARK SMILES IDX 11 24 12 25 13 26 14 27 15 28 76 29 16 30 75 31 17 32 18 33
REMARK SMILES IDX 19 34 69 35 20 36 74 37 68 38 70 39 21 40 73 41 67 42 66 43
REMARK SMILES IDX 22 45 54 46 34 47 53 48 35 49 38 50 52 51 71 52 36 53 37 54
REMARK SMILES IDX 51 56 72 57 39 58 23 59 24 60 32 61 25 62 26 63 30 64 33 65
REMARK SMILES IDX 27 66 28 67 31 68 29 69 55 70 56 71 64 72 57 73 58 74 62 75
REMARK SMILES IDX 65 76 59 77 60 78 63 79 61 80 40 81 41 82 49 83 42 84 43 85
REMARK SMILES IDX 47 86 50 87 44 88 45 89 48 90 46 91
REMARK H PARENT 70 44 38 55
REMARK Flexibility Score: inf
ROOT
ATOM      1  O   UNL A   1      46.361  21.832  25.004  1.00  0.00    -0.374 OA
ENDROOT
BRANCH   1   2
ATOM      2  C   UNL A   1      45.552  20.941  24.234  1.00  0.00     0.202 C 
BRANCH   2   3
ATOM      3  C   UNL A   1      44.627  20.024  25.040  1.00  0.00     0.261 C 
BRANCH   3   4
ATOM      4  O   UNL A   1      43.338  20.641  25.194  1.00  0.00    -0.463 OA
BRANCH   4   5
ATOM      5  C   UNL A   1      43.053  21.109  26.439  1.00  0.00     0.313 C 
ATOM      6  O   UNL A   1      43.594  22.084  26.948  1.00  0.00    -0.252 OA
BRANCH   5   7
ATOM      7  C   UNL A   1      41.903  20.344  27.099  1.00  0.00     0.126 C 
ATOM      8  C   UNL A   1      42.114  18.826  27.166  1.00  0.00     0.025 C 
BRANCH   7   9
ATOM      9  C   UNL A   1      40.529  20.682  26.519  1.00  0.00    -0.031 A 
ATOM     10  C   UNL A   1      40.017  21.978  26.680  1.00  0.00     0.005 A 
ATOM     11  C   UNL A   1      39.743  19.753  25.822  1.00  0.00     0.044 A 
ATOM     12  C   UNL A   1      38.779  22.342  26.132  1.00  0.00     0.012 A 
ATOM     13  C   UNL A   1      38.505  20.121  25.284  1.00  0.00     0.131 A 
ATOM     14  C   UNL A   1      38.005  21.422  25.408  1.00  0.00     0.017 A 
ATOM     15  F   UNL A   1      37.809  19.189  24.613  1.00  0.00    -0.206 F 
BRANCH  14  16
ATOM     16  C   UNL A   1      36.743  21.835  24.773  1.00  0.00    -0.015 A 
ATOM     17  C   UNL A   1      35.517  21.317  25.226  1.00  0.00     0.009 A 
ATOM     18  C   UNL A   1      36.716  22.757  23.714  1.00  0.00     0.009 A 
ATOM     19  C   UNL A   1      34.309  21.703  24.641  1.00  0.00     0.001 A 
ATOM     20  C   UNL A   1      35.507  23.141  23.125  1.00  0.00     0.001 A 
ATOM     21  C   UNL A   1      34.304  22.614  23.590  1.00  0.00     0.000 A 
ENDBRANCH  14  16
ENDBRANCH   7   9
ENDBRANCH   5   7
ENDBRANCH   4   5
ENDBRANCH   3   4
ENDBRANCH   2   3
ENDBRANCH   1   2
BRANCH   1  22
ATOM     22  C   UNL A   1      46.487  23.176  24.537  1.00  0.00     0.202 C 
BRANCH  22  23
ATOM     23  C   UNL A   1      45.932  24.274  25.451  1.00  0.00     0.261 C 
BRANCH  23  24
ATOM     24  O   UNL A   1      45.015  25.141  24.761  1.00  0.00    -0.460 OA
BRANCH  24  25
ATOM     25  C   UNL A   1      43.725  24.738  24.793  1.00  0.00     0.338 C 
ATOM     26  O   UNL A   1      43.240  23.749  24.255  1.00  0.00    -0.246 OA
BRANCH  25  27
ATOM     27  C   UNL A   1      42.952  25.567  25.733  1.00  0.00     0.060 A 
ATOM     28  C   UNL A   1      43.388  26.883  25.935  1.00  0.00     0.016 A 
ATOM     29  C   UNL A   1      41.881  25.053  26.467  1.00  0.00     0.016 A 
ATOM     30  C   UNL A   1      42.790  27.674  26.912  1.00  0.00     0.010 A 
ATOM     31  C   UNL A   1      41.287  25.845  27.455  1.00  0.00     0.010 A 
ATOM     32  C   UNL A   1      41.766  27.145  27.708  1.00  0.00    -0.014 A 
BRANCH  32  33
ATOM     33  C   UNL A   1      41.315  27.899  28.902  1.00  0.00     0.031 A 
ATOM     34  C   UNL A   1      42.080  27.749  30.188  1.00  0.00     0.074 A 
ATOM     35  C   UNL A   1      40.267  28.738  28.831  1.00  0.00     0.049 A 
ATOM     36  N   UNL A   1      41.866  28.305  31.353  1.00  0.00    -0.248 NA
ATOM     37  C   UNL A   1      43.247  26.853  30.153  1.00  0.00     0.031 C 
ATOM     38  C   UNL A   1      39.475  29.000  27.632  1.00  0.00     0.029 A 
ATOM     39  N   UNL A   1      39.692  29.527  29.796  1.00  0.00    -0.354 N 
ATOM     40  C   UNL A   1      42.864  27.823  32.189  1.00  0.00     0.074 A 
ATOM     41  C   UNL A   1      43.668  26.908  31.408  1.00  0.00     0.031 C 
ATOM     42  C   UNL A   1      38.510  29.885  27.933  1.00  0.00     0.029 A 
ATOM     43  C   UNL A   1      38.600  30.229  29.351  1.00  0.00     0.049 A 
ATOM     44  H   UNL A   1      40.030  29.583  30.719  1.00  0.00     0.167 HD
ATOM     45  C   UNL A   1      43.095  28.124  33.490  1.00  0.00     0.037 A 
ATOM     46  C   UNL A   1      37.761  31.044  30.019  1.00  0.00     0.037 A 
ATOM     47  C   UNL A   1      42.297  29.038  34.263  1.00  0.00     0.049 A 
ATOM     48  C   UNL A   1      37.999  31.309  31.484  1.00  0.00     0.074 A 
ATOM     49  C   UNL A   1      42.465  29.428  35.580  1.00  0.00     0.029 A 
ATOM     50  N   UNL A   1      41.175  29.701  33.788  1.00  0.00    -0.354 N 
ATOM     51  N   UNL A   1      38.961  30.871  32.260  1.00  0.00    -0.248 NA
ATOM     52  C   UNL A   1      37.033  32.184  32.164  1.00  0.00     0.031 C 
ATOM     53  C   UNL A   1      41.414  30.289  35.917  1.00  0.00     0.029 A 
ATOM     54  C   UNL A   1      40.622  30.475  34.796  1.00  0.00     0.049 A 
ATOM     55  H   UNL A   1      40.822  29.629  32.872  1.00  0.00     0.167 HD
ATOM     56  C   UNL A   1      38.734  31.439  33.507  1.00  0.00     0.074 A 
ATOM     57  C   UNL A   1      37.548  32.261  33.382  1.00  0.00     0.031 C 
ATOM     58  C   UNL A   1      39.445  31.293  34.653  1.00  0.00     0.037 A 
BRANCH  45  59
ATOM     59  C   UNL A   1      44.242  27.435  34.167  1.00  0.00     0.064 A 
ATOM     60  C   UNL A   1      45.519  28.012  34.226  1.00  0.00     0.173 A 
ATOM     61  C   UNL A   1      44.053  26.192  34.791  1.00  0.00     0.173 A 
ATOM     62  F   UNL A   1      45.755  29.191  33.631  1.00  0.00    -0.203 F 
ATOM     63  C   UNL A   1      46.571  27.359  34.863  1.00  0.00     0.198 A 
ATOM     64  C   UNL A   1      45.100  25.555  35.451  1.00  0.00     0.198 A 
ATOM     65  F   UNL A   1      42.850  25.599  34.766  1.00  0.00    -0.203 F 
ATOM     66  F   UNL A   1      47.794  27.907  34.870  1.00  0.00    -0.200 F 
ATOM     67  C   UNL A   1      46.359  26.135  35.481  1.00  0.00     0.200 A 
ATOM     68  F   UNL A   1      44.891  24.377  36.056  1.00  0.00    -0.200 F 
ATOM     69  F   UNL A   1      47.372  25.510  36.099  1.00  0.00    -0.200 F 
ENDBRANCH  45  59
BRANCH  46  70
ATOM     70  C   UNL A   1      36.611  31.666  29.313  1.00  0.00     0.064 A 
ATOM     71  C   UNL A   1      36.588  33.041  29.041  1.00  0.00     0.173 A 
ATOM     72  C   UNL A   1      35.508  30.901  28.909  1.00  0.00     0.173 A 
ATOM     73  F   UNL A   1      37.608  33.819  29.431  1.00  0.00    -0.203 F 
ATOM     74  C   UNL A   1      35.496  33.628  28.404  1.00  0.00     0.198 A 
ATOM     75  C   UNL A   1      34.430  31.485  28.249  1.00  0.00     0.198 A 
ATOM     76  F   UNL A   1      35.481  29.581  29.150  1.00  0.00    -0.203 F 
ATOM     77  F   UNL A   1      35.479  34.951  28.194  1.00  0.00    -0.200 F 
ATOM     78  C   UNL A   1      34.421  32.849  28.003  1.00  0.00     0.200 A 
ATOM     79  F   UNL A   1      33.397  30.727  27.855  1.00  0.00    -0.200 F 
ATOM     80  F   UNL A   1      33.373  33.415  27.389  1.00  0.00    -0.200 F 
ENDBRANCH  46  70
BRANCH  58  81
ATOM     81  C   UNL A   1      38.981  32.064  35.854  1.00  0.00     0.064 A 
ATOM     82  C   UNL A   1      38.187  31.471  36.847  1.00  0.00     0.173 A 
ATOM     83  C   UNL A   1      39.375  33.398  36.036  1.00  0.00     0.173 A 
ATOM     84  F   UNL A   1      37.773  30.203  36.713  1.00  0.00    -0.203 F 
ATOM     85  C   UNL A   1      37.784  32.196  37.967  1.00  0.00     0.198 A 
ATOM     86  C   UNL A   1      38.994  34.110  37.170  1.00  0.00     0.198 A 
ATOM     87  F   UNL A   1      40.141  34.008  35.119  1.00  0.00    -0.203 F 
ATOM     88  F   UNL A   1      36.989  31.624  38.881  1.00  0.00    -0.200 F 
ATOM     89  C   UNL A   1      38.195  33.511  38.131  1.00  0.00     0.200 A 
ATOM     90  F   UNL A   1      39.402  35.376  37.334  1.00  0.00    -0.200 F 
ATOM     91  F   UNL A   1      37.812  34.203  39.213  1.00  0.00    -0.200 F 
ENDBRANCH  58  81
ENDBRANCH  32  33
ENDBRANCH  25  27
ENDBRANCH  24  25
ENDBRANCH  23  24
ENDBRANCH  22  23
ENDBRANCH   1  22
TORSDOF 16
ENDMDL
MODEL 3
REMARK VINA RESULT:     -10.1      4.284     10.120
REMARK SMILES C[C@@H](C(=O)OCCOCCOC(=O)c1ccc(-c2c3nc(c(-c4c(F)c(F)c(F)c(F)c4F)c4ccc([nH]4)c(-c4c(F)c(F)c(F)c(F)c4F)c4nc(c(-c5c(F)c(F)c(F)c(F)c5F)c5ccc2[nH]5)C=C4)C=C3)cc1)c1ccc(-c2ccccc2)c(F)c1
REMARK SMILES IDX 8 1 7 2 6 3 5 4 3 5 4 6 2 7 1 8 77 9 78 10 89 11 79 12 87 13
REMARK SMILES IDX 80 14 88 15 81 16 82 17 86 18 83 19 85 20 84 21 9 22 10 23
REMARK SMILES IDX 11 24 12 25 13 26 14 27 15 28 76 29 16 30 75 31 17 32 18 33
REMARK SMILES IDX 19 34 69 35 20 36 74 37 68 38 70 39 21 40 73 41 67 42 66 43
REMARK SMILES IDX 22 45 54 46 34 47 53 48 35 49 38 50 52 51 71 52 36 53 37 54
REMARK SMILES IDX 51 56 72 57 39 58 23 59 24 60 32 61 25 62 26 63 30 64 33 65
REMARK SMILES IDX 27 66 28 67 31 68 29 69 55 70 56 71 64 72 57 73 58 74 62 75
REMARK SMILES IDX 65 76 59 77 60 78 63 79 61 80 40 81 41 82 49 83 42 84 43 85
REMARK SMILES IDX 47 86 50 87 44 88 45 89 48 90 46 91
REMARK H PARENT 70 44 38 55
REMARK Flexibility Score: inf
ROOT
ATOM      1  O   UNL A   1      33.123  27.742  26.841  1.00  0.00    -0.374 OA
ENDROOT
BRANCH   1   2
ATOM      2  C   UNL A   1      33.341  26.834  25.760  1.00  0.00     0.202 C 
BRANCH   2   3
ATOM      3  C   UNL A   1      33.336  25.348  26.131  1.00  0.00     0.261 C 
BRANCH   3   4
ATOM      4  O   UNL A   1      32.426  24.633  25.278  1.00  0.00    -0.463 OA
BRANCH   4   5
ATOM      5  C   UNL A   1      31.105  24.793  25.558  1.00  0.00     0.313 C 
ATOM      6  O   UNL A   1      30.656  24.961  26.687  1.00  0.00    -0.252 OA
BRANCH   5   7
ATOM      7  C   UNL A   1      30.243  24.842  24.294  1.00  0.00     0.126 C 
ATOM      8  C   UNL A   1      30.844  24.098  23.094  1.00  0.00     0.025 C 
BRANCH   7   9
ATOM      9  C   UNL A   1      29.812  26.256  23.902  1.00  0.00    -0.031 A 
ATOM     10  C   UNL A   1      30.788  27.190  23.523  1.00  0.00     0.005 A 
ATOM     11  C   UNL A   1      28.473  26.674  23.897  1.00  0.00     0.044 A 
ATOM     12  C   UNL A   1      30.434  28.484  23.120  1.00  0.00     0.012 A 
ATOM     13  C   UNL A   1      28.128  27.970  23.500  1.00  0.00     0.131 A 
ATOM     14  C   UNL A   1      29.092  28.896  23.085  1.00  0.00     0.017 A 
ATOM     15  F   UNL A   1      26.827  28.304  23.502  1.00  0.00    -0.206 F 
BRANCH  14  16
ATOM     16  C   UNL A   1      28.728  30.232  22.588  1.00  0.00    -0.015 A 
ATOM     17  C   UNL A   1      28.743  31.340  23.454  1.00  0.00     0.009 A 
ATOM     18  C   UNL A   1      28.366  30.449  21.249  1.00  0.00     0.009 A 
ATOM     19  C   UNL A   1      28.408  32.617  22.999  1.00  0.00     0.001 A 
ATOM     20  C   UNL A   1      28.026  31.727  20.794  1.00  0.00     0.001 A 
ATOM     21  C   UNL A   1      28.047  32.810  21.669  1.00  0.00     0.000 A 
ENDBRANCH  14  16
ENDBRANCH   7   9
ENDBRANCH   5   7
ENDBRANCH   4   5
ENDBRANCH   3   4
ENDBRANCH   2   3
ENDBRANCH   1   2
BRANCH   1  22
ATOM     22  C   UNL A   1      31.852  28.389  26.911  1.00  0.00     0.202 C 
BRANCH  22  23
ATOM     23  C   UNL A   1      31.826  29.884  26.571  1.00  0.00     0.261 C 
BRANCH  23  24
ATOM     24  O   UNL A   1      33.143  30.404  26.316  1.00  0.00    -0.460 OA
BRANCH  24  25
ATOM     25  C   UNL A   1      33.552  31.355  27.186  1.00  0.00     0.338 C 
ATOM     26  O   UNL A   1      32.897  32.294  27.624  1.00  0.00    -0.246 OA
BRANCH  25  27
ATOM     27  C   UNL A   1      34.890  31.031  27.708  1.00  0.00     0.060 A 
ATOM     28  C   UNL A   1      35.161  29.686  27.987  1.00  0.00     0.016 A 
ATOM     29  C   UNL A   1      35.831  32.021  28.000  1.00  0.00     0.016 A 
ATOM     30  C   UNL A   1      36.352  29.328  28.612  1.00  0.00     0.010 A 
ATOM     31  C   UNL A   1      37.024  31.662  28.637  1.00  0.00     0.010 A 
ATOM     32  C   UNL A   1      37.271  30.320  28.981  1.00  0.00    -0.014 A 
BRANCH  32  33
ATOM     33  C   UNL A   1      38.406  29.961  29.865  1.00  0.00     0.031 A 
ATOM     34  C   UNL A   1      39.459  29.019  29.351  1.00  0.00     0.074 A 
ATOM     35  C   UNL A   1      38.520  30.501  31.091  1.00  0.00     0.049 A 
ATOM     36  N   UNL A   1      40.531  28.564  29.947  1.00  0.00    -0.248 NA
ATOM     37  C   UNL A   1      39.278  28.524  27.977  1.00  0.00     0.031 C 
ATOM     38  C   UNL A   1      37.589  31.458  31.682  1.00  0.00     0.029 A 
ATOM     39  N   UNL A   1      39.477  30.318  32.058  1.00  0.00    -0.354 N 
ATOM     40  C   UNL A   1      41.148  27.728  29.026  1.00  0.00     0.074 A 
ATOM     41  C   UNL A   1      40.318  27.715  27.841  1.00  0.00     0.031 C 
ATOM     42  C   UNL A   1      38.016  31.775  32.916  1.00  0.00     0.029 A 
ATOM     43  C   UNL A   1      39.234  31.022  33.211  1.00  0.00     0.049 A 
ATOM     44  H   UNL A   1      40.262  29.736  31.938  1.00  0.00     0.167 HD
ATOM     45  C   UNL A   1      42.308  27.040  29.154  1.00  0.00     0.037 A 
ATOM     46  C   UNL A   1      39.911  31.042  34.375  1.00  0.00     0.037 A 
ATOM     47  C   UNL A   1      43.135  27.059  30.331  1.00  0.00     0.049 A 
ATOM     48  C   UNL A   1      41.162  30.214  34.516  1.00  0.00     0.074 A 
ATOM     49  C   UNL A   1      44.341  26.416  30.549  1.00  0.00     0.029 A 
ATOM     50  N   UNL A   1      42.835  27.754  31.493  1.00  0.00    -0.354 N 
ATOM     51  N   UNL A   1      41.753  29.448  33.631  1.00  0.00    -0.248 NA
ATOM     52  C   UNL A   1      41.841  30.255  35.819  1.00  0.00     0.031 C 
ATOM     53  C   UNL A   1      44.747  26.683  31.862  1.00  0.00     0.029 A 
ATOM     54  C   UNL A   1      43.819  27.532  32.443  1.00  0.00     0.049 A 
ATOM     55  H   UNL A   1      42.040  28.319  31.624  1.00  0.00     0.167 HD
ATOM     56  C   UNL A   1      42.885  28.942  34.258  1.00  0.00     0.074 A 
ATOM     57  C   UNL A   1      42.903  29.495  35.596  1.00  0.00     0.031 C 
ATOM     58  C   UNL A   1      43.825  28.096  33.769  1.00  0.00     0.037 A 
BRANCH  45  59
ATOM     59  C   UNL A   1      42.737  26.186  27.998  1.00  0.00     0.064 A 
ATOM     60  C   UNL A   1      42.269  24.874  27.835  1.00  0.00     0.173 A 
ATOM     61  C   UNL A   1      43.606  26.700  27.022  1.00  0.00     0.173 A 
ATOM     62  F   UNL A   1      41.450  24.332  28.749  1.00  0.00    -0.203 F 
ATOM     63  C   UNL A   1      42.675  24.098  26.752  1.00  0.00     0.198 A 
ATOM     64  C   UNL A   1      43.987  25.931  25.926  1.00  0.00     0.198 A 
ATOM     65  F   UNL A   1      44.079  27.950  27.130  1.00  0.00    -0.203 F 
ATOM     66  F   UNL A   1      42.251  22.832  26.639  1.00  0.00    -0.200 F 
ATOM     67  C   UNL A   1      43.528  24.629  25.795  1.00  0.00     0.200 A 
ATOM     68  F   UNL A   1      44.803  26.449  24.998  1.00  0.00    -0.200 F 
ATOM     69  F   UNL A   1      43.912  23.883  24.750  1.00  0.00    -0.200 F 
ENDBRANCH  45  59
BRANCH  46  70
ATOM     70  C   UNL A   1      39.418  31.869  35.506  1.00  0.00     0.064 A 
ATOM     71  C   UNL A   1      39.839  33.196  35.668  1.00  0.00     0.173 A 
ATOM     72  C   UNL A   1      38.527  31.345  36.454  1.00  0.00     0.173 A 
ATOM     73  F   UNL A   1      40.711  33.733  34.803  1.00  0.00    -0.203 F 
ATOM     74  C   UNL A   1      39.398  33.962  36.746  1.00  0.00     0.198 A 
ATOM     75  C   UNL A   1      38.067  32.121  37.515  1.00  0.00     0.198 A 
ATOM     76  F   UNL A   1      38.097  30.080  36.345  1.00  0.00    -0.203 F 
ATOM     77  F   UNL A   1      39.850  35.214  36.903  1.00  0.00    -0.200 F 
ATOM     78  C   UNL A   1      38.508  33.426  37.665  1.00  0.00     0.200 A 
ATOM     79  F   UNL A   1      37.200  31.603  38.395  1.00  0.00    -0.200 F 
ATOM     80  F   UNL A   1      38.084  34.166  38.699  1.00  0.00    -0.200 F 
ENDBRANCH  46  70
BRANCH  58  81
ATOM     81  C   UNL A   1      44.971  27.743  34.672  1.00  0.00     0.064 A 
ATOM     82  C   UNL A   1      46.153  28.499  34.691  1.00  0.00     0.173 A 
ATOM     83  C   UNL A   1      44.867  26.662  35.560  1.00  0.00     0.173 A 
ATOM     84  F   UNL A   1      46.306  29.533  33.850  1.00  0.00    -0.203 F 
ATOM     85  C   UNL A   1      47.198  28.170  35.551  1.00  0.00     0.198 A 
ATOM     86  C   UNL A   1      45.903  26.354  36.438  1.00  0.00     0.198 A 
ATOM     87  F   UNL A   1      43.755  25.912  35.586  1.00  0.00    -0.203 F 
ATOM     88  F   UNL A   1      48.334  28.879  35.521  1.00  0.00    -0.200 F 
ATOM     89  C   UNL A   1      47.068  27.103  36.428  1.00  0.00     0.200 A 
ATOM     90  F   UNL A   1      45.772  25.331  37.295  1.00  0.00    -0.200 F 
ATOM     91  F   UNL A   1      48.073  26.793  37.260  1.00  0.00    -0.200 F 
ENDBRANCH  58  81
ENDBRANCH  32  33
ENDBRANCH  25  27
ENDBRANCH  24  25
ENDBRANCH  23  24
ENDBRANCH  22  23
ENDBRANCH   1  22
TORSDOF 16
ENDMDL
