MODEL 1
REMARK VINA RESULT:     -11.0      0.000      0.000
REMARK SMILES O=C(C[N@@H+]1CCC[C@@H]1c1ccccc1Cl)OCCOCCOC(=O)c1ccc(-c2c3nc(c(-c4c(F)c(F)c(F)c(F)c4F)c4ccc([nH]4)c(-c4c(F)c(F)c(F)c(F)c4F)c4nc(c(-c5c(F)c(F)c(F)c(F)c5F)c5ccc2[nH]5)C=C4)C=C3)cc1
REMARK SMILES IDX 19 1 18 2 17 3 16 4 2 5 1 6 3 7 4 8 5 9 8 10 6 12 7 13 9 14
REMARK SMILES IDX 10 15 14 16 11 17 13 18 15 19 12 20 20 21 21 22 22 23 23 24
REMARK SMILES IDX 24 25 25 26 26 27 87 28 27 29 86 30 28 31 29 32 30 33 80 34
REMARK SMILES IDX 31 35 85 36 79 37 81 38 32 39 84 40 78 41 77 42 33 44 65 45
REMARK SMILES IDX 45 46 64 47 46 48 49 49 63 50 82 51 47 52 48 53 62 55 83 56
REMARK SMILES IDX 50 57 34 58 35 59 43 60 36 61 37 62 41 63 44 64 38 65 39 66
REMARK SMILES IDX 42 67 40 68 66 69 67 70 75 71 68 72 69 73 73 74 76 75 70 76
REMARK SMILES IDX 71 77 74 78 72 79 51 80 52 81 60 82 53 83 54 84 58 85 61 86
REMARK SMILES IDX 55 87 56 88 59 89 57 90
REMARK H PARENT 4 11 81 43 49 54
REMARK Flexibility Score: inf
ROOT
ATOM      1  O   UNL A   1      31.180  28.388  24.964  1.00  0.00    -0.374 OA
ENDROOT
BRANCH   1   2
ATOM      2  C   UNL A   1      30.859  27.052  25.327  1.00  0.00     0.202 C 
BRANCH   2   3
ATOM      3  C   UNL A   1      31.792  26.342  26.302  1.00  0.00     0.261 C 
BRANCH   3   4
ATOM      4  O   UNL A   1      31.235  25.178  26.928  1.00  0.00    -0.459 OA
BRANCH   4   5
ATOM      5  C   UNL A   1      31.781  23.939  26.860  1.00  0.00     0.361 C 
ATOM      6  O   UNL A   1      31.152  22.977  27.302  1.00  0.00    -0.245 OA
BRANCH   5   7
ATOM      7  C   UNL A   1      33.219  23.762  26.387  1.00  0.00     0.387 C 
BRANCH   7   8
ATOM      8  N   UNL A   1      33.511  22.673  25.416  1.00  0.00    -0.319 N 
ATOM      9  C   UNL A   1      34.631  21.821  25.868  1.00  0.00     0.263 C 
ATOM     10  C   UNL A   1      33.986  23.197  24.075  1.00  0.00     0.217 C 
ATOM     11  H   UNL A   1      32.627  22.168  25.341  1.00  0.00     0.349 HD
ATOM     12  C   UNL A   1      35.856  22.649  25.597  1.00  0.00     0.068 C 
ATOM     13  C   UNL A   1      35.523  23.300  24.270  1.00  0.00     0.076 C 
BRANCH  10  14
ATOM     14  C   UNL A   1      33.324  24.453  23.487  1.00  0.00     0.028 A 
ATOM     15  C   UNL A   1      34.011  25.683  23.447  1.00  0.00     0.011 A 
ATOM     16  C   UNL A   1      32.015  24.464  22.963  1.00  0.00     0.050 A 
ATOM     17  C   UNL A   1      33.560  26.750  22.661  1.00  0.00     0.001 A 
ATOM     18  C   UNL A   1      31.560  25.529  22.173  1.00  0.00     0.021 A 
ATOM     19  Cl  UNL A   1      30.831  23.254  23.329  1.00  0.00    -0.084 Cl
ATOM     20  C   UNL A   1      32.358  26.649  21.975  1.00  0.00     0.002 A 
ENDBRANCH  10  14
ENDBRANCH   7   8
ENDBRANCH   5   7
ENDBRANCH   4   5
ENDBRANCH   3   4
ENDBRANCH   2   3
ENDBRANCH   1   2
BRANCH   1  21
ATOM     21  C   UNL A   1      32.350  28.984  25.530  1.00  0.00     0.202 C 
BRANCH  21  22
ATOM     22  C   UNL A   1      32.324  30.486  25.816  1.00  0.00     0.261 C 
BRANCH  22  23
ATOM     23  O   UNL A   1      32.585  30.743  27.207  1.00  0.00    -0.460 OA
BRANCH  23  24
ATOM     24  C   UNL A   1      33.329  31.837  27.468  1.00  0.00     0.338 C 
ATOM     25  O   UNL A   1      32.951  33.000  27.541  1.00  0.00    -0.246 OA
BRANCH  24  26
ATOM     26  C   UNL A   1      34.669  31.409  27.889  1.00  0.00     0.060 A 
ATOM     27  C   UNL A   1      34.846  30.077  28.284  1.00  0.00     0.016 A 
ATOM     28  C   UNL A   1      35.717  32.327  27.962  1.00  0.00     0.016 A 
ATOM     29  C   UNL A   1      36.063  29.668  28.814  1.00  0.00     0.010 A 
ATOM     30  C   UNL A   1      36.932  31.921  28.509  1.00  0.00     0.010 A 
ATOM     31  C   UNL A   1      37.090  30.604  28.977  1.00  0.00    -0.014 A 
BRANCH  31  32
ATOM     32  C   UNL A   1      38.251  30.270  29.827  1.00  0.00     0.031 A 
ATOM     33  C   UNL A   1      39.273  29.313  29.283  1.00  0.00     0.074 A 
ATOM     34  C   UNL A   1      38.387  30.813  31.047  1.00  0.00     0.049 A 
ATOM     35  N   UNL A   1      40.322  28.795  29.867  1.00  0.00    -0.248 NA
ATOM     36  C   UNL A   1      39.081  28.875  27.889  1.00  0.00     0.031 C 
ATOM     37  C   UNL A   1      37.474  31.784  31.645  1.00  0.00     0.029 A 
ATOM     38  N   UNL A   1      39.340  30.605  32.009  1.00  0.00    -0.354 N 
ATOM     39  C   UNL A   1      40.902  27.961  28.920  1.00  0.00     0.074 A 
ATOM     40  C   UNL A   1      40.079  28.019  27.733  1.00  0.00     0.031 C 
ATOM     41  C   UNL A   1      37.902  32.075  32.886  1.00  0.00     0.029 A 
ATOM     42  C   UNL A   1      39.091  31.278  33.179  1.00  0.00     0.049 A 
ATOM     43  H   UNL A   1      40.127  30.028  31.875  1.00  0.00     0.167 HD
ATOM     44  C   UNL A   1      42.028  27.219  29.036  1.00  0.00     0.037 A 
ATOM     45  C   UNL A   1      39.738  31.223  34.358  1.00  0.00     0.037 A 
ATOM     46  C   UNL A   1      42.834  27.172  30.226  1.00  0.00     0.049 A 
ATOM     47  C   UNL A   1      40.948  30.333  34.482  1.00  0.00     0.074 A 
ATOM     48  C   UNL A   1      44.004  26.469  30.451  1.00  0.00     0.029 A 
ATOM     49  N   UNL A   1      42.544  27.856  31.398  1.00  0.00    -0.354 N 
ATOM     50  N   UNL A   1      41.510  29.563  33.580  1.00  0.00    -0.248 NA
ATOM     51  C   UNL A   1      41.617  30.304  35.790  1.00  0.00     0.031 C 
ATOM     52  C   UNL A   1      44.389  26.679  31.778  1.00  0.00     0.029 A 
ATOM     53  C   UNL A   1      43.499  27.569  32.360  1.00  0.00     0.049 A 
ATOM     54  H   UNL A   1      41.775  28.456  31.528  1.00  0.00     0.167 HD
ATOM     55  C   UNL A   1      42.614  28.990  34.198  1.00  0.00     0.074 A 
ATOM     56  C   UNL A   1      42.650  29.511  35.548  1.00  0.00     0.031 C 
ATOM     57  C   UNL A   1      43.519  28.113  33.695  1.00  0.00     0.037 A 
BRANCH  44  58
ATOM     58  C   UNL A   1      42.433  26.376  27.861  1.00  0.00     0.064 A 
ATOM     59  C   UNL A   1      41.903  25.094  27.650  1.00  0.00     0.173 A 
ATOM     60  C   UNL A   1      43.339  26.873  26.911  1.00  0.00     0.173 A 
ATOM     61  F   UNL A   1      41.046  24.564  28.536  1.00  0.00    -0.203 F 
ATOM     62  C   UNL A   1      42.280  24.334  26.545  1.00  0.00     0.198 A 
ATOM     63  C   UNL A   1      43.690  26.125  25.792  1.00  0.00     0.198 A 
ATOM     64  F   UNL A   1      43.878  28.093  27.064  1.00  0.00    -0.203 F 
ATOM     65  F   UNL A   1      41.795  23.095  26.390  1.00  0.00    -0.200 F 
ATOM     66  C   UNL A   1      43.165  24.853  25.613  1.00  0.00     0.200 A 
ATOM     67  F   UNL A   1      44.535  26.633  24.885  1.00  0.00    -0.200 F 
ATOM     68  F   UNL A   1      43.518  24.126  24.544  1.00  0.00    -0.200 F 
ENDBRANCH  44  58
BRANCH  45  69
ATOM     69  C   UNL A   1      39.251  32.020  35.515  1.00  0.00     0.064 A 
ATOM     70  C   UNL A   1      39.628  33.358  35.682  1.00  0.00     0.173 A 
ATOM     71  C   UNL A   1      38.416  31.452  36.489  1.00  0.00     0.173 A 
ATOM     72  F   UNL A   1      40.443  33.940  34.789  1.00  0.00    -0.203 F 
ATOM     73  C   UNL A   1      39.212  34.091  36.792  1.00  0.00     0.198 A 
ATOM     74  C   UNL A   1      37.973  32.196  37.582  1.00  0.00     0.198 A 
ATOM     75  F   UNL A   1      38.024  30.175  36.378  1.00  0.00    -0.203 F 
ATOM     76  F   UNL A   1      39.635  35.353  36.956  1.00  0.00    -0.200 F 
ATOM     77  C   UNL A   1      38.381  33.511  37.738  1.00  0.00     0.200 A 
ATOM     78  F   UNL A   1      37.158  31.635  38.485  1.00  0.00    -0.200 F 
ATOM     79  F   UNL A   1      37.981  34.217  38.804  1.00  0.00    -0.200 F 
ENDBRANCH  45  69
BRANCH  57  80
ATOM     80  C   UNL A   1      44.654  27.705  34.590  1.00  0.00     0.064 A 
ATOM     81  C   UNL A   1      44.585  26.562  35.399  1.00  0.00     0.173 A 
ATOM     82  C   UNL A   1      45.846  28.447  34.601  1.00  0.00     0.173 A 
ATOM     83  F   UNL A   1      43.465  25.826  35.435  1.00  0.00    -0.203 F 
ATOM     84  C   UNL A   1      45.657  26.195  36.210  1.00  0.00     0.198 A 
ATOM     85  C   UNL A   1      46.928  28.056  35.383  1.00  0.00     0.198 A 
ATOM     86  F   UNL A   1      45.968  29.543  33.837  1.00  0.00    -0.203 F 
ATOM     87  F   UNL A   1      45.549  25.130  37.017  1.00  0.00    -0.200 F 
ATOM     88  C   UNL A   1      46.829  26.936  36.195  1.00  0.00     0.200 A 
ATOM     89  F   UNL A   1      48.066  28.763  35.353  1.00  0.00    -0.200 F 
ATOM     90  F   UNL A   1      47.862  26.574  36.968  1.00  0.00    -0.200 F 
ENDBRANCH  57  80
ENDBRANCH  31  32
ENDBRANCH  24  26
ENDBRANCH  23  24
ENDBRANCH  22  23
ENDBRANCH  21  22
ENDBRANCH   1  21
TORSDOF 16
ENDMDL
MODEL 2
REMARK VINA RESULT:     -11.0      1.363      2.199
REMARK SMILES O=C(C[N@@H+]1CCC[C@@H]1c1ccccc1Cl)OCCOCCOC(=O)c1ccc(-c2c3nc(c(-c4c(F)c(F)c(F)c(F)c4F)c4ccc([nH]4)c(-c4c(F)c(F)c(F)c(F)c4F)c4nc(c(-c5c(F)c(F)c(F)c(F)c5F)c5ccc2[nH]5)C=C4)C=C3)cc1
REMARK SMILES IDX 19 1 18 2 17 3 16 4 2 5 1 6 3 7 4 8 5 9 8 10 6 12 7 13 9 14
REMARK SMILES IDX 10 15 14 16 11 17 13 18 15 19 12 20 20 21 21 22 22 23 23 24
REMARK SMILES IDX 24 25 25 26 26 27 87 28 27 29 86 30 28 31 29 32 30 33 80 34
REMARK SMILES IDX 31 35 85 36 79 37 81 38 32 39 84 40 78 41 77 42 33 44 65 45
REMARK SMILES IDX 45 46 64 47 46 48 49 49 63 50 82 51 47 52 48 53 62 55 83 56
REMARK SMILES IDX 50 57 34 58 35 59 43 60 36 61 37 62 41 63 44 64 38 65 39 66
REMARK SMILES IDX 42 67 40 68 66 69 67 70 75 71 68 72 69 73 73 74 76 75 70 76
REMARK SMILES IDX 71 77 74 78 72 79 51 80 52 81 60 82 53 83 54 84 58 85 61 86
REMARK SMILES IDX 55 87 56 88 59 89 57 90
REMARK H PARENT 4 11 81 43 49 54
REMARK Flexibility Score: inf
ROOT
ATOM      1  O   UNL A   1      31.731  27.929  24.990  1.00  0.00    -0.374 OA
ENDROOT
BRANCH   1   2
ATOM      2  C   UNL A   1      31.392  27.086  26.081  1.00  0.00     0.202 C 
BRANCH   2   3
ATOM      3  C   UNL A   1      31.273  25.590  25.807  1.00  0.00     0.261 C 
BRANCH   3   4
ATOM      4  O   UNL A   1      30.776  24.814  26.907  1.00  0.00    -0.459 OA
BRANCH   4   5
ATOM      5  C   UNL A   1      30.602  23.471  26.876  1.00  0.00     0.361 C 
ATOM      6  O   UNL A   1      29.768  22.953  27.620  1.00  0.00    -0.245 OA
BRANCH   5   7
ATOM      7  C   UNL A   1      31.536  22.596  26.047  1.00  0.00     0.387 C 
BRANCH   7   8
ATOM      8  N   UNL A   1      32.535  21.758  26.763  1.00  0.00    -0.319 N 
ATOM      9  C   UNL A   1      33.489  22.582  27.536  1.00  0.00     0.263 C 
ATOM     10  C   UNL A   1      33.428  20.977  25.819  1.00  0.00     0.217 C 
ATOM     11  H   UNL A   1      31.967  21.147  27.350  1.00  0.00     0.349 HD
ATOM     12  C   UNL A   1      34.421  23.139  26.496  1.00  0.00     0.068 C 
ATOM     13  C   UNL A   1      34.596  21.967  25.553  1.00  0.00     0.076 C 
BRANCH  10  14
ATOM     14  C   UNL A   1      32.815  20.349  24.559  1.00  0.00     0.028 A 
ATOM     15  C   UNL A   1      32.429  21.148  23.465  1.00  0.00     0.011 A 
ATOM     16  C   UNL A   1      32.596  18.963  24.414  1.00  0.00     0.050 A 
ATOM     17  C   UNL A   1      32.153  20.592  22.210  1.00  0.00     0.001 A 
ATOM     18  C   UNL A   1      32.321  18.401  23.160  1.00  0.00     0.021 A 
ATOM     19  Cl  UNL A   1      32.528  17.863  25.751  1.00  0.00    -0.084 Cl
ATOM     20  C   UNL A   1      32.157  19.214  22.045  1.00  0.00     0.002 A 
ENDBRANCH  10  14
ENDBRANCH   7   8
ENDBRANCH   5   7
ENDBRANCH   4   5
ENDBRANCH   3   4
ENDBRANCH   2   3
ENDBRANCH   1   2
BRANCH   1  21
ATOM     21  C   UNL A   1      32.744  28.920  25.184  1.00  0.00     0.202 C 
BRANCH  21  22
ATOM     22  C   UNL A   1      32.327  30.263  25.787  1.00  0.00     0.261 C 
BRANCH  22  23
ATOM     23  O   UNL A   1      32.786  30.374  27.146  1.00  0.00    -0.460 OA
BRANCH  23  24
ATOM     24  C   UNL A   1      33.496  31.485  27.432  1.00  0.00     0.338 C 
ATOM     25  O   UNL A   1      33.082  32.632  27.538  1.00  0.00    -0.246 OA
BRANCH  24  26
ATOM     26  C   UNL A   1      34.853  31.089  27.833  1.00  0.00     0.060 A 
ATOM     27  C   UNL A   1      35.093  29.737  28.113  1.00  0.00     0.016 A 
ATOM     28  C   UNL A   1      35.851  32.048  28.001  1.00  0.00     0.016 A 
ATOM     29  C   UNL A   1      36.324  29.345  28.623  1.00  0.00     0.010 A 
ATOM     30  C   UNL A   1      37.079  31.657  28.529  1.00  0.00     0.010 A 
ATOM     31  C   UNL A   1      37.301  30.314  28.883  1.00  0.00    -0.014 A 
BRANCH  31  32
ATOM     32  C   UNL A   1      38.468  29.965  29.717  1.00  0.00     0.031 A 
ATOM     33  C   UNL A   1      39.458  28.977  29.170  1.00  0.00     0.074 A 
ATOM     34  C   UNL A   1      38.638  30.522  30.927  1.00  0.00     0.049 A 
ATOM     35  N   UNL A   1      40.504  28.443  29.743  1.00  0.00    -0.248 NA
ATOM     36  C   UNL A   1      39.231  28.524  27.786  1.00  0.00     0.031 C 
ATOM     37  C   UNL A   1      37.759  31.524  31.525  1.00  0.00     0.029 A 
ATOM     38  N   UNL A   1      39.603  30.306  31.875  1.00  0.00    -0.354 N 
ATOM     39  C   UNL A   1      41.049  27.582  28.799  1.00  0.00     0.074 A 
ATOM     40  C   UNL A   1      40.206  27.642  27.626  1.00  0.00     0.031 C 
ATOM     41  C   UNL A   1      38.215  31.822  32.754  1.00  0.00     0.029 A 
ATOM     42  C   UNL A   1      39.390  31.002  33.038  1.00  0.00     0.049 A 
ATOM     43  H   UNL A   1      40.374  29.709  31.735  1.00  0.00     0.167 HD
ATOM     44  C   UNL A   1      42.159  26.816  28.906  1.00  0.00     0.037 A 
ATOM     45  C   UNL A   1      40.057  30.949  34.206  1.00  0.00     0.037 A 
ATOM     46  C   UNL A   1      42.985  26.767  30.082  1.00  0.00     0.049 A 
ATOM     47  C   UNL A   1      41.248  30.032  34.323  1.00  0.00     0.074 A 
ATOM     48  C   UNL A   1      44.142  26.041  30.297  1.00  0.00     0.029 A 
ATOM     49  N   UNL A   1      42.732  27.475  31.249  1.00  0.00    -0.354 N 
ATOM     50  N   UNL A   1      41.776  29.236  33.423  1.00  0.00    -0.248 NA
ATOM     51  C   UNL A   1      41.939  30.008  35.619  1.00  0.00     0.031 C 
ATOM     52  C   UNL A   1      44.555  26.261  31.615  1.00  0.00     0.029 A 
ATOM     53  C   UNL A   1      43.696  27.179  32.199  1.00  0.00     0.049 A 
ATOM     54  H   UNL A   1      41.979  28.095  31.384  1.00  0.00     0.167 HD
ATOM     55  C   UNL A   1      42.877  28.647  34.030  1.00  0.00     0.074 A 
ATOM     56  C   UNL A   1      42.949  29.186  35.371  1.00  0.00     0.031 C 
ATOM     57  C   UNL A   1      43.752  27.743  33.525  1.00  0.00     0.037 A 
BRANCH  44  58
ATOM     58  C   UNL A   1      42.524  25.946  27.737  1.00  0.00     0.064 A 
ATOM     59  C   UNL A   1      41.908  24.705  27.516  1.00  0.00     0.173 A 
ATOM     60  C   UNL A   1      43.477  26.380  26.803  1.00  0.00     0.173 A 
ATOM     61  F   UNL A   1      41.002  24.235  28.387  1.00  0.00    -0.203 F 
ATOM     62  C   UNL A   1      42.250  23.921  26.416  1.00  0.00     0.198 A 
ATOM     63  C   UNL A   1      43.793  25.609  25.688  1.00  0.00     0.198 A 
ATOM     64  F   UNL A   1      44.097  27.559  26.966  1.00  0.00    -0.203 F 
ATOM     65  F   UNL A   1      41.682  22.718  26.252  1.00  0.00    -0.200 F 
ATOM     66  C   UNL A   1      43.185  24.377  25.499  1.00  0.00     0.200 A 
ATOM     67  F   UNL A   1      44.687  26.056  24.796  1.00  0.00    -0.200 F 
ATOM     68  F   UNL A   1      43.503  23.627  24.436  1.00  0.00    -0.200 F 
ENDBRANCH  44  58
BRANCH  45  69
ATOM     69  C   UNL A   1      39.609  31.774  35.360  1.00  0.00     0.064 A 
ATOM     70  C   UNL A   1      38.647  31.297  36.260  1.00  0.00     0.173 A 
ATOM     71  C   UNL A   1      40.118  33.064  35.574  1.00  0.00     0.173 A 
ATOM     72  F   UNL A   1      38.114  30.078  36.086  1.00  0.00    -0.203 F 
ATOM     73  C   UNL A   1      38.191  32.087  37.313  1.00  0.00     0.198 A 
ATOM     74  C   UNL A   1      39.685  33.841  36.647  1.00  0.00     0.198 A 
ATOM     75  F   UNL A   1      41.041  33.569  34.744  1.00  0.00    -0.203 F 
ATOM     76  F   UNL A   1      37.228  31.627  38.124  1.00  0.00    -0.200 F 
ATOM     77  C   UNL A   1      38.713  33.356  37.508  1.00  0.00     0.200 A 
ATOM     78  F   UNL A   1      40.204  35.061  36.841  1.00  0.00    -0.200 F 
ATOM     79  F   UNL A   1      38.274  34.114  38.522  1.00  0.00    -0.200 F 
ENDBRANCH  45  69
BRANCH  57  80
ATOM     80  C   UNL A   1      44.894  27.321  34.406  1.00  0.00     0.064 A 
ATOM     81  C   UNL A   1      44.804  26.205  35.251  1.00  0.00     0.173 A 
ATOM     82  C   UNL A   1      46.110  28.020  34.367  1.00  0.00     0.173 A 
ATOM     83  F   UNL A   1      43.659  25.511  35.334  1.00  0.00    -0.203 F 
ATOM     84  C   UNL A   1      45.881  25.825  36.048  1.00  0.00     0.198 A 
ATOM     85  C   UNL A   1      47.196  27.614  35.137  1.00  0.00     0.198 A 
ATOM     86  F   UNL A   1      46.253  29.087  33.567  1.00  0.00    -0.203 F 
ATOM     87  F   UNL A   1      45.755  24.789  36.890  1.00  0.00    -0.200 F 
ATOM     88  C   UNL A   1      47.078  26.523  35.984  1.00  0.00     0.200 A 
ATOM     89  F   UNL A   1      48.357  28.279  35.059  1.00  0.00    -0.200 F 
ATOM     90  F   UNL A   1      48.115  26.148  36.745  1.00  0.00    -0.200 F 
ENDBRANCH  57  80
ENDBRANCH  31  32
ENDBRANCH  24  26
ENDBRANCH  23  24
ENDBRANCH  22  23
ENDBRANCH  21  22
ENDBRANCH   1  21
TORSDOF 16
ENDMDL
MODEL 3
REMARK VINA RESULT:     -11.0      4.360      9.670
REMARK SMILES O=C(C[N@@H+]1CCC[C@@H]1c1ccccc1Cl)OCCOCCOC(=O)c1ccc(-c2c3nc(c(-c4c(F)c(F)c(F)c(F)c4F)c4ccc([nH]4)c(-c4c(F)c(F)c(F)c(F)c4F)c4nc(c(-c5c(F)c(F)c(F)c(F)c5F)c5ccc2[nH]5)C=C4)C=C3)cc1
REMARK SMILES IDX 19 1 18 2 17 3 16 4 2 5 1 6 3 7 4 8 5 9 8 10 6 12 7 13 9 14
REMARK SMILES IDX 10 15 14 16 11 17 13 18 15 19 12 20 20 21 21 22 22 23 23 24
REMARK SMILES IDX 24 25 25 26 26 27 87 28 27 29 86 30 28 31 29 32 30 33 80 34
REMARK SMILES IDX 31 35 85 36 79 37 81 38 32 39 84 40 78 41 77 42 33 44 65 45
REMARK SMILES IDX 45 46 64 47 46 48 49 49 63 50 82 51 47 52 48 53 62 55 83 56
REMARK SMILES IDX 50 57 34 58 35 59 43 60 36 61 37 62 41 63 44 64 38 65 39 66
REMARK SMILES IDX 42 67 40 68 66 69 67 70 75 71 68 72 69 73 73 74 76 75 70 76
REMARK SMILES IDX 71 77 74 78 72 79 51 80 52 81 60 82 53 83 54 84 58 85 61 86
REMARK SMILES IDX 55 87 56 88 59 89 57 90
REMARK H PARENT 4 11 81 43 49 54
REMARK Flexibility Score: inf
ROOT
ATOM      1  O   UNL A   1      35.592  22.274  25.240  1.00  0.00    -0.374 OA
ENDROOT
BRANCH   1   2
ATOM      2  C   UNL A   1      34.577  22.869  24.445  1.00  0.00     0.202 C 
BRANCH   2   3
ATOM      3  C   UNL A   1      34.824  24.282  23.926  1.00  0.00     0.261 C 
BRANCH   3   4
ATOM      4  O   UNL A   1      34.231  24.569  22.653  1.00  0.00    -0.459 OA
BRANCH   4   5
ATOM      5  C   UNL A   1      33.576  25.717  22.357  1.00  0.00     0.361 C 
ATOM      6  O   UNL A   1      33.357  26.000  21.178  1.00  0.00    -0.245 OA
BRANCH   5   7
ATOM      7  C   UNL A   1      33.253  26.720  23.458  1.00  0.00     0.387 C 
BRANCH   7   8
ATOM      8  N   UNL A   1      31.851  27.200  23.584  1.00  0.00    -0.319 N 
ATOM      9  C   UNL A   1      31.783  28.673  23.692  1.00  0.00     0.263 C 
ATOM     10  C   UNL A   1      31.181  26.723  24.857  1.00  0.00     0.217 C 
ATOM     11  H   UNL A   1      31.391  26.837  22.748  1.00  0.00     0.349 HD
ATOM     12  C   UNL A   1      32.207  28.959  25.104  1.00  0.00     0.068 C 
ATOM     13  C   UNL A   1      31.549  27.835  25.877  1.00  0.00     0.076 C 
BRANCH  10  14
ATOM     14  C   UNL A   1      31.439  25.289  25.345  1.00  0.00     0.028 A 
ATOM     15  C   UNL A   1      32.229  25.042  26.486  1.00  0.00     0.011 A 
ATOM     16  C   UNL A   1      30.921  24.147  24.699  1.00  0.00     0.050 A 
ATOM     17  C   UNL A   1      32.235  23.794  27.119  1.00  0.00     0.001 A 
ATOM     18  C   UNL A   1      30.923  22.896  25.329  1.00  0.00     0.021 A 
ATOM     19  Cl  UNL A   1      30.355  24.152  23.062  1.00  0.00    -0.084 Cl
ATOM     20  C   UNL A   1      31.530  22.733  26.568  1.00  0.00     0.002 A 
ENDBRANCH  10  14
ENDBRANCH   7   8
ENDBRANCH   5   7
ENDBRANCH   4   5
ENDBRANCH   3   4
ENDBRANCH   2   3
ENDBRANCH   1   2
BRANCH   1  21
ATOM     21  C   UNL A   1      35.868  20.882  25.061  1.00  0.00     0.202 C 
BRANCH  21  22
ATOM     22  C   UNL A   1      37.330  20.431  25.086  1.00  0.00     0.261 C 
BRANCH  22  23
ATOM     23  O   UNL A   1      38.199  21.539  25.378  1.00  0.00    -0.460 OA
BRANCH  23  24
ATOM     24  C   UNL A   1      39.289  21.247  26.116  1.00  0.00     0.338 C 
ATOM     25  O   UNL A   1      39.923  20.199  26.133  1.00  0.00    -0.246 OA
BRANCH  24  26
ATOM     26  C   UNL A   1      39.767  22.476  26.762  1.00  0.00     0.060 A 
ATOM     27  C   UNL A   1      39.170  23.691  26.399  1.00  0.00     0.016 A 
ATOM     28  C   UNL A   1      40.838  22.439  27.655  1.00  0.00     0.016 A 
ATOM     29  C   UNL A   1      39.684  24.887  26.885  1.00  0.00     0.010 A 
ATOM     30  C   UNL A   1      41.363  23.638  28.129  1.00  0.00     0.010 A 
ATOM     31  C   UNL A   1      40.816  24.864  27.708  1.00  0.00    -0.014 A 
BRANCH  31  32
ATOM     32  C   UNL A   1      41.558  26.116  27.960  1.00  0.00     0.031 A 
ATOM     33  C   UNL A   1      40.851  27.222  28.690  1.00  0.00     0.074 A 
ATOM     34  C   UNL A   1      42.829  26.254  27.550  1.00  0.00     0.049 A 
ATOM     35  N   UNL A   1      41.253  28.439  28.946  1.00  0.00    -0.248 NA
ATOM     36  C   UNL A   1      39.502  26.913  29.195  1.00  0.00     0.031 C 
ATOM     37  C   UNL A   1      43.614  25.223  26.875  1.00  0.00     0.029 A 
ATOM     38  N   UNL A   1      43.674  27.330  27.628  1.00  0.00    -0.354 N 
ATOM     39  C   UNL A   1      40.203  29.044  29.625  1.00  0.00     0.074 A 
ATOM     40  C   UNL A   1      39.136  28.073  29.720  1.00  0.00     0.031 C 
ATOM     41  C   UNL A   1      44.825  25.725  26.580  1.00  0.00     0.029 A 
ATOM     42  C   UNL A   1      44.880  27.121  27.009  1.00  0.00     0.049 A 
ATOM     43  H   UNL A   1      43.437  28.171  28.083  1.00  0.00     0.167 HD
ATOM     44  C   UNL A   1      40.144  30.298  30.129  1.00  0.00     0.037 A 
ATOM     45  C   UNL A   1      45.895  27.979  26.790  1.00  0.00     0.037 A 
ATOM     46  C   UNL A   1      41.215  31.252  30.024  1.00  0.00     0.049 A 
ATOM     47  C   UNL A   1      45.773  29.393  27.298  1.00  0.00     0.074 A 
ATOM     48  C   UNL A   1      41.272  32.545  30.511  1.00  0.00     0.029 A 
ATOM     49  N   UNL A   1      42.419  31.012  29.377  1.00  0.00    -0.354 N 
ATOM     50  N   UNL A   1      44.790  29.957  27.960  1.00  0.00    -0.248 NA
ATOM     51  C   UNL A   1      46.904  30.291  27.031  1.00  0.00     0.031 C 
ATOM     52  C   UNL A   1      42.486  33.108  30.106  1.00  0.00     0.029 A 
ATOM     53  C   UNL A   1      43.216  32.144  29.427  1.00  0.00     0.049 A 
ATOM     54  H   UNL A   1      42.671  30.164  28.945  1.00  0.00     0.167 HD
ATOM     55  C   UNL A   1      45.199  31.259  28.219  1.00  0.00     0.074 A 
ATOM     56  C   UNL A   1      46.524  31.397  27.653  1.00  0.00     0.031 C 
ATOM     57  C   UNL A   1      44.540  32.251  28.867  1.00  0.00     0.037 A 
BRANCH  44  58
ATOM     58  C   UNL A   1      38.871  30.720  30.806  1.00  0.00     0.064 A 
ATOM     59  C   UNL A   1      37.762  31.178  30.080  1.00  0.00     0.173 A 
ATOM     60  C   UNL A   1      38.748  30.629  32.201  1.00  0.00     0.173 A 
ATOM     61  F   UNL A   1      37.831  31.301  28.746  1.00  0.00    -0.203 F 
ATOM     62  C   UNL A   1      36.585  31.550  30.726  1.00  0.00     0.198 A 
ATOM     63  C   UNL A   1      37.561  30.970  32.842  1.00  0.00     0.198 A 
ATOM     64  F   UNL A   1      39.779  30.197  32.945  1.00  0.00    -0.203 F 
ATOM     65  F   UNL A   1      35.554  32.028  30.015  1.00  0.00    -0.200 F 
ATOM     66  C   UNL A   1      36.482  31.437  32.105  1.00  0.00     0.200 A 
ATOM     67  F   UNL A   1      37.459  30.848  34.172  1.00  0.00    -0.200 F 
ATOM     68  F   UNL A   1      35.346  31.783  32.724  1.00  0.00    -0.200 F 
ENDBRANCH  44  58
BRANCH  45  69
ATOM     69  C   UNL A   1      47.102  27.533  26.046  1.00  0.00     0.064 A 
ATOM     70  C   UNL A   1      47.170  27.632  24.650  1.00  0.00     0.173 A 
ATOM     71  C   UNL A   1      48.206  26.980  26.713  1.00  0.00     0.173 A 
ATOM     72  F   UNL A   1      46.131  28.134  23.964  1.00  0.00    -0.203 F 
ATOM     73  C   UNL A   1      48.280  27.169  23.948  1.00  0.00     0.198 A 
ATOM     74  C   UNL A   1      49.331  26.549  26.012  1.00  0.00     0.198 A 
ATOM     75  F   UNL A   1      48.195  26.863  28.049  1.00  0.00    -0.203 F 
ATOM     76  F   UNL A   1      48.293  27.224  22.608  1.00  0.00    -0.200 F 
ATOM     77  C   UNL A   1      49.362  26.634  24.629  1.00  0.00     0.200 A 
ATOM     78  F   UNL A   1      50.380  26.045  26.677  1.00  0.00    -0.200 F 
ATOM     79  F   UNL A   1      50.430  26.190  23.953  1.00  0.00    -0.200 F 
ENDBRANCH  45  69
BRANCH  57  80
ATOM     80  C   UNL A   1      45.262  33.555  29.048  1.00  0.00     0.064 A 
ATOM     81  C   UNL A   1      46.107  33.789  30.143  1.00  0.00     0.173 A 
ATOM     82  C   UNL A   1      45.142  34.568  28.084  1.00  0.00     0.173 A 
ATOM     83  F   UNL A   1      46.247  32.858  31.099  1.00  0.00    -0.203 F 
ATOM     84  C   UNL A   1      46.779  35.001  30.282  1.00  0.00     0.198 A 
ATOM     85  C   UNL A   1      45.844  35.764  28.206  1.00  0.00     0.198 A 
ATOM     86  F   UNL A   1      44.356  34.392  27.011  1.00  0.00    -0.203 F 
ATOM     87  F   UNL A   1      47.537  35.224  31.365  1.00  0.00    -0.200 F 
ATOM     88  C   UNL A   1      46.654  35.983  29.310  1.00  0.00     0.200 A 
ATOM     89  F   UNL A   1      45.736  36.703  27.257  1.00  0.00    -0.200 F 
ATOM     90  F   UNL A   1      47.310  37.144  29.441  1.00  0.00    -0.200 F 
ENDBRANCH  57  80
ENDBRANCH  31  32
ENDBRANCH  24  26
ENDBRANCH  23  24
ENDBRANCH  22  23
ENDBRANCH  21  22
ENDBRANCH   1  21
TORSDOF 16
ENDMDL
