MODEL 1
REMARK VINA RESULT:     -10.7      0.000      0.000
REMARK SMILES Cc1cc(C)c2c(c1)C=C(C(=O)OCCOCCOC(=O)c1ccc(-c3c4nc(c(-c5c(F)c(F)c(F)c(F)c5F)c5ccc([nH]5)c(-c5c(F)c(F)c(F)c(F)c5F)c5nc(c(-c6c(F)c(F)c(F)c(F)c6F)c6ccc3[nH]6)C=C5)C=C4)cc1)[C@@H](C(F)(F)F)O2
REMARK SMILES IDX 17 1 16 2 15 3 14 4 13 5 11 6 12 7 10 8 1 9 2 10 3 11 8 12
REMARK SMILES IDX 4 13 7 14 5 15 6 16 9 17 90 18 85 19 86 20 87 21 88 22 89 23
REMARK SMILES IDX 18 24 19 25 20 26 21 27 22 28 23 29 84 30 24 31 83 32 25 33
REMARK SMILES IDX 26 34 27 35 77 36 28 37 82 38 76 39 78 40 29 41 81 42 75 43
REMARK SMILES IDX 74 44 30 46 62 47 42 48 61 49 43 50 46 51 60 52 79 53 44 54
REMARK SMILES IDX 45 55 59 57 80 58 47 59 31 60 32 61 40 62 33 63 34 64 38 65
REMARK SMILES IDX 41 66 35 67 36 68 39 69 37 70 63 71 64 72 72 73 65 74 66 75
REMARK SMILES IDX 70 76 73 77 67 78 68 79 71 80 69 81 48 82 49 83 57 84 50 85
REMARK SMILES IDX 51 86 55 87 58 88 52 89 53 90 56 91 54 92
REMARK H PARENT 78 45 46 56
REMARK Flexibility Score: inf
ROOT
ATOM      1  C   UNL A   1      42.141  19.074  26.726  1.00  0.00     0.202 C 
ENDROOT
BRANCH   1   2
ATOM      2  O   UNL A   1      42.781  18.153  25.840  1.00  0.00    -0.374 OA
BRANCH   2   3
ATOM      3  C   UNL A   1      44.085  18.479  25.366  1.00  0.00     0.202 C 
BRANCH   3   4
ATOM      4  C   UNL A   1      44.190  19.662  24.400  1.00  0.00     0.261 C 
BRANCH   4   5
ATOM      5  O   UNL A   1      44.997  20.719  24.942  1.00  0.00    -0.460 OA
BRANCH   5   6
ATOM      6  C   UNL A   1      44.305  21.828  25.294  1.00  0.00     0.338 C 
ATOM      7  O   UNL A   1      43.181  22.136  24.927  1.00  0.00    -0.246 OA
BRANCH   6   8
ATOM      8  C   UNL A   1      45.057  22.590  26.306  1.00  0.00     0.087 C 
ATOM      9  C   UNL A   1      44.207  25.128  31.841  1.00  0.00     0.044 C 
ATOM     10  C   UNL A   1      44.939  24.819  30.569  1.00  0.00    -0.050 A 
ATOM     11  C   UNL A   1      46.175  25.412  30.285  1.00  0.00     0.010 A 
ATOM     12  C   UNL A   1      44.397  23.910  29.656  1.00  0.00     0.015 A 
ATOM     13  C   UNL A   1      46.864  25.116  29.097  1.00  0.00    -0.008 A 
ATOM     14  C   UNL A   1      45.065  23.619  28.462  1.00  0.00     0.018 A 
ATOM     15  C   UNL A   1      48.170  25.797  28.799  1.00  0.00     0.048 C 
ATOM     16  C   UNL A   1      46.306  24.199  28.191  1.00  0.00     0.130 A 
ATOM     17  C   UNL A   1      44.429  22.770  27.473  1.00  0.00     0.027 C 
ATOM     18  O   UNL A   1      47.030  23.918  27.065  1.00  0.00    -0.475 OA
ATOM     19  C   UNL A   1      46.423  23.136  25.999  1.00  0.00     0.316 C 
BRANCH  19  20
ATOM     20  C   UNL A   1      46.452  23.977  24.715  1.00  0.00     0.430 C 
ATOM     21  F   UNL A   1      47.572  24.739  24.653  1.00  0.00    -0.167 F 
ATOM     22  F   UNL A   1      46.457  23.201  23.604  1.00  0.00    -0.167 F 
ATOM     23  F   UNL A   1      45.390  24.808  24.623  1.00  0.00    -0.167 F 
ENDBRANCH  19  20
ENDBRANCH   6   8
ENDBRANCH   5   6
ENDBRANCH   4   5
ENDBRANCH   3   4
ENDBRANCH   2   3
ENDBRANCH   1   2
BRANCH   1  24
ATOM     24  C   UNL A   1      40.856  19.746  26.226  1.00  0.00     0.261 C 
BRANCH  24  25
ATOM     25  O   UNL A   1      40.429  20.814  27.091  1.00  0.00    -0.460 OA
BRANCH  25  26
ATOM     26  C   UNL A   1      39.676  21.767  26.495  1.00  0.00     0.338 C 
ATOM     27  O   UNL A   1      38.740  21.604  25.723  1.00  0.00    -0.246 OA
BRANCH  26  28
ATOM     28  C   UNL A   1      40.015  23.088  27.047  1.00  0.00     0.060 A 
ATOM     29  C   UNL A   1      39.467  24.217  26.423  1.00  0.00     0.016 A 
ATOM     30  C   UNL A   1      40.915  23.226  28.106  1.00  0.00     0.016 A 
ATOM     31  C   UNL A   1      39.846  25.492  26.834  1.00  0.00     0.010 A 
ATOM     32  C   UNL A   1      41.303  24.508  28.509  1.00  0.00     0.010 A 
ATOM     33  C   UNL A   1      40.794  25.645  27.856  1.00  0.00    -0.014 A 
BRANCH  33  34
ATOM     34  C   UNL A   1      41.342  26.991  28.139  1.00  0.00     0.031 A 
ATOM     35  C   UNL A   1      42.731  27.328  27.677  1.00  0.00     0.074 A 
ATOM     36  C   UNL A   1      40.589  27.921  28.754  1.00  0.00     0.049 A 
ATOM     37  N   UNL A   1      43.398  28.448  27.797  1.00  0.00    -0.248 NA
ATOM     38  C   UNL A   1      43.469  26.261  26.980  1.00  0.00     0.031 C 
ATOM     39  C   UNL A   1      39.214  27.724  29.207  1.00  0.00     0.029 A 
ATOM     40  N   UNL A   1      40.874  29.220  29.094  1.00  0.00    -0.354 N 
ATOM     41  C   UNL A   1      44.623  28.224  27.186  1.00  0.00     0.074 A 
ATOM     42  C   UNL A   1      44.629  26.852  26.730  1.00  0.00     0.031 C 
ATOM     43  C   UNL A   1      38.771  28.864  29.762  1.00  0.00     0.029 A 
ATOM     44  C   UNL A   1      39.839  29.862  29.727  1.00  0.00     0.049 A 
ATOM     45  H   UNL A   1      41.739  29.650  28.901  1.00  0.00     0.167 HD
ATOM     46  C   UNL A   1      45.645  29.093  27.004  1.00  0.00     0.037 A 
ATOM     47  C   UNL A   1      39.768  31.112  30.227  1.00  0.00     0.037 A 
ATOM     48  C   UNL A   1      45.637  30.458  27.457  1.00  0.00     0.049 A 
ATOM     49  C   UNL A   1      40.955  32.031  30.095  1.00  0.00     0.074 A 
ATOM     50  C   UNL A   1      46.622  31.420  27.312  1.00  0.00     0.029 A 
ATOM     51  N   UNL A   1      44.594  31.054  28.152  1.00  0.00    -0.354 N 
ATOM     52  N   UNL A   1      42.100  31.820  29.492  1.00  0.00    -0.248 NA
ATOM     53  C   UNL A   1      40.841  33.361  30.712  1.00  0.00     0.031 C 
ATOM     54  C   UNL A   1      46.197  32.582  27.960  1.00  0.00     0.029 A 
ATOM     55  C   UNL A   1      44.925  32.361  28.466  1.00  0.00     0.049 A 
ATOM     56  H   UNL A   1      43.746  30.612  28.387  1.00  0.00     0.167 HD
ATOM     57  C   UNL A   1      42.830  32.992  29.636  1.00  0.00     0.074 A 
ATOM     58  C   UNL A   1      41.997  33.918  30.374  1.00  0.00     0.031 C 
ATOM     59  C   UNL A   1      44.079  33.275  29.193  1.00  0.00     0.037 A 
BRANCH  46  60
ATOM     60  C   UNL A   1      46.865  28.599  26.285  1.00  0.00     0.064 A 
ATOM     61  C   UNL A   1      46.813  28.222  24.935  1.00  0.00     0.173 A 
ATOM     62  C   UNL A   1      48.109  28.568  26.931  1.00  0.00     0.173 A 
ATOM     63  F   UNL A   1      45.644  28.223  24.277  1.00  0.00    -0.203 F 
ATOM     64  C   UNL A   1      47.964  27.819  24.261  1.00  0.00     0.198 A 
ATOM     65  C   UNL A   1      49.261  28.190  26.246  1.00  0.00     0.198 A 
ATOM     66  F   UNL A   1      48.211  28.926  28.220  1.00  0.00    -0.203 F 
ATOM     67  F   UNL A   1      47.887  27.433  22.980  1.00  0.00    -0.200 F 
ATOM     68  C   UNL A   1      49.186  27.812  24.914  1.00  0.00     0.200 A 
ATOM     69  F   UNL A   1      50.445  28.197  26.875  1.00  0.00    -0.200 F 
ATOM     70  F   UNL A   1      50.295  27.440  24.260  1.00  0.00    -0.200 F 
ENDBRANCH  46  60
BRANCH  47  71
ATOM     71  C   UNL A   1      38.519  31.569  30.890  1.00  0.00     0.064 A 
ATOM     72  C   UNL A   1      37.506  32.204  30.158  1.00  0.00     0.173 A 
ATOM     73  C   UNL A   1      38.308  31.372  32.262  1.00  0.00     0.173 A 
ATOM     74  F   UNL A   1      37.673  32.437  28.848  1.00  0.00    -0.203 F 
ATOM     75  C   UNL A   1      36.331  32.629  30.776  1.00  0.00     0.198 A 
ATOM     76  C   UNL A   1      37.123  31.775  32.874  1.00  0.00     0.198 A 
ATOM     77  F   UNL A   1      39.248  30.774  33.008  1.00  0.00    -0.203 F 
ATOM     78  F   UNL A   1      35.393  33.262  30.059  1.00  0.00    -0.200 F 
ATOM     79  C   UNL A   1      36.137  32.407  32.131  1.00  0.00     0.200 A 
ATOM     80  F   UNL A   1      36.934  31.549  34.181  1.00  0.00    -0.200 F 
ATOM     81  F   UNL A   1      35.003  32.807  32.721  1.00  0.00    -0.200 F 
ENDBRANCH  47  71
BRANCH  59  82
ATOM     82  C   UNL A   1      44.633  34.642  29.469  1.00  0.00     0.064 A 
ATOM     83  C   UNL A   1      45.434  34.892  30.592  1.00  0.00     0.173 A 
ATOM     84  C   UNL A   1      44.452  35.682  28.544  1.00  0.00     0.173 A 
ATOM     85  F   UNL A   1      45.628  33.934  31.510  1.00  0.00    -0.203 F 
ATOM     86  C   UNL A   1      46.033  36.135  30.778  1.00  0.00     0.198 A 
ATOM     87  C   UNL A   1      45.074  36.914  28.721  1.00  0.00     0.198 A 
ATOM     88  F   UNL A   1      43.701  35.489  27.448  1.00  0.00    -0.203 F 
ATOM     89  F   UNL A   1      46.781  36.359  31.867  1.00  0.00    -0.200 F 
ATOM     90  C   UNL A   1      45.864  37.140  29.838  1.00  0.00     0.200 A 
ATOM     91  F   UNL A   1      44.923  37.878  27.801  1.00  0.00    -0.200 F 
ATOM     92  F   UNL A   1      46.464  38.326  30.005  1.00  0.00    -0.200 F 
ENDBRANCH  59  82
ENDBRANCH  33  34
ENDBRANCH  26  28
ENDBRANCH  25  26
ENDBRANCH  24  25
ENDBRANCH   1  24
TORSDOF 15
ENDMDL
MODEL 2
REMARK VINA RESULT:     -10.5      5.491      9.533
REMARK SMILES Cc1cc(C)c2c(c1)C=C(C(=O)OCCOCCOC(=O)c1ccc(-c3c4nc(c(-c5c(F)c(F)c(F)c(F)c5F)c5ccc([nH]5)c(-c5c(F)c(F)c(F)c(F)c5F)c5nc(c(-c6c(F)c(F)c(F)c(F)c6F)c6ccc3[nH]6)C=C5)C=C4)cc1)[C@@H](C(F)(F)F)O2
REMARK SMILES IDX 17 1 16 2 15 3 14 4 13 5 11 6 12 7 10 8 1 9 2 10 3 11 8 12
REMARK SMILES IDX 4 13 7 14 5 15 6 16 9 17 90 18 85 19 86 20 87 21 88 22 89 23
REMARK SMILES IDX 18 24 19 25 20 26 21 27 22 28 23 29 84 30 24 31 83 32 25 33
REMARK SMILES IDX 26 34 27 35 77 36 28 37 82 38 76 39 78 40 29 41 81 42 75 43
REMARK SMILES IDX 74 44 30 46 62 47 42 48 61 49 43 50 46 51 60 52 79 53 44 54
REMARK SMILES IDX 45 55 59 57 80 58 47 59 31 60 32 61 40 62 33 63 34 64 38 65
REMARK SMILES IDX 41 66 35 67 36 68 39 69 37 70 63 71 64 72 72 73 65 74 66 75
REMARK SMILES IDX 70 76 73 77 67 78 68 79 71 80 69 81 48 82 49 83 57 84 50 85
REMARK SMILES IDX 51 86 55 87 58 88 52 89 53 90 56 91 54 92
REMARK H PARENT 78 45 46 56
REMARK Flexibility Score: inf
ROOT
ATOM      1  C   UNL A   1      31.566  28.981  25.286  1.00  0.00     0.202 C 
ENDROOT
BRANCH   1   2
ATOM      2  O   UNL A   1      30.659  28.790  24.198  1.00  0.00    -0.374 OA
BRANCH   2   3
ATOM      3  C   UNL A   1      30.470  27.463  23.712  1.00  0.00     0.202 C 
BRANCH   3   4
ATOM      4  C   UNL A   1      31.114  27.125  22.365  1.00  0.00     0.261 C 
BRANCH   4   5
ATOM      5  O   UNL A   1      31.396  25.722  22.249  1.00  0.00    -0.460 OA
BRANCH   5   6
ATOM      6  C   UNL A   1      32.639  25.435  21.799  1.00  0.00     0.338 C 
ATOM      7  O   UNL A   1      33.259  26.031  20.931  1.00  0.00    -0.246 OA
BRANCH   6   8
ATOM      8  C   UNL A   1      33.223  24.342  22.597  1.00  0.00     0.087 C 
ATOM      9  C   UNL A   1      32.196  18.416  23.871  1.00  0.00     0.044 C 
ATOM     10  C   UNL A   1      32.859  19.754  24.004  1.00  0.00    -0.050 A 
ATOM     11  C   UNL A   1      33.822  19.989  24.992  1.00  0.00     0.010 A 
ATOM     12  C   UNL A   1      32.529  20.786  23.121  1.00  0.00     0.015 A 
ATOM     13  C   UNL A   1      34.448  21.241  25.110  1.00  0.00    -0.008 A 
ATOM     14  C   UNL A   1      33.132  22.043  23.238  1.00  0.00     0.018 A 
ATOM     15  C   UNL A   1      35.452  21.476  26.205  1.00  0.00     0.048 C 
ATOM     16  C   UNL A   1      34.107  22.265  24.213  1.00  0.00     0.130 A 
ATOM     17  C   UNL A   1      32.687  23.133  22.392  1.00  0.00     0.027 C 
ATOM     18  O   UNL A   1      34.767  23.457  24.347  1.00  0.00    -0.475 OA
ATOM     19  C   UNL A   1      34.322  24.613  23.584  1.00  0.00     0.316 C 
BRANCH  19  20
ATOM     20  C   UNL A   1      33.969  25.731  24.577  1.00  0.00     0.430 C 
ATOM     21  F   UNL A   1      34.037  26.949  23.987  1.00  0.00    -0.167 F 
ATOM     22  F   UNL A   1      32.704  25.604  25.047  1.00  0.00    -0.167 F 
ATOM     23  F   UNL A   1      34.798  25.748  25.644  1.00  0.00    -0.167 F 
ENDBRANCH  19  20
ENDBRANCH   6   8
ENDBRANCH   5   6
ENDBRANCH   4   5
ENDBRANCH   3   4
ENDBRANCH   2   3
ENDBRANCH   1   2
BRANCH   1  24
ATOM     24  C   UNL A   1      31.812  30.424  25.744  1.00  0.00     0.261 C 
BRANCH  24  25
ATOM     25  O   UNL A   1      32.468  30.483  27.024  1.00  0.00    -0.460 OA
BRANCH  25  26
ATOM     26  C   UNL A   1      33.203  31.599  27.238  1.00  0.00     0.338 C 
ATOM     27  O   UNL A   1      32.836  32.763  27.153  1.00  0.00    -0.246 OA
BRANCH  26  28
ATOM     28  C   UNL A   1      34.518  31.231  27.790  1.00  0.00     0.060 A 
ATOM     29  C   UNL A   1      34.740  29.884  28.103  1.00  0.00     0.016 A 
ATOM     30  C   UNL A   1      35.486  32.197  28.069  1.00  0.00     0.016 A 
ATOM     31  C   UNL A   1      35.923  29.502  28.732  1.00  0.00     0.010 A 
ATOM     32  C   UNL A   1      36.668  31.813  28.712  1.00  0.00     0.010 A 
ATOM     33  C   UNL A   1      36.878  30.470  29.073  1.00  0.00    -0.014 A 
BRANCH  33  34
ATOM     34  C   UNL A   1      38.028  30.084  29.923  1.00  0.00     0.031 A 
ATOM     35  C   UNL A   1      39.065  29.148  29.370  1.00  0.00     0.074 A 
ATOM     36  C   UNL A   1      38.173  30.605  31.155  1.00  0.00     0.049 A 
ATOM     37  N   UNL A   1      40.159  28.697  29.930  1.00  0.00    -0.248 NA
ATOM     38  C   UNL A   1      38.843  28.656  28.000  1.00  0.00     0.031 C 
ATOM     39  C   UNL A   1      37.255  31.555  31.778  1.00  0.00     0.029 A 
ATOM     40  N   UNL A   1      39.153  30.412  32.095  1.00  0.00    -0.354 N 
ATOM     41  C   UNL A   1      40.758  27.881  28.981  1.00  0.00     0.074 A 
ATOM     42  C   UNL A   1      39.891  27.863  27.824  1.00  0.00     0.031 C 
ATOM     43  C   UNL A   1      37.719  31.869  33.000  1.00  0.00     0.029 A 
ATOM     44  C   UNL A   1      38.950  31.122  33.254  1.00  0.00     0.049 A 
ATOM     45  H   UNL A   1      39.928  29.822  31.954  1.00  0.00     0.167 HD
ATOM     46  C   UNL A   1      41.938  27.222  29.061  1.00  0.00     0.037 A 
ATOM     47  C   UNL A   1      39.673  31.156  34.390  1.00  0.00     0.037 A 
ATOM     48  C   UNL A   1      42.800  27.242  30.213  1.00  0.00     0.049 A 
ATOM     49  C   UNL A   1      40.935  30.339  34.489  1.00  0.00     0.074 A 
ATOM     50  C   UNL A   1      44.020  26.613  30.386  1.00  0.00     0.029 A 
ATOM     51  N   UNL A   1      42.528  27.922  31.391  1.00  0.00    -0.354 N 
ATOM     52  N   UNL A   1      41.508  29.590  33.578  1.00  0.00    -0.248 NA
ATOM     53  C   UNL A   1      41.651  30.369  35.774  1.00  0.00     0.031 C 
ATOM     54  C   UNL A   1      44.464  26.872  31.685  1.00  0.00     0.029 A 
ATOM     55  C   UNL A   1      43.545  27.704  32.305  1.00  0.00     0.049 A 
ATOM     56  H   UNL A   1      41.731  28.477  31.553  1.00  0.00     0.167 HD
ATOM     57  C   UNL A   1      42.659  29.082  34.168  1.00  0.00     0.074 A 
ATOM     58  C   UNL A   1      42.710  29.614  35.513  1.00  0.00     0.031 C 
ATOM     59  C   UNL A   1      43.588  28.250  33.638  1.00  0.00     0.037 A 
BRANCH  46  60
ATOM     60  C   UNL A   1      42.372  26.416  27.873  1.00  0.00     0.064 A 
ATOM     61  C   UNL A   1      41.871  25.126  27.644  1.00  0.00     0.173 A 
ATOM     62  C   UNL A   1      43.241  26.965  26.919  1.00  0.00     0.173 A 
ATOM     63  F   UNL A   1      41.046  24.554  28.533  1.00  0.00    -0.203 F 
ATOM     64  C   UNL A   1      42.237  24.409  26.507  1.00  0.00     0.198 A 
ATOM     65  C   UNL A   1      43.583  26.254  25.772  1.00  0.00     0.198 A 
ATOM     66  F   UNL A   1      43.742  28.198  27.090  1.00  0.00    -0.203 F 
ATOM     67  F   UNL A   1      41.771  23.166  26.324  1.00  0.00    -0.200 F 
ATOM     68  C   UNL A   1      43.084  24.977  25.569  1.00  0.00     0.200 A 
ATOM     69  F   UNL A   1      44.392  26.810  24.858  1.00  0.00    -0.200 F 
ATOM     70  F   UNL A   1      43.422  24.292  24.468  1.00  0.00    -0.200 F 
ENDBRANCH  46  60
BRANCH  47  71
ATOM     71  C   UNL A   1      39.225  32.007  35.523  1.00  0.00     0.064 A 
ATOM     72  C   UNL A   1      39.611  33.352  35.610  1.00  0.00     0.173 A 
ATOM     73  C   UNL A   1      38.395  31.499  36.532  1.00  0.00     0.173 A 
ATOM     74  F   UNL A   1      40.425  33.877  34.682  1.00  0.00    -0.203 F 
ATOM     75  C   UNL A   1      39.188  34.154  36.667  1.00  0.00     0.198 A 
ATOM     76  C   UNL A   1      37.953  32.309  37.575  1.00  0.00     0.198 A 
ATOM     77  F   UNL A   1      38.002  30.218  36.497  1.00  0.00    -0.203 F 
ATOM     78  F   UNL A   1      39.598  35.427  36.744  1.00  0.00    -0.200 F 
ATOM     79  C   UNL A   1      38.352  33.635  37.645  1.00  0.00     0.200 A 
ATOM     80  F   UNL A   1      37.136  31.806  38.512  1.00  0.00    -0.200 F 
ATOM     81  F   UNL A   1      37.938  34.410  38.656  1.00  0.00    -0.200 F 
ENDBRANCH  47  71
BRANCH  59  82
ATOM     82  C   UNL A   1      44.759  27.866  34.494  1.00  0.00     0.064 A 
ATOM     83  C   UNL A   1      44.738  26.708  35.285  1.00  0.00     0.173 A 
ATOM     84  C   UNL A   1      45.953  28.601  34.436  1.00  0.00     0.173 A 
ATOM     85  F   UNL A   1      43.616  25.977  35.381  1.00  0.00    -0.203 F 
ATOM     86  C   UNL A   1      45.869  26.302  35.987  1.00  0.00     0.198 A 
ATOM     87  C   UNL A   1      47.089  28.178  35.119  1.00  0.00     0.198 A 
ATOM     88  F   UNL A   1      46.027  29.712  33.687  1.00  0.00    -0.203 F 
ATOM     89  F   UNL A   1      45.821  25.202  36.750  1.00  0.00    -0.200 F 
ATOM     90  C   UNL A   1      47.046  27.029  35.894  1.00  0.00     0.200 A 
ATOM     91  F   UNL A   1      48.231  28.872  35.013  1.00  0.00    -0.200 F 
ATOM     92  F   UNL A   1      48.142  26.620  36.548  1.00  0.00    -0.200 F 
ENDBRANCH  59  82
ENDBRANCH  33  34
ENDBRANCH  26  28
ENDBRANCH  25  26
ENDBRANCH  24  25
ENDBRANCH   1  24
TORSDOF 15
ENDMDL
MODEL 3
REMARK VINA RESULT:     -10.4      4.469      7.490
REMARK SMILES Cc1cc(C)c2c(c1)C=C(C(=O)OCCOCCOC(=O)c1ccc(-c3c4nc(c(-c5c(F)c(F)c(F)c(F)c5F)c5ccc([nH]5)c(-c5c(F)c(F)c(F)c(F)c5F)c5nc(c(-c6c(F)c(F)c(F)c(F)c6F)c6ccc3[nH]6)C=C5)C=C4)cc1)[C@@H](C(F)(F)F)O2
REMARK SMILES IDX 17 1 16 2 15 3 14 4 13 5 11 6 12 7 10 8 1 9 2 10 3 11 8 12
REMARK SMILES IDX 4 13 7 14 5 15 6 16 9 17 90 18 85 19 86 20 87 21 88 22 89 23
REMARK SMILES IDX 18 24 19 25 20 26 21 27 22 28 23 29 84 30 24 31 83 32 25 33
REMARK SMILES IDX 26 34 27 35 77 36 28 37 82 38 76 39 78 40 29 41 81 42 75 43
REMARK SMILES IDX 74 44 30 46 62 47 42 48 61 49 43 50 46 51 60 52 79 53 44 54
REMARK SMILES IDX 45 55 59 57 80 58 47 59 31 60 32 61 40 62 33 63 34 64 38 65
REMARK SMILES IDX 41 66 35 67 36 68 39 69 37 70 63 71 64 72 72 73 65 74 66 75
REMARK SMILES IDX 70 76 73 77 67 78 68 79 71 80 69 81 48 82 49 83 57 84 50 85
REMARK SMILES IDX 51 86 55 87 58 88 52 89 53 90 56 91 54 92
REMARK H PARENT 78 45 46 56
REMARK Flexibility Score: inf
ROOT
ATOM      1  C   UNL A   1      35.506  21.172  25.436  1.00  0.00     0.202 C 
ENDROOT
BRANCH   1   2
ATOM      2  O   UNL A   1      34.364  20.900  24.621  1.00  0.00    -0.374 OA
BRANCH   2   3
ATOM      3  C   UNL A   1      33.773  21.988  23.916  1.00  0.00     0.202 C 
BRANCH   3   4
ATOM      4  C   UNL A   1      32.284  21.866  23.585  1.00  0.00     0.261 C 
BRANCH   4   5
ATOM      5  O   UNL A   1      31.626  23.142  23.616  1.00  0.00    -0.460 OA
BRANCH   5   6
ATOM      6  C   UNL A   1      31.171  23.508  24.837  1.00  0.00     0.338 C 
ATOM      7  O   UNL A   1      30.942  22.771  25.784  1.00  0.00    -0.246 OA
BRANCH   6   8
ATOM      8  C   UNL A   1      31.093  24.977  24.924  1.00  0.00     0.087 C 
ATOM      9  C   UNL A   1      28.463  29.704  22.002  1.00  0.00     0.044 C 
ATOM     10  C   UNL A   1      29.367  29.033  22.992  1.00  0.00    -0.050 A 
ATOM     11  C   UNL A   1      30.243  29.777  23.790  1.00  0.00     0.010 A 
ATOM     12  C   UNL A   1      29.329  27.644  23.140  1.00  0.00     0.015 A 
ATOM     13  C   UNL A   1      31.084  29.148  24.723  1.00  0.00    -0.008 A 
ATOM     14  C   UNL A   1      30.174  27.003  24.053  1.00  0.00     0.018 A 
ATOM     15  C   UNL A   1      32.044  29.969  25.540  1.00  0.00     0.048 C 
ATOM     16  C   UNL A   1      31.032  27.752  24.860  1.00  0.00     0.130 A 
ATOM     17  C   UNL A   1      30.207  25.554  24.104  1.00  0.00     0.027 C 
ATOM     18  O   UNL A   1      31.846  27.188  25.805  1.00  0.00    -0.475 OA
ATOM     19  C   UNL A   1      31.986  25.741  25.860  1.00  0.00     0.316 C 
BRANCH  19  20
ATOM     20  C   UNL A   1      33.471  25.398  25.678  1.00  0.00     0.430 C 
ATOM     21  F   UNL A   1      33.777  25.221  24.370  1.00  0.00    -0.167 F 
ATOM     22  F   UNL A   1      34.275  26.393  26.126  1.00  0.00    -0.167 F 
ATOM     23  F   UNL A   1      33.820  24.269  26.334  1.00  0.00    -0.167 F 
ENDBRANCH  19  20
ENDBRANCH   6   8
ENDBRANCH   5   6
ENDBRANCH   4   5
ENDBRANCH   3   4
ENDBRANCH   2   3
ENDBRANCH   1   2
BRANCH   1  24
ATOM     24  C   UNL A   1      36.837  20.543  25.006  1.00  0.00     0.261 C 
BRANCH  24  25
ATOM     25  O   UNL A   1      37.916  21.498  25.011  1.00  0.00    -0.460 OA
BRANCH  25  26
ATOM     26  C   UNL A   1      38.926  21.214  25.864  1.00  0.00     0.338 C 
ATOM     27  O   UNL A   1      39.499  20.143  26.014  1.00  0.00    -0.246 OA
BRANCH  26  28
ATOM     28  C   UNL A   1      39.403  22.453  26.501  1.00  0.00     0.060 A 
ATOM     29  C   UNL A   1      38.831  23.662  26.085  1.00  0.00     0.016 A 
ATOM     30  C   UNL A   1      40.447  22.440  27.428  1.00  0.00     0.016 A 
ATOM     31  C   UNL A   1      39.325  24.870  26.571  1.00  0.00     0.010 A 
ATOM     32  C   UNL A   1      40.950  23.655  27.906  1.00  0.00     0.010 A 
ATOM     33  C   UNL A   1      40.412  24.874  27.458  1.00  0.00    -0.014 A 
BRANCH  33  34
ATOM     34  C   UNL A   1      41.060  26.161  27.801  1.00  0.00     0.031 A 
ATOM     35  C   UNL A   1      42.487  26.395  27.391  1.00  0.00     0.074 A 
ATOM     36  C   UNL A   1      40.367  27.131  28.425  1.00  0.00     0.049 A 
ATOM     37  N   UNL A   1      43.239  27.451  27.568  1.00  0.00    -0.248 NA
ATOM     38  C   UNL A   1      43.155  25.292  26.680  1.00  0.00     0.031 C 
ATOM     39  C   UNL A   1      38.968  27.034  28.831  1.00  0.00     0.029 A 
ATOM     40  N   UNL A   1      40.748  28.389  28.816  1.00  0.00    -0.354 N 
ATOM     41  C   UNL A   1      44.460  27.144  26.984  1.00  0.00     0.074 A 
ATOM     42  C   UNL A   1      44.367  25.791  26.483  1.00  0.00     0.031 C 
ATOM     43  C   UNL A   1      38.603  28.190  29.411  1.00  0.00     0.029 A 
ATOM     44  C   UNL A   1      39.750  29.096  29.441  1.00  0.00     0.049 A 
ATOM     45  H   UNL A   1      41.651  28.752  28.663  1.00  0.00     0.167 HD
ATOM     46  C   UNL A   1      45.555  27.931  26.861  1.00  0.00     0.037 A 
ATOM     47  C   UNL A   1      39.766  30.331  29.981  1.00  0.00     0.037 A 
ATOM     48  C   UNL A   1      45.646  29.277  27.360  1.00  0.00     0.049 A 
ATOM     49  C   UNL A   1      41.029  31.152  29.913  1.00  0.00     0.074 A 
ATOM     50  C   UNL A   1      46.711  30.157  27.276  1.00  0.00     0.029 A 
ATOM     51  N   UNL A   1      44.634  29.935  28.044  1.00  0.00    -0.354 N 
ATOM     52  N   UNL A   1      42.171  30.865  29.337  1.00  0.00    -0.248 NA
ATOM     53  C   UNL A   1      41.005  32.467  30.572  1.00  0.00     0.031 C 
ATOM     54  C   UNL A   1      46.362  31.330  27.950  1.00  0.00     0.029 A 
ATOM     55  C   UNL A   1      45.061  31.200  28.412  1.00  0.00     0.049 A 
ATOM     56  H   UNL A   1      43.746  29.559  28.240  1.00  0.00     0.167 HD
ATOM     57  C   UNL A   1      42.990  31.967  29.541  1.00  0.00     0.074 A 
ATOM     58  C   UNL A   1      42.213  32.935  30.286  1.00  0.00     0.031 C 
ATOM     59  C   UNL A   1      44.272  32.158  29.144  1.00  0.00     0.037 A 
BRANCH  46  60
ATOM     60  C   UNL A   1      46.752  27.359  26.162  1.00  0.00     0.064 A 
ATOM     61  C   UNL A   1      46.952  27.546  24.786  1.00  0.00     0.173 A 
ATOM     62  C   UNL A   1      47.743  26.679  26.885  1.00  0.00     0.173 A 
ATOM     63  F   UNL A   1      46.027  28.180  24.049  1.00  0.00    -0.203 F 
ATOM     64  C   UNL A   1      48.095  27.060  24.157  1.00  0.00     0.198 A 
ATOM     65  C   UNL A   1      48.897  26.217  26.257  1.00  0.00     0.198 A 
ATOM     66  F   UNL A   1      47.601  26.480  28.204  1.00  0.00    -0.203 F 
ATOM     67  F   UNL A   1      48.251  27.223  22.836  1.00  0.00    -0.200 F 
ATOM     68  C   UNL A   1      49.070  26.405  24.894  1.00  0.00     0.200 A 
ATOM     69  F   UNL A   1      49.844  25.596  26.973  1.00  0.00    -0.200 F 
ATOM     70  F   UNL A   1      50.177  25.953  24.290  1.00  0.00    -0.200 F 
ENDBRANCH  46  60
BRANCH  47  71
ATOM     71  C   UNL A   1      38.540  30.870  30.622  1.00  0.00     0.064 A 
ATOM     72  C   UNL A   1      37.520  31.448  29.854  1.00  0.00     0.173 A 
ATOM     73  C   UNL A   1      38.356  30.809  32.011  1.00  0.00     0.173 A 
ATOM     74  F   UNL A   1      37.660  31.552  28.524  1.00  0.00    -0.203 F 
ATOM     75  C   UNL A   1      36.365  31.949  30.452  1.00  0.00     0.198 A 
ATOM     76  C   UNL A   1      37.191  31.288  32.605  1.00  0.00     0.198 A 
ATOM     77  F   UNL A   1      39.304  30.270  32.791  1.00  0.00    -0.203 F 
ATOM     78  F   UNL A   1      35.420  32.526  29.698  1.00  0.00    -0.200 F 
ATOM     79  C   UNL A   1      36.198  31.862  31.826  1.00  0.00     0.200 A 
ATOM     80  F   UNL A   1      37.028  31.191  33.932  1.00  0.00    -0.200 F 
ATOM     81  F   UNL A   1      35.083  32.335  32.399  1.00  0.00    -0.200 F 
ENDBRANCH  47  71
BRANCH  59  82
ATOM     82  C   UNL A   1      44.927  33.465  29.482  1.00  0.00     0.064 A 
ATOM     83  C   UNL A   1      44.820  34.577  28.634  1.00  0.00     0.173 A 
ATOM     84  C   UNL A   1      45.571  33.638  30.716  1.00  0.00     0.173 A 
ATOM     85  F   UNL A   1      44.223  34.458  27.438  1.00  0.00    -0.203 F 
ATOM     86  C   UNL A   1      45.336  35.814  29.010  1.00  0.00     0.198 A 
ATOM     87  C   UNL A   1      46.062  34.883  31.100  1.00  0.00     0.198 A 
ATOM     88  F   UNL A   1      45.690  32.607  31.567  1.00  0.00    -0.203 F 
ATOM     89  F   UNL A   1      45.239  36.859  28.177  1.00  0.00    -0.200 F 
ATOM     90  C   UNL A   1      45.944  35.969  30.246  1.00  0.00     0.200 A 
ATOM     91  F   UNL A   1      46.634  35.035  32.303  1.00  0.00    -0.200 F 
ATOM     92  F   UNL A   1      46.415  37.168  30.618  1.00  0.00    -0.200 F 
ENDBRANCH  59  82
ENDBRANCH  33  34
ENDBRANCH  26  28
ENDBRANCH  25  26
ENDBRANCH  24  25
ENDBRANCH   1  24
TORSDOF 15
ENDMDL
