MODEL 1
REMARK VINA RESULT:     -11.3      0.000      0.000
REMARK SMILES O=C(C[C@@H]1CN(C(=O)NCc2cccs2)CCO1)OCCOCCOC(=O)c1ccc(-c2c3nc(c(-c4c(F)c(F)c(F)c(F)c4F)c4ccc([nH]4)c(-c4c(F)c(F)c(F)c(F)c4F)c4nc(c(-c5c(F)c(F)c(F)c(F)c5F)c5ccc2[nH]5)C=C4)C=C3)cc1
REMARK SMILES IDX 21 1 20 2 19 3 2 4 1 5 3 6 4 7 5 8 18 9 6 10 17 11 16 12
REMARK SMILES IDX 7 13 8 14 9 15 10 17 11 18 12 19 15 20 13 21 14 22 22 23
REMARK SMILES IDX 23 24 24 25 25 26 26 27 27 28 28 29 29 30 90 31 30 32 89 33
REMARK SMILES IDX 31 34 32 35 33 36 83 37 34 38 88 39 82 40 84 41 35 42 87 43
REMARK SMILES IDX 81 44 80 45 36 47 68 48 48 49 67 50 49 51 52 52 66 53 85 54
REMARK SMILES IDX 50 55 51 56 65 58 86 59 53 60 37 61 38 62 46 63 39 64 40 65
REMARK SMILES IDX 44 66 47 67 41 68 42 69 45 70 43 71 69 72 70 73 78 74 71 75
REMARK SMILES IDX 72 76 76 77 79 78 73 79 74 80 77 81 75 82 54 83 55 84 63 85
REMARK SMILES IDX 56 86 57 87 61 88 64 89 58 90 59 91 62 92 60 93
REMARK H PARENT 9 16 84 46 52 57
REMARK Flexibility Score: inf
ROOT
ATOM      1  C   UNL A   1      35.318  23.035  26.287  1.00  0.00     0.202 C 
ENDROOT
BRANCH   1   2
ATOM      2  C   UNL A   1      33.816  22.856  26.456  1.00  0.00     0.261 C 
BRANCH   2   3
ATOM      3  O   UNL A   1      33.063  24.071  26.484  1.00  0.00    -0.463 OA
BRANCH   3   4
ATOM      4  C   UNL A   1      31.714  24.167  26.486  1.00  0.00     0.308 C 
ATOM      5  O   UNL A   1      31.097  23.827  27.496  1.00  0.00    -0.252 OA
BRANCH   4   6
ATOM      6  C   UNL A   1      30.961  24.471  25.216  1.00  0.00     0.156 C 
BRANCH   6   7
ATOM      7  C   UNL A   1      31.553  25.431  24.189  1.00  0.00     0.149 C 
ATOM      8  C   UNL A   1      30.417  26.060  23.345  1.00  0.00     0.154 C 
ATOM      9  O   UNL A   1      32.552  24.795  23.377  1.00  0.00    -0.374 OA
ATOM     10  N   UNL A   1      30.970  26.953  22.340  1.00  0.00    -0.320 N 
ATOM     11  C   UNL A   1      33.069  25.677  22.364  1.00  0.00     0.182 C 
ATOM     12  C   UNL A   1      31.946  26.258  21.492  1.00  0.00     0.150 C 
BRANCH  10  13
ATOM     13  C   UNL A   1      30.942  28.314  22.308  1.00  0.00     0.317 C 
ATOM     14  O   UNL A   1      29.942  28.925  21.919  1.00  0.00    -0.249 OA
ATOM     15  N   UNL A   1      31.977  29.084  22.678  1.00  0.00    -0.333 N 
ATOM     16  H   UNL A   1      31.865  30.016  22.381  1.00  0.00     0.165 HD
BRANCH  15  17
ATOM     17  C   UNL A   1      33.215  28.894  23.403  1.00  0.00     0.164 C 
BRANCH  17  18
ATOM     18  C   UNL A   1      32.962  28.856  24.887  1.00  0.00     0.024 A 
ATOM     19  C   UNL A   1      33.514  27.986  25.812  1.00  0.00     0.017 A 
ATOM     20  S   UNL A   1      31.898  29.962  25.662  1.00  0.00    -0.147 S 
ATOM     21  C   UNL A   1      33.049  28.219  27.138  1.00  0.00     0.012 A 
ATOM     22  C   UNL A   1      32.162  29.268  27.196  1.00  0.00     0.065 A 
ENDBRANCH  17  18
ENDBRANCH  15  17
ENDBRANCH  10  13
ENDBRANCH   6   7
ENDBRANCH   4   6
ENDBRANCH   3   4
ENDBRANCH   2   3
ENDBRANCH   1   2
BRANCH   1  23
ATOM     23  O   UNL A   1      35.945  22.398  25.181  1.00  0.00    -0.374 OA
BRANCH  23  24
ATOM     24  C   UNL A   1      36.165  20.985  25.301  1.00  0.00     0.202 C 
BRANCH  24  25
ATOM     25  C   UNL A   1      37.595  20.479  25.055  1.00  0.00     0.261 C 
BRANCH  25  26
ATOM     26  O   UNL A   1      38.568  21.532  25.181  1.00  0.00    -0.460 OA
BRANCH  26  27
ATOM     27  C   UNL A   1      39.560  21.292  26.070  1.00  0.00     0.338 C 
ATOM     28  O   UNL A   1      40.287  20.309  26.120  1.00  0.00    -0.246 OA
BRANCH  27  29
ATOM     29  C   UNL A   1      39.833  22.518  26.848  1.00  0.00     0.060 A 
ATOM     30  C   UNL A   1      39.044  23.645  26.576  1.00  0.00     0.016 A 
ATOM     31  C   UNL A   1      40.856  22.577  27.796  1.00  0.00     0.016 A 
ATOM     32  C   UNL A   1      39.342  24.866  27.170  1.00  0.00     0.010 A 
ATOM     33  C   UNL A   1      41.163  23.806  28.386  1.00  0.00     0.010 A 
ATOM     34  C   UNL A   1      40.452  24.963  28.016  1.00  0.00    -0.014 A 
BRANCH  34  35
ATOM     35  C   UNL A   1      41.032  26.301  28.271  1.00  0.00     0.031 A 
ATOM     36  C   UNL A   1      42.425  26.567  27.767  1.00  0.00     0.074 A 
ATOM     37  C   UNL A   1      40.324  27.269  28.876  1.00  0.00     0.049 A 
ATOM     38  N   UNL A   1      43.158  27.646  27.862  1.00  0.00    -0.248 NA
ATOM     39  C   UNL A   1      43.085  25.456  27.061  1.00  0.00     0.031 C 
ATOM     40  C   UNL A   1      38.951  27.137  29.356  1.00  0.00     0.029 A 
ATOM     41  N   UNL A   1      40.670  28.559  29.182  1.00  0.00    -0.354 N 
ATOM     42  C   UNL A   1      44.366  27.336  27.248  1.00  0.00     0.074 A 
ATOM     43  C   UNL A   1      44.284  25.959  26.815  1.00  0.00     0.031 C 
ATOM     44  C   UNL A   1      38.568  28.305  29.901  1.00  0.00     0.029 A 
ATOM     45  C   UNL A   1      39.680  29.252  29.833  1.00  0.00     0.049 A 
ATOM     46  H   UNL A   1      41.546  28.950  28.959  1.00  0.00     0.167 HD
ATOM     47  C   UNL A   1      45.443  28.131  27.053  1.00  0.00     0.037 A 
ATOM     48  C   UNL A   1      39.687  30.506  30.323  1.00  0.00     0.037 A 
ATOM     49  C   UNL A   1      45.508  29.503  27.480  1.00  0.00     0.049 A 
ATOM     50  C   UNL A   1      40.920  31.355  30.145  1.00  0.00     0.074 A 
ATOM     51  C   UNL A   1      46.540  30.410  27.317  1.00  0.00     0.029 A 
ATOM     52  N   UNL A   1      44.497  30.163  28.163  1.00  0.00    -0.354 N 
ATOM     53  N   UNL A   1      42.050  31.066  29.542  1.00  0.00    -0.248 NA
ATOM     54  C   UNL A   1      40.873  32.712  30.706  1.00  0.00     0.031 C 
ATOM     55  C   UNL A   1      46.178  31.599  27.958  1.00  0.00     0.029 A 
ATOM     56  C   UNL A   1      44.890  31.459  28.453  1.00  0.00     0.049 A 
ATOM     57  H   UNL A   1      43.629  29.768  28.406  1.00  0.00     0.167 HD
ATOM     58  C   UNL A   1      42.826  32.216  29.610  1.00  0.00     0.074 A 
ATOM     59  C   UNL A   1      42.035  33.209  30.308  1.00  0.00     0.031 C 
ATOM     60  C   UNL A   1      44.078  32.437  29.133  1.00  0.00     0.037 A 
BRANCH  47  61
ATOM     61  C   UNL A   1      46.646  27.521  26.392  1.00  0.00     0.064 A 
ATOM     62  C   UNL A   1      46.844  27.576  25.003  1.00  0.00     0.173 A 
ATOM     63  C   UNL A   1      47.622  26.873  27.166  1.00  0.00     0.173 A 
ATOM     64  F   UNL A   1      45.934  28.166  24.214  1.00  0.00    -0.203 F 
ATOM     65  C   UNL A   1      47.954  26.974  24.412  1.00  0.00     0.198 A 
ATOM     66  C   UNL A   1      48.748  26.305  26.575  1.00  0.00     0.198 A 
ATOM     67  F   UNL A   1      47.484  26.790  28.497  1.00  0.00    -0.203 F 
ATOM     68  F   UNL A   1      48.088  26.984  23.079  1.00  0.00    -0.200 F 
ATOM     69  C   UNL A   1      48.908  26.347  25.199  1.00  0.00     0.200 A 
ATOM     70  F   UNL A   1      49.675  25.711  27.339  1.00  0.00    -0.200 F 
ATOM     71  F   UNL A   1      49.977  25.773  24.629  1.00  0.00    -0.200 F 
ENDBRANCH  47  61
BRANCH  48  72
ATOM     72  C   UNL A   1      38.484  31.043  31.011  1.00  0.00     0.064 A 
ATOM     73  C   UNL A   1      37.429  31.612  30.283  1.00  0.00     0.173 A 
ATOM     74  C   UNL A   1      38.371  31.017  32.410  1.00  0.00     0.173 A 
ATOM     75  F   UNL A   1      37.499  31.681  28.946  1.00  0.00    -0.203 F 
ATOM     76  C   UNL A   1      36.318  32.154  30.928  1.00  0.00     0.198 A 
ATOM     77  C   UNL A   1      37.245  31.531  33.051  1.00  0.00     0.198 A 
ATOM     78  F   UNL A   1      39.351  30.486  33.154  1.00  0.00    -0.203 F 
ATOM     79  F   UNL A   1      35.349  32.737  30.210  1.00  0.00    -0.200 F 
ATOM     80  C   UNL A   1      36.224  32.108  32.311  1.00  0.00     0.200 A 
ATOM     81  F   UNL A   1      37.152  31.472  34.386  1.00  0.00    -0.200 F 
ATOM     82  F   UNL A   1      35.154  32.626  32.929  1.00  0.00    -0.200 F 
ENDBRANCH  48  72
BRANCH  60  83
ATOM     83  C   UNL A   1      44.639  33.824  29.283  1.00  0.00     0.064 A 
ATOM     84  C   UNL A   1      45.416  34.201  30.388  1.00  0.00     0.173 A 
ATOM     85  C   UNL A   1      44.411  34.784  28.284  1.00  0.00     0.173 A 
ATOM     86  F   UNL A   1      45.655  33.326  31.375  1.00  0.00    -0.203 F 
ATOM     87  C   UNL A   1      45.905  35.500  30.508  1.00  0.00     0.198 A 
ATOM     88  C   UNL A   1      44.935  36.069  28.388  1.00  0.00     0.198 A 
ATOM     89  F   UNL A   1      43.686  34.474  27.198  1.00  0.00    -0.203 F 
ATOM     90  F   UNL A   1      46.586  35.856  31.605  1.00  0.00    -0.200 F 
ATOM     91  C   UNL A   1      45.671  36.429  29.506  1.00  0.00     0.200 A 
ATOM     92  F   UNL A   1      44.725  36.958  27.408  1.00  0.00    -0.200 F 
ATOM     93  F   UNL A   1      46.145  37.677  29.623  1.00  0.00    -0.200 F 
ENDBRANCH  60  83
ENDBRANCH  34  35
ENDBRANCH  27  29
ENDBRANCH  26  27
ENDBRANCH  25  26
ENDBRANCH  24  25
ENDBRANCH  23  24
ENDBRANCH   1  23
TORSDOF 18
ENDMDL
MODEL 2
REMARK VINA RESULT:     -11.3      4.259      6.514
REMARK SMILES O=C(C[C@@H]1CN(C(=O)NCc2cccs2)CCO1)OCCOCCOC(=O)c1ccc(-c2c3nc(c(-c4c(F)c(F)c(F)c(F)c4F)c4ccc([nH]4)c(-c4c(F)c(F)c(F)c(F)c4F)c4nc(c(-c5c(F)c(F)c(F)c(F)c5F)c5ccc2[nH]5)C=C4)C=C3)cc1
REMARK SMILES IDX 21 1 20 2 19 3 2 4 1 5 3 6 4 7 5 8 18 9 6 10 17 11 16 12
REMARK SMILES IDX 7 13 8 14 9 15 10 17 11 18 12 19 15 20 13 21 14 22 22 23
REMARK SMILES IDX 23 24 24 25 25 26 26 27 27 28 28 29 29 30 90 31 30 32 89 33
REMARK SMILES IDX 31 34 32 35 33 36 83 37 34 38 88 39 82 40 84 41 35 42 87 43
REMARK SMILES IDX 81 44 80 45 36 47 68 48 48 49 67 50 49 51 52 52 66 53 85 54
REMARK SMILES IDX 50 55 51 56 65 58 86 59 53 60 37 61 38 62 46 63 39 64 40 65
REMARK SMILES IDX 44 66 47 67 41 68 42 69 45 70 43 71 69 72 70 73 78 74 71 75
REMARK SMILES IDX 72 76 76 77 79 78 73 79 74 80 77 81 75 82 54 83 55 84 63 85
REMARK SMILES IDX 56 86 57 87 61 88 64 89 58 90 59 91 62 92 60 93
REMARK H PARENT 9 16 84 46 52 57
REMARK Flexibility Score: inf
ROOT
ATOM      1  C   UNL A   1      40.469  21.734  26.238  1.00  0.00     0.202 C 
ENDROOT
BRANCH   1   2
ATOM      2  C   UNL A   1      39.046  21.387  25.823  1.00  0.00     0.261 C 
BRANCH   2   3
ATOM      3  O   UNL A   1      38.148  22.498  25.762  1.00  0.00    -0.463 OA
BRANCH   3   4
ATOM      4  C   UNL A   1      36.946  22.513  25.144  1.00  0.00     0.308 C 
ATOM      5  O   UNL A   1      36.665  21.595  24.372  1.00  0.00    -0.252 OA
BRANCH   4   6
ATOM      6  C   UNL A   1      36.055  23.727  25.216  1.00  0.00     0.156 C 
BRANCH   6   7
ATOM      7  C   UNL A   1      34.878  23.867  24.256  1.00  0.00     0.149 C 
ATOM      8  C   UNL A   1      34.370  25.331  24.263  1.00  0.00     0.154 C 
ATOM      9  O   UNL A   1      33.835  22.924  24.547  1.00  0.00    -0.374 OA
ATOM     10  N   UNL A   1      33.227  25.471  23.375  1.00  0.00    -0.320 N 
ATOM     11  C   UNL A   1      32.695  23.094  23.685  1.00  0.00     0.182 C 
ATOM     12  C   UNL A   1      32.158  24.532  23.734  1.00  0.00     0.150 C 
BRANCH  10  13
ATOM     13  C   UNL A   1      33.168  26.081  22.159  1.00  0.00     0.317 C 
ATOM     14  O   UNL A   1      33.335  25.443  21.115  1.00  0.00    -0.249 OA
ATOM     15  N   UNL A   1      32.940  27.393  22.000  1.00  0.00    -0.333 N 
ATOM     16  H   UNL A   1      33.153  27.695  21.087  1.00  0.00     0.165 HD
BRANCH  15  17
ATOM     17  C   UNL A   1      32.459  28.479  22.828  1.00  0.00     0.164 C 
BRANCH  17  18
ATOM     18  C   UNL A   1      30.953  28.509  22.843  1.00  0.00     0.024 A 
ATOM     19  C   UNL A   1      30.100  27.575  23.404  1.00  0.00     0.017 A 
ATOM     20  S   UNL A   1      30.057  29.790  22.129  1.00  0.00    -0.147 S 
ATOM     21  C   UNL A   1      28.724  27.905  23.228  1.00  0.00     0.012 A 
ATOM     22  C   UNL A   1      28.561  29.088  22.548  1.00  0.00     0.065 A 
ENDBRANCH  17  18
ENDBRANCH  15  17
ENDBRANCH  10  13
ENDBRANCH   6   7
ENDBRANCH   4   6
ENDBRANCH   3   4
ENDBRANCH   2   3
ENDBRANCH   1   2
BRANCH   1  23
ATOM     23  O   UNL A   1      41.537  21.191  25.472  1.00  0.00    -0.374 OA
BRANCH  23  24
ATOM     24  C   UNL A   1      42.805  21.081  26.136  1.00  0.00     0.202 C 
BRANCH  24  25
ATOM     25  C   UNL A   1      43.789  22.248  25.959  1.00  0.00     0.261 C 
BRANCH  25  26
ATOM     26  O   UNL A   1      43.298  23.230  25.029  1.00  0.00    -0.460 OA
BRANCH  26  27
ATOM     27  C   UNL A   1      43.907  24.437  25.095  1.00  0.00     0.338 C 
ATOM     28  O   UNL A   1      44.891  24.804  24.468  1.00  0.00    -0.246 OA
BRANCH  27  29
ATOM     29  C   UNL A   1      43.061  25.375  25.860  1.00  0.00     0.060 A 
ATOM     30  C   UNL A   1      43.562  26.667  26.080  1.00  0.00     0.016 A 
ATOM     31  C   UNL A   1      41.821  24.995  26.379  1.00  0.00     0.016 A 
ATOM     32  C   UNL A   1      42.880  27.549  26.910  1.00  0.00     0.010 A 
ATOM     33  C   UNL A   1      41.140  25.877  27.222  1.00  0.00     0.010 A 
ATOM     34  C   UNL A   1      41.707  27.124  27.543  1.00  0.00    -0.014 A 
BRANCH  34  35
ATOM     35  C   UNL A   1      41.246  27.859  28.744  1.00  0.00     0.031 A 
ATOM     36  C   UNL A   1      42.043  27.697  30.012  1.00  0.00     0.074 A 
ATOM     37  C   UNL A   1      40.193  28.690  28.696  1.00  0.00     0.049 A 
ATOM     38  N   UNL A   1      41.852  28.223  31.194  1.00  0.00    -0.248 NA
ATOM     39  C   UNL A   1      43.217  26.811  29.934  1.00  0.00     0.031 C 
ATOM     40  C   UNL A   1      39.384  28.962  27.512  1.00  0.00     0.029 A 
ATOM     41  N   UNL A   1      39.630  29.463  29.679  1.00  0.00    -0.354 N 
ATOM     42  C   UNL A   1      42.866  27.717  31.998  1.00  0.00     0.074 A 
ATOM     43  C   UNL A   1      43.648  26.816  31.184  1.00  0.00     0.031 C 
ATOM     44  C   UNL A   1      38.422  29.844  27.837  1.00  0.00     0.029 A 
ATOM     45  C   UNL A   1      38.533  30.171  29.257  1.00  0.00     0.049 A 
ATOM     46  H   UNL A   1      39.978  29.504  30.599  1.00  0.00     0.167 HD
ATOM     47  C   UNL A   1      43.126  27.989  33.298  1.00  0.00     0.037 A 
ATOM     48  C   UNL A   1      37.713  30.982  29.952  1.00  0.00     0.037 A 
ATOM     49  C   UNL A   1      42.345  28.895  34.096  1.00  0.00     0.049 A 
ATOM     50  C   UNL A   1      37.989  31.224  31.415  1.00  0.00     0.074 A 
ATOM     51  C   UNL A   1      42.529  29.264  35.416  1.00  0.00     0.029 A 
ATOM     52  N   UNL A   1      41.222  29.573  33.643  1.00  0.00    -0.354 N 
ATOM     53  N   UNL A   1      38.963  30.764  32.165  1.00  0.00    -0.248 NA
ATOM     54  C   UNL A   1      37.057  32.111  32.123  1.00  0.00     0.031 C 
ATOM     55  C   UNL A   1      41.480  30.113  35.780  1.00  0.00     0.029 A 
ATOM     56  C   UNL A   1      40.687  30.337  34.665  1.00  0.00     0.049 A 
ATOM     57  H   UNL A   1      40.860  29.518  32.729  1.00  0.00     0.167 HD
ATOM     58  C   UNL A   1      38.788  31.341  33.417  1.00  0.00     0.074 A 
ATOM     59  C   UNL A   1      37.617  32.189  33.321  1.00  0.00     0.031 C 
ATOM     60  C   UNL A   1      39.530  31.190  34.543  1.00  0.00     0.037 A 
BRANCH  47  61
ATOM     61  C   UNL A   1      44.272  27.261  33.943  1.00  0.00     0.064 A 
ATOM     62  C   UNL A   1      45.574  27.787  33.964  1.00  0.00     0.173 A 
ATOM     63  C   UNL A   1      44.061  26.016  34.556  1.00  0.00     0.173 A 
ATOM     64  F   UNL A   1      45.837  28.964  33.377  1.00  0.00    -0.203 F 
ATOM     65  C   UNL A   1      46.625  27.078  34.542  1.00  0.00     0.198 A 
ATOM     66  C   UNL A   1      45.107  25.328  35.165  1.00  0.00     0.198 A 
ATOM     67  F   UNL A   1      42.838  25.466  34.565  1.00  0.00    -0.203 F 
ATOM     68  F   UNL A   1      47.870  27.571  34.494  1.00  0.00    -0.200 F 
ATOM     69  C   UNL A   1      46.389  25.853  35.148  1.00  0.00     0.200 A 
ATOM     70  F   UNL A   1      44.873  24.150  35.761  1.00  0.00    -0.200 F 
ATOM     71  F   UNL A   1      47.401  25.174  35.707  1.00  0.00    -0.200 F 
ENDBRANCH  47  61
BRANCH  48  72
ATOM     72  C   UNL A   1      36.564  31.638  29.274  1.00  0.00     0.064 A 
ATOM     73  C   UNL A   1      36.564  33.019  29.028  1.00  0.00     0.173 A 
ATOM     74  C   UNL A   1      35.436  30.906  28.875  1.00  0.00     0.173 A 
ATOM     75  F   UNL A   1      37.609  33.767  29.411  1.00  0.00    -0.203 F 
ATOM     76  C   UNL A   1      35.471  33.645  28.429  1.00  0.00     0.198 A 
ATOM     77  C   UNL A   1      34.358  31.528  28.248  1.00  0.00     0.198 A 
ATOM     78  F   UNL A   1      35.384  29.583  29.086  1.00  0.00    -0.203 F 
ATOM     79  F   UNL A   1      35.477  34.973  28.254  1.00  0.00    -0.200 F 
ATOM     80  C   UNL A   1      34.372  32.898  28.035  1.00  0.00     0.200 A 
ATOM     81  F   UNL A   1      33.303  30.800  27.856  1.00  0.00    -0.200 F 
ATOM     82  F   UNL A   1      33.323  33.500  27.457  1.00  0.00    -0.200 F 
ENDBRANCH  48  72
BRANCH  60  83
ATOM     83  C   UNL A   1      39.144  32.015  35.739  1.00  0.00     0.064 A 
ATOM     84  C   UNL A   1      38.279  31.533  36.733  1.00  0.00     0.173 A 
ATOM     85  C   UNL A   1      39.674  33.305  35.901  1.00  0.00     0.173 A 
ATOM     86  F   UNL A   1      37.739  30.311  36.622  1.00  0.00    -0.203 F 
ATOM     87  C   UNL A   1      37.926  32.329  37.820  1.00  0.00     0.198 A 
ATOM     88  C   UNL A   1      39.349  34.082  37.009  1.00  0.00     0.198 A 
ATOM     89  F   UNL A   1      40.517  33.812  34.988  1.00  0.00    -0.203 F 
ATOM     90  F   UNL A   1      37.044  31.873  38.720  1.00  0.00    -0.200 F 
ATOM     91  C   UNL A   1      38.465  33.598  37.961  1.00  0.00     0.200 A 
ATOM     92  F   UNL A   1      39.889  35.300  37.153  1.00  0.00    -0.200 F 
ATOM     93  F   UNL A   1      38.125  34.360  39.009  1.00  0.00    -0.200 F 
ENDBRANCH  60  83
ENDBRANCH  34  35
ENDBRANCH  27  29
ENDBRANCH  26  27
ENDBRANCH  25  26
ENDBRANCH  24  25
ENDBRANCH  23  24
ENDBRANCH   1  23
TORSDOF 18
ENDMDL
MODEL 3
REMARK VINA RESULT:     -11.2      0.652      1.749
REMARK SMILES O=C(C[C@@H]1CN(C(=O)NCc2cccs2)CCO1)OCCOCCOC(=O)c1ccc(-c2c3nc(c(-c4c(F)c(F)c(F)c(F)c4F)c4ccc([nH]4)c(-c4c(F)c(F)c(F)c(F)c4F)c4nc(c(-c5c(F)c(F)c(F)c(F)c5F)c5ccc2[nH]5)C=C4)C=C3)cc1
REMARK SMILES IDX 21 1 20 2 19 3 2 4 1 5 3 6 4 7 5 8 18 9 6 10 17 11 16 12
REMARK SMILES IDX 7 13 8 14 9 15 10 17 11 18 12 19 15 20 13 21 14 22 22 23
REMARK SMILES IDX 23 24 24 25 25 26 26 27 27 28 28 29 29 30 90 31 30 32 89 33
REMARK SMILES IDX 31 34 32 35 33 36 83 37 34 38 88 39 82 40 84 41 35 42 87 43
REMARK SMILES IDX 81 44 80 45 36 47 68 48 48 49 67 50 49 51 52 52 66 53 85 54
REMARK SMILES IDX 50 55 51 56 65 58 86 59 53 60 37 61 38 62 46 63 39 64 40 65
REMARK SMILES IDX 44 66 47 67 41 68 42 69 45 70 43 71 69 72 70 73 78 74 71 75
REMARK SMILES IDX 72 76 76 77 79 78 73 79 74 80 77 81 75 82 54 83 55 84 63 85
REMARK SMILES IDX 56 86 57 87 61 88 64 89 58 90 59 91 62 92 60 93
REMARK H PARENT 9 16 84 46 52 57
REMARK Flexibility Score: inf
ROOT
ATOM      1  C   UNL A   1      34.437  20.702  24.806  1.00  0.00     0.202 C 
ENDROOT
BRANCH   1   2
ATOM      2  C   UNL A   1      33.386  21.095  25.836  1.00  0.00     0.261 C 
BRANCH   2   3
ATOM      3  O   UNL A   1      32.706  22.323  25.564  1.00  0.00    -0.463 OA
BRANCH   3   4
ATOM      4  C   UNL A   1      33.156  23.561  25.865  1.00  0.00     0.308 C 
ATOM      5  O   UNL A   1      34.207  23.673  26.497  1.00  0.00    -0.252 OA
BRANCH   4   6
ATOM      6  C   UNL A   1      32.292  24.774  25.632  1.00  0.00     0.156 C 
BRANCH   6   7
ATOM      7  C   UNL A   1      32.419  25.563  24.332  1.00  0.00     0.149 C 
ATOM      8  C   UNL A   1      31.017  26.031  23.866  1.00  0.00     0.154 C 
ATOM      9  O   UNL A   1      33.113  24.819  23.320  1.00  0.00    -0.374 OA
ATOM     10  N   UNL A   1      31.120  26.758  22.611  1.00  0.00    -0.320 N 
ATOM     11  C   UNL A   1      33.180  25.532  22.072  1.00  0.00     0.182 C 
ATOM     12  C   UNL A   1      31.785  25.948  21.582  1.00  0.00     0.150 C 
BRANCH  10  13
ATOM     13  C   UNL A   1      30.987  28.094  22.392  1.00  0.00     0.317 C 
ATOM     14  O   UNL A   1      29.919  28.576  22.001  1.00  0.00    -0.249 OA
ATOM     15  N   UNL A   1      31.982  28.976  22.570  1.00  0.00    -0.333 N 
ATOM     16  H   UNL A   1      31.780  29.847  22.156  1.00  0.00     0.165 HD
BRANCH  15  17
ATOM     17  C   UNL A   1      33.277  28.975  23.216  1.00  0.00     0.164 C 
BRANCH  17  18
ATOM     18  C   UNL A   1      33.125  29.048  24.713  1.00  0.00     0.024 A 
ATOM     19  C   UNL A   1      33.992  28.550  25.670  1.00  0.00     0.017 A 
ATOM     20  S   UNL A   1      31.779  29.813  25.459  1.00  0.00    -0.147 S 
ATOM     21  C   UNL A   1      33.538  28.781  27.002  1.00  0.00     0.012 A 
ATOM     22  C   UNL A   1      32.343  29.460  27.028  1.00  0.00     0.065 A 
ENDBRANCH  17  18
ENDBRANCH  15  17
ENDBRANCH  10  13
ENDBRANCH   6   7
ENDBRANCH   4   6
ENDBRANCH   3   4
ENDBRANCH   2   3
ENDBRANCH   1   2
BRANCH   1  23
ATOM     23  O   UNL A   1      35.805  20.874  25.150  1.00  0.00    -0.374 OA
BRANCH  23  24
ATOM     24  C   UNL A   1      36.649  19.723  25.001  1.00  0.00     0.202 C 
BRANCH  24  25
ATOM     25  C   UNL A   1      38.158  19.977  24.869  1.00  0.00     0.261 C 
BRANCH  25  26
ATOM     26  O   UNL A   1      38.571  21.155  25.585  1.00  0.00    -0.460 OA
BRANCH  26  27
ATOM     27  C   UNL A   1      39.777  21.064  26.192  1.00  0.00     0.338 C 
ATOM     28  O   UNL A   1      40.627  20.199  26.024  1.00  0.00    -0.246 OA
BRANCH  27  29
ATOM     29  C   UNL A   1      40.057  22.316  26.924  1.00  0.00     0.060 A 
ATOM     30  C   UNL A   1      39.241  23.423  26.648  1.00  0.00     0.016 A 
ATOM     31  C   UNL A   1      41.112  22.419  27.833  1.00  0.00     0.016 A 
ATOM     32  C   UNL A   1      39.539  24.665  27.196  1.00  0.00     0.010 A 
ATOM     33  C   UNL A   1      41.419  23.669  28.376  1.00  0.00     0.010 A 
ATOM     34  C   UNL A   1      40.676  24.803  27.999  1.00  0.00    -0.014 A 
BRANCH  34  35
ATOM     35  C   UNL A   1      41.243  26.158  28.195  1.00  0.00     0.031 A 
ATOM     36  C   UNL A   1      42.613  26.431  27.631  1.00  0.00     0.074 A 
ATOM     37  C   UNL A   1      40.542  27.130  28.799  1.00  0.00     0.049 A 
ATOM     38  N   UNL A   1      43.331  27.523  27.669  1.00  0.00    -0.248 NA
ATOM     39  C   UNL A   1      43.265  25.310  26.932  1.00  0.00     0.031 C 
ATOM     40  C   UNL A   1      39.191  26.991  29.333  1.00  0.00     0.029 A 
ATOM     41  N   UNL A   1      40.878  28.434  29.056  1.00  0.00    -0.354 N 
ATOM     42  C   UNL A   1      44.519  27.214  27.019  1.00  0.00     0.074 A 
ATOM     43  C   UNL A   1      44.444  25.825  26.628  1.00  0.00     0.031 C 
ATOM     44  C   UNL A   1      38.809  28.168  29.860  1.00  0.00     0.029 A 
ATOM     45  C   UNL A   1      39.902  29.130  29.723  1.00  0.00     0.049 A 
ATOM     46  H   UNL A   1      41.738  28.833  28.789  1.00  0.00     0.167 HD
ATOM     47  C   UNL A   1      45.576  28.020  26.762  1.00  0.00     0.037 A 
ATOM     48  C   UNL A   1      39.905  30.398  30.177  1.00  0.00     0.037 A 
ATOM     49  C   UNL A   1      45.634  29.405  27.147  1.00  0.00     0.049 A 
ATOM     50  C   UNL A   1      41.117  31.260  29.930  1.00  0.00     0.074 A 
ATOM     51  C   UNL A   1      46.643  30.323  26.921  1.00  0.00     0.029 A 
ATOM     52  N   UNL A   1      44.638  30.068  27.850  1.00  0.00    -0.354 N 
ATOM     53  N   UNL A   1      42.228  30.972  29.293  1.00  0.00    -0.248 NA
ATOM     54  C   UNL A   1      41.068  32.631  30.454  1.00  0.00     0.031 C 
ATOM     55  C   UNL A   1      46.286  31.523  27.542  1.00  0.00     0.029 A 
ATOM     56  C   UNL A   1      45.019  31.377  28.088  1.00  0.00     0.049 A 
ATOM     57  H   UNL A   1      43.786  29.667  28.136  1.00  0.00     0.167 HD
ATOM     58  C   UNL A   1      42.988  32.135  29.300  1.00  0.00     0.074 A 
ATOM     59  C   UNL A   1      42.206  33.135  29.999  1.00  0.00     0.031 C 
ATOM     60  C   UNL A   1      44.217  32.362  28.771  1.00  0.00     0.037 A 
BRANCH  47  61
ATOM     61  C   UNL A   1      46.763  27.410  26.074  1.00  0.00     0.064 A 
ATOM     62  C   UNL A   1      47.737  26.678  26.772  1.00  0.00     0.173 A 
ATOM     63  C   UNL A   1      46.927  27.557  24.687  1.00  0.00     0.173 A 
ATOM     64  F   UNL A   1      47.641  26.523  28.101  1.00  0.00    -0.203 F 
ATOM     65  C   UNL A   1      48.845  26.149  26.115  1.00  0.00     0.198 A 
ATOM     66  C   UNL A   1      48.017  26.994  24.028  1.00  0.00     0.198 A 
ATOM     67  F   UNL A   1      46.028  28.246  23.970  1.00  0.00    -0.203 F 
ATOM     68  F   UNL A   1      49.794  25.509  26.813  1.00  0.00    -0.200 F 
ATOM     69  C   UNL A   1      48.980  26.300  24.743  1.00  0.00     0.200 A 
ATOM     70  F   UNL A   1      48.138  27.132  22.700  1.00  0.00    -0.200 F 
ATOM     71  F   UNL A   1      50.045  25.787  24.111  1.00  0.00    -0.200 F 
ENDBRANCH  47  61
BRANCH  48  72
ATOM     72  C   UNL A   1      38.720  30.935  30.895  1.00  0.00     0.064 A 
ATOM     73  C   UNL A   1      38.622  30.849  32.292  1.00  0.00     0.173 A 
ATOM     74  C   UNL A   1      37.655  31.531  30.203  1.00  0.00     0.173 A 
ATOM     75  F   UNL A   1      39.603  30.268  32.997  1.00  0.00    -0.203 F 
ATOM     76  C   UNL A   1      37.493  31.315  32.965  1.00  0.00     0.198 A 
ATOM     77  C   UNL A   1      36.542  32.025  30.881  1.00  0.00     0.198 A 
ATOM     78  F   UNL A   1      37.698  31.639  28.867  1.00  0.00    -0.203 F 
ATOM     79  F   UNL A   1      37.404  31.172  34.294  1.00  0.00    -0.200 F 
ATOM     80  C   UNL A   1      36.458  31.908  32.260  1.00  0.00     0.200 A 
ATOM     81  F   UNL A   1      35.549  32.609  30.197  1.00  0.00    -0.200 F 
ATOM     82  F   UNL A   1      35.375  32.358  32.908  1.00  0.00    -0.200 F 
ENDBRANCH  48  72
BRANCH  60  83
ATOM     83  C   UNL A   1      44.760  33.761  28.861  1.00  0.00     0.064 A 
ATOM     84  C   UNL A   1      45.575  34.180  29.922  1.00  0.00     0.173 A 
ATOM     85  C   UNL A   1      44.474  34.690  27.847  1.00  0.00     0.173 A 
ATOM     86  F   UNL A   1      45.870  33.335  30.921  1.00  0.00    -0.203 F 
ATOM     87  C   UNL A   1      46.046  35.489  29.987  1.00  0.00     0.198 A 
ATOM     88  C   UNL A   1      44.981  35.985  27.896  1.00  0.00     0.198 A 
ATOM     89  F   UNL A   1      43.711  34.339  26.801  1.00  0.00    -0.203 F 
ATOM     90  F   UNL A   1      46.767  35.886  31.046  1.00  0.00    -0.200 F 
ATOM     91  C   UNL A   1      45.756  36.387  28.973  1.00  0.00     0.200 A 
ATOM     92  F   UNL A   1      44.715  36.845  26.902  1.00  0.00    -0.200 F 
ATOM     93  F   UNL A   1      46.213  37.645  29.037  1.00  0.00    -0.200 F 
ENDBRANCH  60  83
ENDBRANCH  34  35
ENDBRANCH  27  29
ENDBRANCH  26  27
ENDBRANCH  25  26
ENDBRANCH  24  25
ENDBRANCH  23  24
ENDBRANCH   1  23
TORSDOF 18
ENDMDL
