MODEL 1
REMARK VINA RESULT:     -11.7      0.000      0.000
REMARK SMILES C[C@H](Nc1ncccc1C(=O)OCCOCCOC(=O)c1ccc(-c2c3nc(c(-c4c(F)c(F)c(F)c(F)c4F)c4ccc([nH]4)c(-c4c(F)c(F)c(F)c(F)c4F)c4nc(c(-c5c(F)c(F)c(F)c(F)c5F)c5ccc2[nH]5)C=C4)C=C3)cc1)c1ccc(Cl)cc1
REMARK SMILES IDX 14 1 13 2 12 3 10 4 11 5 9 6 4 7 5 8 6 9 8 10 7 11 3 12 2 14
REMARK SMILES IDX 1 15 84 16 85 17 90 18 86 19 89 20 87 21 88 22 15 23 16 24
REMARK SMILES IDX 17 25 18 26 19 27 20 28 21 29 22 30 83 31 23 32 82 33 24 34
REMARK SMILES IDX 25 35 26 36 76 37 27 38 81 39 75 40 77 41 28 42 80 43 74 44
REMARK SMILES IDX 73 45 29 47 61 48 41 49 60 50 42 51 45 52 59 53 78 54 43 55
REMARK SMILES IDX 44 56 58 58 79 59 46 60 30 61 31 62 39 63 32 64 33 65 37 66
REMARK SMILES IDX 40 67 34 68 35 69 38 70 36 71 62 72 63 73 71 74 64 75 65 76
REMARK SMILES IDX 69 77 72 78 66 79 67 80 70 81 68 82 47 83 48 84 56 85 49 86
REMARK SMILES IDX 50 87 54 88 57 89 51 90 52 91 55 92 53 93
REMARK H PARENT 3 13 77 46 45 57
REMARK Flexibility Score: inf
ROOT
ATOM      1  C   UNL A   1      33.588  28.728  23.665  1.00  0.00     0.202 C 
ENDROOT
BRANCH   1   2
ATOM      2  C   UNL A   1      33.703  27.234  23.320  1.00  0.00     0.261 C 
BRANCH   2   3
ATOM      3  O   UNL A   1      32.665  26.827  22.394  1.00  0.00    -0.460 OA
BRANCH   3   4
ATOM      4  C   UNL A   1      32.850  25.657  21.712  1.00  0.00     0.341 C 
ATOM      5  O   UNL A   1      33.258  25.571  20.568  1.00  0.00    -0.246 OA
BRANCH   4   6
ATOM      6  C   UNL A   1      32.518  24.499  22.593  1.00  0.00     0.102 A 
ATOM      7  C   UNL A   1      31.299  24.391  23.288  1.00  0.00     0.141 A 
ATOM      8  N   UNL A   1      31.080  23.386  24.171  1.00  0.00    -0.239 NA
ATOM      9  C   UNL A   1      32.011  22.420  24.303  1.00  0.00     0.113 A 
ATOM     10  C   UNL A   1      33.461  23.467  22.746  1.00  0.00     0.021 A 
ATOM     11  C   UNL A   1      33.194  22.399  23.595  1.00  0.00     0.021 A 
BRANCH   7  12
ATOM     12  N   UNL A   1      30.136  25.107  23.070  1.00  0.00    -0.363 N 
ATOM     13  H   UNL A   1      29.676  25.034  22.203  1.00  0.00     0.162 HD
BRANCH  12  14
ATOM     14  C   UNL A   1      29.586  25.969  24.111  1.00  0.00     0.108 C 
ATOM     15  C   UNL A   1      30.599  26.324  25.206  1.00  0.00     0.036 C 
BRANCH  14  16
ATOM     16  C   UNL A   1      29.085  27.307  23.548  1.00  0.00    -0.026 A 
ATOM     17  C   UNL A   1      27.713  27.591  23.501  1.00  0.00     0.007 A 
ATOM     18  C   UNL A   1      29.991  28.347  23.250  1.00  0.00     0.007 A 
ATOM     19  C   UNL A   1      27.270  28.903  23.288  1.00  0.00     0.021 A 
ATOM     20  C   UNL A   1      29.552  29.660  23.083  1.00  0.00     0.021 A 
ATOM     21  C   UNL A   1      28.191  29.936  23.123  1.00  0.00     0.041 A 
ATOM     22  Cl  UNL A   1      27.653  31.565  23.005  1.00  0.00    -0.084 Cl
ENDBRANCH  14  16
ENDBRANCH  12  14
ENDBRANCH   7  12
ENDBRANCH   4   6
ENDBRANCH   3   4
ENDBRANCH   2   3
ENDBRANCH   1   2
BRANCH   1  23
ATOM     23  O   UNL A   1      33.632  29.063  25.059  1.00  0.00    -0.374 OA
BRANCH  23  24
ATOM     24  C   UNL A   1      32.390  29.425  25.651  1.00  0.00     0.202 C 
BRANCH  24  25
ATOM     25  C   UNL A   1      32.290  30.840  26.241  1.00  0.00     0.261 C 
BRANCH  25  26
ATOM     26  O   UNL A   1      32.866  30.935  27.532  1.00  0.00    -0.460 OA
BRANCH  26  27
ATOM     27  C   UNL A   1      33.659  32.017  27.663  1.00  0.00     0.338 C 
ATOM     28  O   UNL A   1      33.357  33.197  27.614  1.00  0.00    -0.246 OA
BRANCH  27  29
ATOM     29  C   UNL A   1      34.966  31.523  28.076  1.00  0.00     0.060 A 
ATOM     30  C   UNL A   1      35.076  30.150  28.302  1.00  0.00     0.016 A 
ATOM     31  C   UNL A   1      36.053  32.390  28.217  1.00  0.00     0.016 A 
ATOM     32  C   UNL A   1      36.281  29.637  28.744  1.00  0.00     0.010 A 
ATOM     33  C   UNL A   1      37.263  31.874  28.657  1.00  0.00     0.010 A 
ATOM     34  C   UNL A   1      37.358  30.507  28.964  1.00  0.00    -0.014 A 
BRANCH  34  35
ATOM     35  C   UNL A   1      38.527  30.004  29.699  1.00  0.00     0.031 A 
ATOM     36  C   UNL A   1      38.731  30.478  31.105  1.00  0.00     0.074 A 
ATOM     37  C   UNL A   1      39.341  29.107  29.122  1.00  0.00     0.049 A 
ATOM     38  N   UNL A   1      39.680  30.178  31.951  1.00  0.00    -0.248 NA
ATOM     39  C   UNL A   1      37.731  31.425  31.630  1.00  0.00     0.031 C 
ATOM     40  C   UNL A   1      39.183  28.572  27.770  1.00  0.00     0.029 A 
ATOM     41  N   UNL A   1      40.461  28.489  29.605  1.00  0.00    -0.354 N 
ATOM     42  C   UNL A   1      39.392  30.899  33.102  1.00  0.00     0.074 A 
ATOM     43  C   UNL A   1      38.208  31.685  32.836  1.00  0.00     0.031 C 
ATOM     44  C   UNL A   1      40.175  27.701  27.530  1.00  0.00     0.029 A 
ATOM     45  C   UNL A   1      41.052  27.649  28.697  1.00  0.00     0.049 A 
ATOM     46  H   UNL A   1      40.809  28.634  30.514  1.00  0.00     0.167 HD
ATOM     47  C   UNL A   1      40.057  30.889  34.279  1.00  0.00     0.037 A 
ATOM     48  C   UNL A   1      42.187  26.936  28.805  1.00  0.00     0.037 A 
ATOM     49  C   UNL A   1      41.236  30.098  34.512  1.00  0.00     0.049 A 
ATOM     50  C   UNL A   1      42.947  26.996  30.105  1.00  0.00     0.074 A 
ATOM     51  C   UNL A   1      41.993  29.994  35.663  1.00  0.00     0.029 A 
ATOM     52  N   UNL A   1      41.833  29.281  33.560  1.00  0.00    -0.354 N 
ATOM     53  N   UNL A   1      42.660  27.656  31.203  1.00  0.00    -0.248 NA
ATOM     54  C   UNL A   1      44.185  26.212  30.182  1.00  0.00     0.031 C 
ATOM     55  C   UNL A   1      43.084  29.163  35.387  1.00  0.00     0.029 A 
ATOM     56  C   UNL A   1      42.969  28.693  34.087  1.00  0.00     0.049 A 
ATOM     57  H   UNL A   1      41.497  29.142  32.644  1.00  0.00     0.167 HD
ATOM     58  C   UNL A   1      43.663  27.344  32.110  1.00  0.00     0.074 A 
ATOM     59  C   UNL A   1      44.556  26.423  31.436  1.00  0.00     0.031 C 
ATOM     60  C   UNL A   1      43.834  27.777  33.385  1.00  0.00     0.037 A 
BRANCH  47  61
ATOM     61  C   UNL A   1      39.546  31.779  35.374  1.00  0.00     0.064 A 
ATOM     62  C   UNL A   1      38.619  31.329  36.326  1.00  0.00     0.173 A 
ATOM     63  C   UNL A   1      39.997  33.104  35.476  1.00  0.00     0.173 A 
ATOM     64  F   UNL A   1      38.139  30.078  36.263  1.00  0.00    -0.203 F 
ATOM     65  C   UNL A   1      38.141  32.179  37.321  1.00  0.00     0.198 A 
ATOM     66  C   UNL A   1      39.542  33.942  36.491  1.00  0.00     0.198 A 
ATOM     67  F   UNL A   1      40.878  33.589  34.589  1.00  0.00    -0.203 F 
ATOM     68  F   UNL A   1      37.213  31.744  38.185  1.00  0.00    -0.200 F 
ATOM     69  C   UNL A   1      38.609  33.481  37.408  1.00  0.00     0.200 A 
ATOM     70  F   UNL A   1      40.004  35.197  36.579  1.00  0.00    -0.200 F 
ATOM     71  F   UNL A   1      38.153  34.298  38.368  1.00  0.00    -0.200 F 
ENDBRANCH  47  61
BRANCH  48  72
ATOM     72  C   UNL A   1      42.663  26.119  27.661  1.00  0.00     0.064 A 
ATOM     73  C   UNL A   1      43.610  26.618  26.756  1.00  0.00     0.173 A 
ATOM     74  C   UNL A   1      42.183  24.816  27.449  1.00  0.00     0.173 A 
ATOM     75  F   UNL A   1      44.088  27.862  26.906  1.00  0.00    -0.203 F 
ATOM     76  C   UNL A   1      44.042  25.856  25.672  1.00  0.00     0.198 A 
ATOM     77  C   UNL A   1      42.639  24.044  26.384  1.00  0.00     0.198 A 
ATOM     78  F   UNL A   1      41.283  24.287  28.290  1.00  0.00    -0.203 F 
ATOM     79  F   UNL A   1      44.912  26.375  24.796  1.00  0.00    -0.200 F 
ATOM     80  C   UNL A   1      43.561  24.567  25.490  1.00  0.00     0.200 A 
ATOM     81  F   UNL A   1      42.187  22.793  26.224  1.00  0.00    -0.200 F 
ATOM     82  F   UNL A   1      43.981  23.833  24.451  1.00  0.00    -0.200 F 
ENDBRANCH  48  72
BRANCH  60  83
ATOM     83  C   UNL A   1      45.010  27.228  34.140  1.00  0.00     0.064 A 
ATOM     84  C   UNL A   1      46.246  27.890  34.162  1.00  0.00     0.173 A 
ATOM     85  C   UNL A   1      44.881  26.048  34.887  1.00  0.00     0.173 A 
ATOM     86  F   UNL A   1      46.423  29.015  33.453  1.00  0.00    -0.203 F 
ATOM     87  C   UNL A   1      47.319  27.373  34.882  1.00  0.00     0.198 A 
ATOM     88  C   UNL A   1      45.944  25.554  35.636  1.00  0.00     0.198 A 
ATOM     89  F   UNL A   1      43.716  25.383  34.907  1.00  0.00    -0.203 F 
ATOM     90  F   UNL A   1      48.507  27.992  34.846  1.00  0.00    -0.200 F 
ATOM     91  C   UNL A   1      47.166  26.212  35.625  1.00  0.00     0.200 A 
ATOM     92  F   UNL A   1      45.788  24.443  36.368  1.00  0.00    -0.200 F 
ATOM     93  F   UNL A   1      48.197  25.723  36.326  1.00  0.00    -0.200 F 
ENDBRANCH  60  83
ENDBRANCH  34  35
ENDBRANCH  27  29
ENDBRANCH  26  27
ENDBRANCH  25  26
ENDBRANCH  24  25
ENDBRANCH  23  24
ENDBRANCH   1  23
TORSDOF 17
ENDMDL
MODEL 2
REMARK VINA RESULT:     -11.5      4.553      7.006
REMARK SMILES C[C@H](Nc1ncccc1C(=O)OCCOCCOC(=O)c1ccc(-c2c3nc(c(-c4c(F)c(F)c(F)c(F)c4F)c4ccc([nH]4)c(-c4c(F)c(F)c(F)c(F)c4F)c4nc(c(-c5c(F)c(F)c(F)c(F)c5F)c5ccc2[nH]5)C=C4)C=C3)cc1)c1ccc(Cl)cc1
REMARK SMILES IDX 14 1 13 2 12 3 10 4 11 5 9 6 4 7 5 8 6 9 8 10 7 11 3 12 2 14
REMARK SMILES IDX 1 15 84 16 85 17 90 18 86 19 89 20 87 21 88 22 15 23 16 24
REMARK SMILES IDX 17 25 18 26 19 27 20 28 21 29 22 30 83 31 23 32 82 33 24 34
REMARK SMILES IDX 25 35 26 36 76 37 27 38 81 39 75 40 77 41 28 42 80 43 74 44
REMARK SMILES IDX 73 45 29 47 61 48 41 49 60 50 42 51 45 52 59 53 78 54 43 55
REMARK SMILES IDX 44 56 58 58 79 59 46 60 30 61 31 62 39 63 32 64 33 65 37 66
REMARK SMILES IDX 40 67 34 68 35 69 38 70 36 71 62 72 63 73 71 74 64 75 65 76
REMARK SMILES IDX 69 77 72 78 66 79 67 80 70 81 68 82 47 83 48 84 56 85 49 86
REMARK SMILES IDX 50 87 54 88 57 89 51 90 52 91 55 92 53 93
REMARK H PARENT 3 13 77 46 45 57
REMARK Flexibility Score: inf
ROOT
ATOM      1  C   UNL A   1      35.309  22.253  26.497  1.00  0.00     0.202 C 
ENDROOT
BRANCH   1   2
ATOM      2  C   UNL A   1      34.016  21.559  26.956  1.00  0.00     0.261 C 
BRANCH   2   3
ATOM      3  O   UNL A   1      32.844  22.221  26.421  1.00  0.00    -0.460 OA
BRANCH   3   4
ATOM      4  C   UNL A   1      32.322  21.736  25.254  1.00  0.00     0.341 C 
ATOM      5  O   UNL A   1      31.711  20.690  25.142  1.00  0.00    -0.246 OA
BRANCH   4   6
ATOM      6  C   UNL A   1      32.579  22.702  24.146  1.00  0.00     0.102 A 
ATOM      7  C   UNL A   1      32.421  24.093  24.290  1.00  0.00     0.141 A 
ATOM      8  N   UNL A   1      32.547  24.929  23.230  1.00  0.00    -0.239 NA
ATOM      9  C   UNL A   1      32.932  24.422  22.042  1.00  0.00     0.113 A 
ATOM     10  C   UNL A   1      32.991  22.210  22.894  1.00  0.00     0.021 A 
ATOM     11  C   UNL A   1      33.194  23.085  21.833  1.00  0.00     0.021 A 
BRANCH   7  12
ATOM     12  N   UNL A   1      32.317  24.813  25.466  1.00  0.00    -0.363 N 
ATOM     13  H   UNL A   1      32.789  24.501  26.271  1.00  0.00     0.162 HD
BRANCH  12  14
ATOM     14  C   UNL A   1      31.514  26.031  25.526  1.00  0.00     0.108 C 
ATOM     15  C   UNL A   1      30.168  25.838  26.237  1.00  0.00     0.036 C 
BRANCH  14  16
ATOM     16  C   UNL A   1      32.232  27.160  26.279  1.00  0.00    -0.026 A 
ATOM     17  C   UNL A   1      33.620  27.323  26.164  1.00  0.00     0.007 A 
ATOM     18  C   UNL A   1      31.496  28.166  26.940  1.00  0.00     0.007 A 
ATOM     19  C   UNL A   1      34.228  28.513  26.585  1.00  0.00     0.021 A 
ATOM     20  C   UNL A   1      32.094  29.367  27.318  1.00  0.00     0.021 A 
ATOM     21  C   UNL A   1      33.457  29.544  27.119  1.00  0.00     0.041 A 
ATOM     22  Cl  UNL A   1      34.180  31.057  27.502  1.00  0.00    -0.084 Cl
ENDBRANCH  14  16
ENDBRANCH  12  14
ENDBRANCH   7  12
ENDBRANCH   4   6
ENDBRANCH   3   4
ENDBRANCH   2   3
ENDBRANCH   1   2
BRANCH   1  23
ATOM     23  O   UNL A   1      35.785  21.908  25.189  1.00  0.00    -0.374 OA
BRANCH  23  24
ATOM     24  C   UNL A   1      36.238  20.569  25.027  1.00  0.00     0.202 C 
BRANCH  24  25
ATOM     25  C   UNL A   1      37.758  20.343  25.065  1.00  0.00     0.261 C 
BRANCH  25  26
ATOM     26  O   UNL A   1      38.471  21.497  25.477  1.00  0.00    -0.460 OA
BRANCH  26  27
ATOM     27  C   UNL A   1      39.500  21.199  26.295  1.00  0.00     0.338 C 
ATOM     28  O   UNL A   1      40.030  20.120  26.497  1.00  0.00    -0.246 OA
BRANCH  27  29
ATOM     29  C   UNL A   1      40.019  22.470  26.783  1.00  0.00     0.060 A 
ATOM     30  C   UNL A   1      39.461  23.628  26.238  1.00  0.00     0.016 A 
ATOM     31  C   UNL A   1      41.015  22.514  27.763  1.00  0.00     0.016 A 
ATOM     32  C   UNL A   1      39.953  24.859  26.629  1.00  0.00     0.010 A 
ATOM     33  C   UNL A   1      41.505  23.750  28.158  1.00  0.00     0.010 A 
ATOM     34  C   UNL A   1      41.005  24.915  27.554  1.00  0.00    -0.014 A 
BRANCH  34  35
ATOM     35  C   UNL A   1      41.706  26.194  27.742  1.00  0.00     0.031 A 
ATOM     36  C   UNL A   1      41.011  27.268  28.521  1.00  0.00     0.074 A 
ATOM     37  C   UNL A   1      42.950  26.347  27.265  1.00  0.00     0.049 A 
ATOM     38  N   UNL A   1      41.422  28.471  28.819  1.00  0.00    -0.248 NA
ATOM     39  C   UNL A   1      39.667  26.945  29.030  1.00  0.00     0.031 C 
ATOM     40  C   UNL A   1      43.702  25.331  26.530  1.00  0.00     0.029 A 
ATOM     41  N   UNL A   1      43.797  27.417  27.332  1.00  0.00    -0.354 N 
ATOM     42  C   UNL A   1      40.388  29.046  29.546  1.00  0.00     0.074 A 
ATOM     43  C   UNL A   1      39.314  28.081  29.608  1.00  0.00     0.031 C 
ATOM     44  C   UNL A   1      44.906  25.830  26.211  1.00  0.00     0.029 A 
ATOM     45  C   UNL A   1      44.990  27.207  26.689  1.00  0.00     0.049 A 
ATOM     46  H   UNL A   1      43.573  28.257  27.794  1.00  0.00     0.167 HD
ATOM     47  C   UNL A   1      40.353  30.270  30.120  1.00  0.00     0.037 A 
ATOM     48  C   UNL A   1      46.020  28.052  26.501  1.00  0.00     0.037 A 
ATOM     49  C   UNL A   1      41.438  31.211  30.037  1.00  0.00     0.049 A 
ATOM     50  C   UNL A   1      45.927  29.434  27.092  1.00  0.00     0.074 A 
ATOM     51  C   UNL A   1      41.529  32.476  30.584  1.00  0.00     0.029 A 
ATOM     52  N   UNL A   1      42.623  30.982  29.348  1.00  0.00    -0.354 N 
ATOM     53  N   UNL A   1      44.961  29.969  27.803  1.00  0.00    -0.248 NA
ATOM     54  C   UNL A   1      47.066  30.329  26.858  1.00  0.00     0.031 C 
ATOM     55  C   UNL A   1      42.742  33.038  30.173  1.00  0.00     0.029 A 
ATOM     56  C   UNL A   1      43.439  32.097  29.428  1.00  0.00     0.049 A 
ATOM     57  H   UNL A   1      42.849  30.150  28.872  1.00  0.00     0.167 HD
ATOM     58  C   UNL A   1      45.387  31.249  28.127  1.00  0.00     0.074 A 
ATOM     59  C   UNL A   1      46.706  31.403  27.546  1.00  0.00     0.031 C 
ATOM     60  C   UNL A   1      44.750  32.213  28.839  1.00  0.00     0.037 A 
BRANCH  47  61
ATOM     61  C   UNL A   1      39.100  30.662  30.845  1.00  0.00     0.064 A 
ATOM     62  C   UNL A   1      38.955  30.487  32.230  1.00  0.00     0.173 A 
ATOM     63  C   UNL A   1      38.026  31.231  30.144  1.00  0.00     0.173 A 
ATOM     64  F   UNL A   1      39.943  29.928  32.947  1.00  0.00    -0.203 F 
ATOM     65  C   UNL A   1      37.774  30.838  32.879  1.00  0.00     0.198 A 
ATOM     66  C   UNL A   1      36.858  31.612  30.801  1.00  0.00     0.198 A 
ATOM     67  F   UNL A   1      38.106  31.417  28.817  1.00  0.00    -0.203 F 
ATOM     68  F   UNL A   1      37.639  30.607  34.193  1.00  0.00    -0.200 F 
ATOM     69  C   UNL A   1      36.730  31.407  32.166  1.00  0.00     0.200 A 
ATOM     70  F   UNL A   1      35.855  32.171  30.111  1.00  0.00    -0.200 F 
ATOM     71  F   UNL A   1      35.596  31.750  32.792  1.00  0.00    -0.200 F 
ENDBRANCH  47  61
BRANCH  48  72
ATOM     72  C   UNL A   1      47.207  27.613  25.725  1.00  0.00     0.064 A 
ATOM     73  C   UNL A   1      47.251  27.742  24.330  1.00  0.00     0.173 A 
ATOM     74  C   UNL A   1      48.328  27.059  26.364  1.00  0.00     0.173 A 
ATOM     75  F   UNL A   1      46.200  28.253  23.671  1.00  0.00    -0.203 F 
ATOM     76  C   UNL A   1      48.360  27.313  23.602  1.00  0.00     0.198 A 
ATOM     77  C   UNL A   1      49.447  26.660  25.638  1.00  0.00     0.198 A 
ATOM     78  F   UNL A   1      48.341  26.920  27.697  1.00  0.00    -0.203 F 
ATOM     79  F   UNL A   1      48.357  27.405  22.265  1.00  0.00    -0.200 F 
ATOM     80  C   UNL A   1      49.460  26.779  24.257  1.00  0.00     0.200 A 
ATOM     81  F   UNL A   1      50.515  26.163  26.278  1.00  0.00    -0.200 F 
ATOM     82  F   UNL A   1      50.527  26.372  23.557  1.00  0.00    -0.200 F 
ENDBRANCH  48  72
BRANCH  60  83
ATOM     83  C   UNL A   1      45.489  33.501  29.057  1.00  0.00     0.064 A 
ATOM     84  C   UNL A   1      45.357  34.585  28.178  1.00  0.00     0.173 A 
ATOM     85  C   UNL A   1      46.305  33.665  30.187  1.00  0.00     0.173 A 
ATOM     86  F   UNL A   1      44.600  34.474  27.076  1.00  0.00    -0.203 F 
ATOM     87  C   UNL A   1      46.039  35.777  28.407  1.00  0.00     0.198 A 
ATOM     88  C   UNL A   1      46.954  34.870  30.433  1.00  0.00     0.198 A 
ATOM     89  F   UNL A   1      46.456  32.661  31.064  1.00  0.00    -0.203 F 
ATOM     90  F   UNL A   1      45.941  36.782  27.526  1.00  0.00    -0.200 F 
ATOM     91  C   UNL A   1      46.829  35.922  29.538  1.00  0.00     0.200 A 
ATOM     92  F   UNL A   1      47.701  35.014  31.536  1.00  0.00    -0.200 F 
ATOM     93  F   UNL A   1      47.475  37.074  29.762  1.00  0.00    -0.200 F 
ENDBRANCH  60  83
ENDBRANCH  34  35
ENDBRANCH  27  29
ENDBRANCH  26  27
ENDBRANCH  25  26
ENDBRANCH  24  25
ENDBRANCH  23  24
ENDBRANCH   1  23
TORSDOF 17
ENDMDL
MODEL 3
REMARK VINA RESULT:     -11.4      4.465      9.583
REMARK SMILES C[C@H](Nc1ncccc1C(=O)OCCOCCOC(=O)c1ccc(-c2c3nc(c(-c4c(F)c(F)c(F)c(F)c4F)c4ccc([nH]4)c(-c4c(F)c(F)c(F)c(F)c4F)c4nc(c(-c5c(F)c(F)c(F)c(F)c5F)c5ccc2[nH]5)C=C4)C=C3)cc1)c1ccc(Cl)cc1
REMARK SMILES IDX 14 1 13 2 12 3 10 4 11 5 9 6 4 7 5 8 6 9 8 10 7 11 3 12 2 14
REMARK SMILES IDX 1 15 84 16 85 17 90 18 86 19 89 20 87 21 88 22 15 23 16 24
REMARK SMILES IDX 17 25 18 26 19 27 20 28 21 29 22 30 83 31 23 32 82 33 24 34
REMARK SMILES IDX 25 35 26 36 76 37 27 38 81 39 75 40 77 41 28 42 80 43 74 44
REMARK SMILES IDX 73 45 29 47 61 48 41 49 60 50 42 51 45 52 59 53 78 54 43 55
REMARK SMILES IDX 44 56 58 58 79 59 46 60 30 61 31 62 39 63 32 64 33 65 37 66
REMARK SMILES IDX 40 67 34 68 35 69 38 70 36 71 62 72 63 73 71 74 64 75 65 76
REMARK SMILES IDX 69 77 72 78 66 79 67 80 70 81 68 82 47 83 48 84 56 85 49 86
REMARK SMILES IDX 50 87 54 88 57 89 51 90 52 91 55 92 53 93
REMARK H PARENT 3 13 77 46 45 57
REMARK Flexibility Score: inf
ROOT
ATOM      1  C   UNL A   1      33.971  22.296  25.899  1.00  0.00     0.202 C 
ENDROOT
BRANCH   1   2
ATOM      2  C   UNL A   1      33.470  23.368  26.881  1.00  0.00     0.261 C 
BRANCH   2   3
ATOM      3  O   UNL A   1      33.217  24.624  26.204  1.00  0.00    -0.460 OA
BRANCH   3   4
ATOM      4  C   UNL A   1      32.073  25.298  26.529  1.00  0.00     0.341 C 
ATOM      5  O   UNL A   1      31.023  24.776  26.857  1.00  0.00    -0.246 OA
BRANCH   4   6
ATOM      6  C   UNL A   1      32.315  26.768  26.462  1.00  0.00     0.102 A 
ATOM      7  C   UNL A   1      33.192  27.359  25.533  1.00  0.00     0.141 A 
ATOM      8  N   UNL A   1      33.478  28.683  25.579  1.00  0.00    -0.239 NA
ATOM      9  C   UNL A   1      32.829  29.460  26.469  1.00  0.00     0.113 A 
ATOM     10  C   UNL A   1      31.647  27.611  27.368  1.00  0.00     0.021 A 
ATOM     11  C   UNL A   1      31.889  28.980  27.357  1.00  0.00     0.021 A 
BRANCH   7  12
ATOM     12  N   UNL A   1      33.716  26.789  24.387  1.00  0.00    -0.363 N 
ATOM     13  H   UNL A   1      34.646  26.469  24.384  1.00  0.00     0.162 HD
BRANCH  12  14
ATOM     14  C   UNL A   1      32.903  26.656  23.182  1.00  0.00     0.108 C 
ATOM     15  C   UNL A   1      33.558  27.265  21.935  1.00  0.00     0.036 C 
BRANCH  14  16
ATOM     16  C   UNL A   1      32.618  25.188  22.835  1.00  0.00    -0.026 A 
ATOM     17  C   UNL A   1      33.646  24.351  22.378  1.00  0.00     0.007 A 
ATOM     18  C   UNL A   1      31.373  24.603  23.150  1.00  0.00     0.007 A 
ATOM     19  C   UNL A   1      33.470  22.961  22.361  1.00  0.00     0.021 A 
ATOM     20  C   UNL A   1      31.213  23.217  23.175  1.00  0.00     0.021 A 
ATOM     21  C   UNL A   1      32.272  22.400  22.799  1.00  0.00     0.041 A 
ATOM     22  Cl  UNL A   1      32.106  20.692  22.913  1.00  0.00    -0.084 Cl
ENDBRANCH  14  16
ENDBRANCH  12  14
ENDBRANCH   7  12
ENDBRANCH   4   6
ENDBRANCH   3   4
ENDBRANCH   2   3
ENDBRANCH   1   2
BRANCH   1  23
ATOM     23  O   UNL A   1      35.381  22.035  25.908  1.00  0.00    -0.374 OA
BRANCH  23  24
ATOM     24  C   UNL A   1      35.827  20.995  25.046  1.00  0.00     0.202 C 
BRANCH  24  25
ATOM     25  C   UNL A   1      37.336  20.706  25.034  1.00  0.00     0.261 C 
BRANCH  25  26
ATOM     26  O   UNL A   1      38.113  21.840  25.380  1.00  0.00    -0.460 OA
BRANCH  26  27
ATOM     27  C   UNL A   1      39.209  21.514  26.093  1.00  0.00     0.338 C 
ATOM     28  O   UNL A   1      39.819  20.459  26.118  1.00  0.00    -0.246 OA
BRANCH  27  29
ATOM     29  C   UNL A   1      39.674  22.745  26.718  1.00  0.00     0.060 A 
ATOM     30  C   UNL A   1      39.012  23.921  26.362  1.00  0.00     0.016 A 
ATOM     31  C   UNL A   1      40.722  22.732  27.643  1.00  0.00     0.016 A 
ATOM     32  C   UNL A   1      39.448  25.123  26.888  1.00  0.00     0.010 A 
ATOM     33  C   UNL A   1      41.156  23.938  28.174  1.00  0.00     0.010 A 
ATOM     34  C   UNL A   1      40.547  25.133  27.757  1.00  0.00    -0.014 A 
BRANCH  34  35
ATOM     35  C   UNL A   1      41.176  26.423  28.077  1.00  0.00     0.031 A 
ATOM     36  C   UNL A   1      42.583  26.651  27.619  1.00  0.00     0.074 A 
ATOM     37  C   UNL A   1      40.469  27.367  28.716  1.00  0.00     0.049 A 
ATOM     38  N   UNL A   1      43.345  27.700  27.778  1.00  0.00    -0.248 NA
ATOM     39  C   UNL A   1      43.222  25.546  26.883  1.00  0.00     0.031 C 
ATOM     40  C   UNL A   1      39.083  27.227  29.159  1.00  0.00     0.029 A 
ATOM     41  N   UNL A   1      40.824  28.630  29.099  1.00  0.00    -0.354 N 
ATOM     42  C   UNL A   1      44.550  27.379  27.167  1.00  0.00     0.074 A 
ATOM     43  C   UNL A   1      44.437  26.026  26.672  1.00  0.00     0.031 C 
ATOM     44  C   UNL A   1      38.702  28.367  29.757  1.00  0.00     0.029 A 
ATOM     45  C   UNL A   1      39.829  29.295  29.768  1.00  0.00     0.049 A 
ATOM     46  H   UNL A   1      41.707  29.024  28.914  1.00  0.00     0.167 HD
ATOM     47  C   UNL A   1      45.645  28.158  27.024  1.00  0.00     0.037 A 
ATOM     48  C   UNL A   1      39.848  30.514  30.337  1.00  0.00     0.037 A 
ATOM     49  C   UNL A   1      45.729  29.502  27.532  1.00  0.00     0.049 A 
ATOM     50  C   UNL A   1      41.106  31.335  30.223  1.00  0.00     0.074 A 
ATOM     51  C   UNL A   1      46.778  30.396  27.443  1.00  0.00     0.029 A 
ATOM     52  N   UNL A   1      44.715  30.138  28.238  1.00  0.00    -0.354 N 
ATOM     53  N   UNL A   1      42.235  31.043  29.621  1.00  0.00    -0.248 NA
ATOM     54  C   UNL A   1      41.091  32.655  30.864  1.00  0.00     0.031 C 
ATOM     55  C   UNL A   1      46.423  31.550  28.149  1.00  0.00     0.029 A 
ATOM     56  C   UNL A   1      45.126  31.403  28.619  1.00  0.00     0.049 A 
ATOM     57  H   UNL A   1      43.834  29.745  28.438  1.00  0.00     0.167 HD
ATOM     58  C   UNL A   1      43.054  32.151  29.784  1.00  0.00     0.074 A 
ATOM     59  C   UNL A   1      42.284  33.127  30.529  1.00  0.00     0.031 C 
ATOM     60  C   UNL A   1      44.328  32.350  29.359  1.00  0.00     0.037 A 
BRANCH  47  61
ATOM     61  C   UNL A   1      46.836  27.564  26.330  1.00  0.00     0.064 A 
ATOM     62  C   UNL A   1      47.822  26.849  27.027  1.00  0.00     0.173 A 
ATOM     63  C   UNL A   1      46.989  27.706  24.943  1.00  0.00     0.173 A 
ATOM     64  F   UNL A   1      47.736  26.701  28.358  1.00  0.00    -0.203 F 
ATOM     65  C   UNL A   1      48.931  26.325  26.366  1.00  0.00     0.198 A 
ATOM     66  C   UNL A   1      48.082  27.152  24.280  1.00  0.00     0.198 A 
ATOM     67  F   UNL A   1      46.080  28.384  24.227  1.00  0.00    -0.203 F 
ATOM     68  F   UNL A   1      49.888  25.695  27.062  1.00  0.00    -0.200 F 
ATOM     69  C   UNL A   1      49.055  26.469  24.993  1.00  0.00     0.200 A 
ATOM     70  F   UNL A   1      48.194  27.284  22.951  1.00  0.00    -0.200 F 
ATOM     71  F   UNL A   1      50.119  25.960  24.357  1.00  0.00    -0.200 F 
ENDBRANCH  47  61
BRANCH  48  72
ATOM     72  C   UNL A   1      38.651  31.016  31.057  1.00  0.00     0.064 A 
ATOM     73  C   UNL A   1      37.585  31.610  30.368  1.00  0.00     0.173 A 
ATOM     74  C   UNL A   1      38.545  30.909  32.453  1.00  0.00     0.173 A 
ATOM     75  F   UNL A   1      37.644  31.749  29.035  1.00  0.00    -0.203 F 
ATOM     76  C   UNL A   1      36.470  32.097  31.048  1.00  0.00     0.198 A 
ATOM     77  C   UNL A   1      37.417  31.367  33.128  1.00  0.00     0.198 A 
ATOM     78  F   UNL A   1      39.533  30.341  33.160  1.00  0.00    -0.203 F 
ATOM     79  F   UNL A   1      35.486  32.702  30.369  1.00  0.00    -0.200 F 
ATOM     80  C   UNL A   1      36.384  31.970  32.426  1.00  0.00     0.200 A 
ATOM     81  F   UNL A   1      37.330  31.224  34.457  1.00  0.00    -0.200 F 
ATOM     82  F   UNL A   1      35.309  32.433  33.079  1.00  0.00    -0.200 F 
ENDBRANCH  48  72
BRANCH  60  83
ATOM     83  C   UNL A   1      44.948  33.683  29.658  1.00  0.00     0.064 A 
ATOM     84  C   UNL A   1      45.712  33.899  30.814  1.00  0.00     0.173 A 
ATOM     85  C   UNL A   1      44.810  34.746  28.752  1.00  0.00     0.173 A 
ATOM     86  F   UNL A   1      45.862  32.919  31.718  1.00  0.00    -0.203 F 
ATOM     87  C   UNL A   1      46.292  35.139  31.064  1.00  0.00     0.198 A 
ATOM     88  C   UNL A   1      45.422  35.972  28.987  1.00  0.00     0.198 A 
ATOM     89  F   UNL A   1      44.097  34.587  27.626  1.00  0.00    -0.203 F 
ATOM     90  F   UNL A   1      46.973  35.339  32.201  1.00  0.00    -0.200 F 
ATOM     91  C   UNL A   1      46.155  36.171  30.148  1.00  0.00     0.200 A 
ATOM     92  F   UNL A   1      45.304  36.961  28.091  1.00  0.00    -0.200 F 
ATOM     93  F   UNL A   1      46.724  37.360  30.387  1.00  0.00    -0.200 F 
ENDBRANCH  60  83
ENDBRANCH  34  35
ENDBRANCH  27  29
ENDBRANCH  26  27
ENDBRANCH  25  26
ENDBRANCH  24  25
ENDBRANCH  23  24
ENDBRANCH   1  23
TORSDOF 17
ENDMDL
