MODEL 1
REMARK VINA RESULT:     -13.2      0.000      0.000
REMARK SMILES O=C(CC[NH+]1CC[NH+](Cc2ccccc2C2CC2)CC1)OCCOCCOC(=O)c1ccc(-c2c3nc(c(-c4c(F)c(F)c(F)c(F)c4F)c4ccc([nH]4)c(-c4c(F)c(F)c(F)c(F)c4F)c4nc(c(-c5c(F)c(F)c(F)c(F)c5F)c5ccc2[nH]5)C=C4)C=C3)cc1
REMARK SMILES IDX 22 1 21 2 2 3 1 4 3 5 4 6 5 7 6 8 20 9 7 11 19 12 8 13 9 15
REMARK SMILES IDX 10 16 11 17 15 18 12 19 14 20 13 21 16 22 17 23 18 24 23 25
REMARK SMILES IDX 24 26 25 27 26 28 27 29 28 30 29 31 30 32 31 33 92 34 32 35
REMARK SMILES IDX 91 36 33 37 34 38 35 39 85 40 36 41 90 42 84 43 86 44 37 45
REMARK SMILES IDX 89 46 83 47 82 48 38 50 70 51 50 52 69 53 51 54 54 55 68 56
REMARK SMILES IDX 87 57 52 58 53 59 67 61 88 62 55 63 39 64 40 65 48 66 41 67
REMARK SMILES IDX 42 68 46 69 49 70 43 71 44 72 47 73 45 74 71 75 72 76 80 77
REMARK SMILES IDX 73 78 74 79 78 80 81 81 75 82 76 83 79 84 77 85 56 86 57 87
REMARK SMILES IDX 65 88 58 89 59 90 63 91 66 92 60 93 61 94 64 95 62 96
REMARK H PARENT 5 10 8 14 86 49 54 60
REMARK Flexibility Score: inf
ROOT
ATOM      1  C   UNL A   1      40.104  20.832  26.343  1.00  0.00     0.261 C 
ENDROOT
BRANCH   1   2
ATOM      2  O   UNL A   1      38.424  21.361  25.494  1.00  0.00    -0.463 OA
BRANCH   2   3
ATOM      3  C   UNL A   1      37.091  21.332  24.991  1.00  0.00     0.311 C 
ATOM      4  O   UNL A   1      36.427  20.297  24.993  1.00  0.00    -0.252 OA
BRANCH   3   5
ATOM      5  C   UNL A   1      36.546  22.578  24.335  1.00  0.00     0.184 C 
BRANCH   5   6
ATOM      6  C   UNL A   1      35.073  22.461  24.135  1.00  0.00     0.274 C 
BRANCH   6   7
ATOM      7  N   UNL A   1      34.479  23.737  24.474  1.00  0.00    -0.325 N 
ATOM      8  C   UNL A   1      33.058  23.895  23.279  1.00  0.00     0.324 C 
ATOM      9  C   UNL A   1      33.974  23.691  26.309  1.00  0.00     0.324 C 
ATOM     10  H   UNL A   1      35.090  24.549  24.387  1.00  0.00     0.348 HD
ATOM     11  C   UNL A   1      31.236  23.824  23.839  1.00  0.00     0.324 C 
ATOM     12  C   UNL A   1      32.001  23.825  26.759  1.00  0.00     0.324 C 
ATOM     13  N   UNL A   1      30.758  24.199  25.447  1.00  0.00    -0.322 N 
ATOM     14  H   UNL A   1      30.091  23.504  25.783  1.00  0.00     0.348 HD
BRANCH  13  15
ATOM     15  C   UNL A   1      29.903  25.449  25.491  1.00  0.00     0.299 C 
BRANCH  15  16
ATOM     16  C   UNL A   1      30.215  26.674  24.555  1.00  0.00     0.010 A 
ATOM     17  C   UNL A   1      29.174  27.093  23.686  1.00  0.00     0.010 A 
ATOM     18  C   UNL A   1      31.381  27.493  24.584  1.00  0.00    -0.036 A 
ATOM     19  C   UNL A   1      29.121  28.373  23.124  1.00  0.00     0.001 A 
ATOM     20  C   UNL A   1      31.269  28.807  24.043  1.00  0.00     0.004 A 
ATOM     21  C   UNL A   1      30.143  29.263  23.368  1.00  0.00     0.000 A 
BRANCH  18  22
ATOM     22  C   UNL A   1      32.744  27.205  25.198  1.00  0.00     0.020 C 
ATOM     23  C   UNL A   1      33.791  28.223  25.555  1.00  0.00     0.009 C 
ATOM     24  C   UNL A   1      32.987  27.575  26.639  1.00  0.00     0.009 C 
ENDBRANCH  18  22
ENDBRANCH  15  16
ENDBRANCH  13  15
ENDBRANCH   6   7
ENDBRANCH   5   6
ENDBRANCH   3   5
ENDBRANCH   2   3
ENDBRANCH   1   2
BRANCH   1  25
ATOM     25  C   UNL A   1      41.650  21.621  26.110  1.00  0.00     0.202 C 
BRANCH  25  26
ATOM     26  O   UNL A   1      42.839  21.144  25.436  1.00  0.00    -0.374 OA
BRANCH  26  27
ATOM     27  C   UNL A   1      44.171  21.674  25.313  1.00  0.00     0.202 C 
BRANCH  27  28
ATOM     28  C   UNL A   1      44.660  22.820  24.380  1.00  0.00     0.261 C 
BRANCH  28  29
ATOM     29  O   UNL A   1      43.920  24.031  24.418  1.00  0.00    -0.460 OA
BRANCH  29  30
ATOM     30  C   UNL A   1      44.565  25.049  25.001  1.00  0.00     0.338 C 
ATOM     31  O   UNL A   1      45.683  25.473  24.730  1.00  0.00    -0.246 OA
BRANCH  30  32
ATOM     32  C   UNL A   1      43.608  25.726  25.879  1.00  0.00     0.060 A 
ATOM     33  C   UNL A   1      43.922  27.042  26.221  1.00  0.00     0.016 A 
ATOM     34  C   UNL A   1      42.442  25.113  26.356  1.00  0.00     0.016 A 
ATOM     35  C   UNL A   1      43.105  27.733  27.101  1.00  0.00     0.010 A 
ATOM     36  C   UNL A   1      41.628  25.804  27.259  1.00  0.00     0.010 A 
ATOM     37  C   UNL A   1      41.989  27.100  27.663  1.00  0.00    -0.014 A 
BRANCH  37  38
ATOM     38  C   UNL A   1      41.402  27.735  28.861  1.00  0.00     0.031 A 
ATOM     39  C   UNL A   1      42.131  27.557  30.163  1.00  0.00     0.074 A 
ATOM     40  C   UNL A   1      40.355  28.569  28.766  1.00  0.00     0.049 A 
ATOM     41  N   UNL A   1      41.928  28.135  31.318  1.00  0.00    -0.248 NA
ATOM     42  C   UNL A   1      43.263  26.615  30.152  1.00  0.00     0.031 C 
ATOM     43  C   UNL A   1      39.612  28.861  27.543  1.00  0.00     0.029 A 
ATOM     44  N   UNL A   1      39.752  29.343  29.724  1.00  0.00    -0.354 N 
ATOM     45  C   UNL A   1      42.927  27.658  32.154  1.00  0.00     0.074 A 
ATOM     46  C   UNL A   1      43.705  26.705  31.395  1.00  0.00     0.031 C 
ATOM     47  C   UNL A   1      38.643  29.750  27.826  1.00  0.00     0.029 A 
ATOM     48  C   UNL A   1      38.692  30.074  29.251  1.00  0.00     0.049 A 
ATOM     49  H   UNL A   1      40.051  29.372  30.661  1.00  0.00     0.167 HD
ATOM     50  C   UNL A   1      43.184  27.999  33.438  1.00  0.00     0.037 A 
ATOM     51  C   UNL A   1      37.854  30.900  29.908  1.00  0.00     0.037 A 
ATOM     52  C   UNL A   1      42.379  28.911  34.204  1.00  0.00     0.049 A 
ATOM     53  C   UNL A   1      38.094  31.172  31.373  1.00  0.00     0.074 A 
ATOM     54  C   UNL A   1      42.522  29.290  35.526  1.00  0.00     0.029 A 
ATOM     55  N   UNL A   1      41.263  29.574  33.714  1.00  0.00    -0.354 N 
ATOM     56  N   UNL A   1      39.053  30.737  32.156  1.00  0.00    -0.248 NA
ATOM     57  C   UNL A   1      37.140  32.068  32.042  1.00  0.00     0.031 C 
ATOM     58  C   UNL A   1      41.459  30.139  35.853  1.00  0.00     0.029 A 
ATOM     59  C   UNL A   1      40.692  30.342  34.716  1.00  0.00     0.049 A 
ATOM     60  H   UNL A   1      40.926  29.509  32.792  1.00  0.00     0.167 HD
ATOM     61  C   UNL A   1      38.834  31.324  33.397  1.00  0.00     0.074 A 
ATOM     62  C   UNL A   1      37.668  32.171  33.252  1.00  0.00     0.031 C 
ATOM     63  C   UNL A   1      39.529  31.178  34.553  1.00  0.00     0.037 A 
BRANCH  50  64
ATOM     64  C   UNL A   1      44.368  27.352  34.094  1.00  0.00     0.064 A 
ATOM     65  C   UNL A   1      45.636  27.953  34.081  1.00  0.00     0.173 A 
ATOM     66  C   UNL A   1      44.232  26.120  34.751  1.00  0.00     0.173 A 
ATOM     67  F   UNL A   1      45.825  29.119  33.445  1.00  0.00    -0.203 F 
ATOM     68  C   UNL A   1      46.729  27.333  34.683  1.00  0.00     0.198 A 
ATOM     69  C   UNL A   1      45.319  25.519  35.378  1.00  0.00     0.198 A 
ATOM     70  F   UNL A   1      43.042  25.502  34.788  1.00  0.00    -0.203 F 
ATOM     71  F   UNL A   1      47.941  27.901  34.615  1.00  0.00    -0.200 F 
ATOM     72  C   UNL A   1      46.567  26.122  35.337  1.00  0.00     0.200 A 
ATOM     73  F   UNL A   1      45.160  24.352  36.018  1.00  0.00    -0.200 F 
ATOM     74  F   UNL A   1      47.619  25.529  35.921  1.00  0.00    -0.200 F 
ENDBRANCH  50  64
BRANCH  51  75
ATOM     75  C   UNL A   1      36.694  31.507  29.201  1.00  0.00     0.064 A 
ATOM     76  C   UNL A   1      36.640  32.878  28.916  1.00  0.00     0.173 A 
ATOM     77  C   UNL A   1      35.582  30.727  28.848  1.00  0.00     0.173 A 
ATOM     78  F   UNL A   1      37.665  33.675  29.256  1.00  0.00    -0.203 F 
ATOM     79  C   UNL A   1      35.506  33.452  28.343  1.00  0.00     0.198 A 
ATOM     80  C   UNL A   1      34.463  31.294  28.241  1.00  0.00     0.198 A 
ATOM     81  F   UNL A   1      35.577  29.409  29.101  1.00  0.00    -0.203 F 
ATOM     82  F   UNL A   1      35.453  34.776  28.149  1.00  0.00    -0.200 F 
ATOM     83  C   UNL A   1      34.421  32.658  28.002  1.00  0.00     0.200 A 
ATOM     84  F   UNL A   1      33.423  30.522  27.906  1.00  0.00    -0.200 F 
ATOM     85  F   UNL A   1      33.327  33.211  27.458  1.00  0.00    -0.200 F 
ENDBRANCH  51  75
BRANCH  63  86
ATOM     86  C   UNL A   1      39.064  31.974  35.741  1.00  0.00     0.064 A 
ATOM     87  C   UNL A   1      39.435  33.315  35.926  1.00  0.00     0.173 A 
ATOM     88  C   UNL A   1      38.221  31.391  36.701  1.00  0.00     0.173 A 
ATOM     89  F   UNL A   1      40.246  33.919  35.043  1.00  0.00    -0.203 F 
ATOM     90  C   UNL A   1      39.023  34.025  37.051  1.00  0.00     0.198 A 
ATOM     91  C   UNL A   1      37.779  32.118  37.803  1.00  0.00     0.198 A 
ATOM     92  F   UNL A   1      37.823  30.118  36.569  1.00  0.00    -0.203 F 
ATOM     93  F   UNL A   1      39.451  35.281  37.240  1.00  0.00    -0.200 F 
ATOM     94  C   UNL A   1      38.190  33.428  37.985  1.00  0.00     0.200 A 
ATOM     95  F   UNL A   1      36.957  31.545  38.695  1.00  0.00    -0.200 F 
ATOM     96  F   UNL A   1      37.795  34.114  39.067  1.00  0.00    -0.200 F 
ENDBRANCH  63  86
ENDBRANCH  37  38
ENDBRANCH  30  32
ENDBRANCH  29  30
ENDBRANCH  28  29
ENDBRANCH  27  28
ENDBRANCH  26  27
ENDBRANCH  25  26
ENDBRANCH   1  25
TORSDOF 19
ENDMDL
MODEL 2
REMARK VINA RESULT:     -12.3      4.925      7.636
REMARK SMILES O=C(CC[NH+]1CC[NH+](Cc2ccccc2C2CC2)CC1)OCCOCCOC(=O)c1ccc(-c2c3nc(c(-c4c(F)c(F)c(F)c(F)c4F)c4ccc([nH]4)c(-c4c(F)c(F)c(F)c(F)c4F)c4nc(c(-c5c(F)c(F)c(F)c(F)c5F)c5ccc2[nH]5)C=C4)C=C3)cc1
REMARK SMILES IDX 22 1 21 2 2 3 1 4 3 5 4 6 5 7 6 8 20 9 7 11 19 12 8 13 9 15
REMARK SMILES IDX 10 16 11 17 15 18 12 19 14 20 13 21 16 22 17 23 18 24 23 25
REMARK SMILES IDX 24 26 25 27 26 28 27 29 28 30 29 31 30 32 31 33 92 34 32 35
REMARK SMILES IDX 91 36 33 37 34 38 35 39 85 40 36 41 90 42 84 43 86 44 37 45
REMARK SMILES IDX 89 46 83 47 82 48 38 50 70 51 50 52 69 53 51 54 54 55 68 56
REMARK SMILES IDX 87 57 52 58 53 59 67 61 88 62 55 63 39 64 40 65 48 66 41 67
REMARK SMILES IDX 42 68 46 69 49 70 43 71 44 72 47 73 45 74 71 75 72 76 80 77
REMARK SMILES IDX 73 78 74 79 78 80 81 81 75 82 76 83 79 84 77 85 56 86 57 87
REMARK SMILES IDX 65 88 58 89 59 90 63 91 66 92 60 93 61 94 64 95 62 96
REMARK H PARENT 5 10 8 14 86 49 54 60
REMARK Flexibility Score: inf
ROOT
ATOM      1  C   UNL A   1      39.664  23.091  26.826  1.00  0.00     0.261 C 
ENDROOT
BRANCH   1   2
ATOM      2  O   UNL A   1      38.155  22.490  25.737  1.00  0.00    -0.463 OA
BRANCH   2   3
ATOM      3  C   UNL A   1      37.371  21.790  24.775  1.00  0.00     0.311 C 
ATOM      4  O   UNL A   1      37.357  20.560  24.732  1.00  0.00    -0.252 OA
BRANCH   3   5
ATOM      5  C   UNL A   1      36.647  22.591  23.720  1.00  0.00     0.184 C 
BRANCH   5   6
ATOM      6  C   UNL A   1      35.174  22.541  23.946  1.00  0.00     0.274 C 
BRANCH   6   7
ATOM      7  N   UNL A   1      34.782  23.786  24.574  1.00  0.00    -0.325 N 
ATOM      8  C   UNL A   1      33.566  24.524  23.370  1.00  0.00     0.324 C 
ATOM      9  C   UNL A   1      34.060  23.388  26.290  1.00  0.00     0.324 C 
ATOM     10  H   UNL A   1      35.534  24.452  24.750  1.00  0.00     0.348 HD
ATOM     11  C   UNL A   1      31.707  24.689  23.764  1.00  0.00     0.324 C 
ATOM     12  C   UNL A   1      32.104  23.806  26.622  1.00  0.00     0.324 C 
ATOM     13  N   UNL A   1      31.115  24.741  25.377  1.00  0.00    -0.322 N 
ATOM     14  H   UNL A   1      30.299  24.136  25.468  1.00  0.00     0.348 HD
BRANCH  13  15
ATOM     15  C   UNL A   1      30.498  26.089  25.695  1.00  0.00     0.299 C 
BRANCH  15  16
ATOM     16  C   UNL A   1      31.387  27.383  25.779  1.00  0.00     0.010 A 
ATOM     17  C   UNL A   1      32.339  27.435  26.831  1.00  0.00     0.010 A 
ATOM     18  C   UNL A   1      31.433  28.448  24.833  1.00  0.00    -0.036 A 
ATOM     19  C   UNL A   1      33.459  28.271  26.802  1.00  0.00     0.001 A 
ATOM     20  C   UNL A   1      32.614  29.247  24.806  1.00  0.00     0.004 A 
ATOM     21  C   UNL A   1      33.637  29.131  25.741  1.00  0.00     0.000 A 
BRANCH  18  22
ATOM     22  C   UNL A   1      30.423  28.823  23.757  1.00  0.00     0.020 C 
ATOM     23  C   UNL A   1      30.742  29.336  22.380  1.00  0.00     0.009 C 
ATOM     24  C   UNL A   1      30.272  27.925  22.556  1.00  0.00     0.009 C 
ENDBRANCH  18  22
ENDBRANCH  15  16
ENDBRANCH  13  15
ENDBRANCH   6   7
ENDBRANCH   5   6
ENDBRANCH   3   5
ENDBRANCH   2   3
ENDBRANCH   1   2
BRANCH   1  25
ATOM     25  C   UNL A   1      40.857  22.047  27.570  1.00  0.00     0.202 C 
BRANCH  25  26
ATOM     26  O   UNL A   1      40.876  20.604  27.689  1.00  0.00    -0.374 OA
BRANCH  26  27
ATOM     27  C   UNL A   1      41.095  19.548  26.737  1.00  0.00     0.202 C 
BRANCH  27  28
ATOM     28  C   UNL A   1      42.448  19.077  26.128  1.00  0.00     0.261 C 
BRANCH  28  29
ATOM     29  O   UNL A   1      42.820  19.652  24.884  1.00  0.00    -0.460 OA
BRANCH  29  30
ATOM     30  C   UNL A   1      44.141  19.679  24.668  1.00  0.00     0.338 C 
ATOM     31  O   UNL A   1      44.830  18.799  24.166  1.00  0.00    -0.246 OA
BRANCH  30  32
ATOM     32  C   UNL A   1      44.597  21.047  24.928  1.00  0.00     0.060 A 
ATOM     33  C   UNL A   1      45.226  21.255  26.156  1.00  0.00     0.016 A 
ATOM     34  C   UNL A   1      44.425  22.096  24.015  1.00  0.00     0.016 A 
ATOM     35  C   UNL A   1      45.628  22.533  26.510  1.00  0.00     0.010 A 
ATOM     36  C   UNL A   1      44.815  23.389  24.380  1.00  0.00     0.010 A 
ATOM     37  C   UNL A   1      45.376  23.610  25.649  1.00  0.00    -0.014 A 
BRANCH  37  38
ATOM     38  C   UNL A   1      45.466  24.962  26.237  1.00  0.00     0.031 A 
ATOM     39  C   UNL A   1      46.798  25.655  26.173  1.00  0.00     0.074 A 
ATOM     40  C   UNL A   1      44.371  25.612  26.663  1.00  0.00     0.049 A 
ATOM     41  N   UNL A   1      47.110  26.892  26.461  1.00  0.00    -0.248 NA
ATOM     42  C   UNL A   1      47.930  24.845  25.692  1.00  0.00     0.031 C 
ATOM     43  C   UNL A   1      43.021  25.057  26.711  1.00  0.00     0.029 A 
ATOM     44  N   UNL A   1      44.228  26.898  27.116  1.00  0.00    -0.354 N 
ATOM     45  C   UNL A   1      48.458  27.016  26.159  1.00  0.00     0.074 A 
ATOM     46  C   UNL A   1      48.921  25.721  25.716  1.00  0.00     0.031 C 
ATOM     47  C   UNL A   1      42.182  25.998  27.177  1.00  0.00     0.029 A 
ATOM     48  C   UNL A   1      42.941  27.213  27.472  1.00  0.00     0.049 A 
ATOM     49  H   UNL A   1      44.976  27.534  27.180  1.00  0.00     0.167 HD
ATOM     50  C   UNL A   1      49.237  28.119  26.228  1.00  0.00     0.037 A 
ATOM     51  C   UNL A   1      42.445  28.354  27.989  1.00  0.00     0.037 A 
ATOM     52  C   UNL A   1      48.785  29.394  26.715  1.00  0.00     0.049 A 
ATOM     53  C   UNL A   1      43.366  29.538  28.166  1.00  0.00     0.074 A 
ATOM     54  C   UNL A   1      49.504  30.564  26.872  1.00  0.00     0.029 A 
ATOM     55  N   UNL A   1      47.491  29.656  27.143  1.00  0.00    -0.354 N 
ATOM     56  N   UNL A   1      44.636  29.659  27.859  1.00  0.00    -0.248 NA
ATOM     57  C   UNL A   1      42.775  30.751  28.749  1.00  0.00     0.031 C 
ATOM     58  C   UNL A   1      48.659  31.520  27.449  1.00  0.00     0.029 A 
ATOM     59  C   UNL A   1      47.397  30.965  27.588  1.00  0.00     0.049 A 
ATOM     60  H   UNL A   1      46.750  29.009  27.132  1.00  0.00     0.167 HD
ATOM     61  C   UNL A   1      44.988  30.964  28.185  1.00  0.00     0.074 A 
ATOM     62  C   UNL A   1      43.788  31.603  28.685  1.00  0.00     0.031 C 
ATOM     63  C   UNL A   1      46.192  31.582  28.084  1.00  0.00     0.037 A 
BRANCH  50  64
ATOM     64  C   UNL A   1      50.667  27.976  25.795  1.00  0.00     0.064 A 
ATOM     65  C   UNL A   1      51.701  27.788  26.725  1.00  0.00     0.173 A 
ATOM     66  C   UNL A   1      51.006  28.019  24.435  1.00  0.00     0.173 A 
ATOM     67  F   UNL A   1      51.433  27.764  28.039  1.00  0.00    -0.203 F 
ATOM     68  C   UNL A   1      53.026  27.670  26.309  1.00  0.00     0.198 A 
ATOM     69  C   UNL A   1      52.326  27.869  24.021  1.00  0.00     0.198 A 
ATOM     70  F   UNL A   1      50.056  28.202  23.506  1.00  0.00    -0.203 F 
ATOM     71  F   UNL A   1      54.003  27.541  27.217  1.00  0.00    -0.200 F 
ATOM     72  C   UNL A   1      53.335  27.703  24.958  1.00  0.00     0.200 A 
ATOM     73  F   UNL A   1      52.624  27.893  22.715  1.00  0.00    -0.200 F 
ATOM     74  F   UNL A   1      54.610  27.583  24.559  1.00  0.00    -0.200 F 
ENDBRANCH  50  64
BRANCH  51  75
ATOM     75  C   UNL A   1      41.019  28.431  28.404  1.00  0.00     0.064 A 
ATOM     76  C   UNL A   1      40.028  28.932  27.548  1.00  0.00     0.173 A 
ATOM     77  C   UNL A   1      40.629  28.056  29.699  1.00  0.00     0.173 A 
ATOM     78  F   UNL A   1      40.351  29.330  26.308  1.00  0.00    -0.203 F 
ATOM     79  C   UNL A   1      38.713  29.092  27.983  1.00  0.00     0.198 A 
ATOM     80  C   UNL A   1      39.307  28.182  30.121  1.00  0.00     0.198 A 
ATOM     81  F   UNL A   1      41.536  27.575  30.562  1.00  0.00    -0.203 F 
ATOM     82  F   UNL A   1      37.802  29.640  27.168  1.00  0.00    -0.200 F 
ATOM     83  C   UNL A   1      38.353  28.711  29.268  1.00  0.00     0.200 A 
ATOM     84  F   UNL A   1      38.964  27.804  31.359  1.00  0.00    -0.200 F 
ATOM     85  F   UNL A   1      37.090  28.873  29.688  1.00  0.00    -0.200 F 
ENDBRANCH  51  75
BRANCH  63  86
ATOM     86  C   UNL A   1      46.260  33.028  28.494  1.00  0.00     0.064 A 
ATOM     87  C   UNL A   1      46.576  33.412  29.805  1.00  0.00     0.173 A 
ATOM     88  C   UNL A   1      46.021  34.044  27.555  1.00  0.00     0.173 A 
ATOM     89  F   UNL A   1      46.806  32.481  30.746  1.00  0.00    -0.203 F 
ATOM     90  C   UNL A   1      46.600  34.755  30.174  1.00  0.00     0.198 A 
ATOM     91  C   UNL A   1      46.086  35.386  27.918  1.00  0.00     0.198 A 
ATOM     92  F   UNL A   1      45.729  33.736  26.283  1.00  0.00    -0.203 F 
ATOM     93  F   UNL A   1      46.832  35.093  31.450  1.00  0.00    -0.200 F 
ATOM     94  C   UNL A   1      46.361  35.740  29.228  1.00  0.00     0.200 A 
ATOM     95  F   UNL A   1      45.875  36.338  26.997  1.00  0.00    -0.200 F 
ATOM     96  F   UNL A   1      46.384  37.032  29.585  1.00  0.00    -0.200 F 
ENDBRANCH  63  86
ENDBRANCH  37  38
ENDBRANCH  30  32
ENDBRANCH  29  30
ENDBRANCH  28  29
ENDBRANCH  27  28
ENDBRANCH  26  27
ENDBRANCH  25  26
ENDBRANCH   1  25
TORSDOF 19
ENDMDL
MODEL 3
REMARK VINA RESULT:     -12.2      1.614      7.671
REMARK SMILES O=C(CC[NH+]1CC[NH+](Cc2ccccc2C2CC2)CC1)OCCOCCOC(=O)c1ccc(-c2c3nc(c(-c4c(F)c(F)c(F)c(F)c4F)c4ccc([nH]4)c(-c4c(F)c(F)c(F)c(F)c4F)c4nc(c(-c5c(F)c(F)c(F)c(F)c5F)c5ccc2[nH]5)C=C4)C=C3)cc1
REMARK SMILES IDX 22 1 21 2 2 3 1 4 3 5 4 6 5 7 6 8 20 9 7 11 19 12 8 13 9 15
REMARK SMILES IDX 10 16 11 17 15 18 12 19 14 20 13 21 16 22 17 23 18 24 23 25
REMARK SMILES IDX 24 26 25 27 26 28 27 29 28 30 29 31 30 32 31 33 92 34 32 35
REMARK SMILES IDX 91 36 33 37 34 38 35 39 85 40 36 41 90 42 84 43 86 44 37 45
REMARK SMILES IDX 89 46 83 47 82 48 38 50 70 51 50 52 69 53 51 54 54 55 68 56
REMARK SMILES IDX 87 57 52 58 53 59 67 61 88 62 55 63 39 64 40 65 48 66 41 67
REMARK SMILES IDX 42 68 46 69 49 70 43 71 44 72 47 73 45 74 71 75 72 76 80 77
REMARK SMILES IDX 73 78 74 79 78 80 81 81 75 82 76 83 79 84 77 85 56 86 57 87
REMARK SMILES IDX 65 88 58 89 59 90 63 91 66 92 60 93 61 94 64 95 62 96
REMARK H PARENT 5 10 8 14 86 49 54 60
REMARK Flexibility Score: inf
ROOT
ATOM      1  C   UNL A   1      43.945  18.863  24.829  1.00  0.00     0.261 C 
ENDROOT
BRANCH   1   2
ATOM      2  O   UNL A   1      42.517  19.993  25.540  1.00  0.00    -0.463 OA
BRANCH   2   3
ATOM      3  C   UNL A   1      41.726  20.785  26.422  1.00  0.00     0.311 C 
ATOM      4  O   UNL A   1      41.726  20.586  27.636  1.00  0.00    -0.252 OA
BRANCH   3   5
ATOM      5  C   UNL A   1      40.785  21.802  25.823  1.00  0.00     0.184 C 
BRANCH   5   6
ATOM      6  C   UNL A   1      39.376  21.495  26.200  1.00  0.00     0.274 C 
BRANCH   6   7
ATOM      7  N   UNL A   1      38.509  22.166  25.254  1.00  0.00    -0.325 N 
ATOM      8  C   UNL A   1      37.380  20.813  24.651  1.00  0.00     0.324 C 
ATOM      9  C   UNL A   1      37.630  23.593  26.157  1.00  0.00     0.324 C 
ATOM     10  H   UNL A   1      38.974  22.603  24.458  1.00  0.00     0.348 HD
ATOM     11  C   UNL A   1      35.520  20.767  25.072  1.00  0.00     0.324 C 
ATOM     12  C   UNL A   1      35.614  23.497  26.355  1.00  0.00     0.324 C 
ATOM     13  N   UNL A   1      34.644  22.183  25.496  1.00  0.00    -0.322 N 
ATOM     14  H   UNL A   1      34.050  21.996  26.304  1.00  0.00     0.348 HD
BRANCH  13  15
ATOM     15  C   UNL A   1      33.596  22.517  24.453  1.00  0.00     0.299 C 
BRANCH  15  16
ATOM     16  C   UNL A   1      32.238  23.197  24.861  1.00  0.00     0.010 A 
ATOM     17  C   UNL A   1      31.359  22.429  25.668  1.00  0.00     0.010 A 
ATOM     18  C   UNL A   1      31.857  24.550  24.624  1.00  0.00    -0.036 A 
ATOM     19  C   UNL A   1      30.352  23.000  26.452  1.00  0.00     0.001 A 
ATOM     20  C   UNL A   1      30.861  25.107  25.477  1.00  0.00     0.004 A 
ATOM     21  C   UNL A   1      30.152  24.362  26.413  1.00  0.00     0.000 A 
BRANCH  18  22
ATOM     22  C   UNL A   1      32.427  25.548  23.625  1.00  0.00     0.020 C 
ATOM     23  C   UNL A   1      33.406  25.245  22.525  1.00  0.00     0.009 C 
ATOM     24  C   UNL A   1      31.967  25.488  22.192  1.00  0.00     0.009 C 
ENDBRANCH  18  22
ENDBRANCH  15  16
ENDBRANCH  13  15
ENDBRANCH   6   7
ENDBRANCH   5   6
ENDBRANCH   3   5
ENDBRANCH   2   3
ENDBRANCH   1   2
BRANCH   1  25
ATOM     25  C   UNL A   1      45.656  19.232  24.890  1.00  0.00     0.202 C 
BRANCH  25  26
ATOM     26  O   UNL A   1      46.326  20.434  25.340  1.00  0.00    -0.374 OA
BRANCH  26  27
ATOM     27  C   UNL A   1      45.972  21.828  25.285  1.00  0.00     0.202 C 
BRANCH  27  28
ATOM     28  C   UNL A   1      45.128  22.640  26.310  1.00  0.00     0.261 C 
BRANCH  28  29
ATOM     29  O   UNL A   1      44.937  24.019  26.026  1.00  0.00    -0.460 OA
BRANCH  29  30
ATOM     30  C   UNL A   1      43.755  24.304  25.467  1.00  0.00     0.338 C 
ATOM     31  O   UNL A   1      43.254  23.777  24.480  1.00  0.00    -0.246 OA
BRANCH  30  32
ATOM     32  C   UNL A   1      43.048  25.208  26.377  1.00  0.00     0.060 A 
ATOM     33  C   UNL A   1      43.527  26.517  26.427  1.00  0.00     0.016 A 
ATOM     34  C   UNL A   1      41.956  24.806  27.157  1.00  0.00     0.016 A 
ATOM     35  C   UNL A   1      42.958  27.419  27.312  1.00  0.00     0.010 A 
ATOM     36  C   UNL A   1      41.394  25.712  28.063  1.00  0.00     0.010 A 
ATOM     37  C   UNL A   1      41.929  27.006  28.168  1.00  0.00    -0.014 A 
BRANCH  37  38
ATOM     38  C   UNL A   1      41.644  27.876  29.328  1.00  0.00     0.031 A 
ATOM     39  C   UNL A   1      40.430  28.758  29.248  1.00  0.00     0.074 A 
ATOM     40  C   UNL A   1      42.342  27.766  30.470  1.00  0.00     0.049 A 
ATOM     41  N   UNL A   1      39.865  29.486  30.175  1.00  0.00    -0.248 NA
ATOM     42  C   UNL A   1      39.743  28.802  27.946  1.00  0.00     0.031 C 
ATOM     43  C   UNL A   1      43.498  26.898  30.677  1.00  0.00     0.029 A 
ATOM     44  N   UNL A   1      42.156  28.381  31.681  1.00  0.00    -0.354 N 
ATOM     45  C   UNL A   1      38.741  30.040  29.580  1.00  0.00     0.074 A 
ATOM     46  C   UNL A   1      38.728  29.610  28.201  1.00  0.00     0.031 C 
ATOM     47  C   UNL A   1      43.926  27.041  31.943  1.00  0.00     0.029 A 
ATOM     48  C   UNL A   1      43.082  28.020  32.627  1.00  0.00     0.049 A 
ATOM     49  H   UNL A   1      41.428  29.020  31.856  1.00  0.00     0.167 HD
ATOM     50  C   UNL A   1      37.793  30.824  30.142  1.00  0.00     0.037 A 
ATOM     51  C   UNL A   1      43.229  28.449  33.895  1.00  0.00     0.037 A 
ATOM     52  C   UNL A   1      37.835  31.290  31.502  1.00  0.00     0.049 A 
ATOM     53  C   UNL A   1      42.220  29.419  34.462  1.00  0.00     0.074 A 
ATOM     54  C   UNL A   1      36.952  32.127  32.157  1.00  0.00     0.029 A 
ATOM     55  N   UNL A   1      38.833  30.967  32.410  1.00  0.00    -0.354 N 
ATOM     56  N   UNL A   1      41.146  29.925  33.904  1.00  0.00    -0.248 NA
ATOM     57  C   UNL A   1      42.439  29.865  35.845  1.00  0.00     0.031 C 
ATOM     58  C   UNL A   1      37.445  32.357  33.446  1.00  0.00     0.029 A 
ATOM     59  C   UNL A   1      38.600  31.609  33.615  1.00  0.00     0.049 A 
ATOM     60  H   UNL A   1      39.595  30.371  32.226  1.00  0.00     0.167 HD
ATOM     61  C   UNL A   1      40.548  30.723  34.872  1.00  0.00     0.074 A 
ATOM     62  C   UNL A   1      41.365  30.609  36.063  1.00  0.00     0.031 C 
ATOM     63  C   UNL A   1      39.428  31.484  34.789  1.00  0.00     0.037 A 
BRANCH  50  64
ATOM     64  C   UNL A   1      36.651  31.250  29.267  1.00  0.00     0.064 A 
ATOM     65  C   UNL A   1      36.541  32.566  28.790  1.00  0.00     0.173 A 
ATOM     66  C   UNL A   1      35.659  30.331  28.893  1.00  0.00     0.173 A 
ATOM     67  F   UNL A   1      37.450  33.489  29.138  1.00  0.00    -0.203 F 
ATOM     68  C   UNL A   1      35.468  32.951  27.989  1.00  0.00     0.198 A 
ATOM     69  C   UNL A   1      34.606  30.712  28.067  1.00  0.00     0.198 A 
ATOM     70  F   UNL A   1      35.715  29.063  29.325  1.00  0.00    -0.203 F 
ATOM     71  F   UNL A   1      35.357  34.224  27.587  1.00  0.00    -0.200 F 
ATOM     72  C   UNL A   1      34.506  32.022  27.623  1.00  0.00     0.200 A 
ATOM     73  F   UNL A   1      33.681  29.811  27.706  1.00  0.00    -0.200 F 
ATOM     74  F   UNL A   1      33.477  32.392  26.847  1.00  0.00    -0.200 F 
ENDBRANCH  50  64
BRANCH  51  75
ATOM     75  C   UNL A   1      44.387  27.993  34.711  1.00  0.00     0.064 A 
ATOM     76  C   UNL A   1      44.270  26.949  35.639  1.00  0.00     0.173 A 
ATOM     77  C   UNL A   1      45.629  28.641  34.617  1.00  0.00     0.173 A 
ATOM     78  F   UNL A   1      43.098  26.313  35.788  1.00  0.00    -0.203 F 
ATOM     79  C   UNL A   1      45.335  26.597  36.467  1.00  0.00     0.198 A 
ATOM     80  C   UNL A   1      46.704  28.265  35.419  1.00  0.00     0.198 A 
ATOM     81  F   UNL A   1      45.797  29.651  33.749  1.00  0.00    -0.203 F 
ATOM     82  F   UNL A   1      45.173  25.645  37.395  1.00  0.00    -0.200 F 
ATOM     83  C   UNL A   1      46.552  27.252  36.353  1.00  0.00     0.200 A 
ATOM     84  F   UNL A   1      47.879  28.895  35.297  1.00  0.00    -0.200 F 
ATOM     85  F   UNL A   1      47.573  26.919  37.155  1.00  0.00    -0.200 F 
ENDBRANCH  51  75
BRANCH  63  86
ATOM     86  C   UNL A   1      39.006  32.227  36.028  1.00  0.00     0.064 A 
ATOM     87  C   UNL A   1      38.249  31.613  37.037  1.00  0.00     0.173 A 
ATOM     88  C   UNL A   1      39.379  33.567  36.214  1.00  0.00     0.173 A 
ATOM     89  F   UNL A   1      37.858  30.336  36.907  1.00  0.00    -0.203 F 
ATOM     90  C   UNL A   1      37.838  32.327  38.161  1.00  0.00     0.198 A 
ATOM     91  C   UNL A   1      39.001  34.265  37.357  1.00  0.00     0.198 A 
ATOM     92  F   UNL A   1      40.115  34.201  35.289  1.00  0.00    -0.203 F 
ATOM     93  F   UNL A   1      37.054  31.739  39.075  1.00  0.00    -0.200 F 
ATOM     94  C   UNL A   1      38.220  33.650  38.322  1.00  0.00     0.200 A 
ATOM     95  F   UNL A   1      39.389  35.539  37.522  1.00  0.00    -0.200 F 
ATOM     96  F   UNL A   1      37.823  34.336  39.404  1.00  0.00    -0.200 F 
ENDBRANCH  63  86
ENDBRANCH  37  38
ENDBRANCH  30  32
ENDBRANCH  29  30
ENDBRANCH  28  29
ENDBRANCH  27  28
ENDBRANCH  26  27
ENDBRANCH  25  26
ENDBRANCH   1  25
TORSDOF 19
ENDMDL
