MODEL 1
REMARK VINA RESULT:     -11.3      0.000      0.000
REMARK SMILES CC[C@H](C(=O)OCCOCCOC(=O)c1ccc(-c2c3nc(c(-c4c(F)c(F)c(F)c(F)c4F)c4ccc([nH]4)c(-c4c(F)c(F)c(F)c(F)c4F)c4nc(c(-c5c(F)c(F)c(F)c(F)c5F)c5ccc2[nH]5)C=C4)C=C3)cc1)N1C(=O)/C(=C\c2cccs2)SC1=S
REMARK SMILES IDX 9 1 8 2 7 3 6 4 4 5 5 6 3 7 2 8 1 9 78 10 79 11 89 12 80 13
REMARK SMILES IDX 81 14 88 15 90 16 82 17 83 18 84 19 87 20 85 21 86 22 10 23
REMARK SMILES IDX 11 24 12 25 13 26 14 27 15 28 16 29 77 30 17 31 76 32 18 33
REMARK SMILES IDX 19 34 20 35 70 36 21 37 75 38 69 39 71 40 22 41 74 42 68 43
REMARK SMILES IDX 67 44 23 46 55 47 35 48 54 49 36 50 39 51 53 52 72 53 37 54
REMARK SMILES IDX 38 55 52 57 73 58 40 59 24 60 25 61 33 62 26 63 27 64 31 65
REMARK SMILES IDX 34 66 28 67 29 68 32 69 30 70 56 71 57 72 65 73 58 74 59 75
REMARK SMILES IDX 63 76 66 77 60 78 61 79 64 80 62 81 41 82 42 83 50 84 43 85
REMARK SMILES IDX 44 86 48 87 51 88 45 89 46 90 49 91 47 92
REMARK H PARENT 71 45 39 56
REMARK Flexibility Score: inf
ROOT
ATOM      1  O   UNL A   1      32.302  30.601  26.542  1.00  0.00    -0.374 OA
ENDROOT
BRANCH   1   2
ATOM      2  C   UNL A   1      31.874  29.429  27.230  1.00  0.00     0.202 C 
BRANCH   2   3
ATOM      3  C   UNL A   1      32.865  28.267  27.235  1.00  0.00     0.261 C 
BRANCH   3   4
ATOM      4  O   UNL A   1      33.528  28.110  25.968  1.00  0.00    -0.462 OA
BRANCH   4   5
ATOM      5  C   UNL A   1      33.086  27.083  25.192  1.00  0.00     0.329 C 
ATOM      6  O   UNL A   1      33.209  25.893  25.462  1.00  0.00    -0.250 OA
BRANCH   5   7
ATOM      7  C   UNL A   1      32.450  27.564  23.885  1.00  0.00     0.201 C 
BRANCH   7   8
ATOM      8  C   UNL A   1      33.082  27.141  22.547  1.00  0.00     0.034 C 
ATOM      9  C   UNL A   1      34.031  28.204  21.999  1.00  0.00     0.007 C 
ENDBRANCH   7   8
BRANCH   7  10
ATOM     10  N   UNL A   1      30.993  27.317  23.893  1.00  0.00    -0.278 N 
ATOM     11  C   UNL A   1      30.174  28.435  23.872  1.00  0.00     0.267 C 
ATOM     12  C   UNL A   1      30.359  26.106  23.707  1.00  0.00     0.149 C 
ATOM     13  O   UNL A   1      30.569  29.590  23.942  1.00  0.00    -0.268 OA
ATOM     14  C   UNL A   1      28.755  28.035  23.669  1.00  0.00     0.081 C 
ATOM     15  S   UNL A   1      28.617  26.328  23.862  1.00  0.00    -0.054 SA
ATOM     16  S   UNL A   1      31.015  24.614  23.355  1.00  0.00    -0.052 S 
ATOM     17  C   UNL A   1      27.737  28.803  23.258  1.00  0.00     0.040 C 
BRANCH  17  18
ATOM     18  C   UNL A   1      27.929  30.133  22.802  1.00  0.00     0.028 A 
ATOM     19  C   UNL A   1      27.779  31.311  23.517  1.00  0.00     0.020 A 
ATOM     20  S   UNL A   1      28.448  30.449  21.200  1.00  0.00    -0.144 S 
ATOM     21  C   UNL A   1      28.033  32.469  22.731  1.00  0.00     0.012 A 
ATOM     22  C   UNL A   1      28.392  32.141  21.444  1.00  0.00     0.065 A 
ENDBRANCH  17  18
ENDBRANCH   7  10
ENDBRANCH   5   7
ENDBRANCH   4   5
ENDBRANCH   3   4
ENDBRANCH   2   3
ENDBRANCH   1   2
BRANCH   1  23
ATOM     23  C   UNL A   1      31.404  31.711  26.501  1.00  0.00     0.202 C 
BRANCH  23  24
ATOM     24  C   UNL A   1      31.977  33.045  26.988  1.00  0.00     0.261 C 
BRANCH  24  25
ATOM     25  O   UNL A   1      32.797  32.872  28.163  1.00  0.00    -0.460 OA
BRANCH  25  26
ATOM     26  C   UNL A   1      33.839  33.729  28.252  1.00  0.00     0.338 C 
ATOM     27  O   UNL A   1      33.791  34.946  28.370  1.00  0.00    -0.246 OA
BRANCH  26  28
ATOM     28  C   UNL A   1      35.116  33.002  28.341  1.00  0.00     0.060 A 
ATOM     29  C   UNL A   1      35.055  31.626  28.592  1.00  0.00     0.016 A 
ATOM     30  C   UNL A   1      36.339  33.676  28.372  1.00  0.00     0.016 A 
ATOM     31  C   UNL A   1      36.204  30.934  28.966  1.00  0.00     0.010 A 
ATOM     32  C   UNL A   1      37.494  32.980  28.751  1.00  0.00     0.010 A 
ATOM     33  C   UNL A   1      37.418  31.620  29.110  1.00  0.00    -0.014 A 
BRANCH  33  34
ATOM     34  C   UNL A   1      38.523  30.955  29.847  1.00  0.00     0.031 A 
ATOM     35  C   UNL A   1      38.718  31.275  31.307  1.00  0.00     0.074 A 
ATOM     36  C   UNL A   1      39.282  30.011  29.262  1.00  0.00     0.049 A 
ATOM     37  N   UNL A   1      39.561  30.765  32.168  1.00  0.00    -0.248 NA
ATOM     38  C   UNL A   1      37.835  32.308  31.874  1.00  0.00     0.031 C 
ATOM     39  C   UNL A   1      39.171  29.580  27.872  1.00  0.00     0.029 A 
ATOM     40  N   UNL A   1      40.289  29.234  29.779  1.00  0.00    -0.354 N 
ATOM     41  C   UNL A   1      39.310  31.409  33.372  1.00  0.00     0.074 A 
ATOM     42  C   UNL A   1      38.262  32.375  33.126  1.00  0.00     0.031 C 
ATOM     43  C   UNL A   1      40.074  28.610  27.644  1.00  0.00     0.029 A 
ATOM     44  C   UNL A   1      40.834  28.364  28.869  1.00  0.00     0.049 A 
ATOM     45  H   UNL A   1      40.592  29.297  30.714  1.00  0.00     0.167 HD
ATOM     46  C   UNL A   1      39.885  31.204  34.582  1.00  0.00     0.037 A 
ATOM     47  C   UNL A   1      41.833  27.472  29.011  1.00  0.00     0.037 A 
ATOM     48  C   UNL A   1      40.922  30.241  34.839  1.00  0.00     0.049 A 
ATOM     49  C   UNL A   1      42.493  27.300  30.354  1.00  0.00     0.074 A 
ATOM     50  C   UNL A   1      41.560  29.954  36.033  1.00  0.00     0.029 A 
ATOM     51  N   UNL A   1      41.475  29.407  33.879  1.00  0.00    -0.354 N 
ATOM     52  N   UNL A   1      42.230  27.895  31.492  1.00  0.00    -0.248 NA
ATOM     53  C   UNL A   1      43.588  26.321  30.432  1.00  0.00     0.031 C 
ATOM     54  C   UNL A   1      42.528  28.973  35.788  1.00  0.00     0.029 A 
ATOM     55  C   UNL A   1      42.461  28.619  34.451  1.00  0.00     0.049 A 
ATOM     56  H   UNL A   1      41.207  29.379  32.932  1.00  0.00     0.167 HD
ATOM     57  C   UNL A   1      43.103  27.347  32.423  1.00  0.00     0.074 A 
ATOM     58  C   UNL A   1      43.894  26.358  31.722  1.00  0.00     0.031 C 
ATOM     59  C   UNL A   1      43.237  27.635  33.741  1.00  0.00     0.037 A 
BRANCH  46  60
ATOM     60  C   UNL A   1      39.411  32.055  35.723  1.00  0.00     0.064 A 
ATOM     61  C   UNL A   1      38.414  31.611  36.605  1.00  0.00     0.173 A 
ATOM     62  C   UNL A   1      39.977  33.318  35.951  1.00  0.00     0.173 A 
ATOM     63  F   UNL A   1      37.830  30.418  36.420  1.00  0.00    -0.203 F 
ATOM     64  C   UNL A   1      37.985  32.411  37.661  1.00  0.00     0.198 A 
ATOM     65  C   UNL A   1      39.563  34.104  37.022  1.00  0.00     0.198 A 
ATOM     66  F   UNL A   1      40.934  33.786  35.137  1.00  0.00    -0.203 F 
ATOM     67  F   UNL A   1      37.001  31.986  38.466  1.00  0.00    -0.200 F 
ATOM     68  C   UNL A   1      38.564  33.654  37.872  1.00  0.00     0.200 A 
ATOM     69  F   UNL A   1      40.128  35.301  37.230  1.00  0.00    -0.200 F 
ATOM     70  F   UNL A   1      38.152  34.422  38.891  1.00  0.00    -0.200 F 
ENDBRANCH  46  60
BRANCH  47  71
ATOM     71  C   UNL A   1      42.274  26.661  27.847  1.00  0.00     0.064 A 
ATOM     72  C   UNL A   1      43.263  27.128  26.970  1.00  0.00     0.173 A 
ATOM     73  C   UNL A   1      41.691  25.416  27.571  1.00  0.00     0.173 A 
ATOM     74  F   UNL A   1      43.828  28.327  27.177  1.00  0.00    -0.203 F 
ATOM     75  C   UNL A   1      43.638  26.389  25.851  1.00  0.00     0.198 A 
ATOM     76  C   UNL A   1      42.085  24.665  26.466  1.00  0.00     0.198 A 
ATOM     77  F   UNL A   1      40.737  24.928  28.377  1.00  0.00    -0.203 F 
ATOM     78  F   UNL A   1      44.551  26.880  25.002  1.00  0.00    -0.200 F 
ATOM     79  C   UNL A   1      43.053  25.156  25.602  1.00  0.00     0.200 A 
ATOM     80  F   UNL A   1      41.523  23.472  26.233  1.00  0.00    -0.200 F 
ATOM     81  F   UNL A   1      43.413  24.447  24.524  1.00  0.00    -0.200 F 
ENDBRANCH  47  71
BRANCH  59  82
ATOM     82  C   UNL A   1      44.258  26.853  34.515  1.00  0.00     0.064 A 
ATOM     83  C   UNL A   1      45.571  27.319  34.679  1.00  0.00     0.173 A 
ATOM     84  C   UNL A   1      43.912  25.636  35.121  1.00  0.00     0.173 A 
ATOM     85  F   UNL A   1      45.955  28.470  34.107  1.00  0.00    -0.203 F 
ATOM     86  C   UNL A   1      46.508  26.580  35.397  1.00  0.00     0.198 A 
ATOM     87  C   UNL A   1      44.844  24.914  35.862  1.00  0.00     0.198 A 
ATOM     88  F   UNL A   1      42.667  25.150  35.002  1.00  0.00    -0.203 F 
ATOM     89  F   UNL A   1      47.769  27.019  35.498  1.00  0.00    -0.200 F 
ATOM     90  C   UNL A   1      46.142  25.381  35.992  1.00  0.00     0.200 A 
ATOM     91  F   UNL A   1      44.486  23.761  36.446  1.00  0.00    -0.200 F 
ATOM     92  F   UNL A   1      47.046  24.672  36.683  1.00  0.00    -0.200 F 
ENDBRANCH  59  82
ENDBRANCH  33  34
ENDBRANCH  26  28
ENDBRANCH  25  26
ENDBRANCH  24  25
ENDBRANCH  23  24
ENDBRANCH   1  23
TORSDOF 17
ENDMDL
MODEL 2
REMARK VINA RESULT:     -11.1      5.411      8.988
REMARK SMILES CC[C@H](C(=O)OCCOCCOC(=O)c1ccc(-c2c3nc(c(-c4c(F)c(F)c(F)c(F)c4F)c4ccc([nH]4)c(-c4c(F)c(F)c(F)c(F)c4F)c4nc(c(-c5c(F)c(F)c(F)c(F)c5F)c5ccc2[nH]5)C=C4)C=C3)cc1)N1C(=O)/C(=C\c2cccs2)SC1=S
REMARK SMILES IDX 9 1 8 2 7 3 6 4 4 5 5 6 3 7 2 8 1 9 78 10 79 11 89 12 80 13
REMARK SMILES IDX 81 14 88 15 90 16 82 17 83 18 84 19 87 20 85 21 86 22 10 23
REMARK SMILES IDX 11 24 12 25 13 26 14 27 15 28 16 29 77 30 17 31 76 32 18 33
REMARK SMILES IDX 19 34 20 35 70 36 21 37 75 38 69 39 71 40 22 41 74 42 68 43
REMARK SMILES IDX 67 44 23 46 55 47 35 48 54 49 36 50 39 51 53 52 72 53 37 54
REMARK SMILES IDX 38 55 52 57 73 58 40 59 24 60 25 61 33 62 26 63 27 64 31 65
REMARK SMILES IDX 34 66 28 67 29 68 32 69 30 70 56 71 57 72 65 73 58 74 59 75
REMARK SMILES IDX 63 76 66 77 60 78 61 79 64 80 62 81 41 82 42 83 50 84 43 85
REMARK SMILES IDX 44 86 48 87 51 88 45 89 46 90 49 91 47 92
REMARK H PARENT 71 45 39 56
REMARK Flexibility Score: inf
ROOT
ATOM      1  O   UNL A   1      37.874  21.184  24.677  1.00  0.00    -0.374 OA
ENDROOT
BRANCH   1   2
ATOM      2  C   UNL A   1      37.100  21.995  25.555  1.00  0.00     0.202 C 
BRANCH   2   3
ATOM      3  C   UNL A   1      36.901  23.444  25.113  1.00  0.00     0.261 C 
BRANCH   3   4
ATOM      4  O   UNL A   1      35.655  23.637  24.421  1.00  0.00    -0.462 OA
BRANCH   4   5
ATOM      5  C   UNL A   1      34.602  24.018  25.193  1.00  0.00     0.329 C 
ATOM      6  O   UNL A   1      34.357  25.172  25.528  1.00  0.00    -0.250 OA
BRANCH   5   7
ATOM      7  C   UNL A   1      33.758  22.832  25.666  1.00  0.00     0.201 C 
BRANCH   7   8
ATOM      8  C   UNL A   1      32.738  23.046  26.799  1.00  0.00     0.034 C 
ATOM      9  C   UNL A   1      33.107  22.266  28.058  1.00  0.00     0.007 C 
ENDBRANCH   7   8
BRANCH   7  10
ATOM     10  N   UNL A   1      33.144  22.138  24.514  1.00  0.00    -0.278 N 
ATOM     11  C   UNL A   1      33.475  20.802  24.348  1.00  0.00     0.267 C 
ATOM     12  C   UNL A   1      32.122  22.607  23.715  1.00  0.00     0.149 C 
ATOM     13  O   UNL A   1      34.298  20.199  25.021  1.00  0.00    -0.268 OA
ATOM     14  C   UNL A   1      32.628  20.187  23.290  1.00  0.00     0.081 C 
ATOM     15  S   UNL A   1      31.786  21.431  22.446  1.00  0.00    -0.054 SA
ATOM     16  S   UNL A   1      31.245  24.020  23.842  1.00  0.00    -0.052 S 
ATOM     17  C   UNL A   1      32.401  18.883  23.076  1.00  0.00     0.040 C 
BRANCH  17  18
ATOM     18  C   UNL A   1      32.853  17.880  23.972  1.00  0.00     0.028 A 
ATOM     19  C   UNL A   1      32.294  17.502  25.183  1.00  0.00     0.020 A 
ATOM     20  S   UNL A   1      34.228  16.926  23.606  1.00  0.00    -0.144 S 
ATOM     21  C   UNL A   1      33.030  16.472  25.831  1.00  0.00     0.012 A 
ATOM     22  C   UNL A   1      34.117  16.077  25.087  1.00  0.00     0.065 A 
ENDBRANCH  17  18
ENDBRANCH   7  10
ENDBRANCH   5   7
ENDBRANCH   4   5
ENDBRANCH   3   4
ENDBRANCH   2   3
ENDBRANCH   1   2
BRANCH   1  23
ATOM     23  C   UNL A   1      37.961  19.788  24.967  1.00  0.00     0.202 C 
BRANCH  23  24
ATOM     24  C   UNL A   1      39.228  19.343  25.704  1.00  0.00     0.261 C 
BRANCH  24  25
ATOM     25  O   UNL A   1      40.181  20.421  25.818  1.00  0.00    -0.460 OA
BRANCH  25  26
ATOM     26  C   UNL A   1      40.837  20.468  26.999  1.00  0.00     0.338 C 
ATOM     27  O   UNL A   1      41.392  19.544  27.577  1.00  0.00    -0.246 OA
BRANCH  26  28
ATOM     28  C   UNL A   1      40.950  21.853  27.487  1.00  0.00     0.060 A 
ATOM     29  C   UNL A   1      40.315  22.850  26.738  1.00  0.00     0.016 A 
ATOM     30  C   UNL A   1      41.811  22.189  28.534  1.00  0.00     0.016 A 
ATOM     31  C   UNL A   1      40.608  24.191  26.973  1.00  0.00     0.010 A 
ATOM     32  C   UNL A   1      42.108  23.538  28.768  1.00  0.00     0.010 A 
ATOM     33  C   UNL A   1      41.555  24.540  27.946  1.00  0.00    -0.014 A 
BRANCH  33  34
ATOM     34  C   UNL A   1      42.112  25.916  27.929  1.00  0.00     0.031 A 
ATOM     35  C   UNL A   1      41.356  27.014  28.634  1.00  0.00     0.074 A 
ATOM     36  C   UNL A   1      43.312  26.176  27.382  1.00  0.00     0.049 A 
ATOM     37  N   UNL A   1      41.683  28.269  28.815  1.00  0.00    -0.248 NA
ATOM     38  C   UNL A   1      40.058  26.643  29.219  1.00  0.00     0.031 C 
ATOM     39  C   UNL A   1      44.161  25.199  26.706  1.00  0.00     0.029 A 
ATOM     40  N   UNL A   1      44.030  27.345  27.326  1.00  0.00    -0.354 N 
ATOM     41  C   UNL A   1      40.638  28.832  29.535  1.00  0.00     0.074 A 
ATOM     42  C   UNL A   1      39.647  27.796  29.726  1.00  0.00     0.031 C 
ATOM     43  C   UNL A   1      45.291  25.808  26.304  1.00  0.00     0.029 A 
ATOM     44  C   UNL A   1      45.236  27.220  26.683  1.00  0.00     0.049 A 
ATOM     45  H   UNL A   1      43.709  28.193  27.710  1.00  0.00     0.167 HD
ATOM     46  C   UNL A   1      40.518  30.094  30.013  1.00  0.00     0.037 A 
ATOM     47  C   UNL A   1      46.186  28.142  26.430  1.00  0.00     0.037 A 
ATOM     48  C   UNL A   1      41.501  31.130  29.835  1.00  0.00     0.049 A 
ATOM     49  C   UNL A   1      46.004  29.553  26.926  1.00  0.00     0.074 A 
ATOM     50  C   UNL A   1      41.473  32.436  30.291  1.00  0.00     0.029 A 
ATOM     51  N   UNL A   1      42.692  30.972  29.142  1.00  0.00    -0.354 N 
ATOM     52  N   UNL A   1      45.025  30.068  27.629  1.00  0.00    -0.248 NA
ATOM     53  C   UNL A   1      47.073  30.510  26.600  1.00  0.00     0.031 C 
ATOM     54  C   UNL A   1      42.630  33.082  29.838  1.00  0.00     0.029 A 
ATOM     55  C   UNL A   1      43.397  32.165  29.140  1.00  0.00     0.049 A 
ATOM     56  H   UNL A   1      42.991  30.138  28.714  1.00  0.00     0.167 HD
ATOM     57  C   UNL A   1      45.368  31.395  27.850  1.00  0.00     0.074 A 
ATOM     58  C   UNL A   1      46.656  31.604  27.222  1.00  0.00     0.031 C 
ATOM     59  C   UNL A   1      44.680  32.356  28.514  1.00  0.00     0.037 A 
BRANCH  46  60
ATOM     60  C   UNL A   1      39.265  30.430  30.765  1.00  0.00     0.064 A 
ATOM     61  C   UNL A   1      39.172  30.252  32.155  1.00  0.00     0.173 A 
ATOM     62  C   UNL A   1      38.153  30.958  30.094  1.00  0.00     0.173 A 
ATOM     63  F   UNL A   1      40.203  29.734  32.839  1.00  0.00    -0.203 F 
ATOM     64  C   UNL A   1      38.002  30.569  32.840  1.00  0.00     0.198 A 
ATOM     65  C   UNL A   1      36.994  31.298  30.787  1.00  0.00     0.198 A 
ATOM     66  F   UNL A   1      38.192  31.149  28.767  1.00  0.00    -0.203 F 
ATOM     67  F   UNL A   1      37.920  30.351  34.160  1.00  0.00    -0.200 F 
ATOM     68  C   UNL A   1      36.917  31.098  32.157  1.00  0.00     0.200 A 
ATOM     69  F   UNL A   1      35.949  31.816  30.127  1.00  0.00    -0.200 F 
ATOM     70  F   UNL A   1      35.793  31.406  32.819  1.00  0.00    -0.200 F 
ENDBRANCH  46  60
BRANCH  47  71
ATOM     71  C   UNL A   1      47.404  27.762  25.671  1.00  0.00     0.064 A 
ATOM     72  C   UNL A   1      47.409  27.745  24.269  1.00  0.00     0.173 A 
ATOM     73  C   UNL A   1      48.578  27.377  26.334  1.00  0.00     0.173 A 
ATOM     74  F   UNL A   1      46.299  28.076  23.592  1.00  0.00    -0.203 F 
ATOM     75  C   UNL A   1      48.537  27.339  23.559  1.00  0.00     0.198 A 
ATOM     76  C   UNL A   1      49.714  26.996  25.622  1.00  0.00     0.198 A 
ATOM     77  F   UNL A   1      48.622  27.372  27.673  1.00  0.00    -0.203 F 
ATOM     78  F   UNL A   1      48.500  27.285  22.221  1.00  0.00    -0.200 F 
ATOM     79  C   UNL A   1      49.690  26.970  24.236  1.00  0.00     0.200 A 
ATOM     80  F   UNL A   1      50.828  26.648  26.280  1.00  0.00    -0.200 F 
ATOM     81  F   UNL A   1      50.774  26.578  23.552  1.00  0.00    -0.200 F 
ENDBRANCH  47  71
BRANCH  59  82
ATOM     82  C   UNL A   1      45.318  33.711  28.619  1.00  0.00     0.064 A 
ATOM     83  C   UNL A   1      45.069  34.715  27.672  1.00  0.00     0.173 A 
ATOM     84  C   UNL A   1      46.167  34.016  29.693  1.00  0.00     0.173 A 
ATOM     85  F   UNL A   1      44.275  34.469  26.619  1.00  0.00    -0.203 F 
ATOM     86  C   UNL A   1      45.672  35.966  27.781  1.00  0.00     0.198 A 
ATOM     87  C   UNL A   1      46.746  35.277  29.814  1.00  0.00     0.198 A 
ATOM     88  F   UNL A   1      46.432  33.093  30.631  1.00  0.00    -0.203 F 
ATOM     89  F   UNL A   1      45.460  36.894  26.838  1.00  0.00    -0.200 F 
ATOM     90  C   UNL A   1      46.505  36.247  28.853  1.00  0.00     0.200 A 
ATOM     91  F   UNL A   1      47.542  35.551  30.857  1.00  0.00    -0.200 F 
ATOM     92  F   UNL A   1      47.084  37.452  28.956  1.00  0.00    -0.200 F 
ENDBRANCH  59  82
ENDBRANCH  33  34
ENDBRANCH  26  28
ENDBRANCH  25  26
ENDBRANCH  24  25
ENDBRANCH  23  24
ENDBRANCH   1  23
TORSDOF 17
ENDMDL
MODEL 3
REMARK VINA RESULT:     -10.8      5.328     11.017
REMARK SMILES CC[C@H](C(=O)OCCOCCOC(=O)c1ccc(-c2c3nc(c(-c4c(F)c(F)c(F)c(F)c4F)c4ccc([nH]4)c(-c4c(F)c(F)c(F)c(F)c4F)c4nc(c(-c5c(F)c(F)c(F)c(F)c5F)c5ccc2[nH]5)C=C4)C=C3)cc1)N1C(=O)/C(=C\c2cccs2)SC1=S
REMARK SMILES IDX 9 1 8 2 7 3 6 4 4 5 5 6 3 7 2 8 1 9 78 10 79 11 89 12 80 13
REMARK SMILES IDX 81 14 88 15 90 16 82 17 83 18 84 19 87 20 85 21 86 22 10 23
REMARK SMILES IDX 11 24 12 25 13 26 14 27 15 28 16 29 77 30 17 31 76 32 18 33
REMARK SMILES IDX 19 34 20 35 70 36 21 37 75 38 69 39 71 40 22 41 74 42 68 43
REMARK SMILES IDX 67 44 23 46 55 47 35 48 54 49 36 50 39 51 53 52 72 53 37 54
REMARK SMILES IDX 38 55 52 57 73 58 40 59 24 60 25 61 33 62 26 63 27 64 31 65
REMARK SMILES IDX 34 66 28 67 29 68 32 69 30 70 56 71 57 72 65 73 58 74 59 75
REMARK SMILES IDX 63 76 66 77 60 78 61 79 64 80 62 81 41 82 42 83 50 84 43 85
REMARK SMILES IDX 44 86 48 87 51 88 45 89 46 90 49 91 47 92
REMARK H PARENT 71 45 39 56
REMARK Flexibility Score: inf
ROOT
ATOM      1  O   UNL A   1      37.833  21.064  24.492  1.00  0.00    -0.374 OA
ENDROOT
BRANCH   1   2
ATOM      2  C   UNL A   1      37.125  22.144  25.094  1.00  0.00     0.202 C 
BRANCH   2   3
ATOM      3  C   UNL A   1      36.792  23.313  24.169  1.00  0.00     0.261 C 
BRANCH   3   4
ATOM      4  O   UNL A   1      35.374  23.497  24.012  1.00  0.00    -0.462 OA
BRANCH   4   5
ATOM      5  C   UNL A   1      34.697  23.858  25.135  1.00  0.00     0.329 C 
ATOM      6  O   UNL A   1      34.849  24.914  25.740  1.00  0.00    -0.250 OA
BRANCH   5   7
ATOM      7  C   UNL A   1      33.737  22.768  25.621  1.00  0.00     0.201 C 
BRANCH   7   8
ATOM      8  C   UNL A   1      32.692  23.118  26.694  1.00  0.00     0.034 C 
ATOM      9  C   UNL A   1      32.918  22.344  27.990  1.00  0.00     0.007 C 
ENDBRANCH   7   8
BRANCH   7  10
ATOM     10  N   UNL A   1      33.118  22.072  24.473  1.00  0.00    -0.278 N 
ATOM     11  C   UNL A   1      33.449  20.736  24.307  1.00  0.00     0.267 C 
ATOM     12  C   UNL A   1      32.091  22.538  23.679  1.00  0.00     0.149 C 
ATOM     13  O   UNL A   1      34.277  20.134  24.976  1.00  0.00    -0.268 OA
ATOM     14  C   UNL A   1      32.597  20.118  23.255  1.00  0.00     0.081 C 
ATOM     15  S   UNL A   1      31.748  21.360  22.414  1.00  0.00    -0.054 SA
ATOM     16  S   UNL A   1      31.213  23.950  23.810  1.00  0.00    -0.052 S 
ATOM     17  C   UNL A   1      32.370  18.814  23.044  1.00  0.00     0.040 C 
BRANCH  17  18
ATOM     18  C   UNL A   1      32.828  17.813  23.940  1.00  0.00     0.028 A 
ATOM     19  C   UNL A   1      32.298  17.461  25.171  1.00  0.00     0.020 A 
ATOM     20  S   UNL A   1      34.173  16.827  23.545  1.00  0.00    -0.144 S 
ATOM     21  C   UNL A   1      33.033  16.423  25.810  1.00  0.00     0.012 A 
ATOM     22  C   UNL A   1      34.089  15.998  25.039  1.00  0.00     0.065 A 
ENDBRANCH  17  18
ENDBRANCH   7  10
ENDBRANCH   5   7
ENDBRANCH   4   5
ENDBRANCH   3   4
ENDBRANCH   2   3
ENDBRANCH   1   2
BRANCH   1  23
ATOM     23  C   UNL A   1      37.875  19.823  25.198  1.00  0.00     0.202 C 
BRANCH  23  24
ATOM     24  C   UNL A   1      39.256  19.397  25.706  1.00  0.00     0.261 C 
BRANCH  24  25
ATOM     25  O   UNL A   1      40.222  20.461  25.569  1.00  0.00    -0.460 OA
BRANCH  25  26
ATOM     26  C   UNL A   1      41.125  20.532  26.573  1.00  0.00     0.338 C 
ATOM     27  O   UNL A   1      41.961  19.693  26.880  1.00  0.00    -0.246 OA
BRANCH  26  28
ATOM     28  C   UNL A   1      41.101  21.857  27.214  1.00  0.00     0.060 A 
ATOM     29  C   UNL A   1      40.537  22.911  26.486  1.00  0.00     0.016 A 
ATOM     30  C   UNL A   1      41.782  22.102  28.409  1.00  0.00     0.016 A 
ATOM     31  C   UNL A   1      40.730  24.227  26.902  1.00  0.00     0.010 A 
ATOM     32  C   UNL A   1      41.979  23.426  28.825  1.00  0.00     0.010 A 
ATOM     33  C   UNL A   1      41.507  24.495  28.038  1.00  0.00    -0.014 A 
BRANCH  33  34
ATOM     34  C   UNL A   1      41.996  25.881  28.249  1.00  0.00     0.031 A 
ATOM     35  C   UNL A   1      43.325  26.279  27.659  1.00  0.00     0.074 A 
ATOM     36  C   UNL A   1      41.237  26.802  28.868  1.00  0.00     0.049 A 
ATOM     37  N   UNL A   1      43.917  27.447  27.648  1.00  0.00    -0.248 NA
ATOM     38  C   UNL A   1      44.086  25.216  26.983  1.00  0.00     0.031 C 
ATOM     39  C   UNL A   1      39.919  26.558  29.448  1.00  0.00     0.029 A 
ATOM     40  N   UNL A   1      41.466  28.136  29.097  1.00  0.00    -0.354 N 
ATOM     41  C   UNL A   1      45.112  27.259  26.965  1.00  0.00     0.074 A 
ATOM     42  C   UNL A   1      45.182  25.858  26.609  1.00  0.00     0.031 C 
ATOM     43  C   UNL A   1      39.451  27.708  29.964  1.00  0.00     0.029 A 
ATOM     44  C   UNL A   1      40.444  28.763  29.763  1.00  0.00     0.049 A 
ATOM     45  H   UNL A   1      42.287  28.598  28.810  1.00  0.00     0.167 HD
ATOM     46  C   UNL A   1      46.060  28.172  26.645  1.00  0.00     0.037 A 
ATOM     47  C   UNL A   1      40.326  30.044  30.164  1.00  0.00     0.037 A 
ATOM     48  C   UNL A   1      45.996  29.568  26.988  1.00  0.00     0.049 A 
ATOM     49  C   UNL A   1      41.420  31.029  29.843  1.00  0.00     0.074 A 
ATOM     50  C   UNL A   1      46.903  30.572  26.699  1.00  0.00     0.029 A 
ATOM     51  N   UNL A   1      44.962  30.156  27.699  1.00  0.00    -0.354 N 
ATOM     52  N   UNL A   1      42.532  30.848  29.174  1.00  0.00    -0.248 NA
ATOM     53  C   UNL A   1      41.232  32.406  30.326  1.00  0.00     0.031 C 
ATOM     54  C   UNL A   1      46.437  31.762  27.271  1.00  0.00     0.029 A 
ATOM     55  C   UNL A   1      45.219  31.506  27.877  1.00  0.00     0.049 A 
ATOM     56  H   UNL A   1      44.163  29.684  28.030  1.00  0.00     0.167 HD
ATOM     57  C   UNL A   1      43.162  32.085  29.134  1.00  0.00     0.074 A 
ATOM     58  C   UNL A   1      42.300  33.015  29.830  1.00  0.00     0.031 C 
ATOM     59  C   UNL A   1      44.348  32.421  28.570  1.00  0.00     0.037 A 
BRANCH  46  60
ATOM     60  C   UNL A   1      47.263  27.682  25.894  1.00  0.00     0.064 A 
ATOM     61  C   UNL A   1      47.297  27.669  24.491  1.00  0.00     0.173 A 
ATOM     62  C   UNL A   1      48.402  27.244  26.585  1.00  0.00     0.173 A 
ATOM     63  F   UNL A   1      46.227  28.063  23.786  1.00  0.00    -0.203 F 
ATOM     64  C   UNL A   1      48.422  27.213  23.808  1.00  0.00     0.198 A 
ATOM     65  C   UNL A   1      49.533  26.813  25.898  1.00  0.00     0.198 A 
ATOM     66  F   UNL A   1      48.419  27.239  27.926  1.00  0.00    -0.203 F 
ATOM     67  F   UNL A   1      48.417  27.168  22.468  1.00  0.00    -0.200 F 
ATOM     68  C   UNL A   1      49.540  26.791  24.511  1.00  0.00     0.200 A 
ATOM     69  F   UNL A   1      50.616  26.412  26.578  1.00  0.00    -0.200 F 
ATOM     70  F   UNL A   1      50.622  26.355  23.852  1.00  0.00    -0.200 F 
ENDBRANCH  46  60
BRANCH  47  71
ATOM     71  C   UNL A   1      39.120  30.477  30.915  1.00  0.00     0.064 A 
ATOM     72  C   UNL A   1      39.068  30.393  32.314  1.00  0.00     0.173 A 
ATOM     73  C   UNL A   1      37.984  30.954  30.246  1.00  0.00     0.173 A 
ATOM     74  F   UNL A   1      40.119  29.915  32.996  1.00  0.00    -0.203 F 
ATOM     75  C   UNL A   1      37.917  30.752  33.012  1.00  0.00     0.198 A 
ATOM     76  C   UNL A   1      36.843  31.338  30.947  1.00  0.00     0.198 A 
ATOM     77  F   UNL A   1      37.983  31.049  28.908  1.00  0.00    -0.203 F 
ATOM     78  F   UNL A   1      37.875  30.616  34.345  1.00  0.00    -0.200 F 
ATOM     79  C   UNL A   1      36.808  31.229  32.329  1.00  0.00     0.200 A 
ATOM     80  F   UNL A   1      35.777  31.804  30.284  1.00  0.00    -0.200 F 
ATOM     81  F   UNL A   1      35.701  31.571  33.002  1.00  0.00    -0.200 F 
ENDBRANCH  47  71
BRANCH  59  82
ATOM     82  C   UNL A   1      44.769  33.860  28.659  1.00  0.00     0.064 A 
ATOM     83  C   UNL A   1      45.542  34.334  29.729  1.00  0.00     0.173 A 
ATOM     84  C   UNL A   1      44.417  34.767  27.649  1.00  0.00     0.173 A 
ATOM     85  F   UNL A   1      45.892  33.508  30.727  1.00  0.00    -0.203 F 
ATOM     86  C   UNL A   1      45.921  35.671  29.800  1.00  0.00     0.198 A 
ATOM     87  C   UNL A   1      44.822  36.099  27.710  1.00  0.00     0.198 A 
ATOM     88  F   UNL A   1      43.685  34.363  26.600  1.00  0.00    -0.203 F 
ATOM     89  F   UNL A   1      46.616  36.114  30.857  1.00  0.00    -0.200 F 
ATOM     90  C   UNL A   1      45.565  36.551  28.788  1.00  0.00     0.200 A 
ATOM     91  F   UNL A   1      44.487  36.945  26.725  1.00  0.00    -0.200 F 
ATOM     92  F   UNL A   1      45.931  37.839  28.858  1.00  0.00    -0.200 F 
ENDBRANCH  59  82
ENDBRANCH  33  34
ENDBRANCH  26  28
ENDBRANCH  25  26
ENDBRANCH  24  25
ENDBRANCH  23  24
ENDBRANCH   1  23
TORSDOF 17
ENDMDL
