MODEL 1
REMARK VINA RESULT:     -12.0      0.000      0.000
REMARK SMILES C[C@@H](C(=O)OCCOCCOC(=O)c1ccc(-c2c3nc(c(-c4c(F)c(F)c(F)c(F)c4F)c4ccc([nH]4)c(-c4c(F)c(F)c(F)c(F)c4F)c4nc(c(-c5c(F)c(F)c(F)c(F)c5F)c5ccc2[nH]5)C=C4)C=C3)cc1)c1cccc(C(=O)c2ccccc2)c1
REMARK SMILES IDX 7 1 6 2 5 3 3 4 4 5 2 6 1 7 77 8 78 9 90 10 79 11 81 12
REMARK SMILES IDX 80 13 82 14 83 15 84 16 85 17 89 18 86 19 88 20 87 21 8 22
REMARK SMILES IDX 9 23 10 24 11 25 12 26 13 27 14 28 15 29 76 30 16 31 75 32
REMARK SMILES IDX 17 33 18 34 19 35 69 36 20 37 74 38 68 39 70 40 21 41 73 42
REMARK SMILES IDX 67 43 66 44 22 46 54 47 34 48 53 49 35 50 38 51 52 52 71 53
REMARK SMILES IDX 36 54 37 55 51 57 72 58 39 59 23 60 24 61 32 62 25 63 26 64
REMARK SMILES IDX 30 65 33 66 27 67 28 68 31 69 29 70 55 71 56 72 64 73 57 74
REMARK SMILES IDX 58 75 62 76 65 77 59 78 60 79 63 80 61 81 40 82 41 83 49 84
REMARK SMILES IDX 42 85 43 86 47 87 50 88 44 89 45 90 48 91 46 92
REMARK H PARENT 70 45 38 56
REMARK Flexibility Score: inf
ROOT
ATOM      1  C   UNL A   1      31.404  27.452  26.654  1.00  0.00     0.202 C 
ENDROOT
BRANCH   1   2
ATOM      2  C   UNL A   1      30.614  26.418  25.845  1.00  0.00     0.261 C 
BRANCH   2   3
ATOM      3  O   UNL A   1      31.493  25.382  25.376  1.00  0.00    -0.463 OA
BRANCH   3   4
ATOM      4  C   UNL A   1      32.114  24.651  26.337  1.00  0.00     0.313 C 
ATOM      5  O   UNL A   1      31.527  24.081  27.251  1.00  0.00    -0.252 OA
BRANCH   4   6
ATOM      6  C   UNL A   1      33.629  24.551  26.126  1.00  0.00     0.126 C 
ATOM      7  C   UNL A   1      34.251  25.617  25.205  1.00  0.00     0.025 C 
BRANCH   6   8
ATOM      8  C   UNL A   1      34.100  23.152  25.712  1.00  0.00    -0.033 A 
ATOM      9  C   UNL A   1      35.406  22.761  26.054  1.00  0.00     0.004 A 
ATOM     10  C   UNL A   1      33.293  22.233  25.002  1.00  0.00     0.016 A 
ATOM     11  C   UNL A   1      35.892  21.500  25.711  1.00  0.00     0.001 A 
ATOM     12  C   UNL A   1      33.778  20.961  24.652  1.00  0.00     0.023 A 
ATOM     13  C   UNL A   1      35.081  20.603  25.017  1.00  0.00     0.012 A 
BRANCH  12  14
ATOM     14  C   UNL A   1      32.948  19.932  23.951  1.00  0.00     0.193 C 
ATOM     15  O   UNL A   1      32.153  20.264  23.076  1.00  0.00    -0.289 OA
BRANCH  14  16
ATOM     16  C   UNL A   1      33.062  18.496  24.269  1.00  0.00     0.022 A 
ATOM     17  C   UNL A   1      33.662  17.641  23.341  1.00  0.00     0.012 A 
ATOM     18  C   UNL A   1      32.528  17.990  25.456  1.00  0.00     0.012 A 
ATOM     19  C   UNL A   1      33.787  16.282  23.637  1.00  0.00     0.001 A 
ATOM     20  C   UNL A   1      32.667  16.633  25.751  1.00  0.00     0.001 A 
ATOM     21  C   UNL A   1      33.305  15.783  24.847  1.00  0.00     0.000 A 
ENDBRANCH  14  16
ENDBRANCH  12  14
ENDBRANCH   6   8
ENDBRANCH   4   6
ENDBRANCH   3   4
ENDBRANCH   2   3
ENDBRANCH   1   2
BRANCH   1  22
ATOM     22  O   UNL A   1      32.221  28.349  25.898  1.00  0.00    -0.374 OA
BRANCH  22  23
ATOM     23  C   UNL A   1      31.590  29.538  25.422  1.00  0.00     0.202 C 
BRANCH  23  24
ATOM     24  C   UNL A   1      31.841  30.820  26.212  1.00  0.00     0.261 C 
BRANCH  24  25
ATOM     25  O   UNL A   1      32.809  30.593  27.244  1.00  0.00    -0.460 OA
BRANCH  25  26
ATOM     26  C   UNL A   1      33.572  31.667  27.543  1.00  0.00     0.338 C 
ATOM     27  O   UNL A   1      33.213  32.832  27.626  1.00  0.00    -0.246 OA
BRANCH  26  28
ATOM     28  C   UNL A   1      34.903  31.207  27.973  1.00  0.00     0.060 A 
ATOM     29  C   UNL A   1      35.055  29.836  28.221  1.00  0.00     0.016 A 
ATOM     30  C   UNL A   1      35.973  32.088  28.148  1.00  0.00     0.016 A 
ATOM     31  C   UNL A   1      36.258  29.350  28.714  1.00  0.00     0.010 A 
ATOM     32  C   UNL A   1      37.181  31.599  28.647  1.00  0.00     0.010 A 
ATOM     33  C   UNL A   1      37.311  30.236  28.973  1.00  0.00    -0.014 A 
BRANCH  33  34
ATOM     34  C   UNL A   1      38.482  29.763  29.744  1.00  0.00     0.031 A 
ATOM     35  C   UNL A   1      38.685  30.291  31.137  1.00  0.00     0.074 A 
ATOM     36  C   UNL A   1      39.320  28.851  29.225  1.00  0.00     0.049 A 
ATOM     37  N   UNL A   1      39.649  30.045  31.986  1.00  0.00    -0.248 NA
ATOM     38  C   UNL A   1      37.665  31.226  31.637  1.00  0.00     0.031 C 
ATOM     39  C   UNL A   1      39.189  28.241  27.904  1.00  0.00     0.029 A 
ATOM     40  N   UNL A   1      40.452  28.284  29.750  1.00  0.00    -0.354 N 
ATOM     41  C   UNL A   1      39.358  30.803  33.112  1.00  0.00     0.074 A 
ATOM     42  C   UNL A   1      38.149  31.543  32.828  1.00  0.00     0.031 C 
ATOM     43  C   UNL A   1      40.207  27.384  27.719  1.00  0.00     0.029 A 
ATOM     44  C   UNL A   1      41.078  27.416  28.892  1.00  0.00     0.049 A 
ATOM     45  H   UNL A   1      40.783  28.480  30.657  1.00  0.00     0.167 HD
ATOM     46  C   UNL A   1      40.038  30.867  34.282  1.00  0.00     0.037 A 
ATOM     47  C   UNL A   1      42.236  26.745  29.035  1.00  0.00     0.037 A 
ATOM     48  C   UNL A   1      41.238  30.120  34.554  1.00  0.00     0.049 A 
ATOM     49  C   UNL A   1      43.013  26.890  30.319  1.00  0.00     0.074 A 
ATOM     50  C   UNL A   1      41.991  30.091  35.714  1.00  0.00     0.029 A 
ATOM     51  N   UNL A   1      41.866  29.279  33.646  1.00  0.00    -0.354 N 
ATOM     52  N   UNL A   1      42.720  27.585  31.392  1.00  0.00    -0.248 NA
ATOM     53  C   UNL A   1      44.280  26.153  30.411  1.00  0.00     0.031 C 
ATOM     54  C   UNL A   1      43.109  29.282  35.487  1.00  0.00     0.029 A 
ATOM     55  C   UNL A   1      43.016  28.751  34.209  1.00  0.00     0.049 A 
ATOM     56  H   UNL A   1      41.541  29.085  32.737  1.00  0.00     0.167 HD
ATOM     57  C   UNL A   1      43.745  27.344  32.297  1.00  0.00     0.074 A 
ATOM     58  C   UNL A   1      44.661  26.426  31.651  1.00  0.00     0.031 C 
ATOM     59  C   UNL A   1      43.913  27.833  33.551  1.00  0.00     0.037 A 
BRANCH  46  60
ATOM     60  C   UNL A   1      39.520  31.800  35.339  1.00  0.00     0.064 A 
ATOM     61  C   UNL A   1      39.927  33.140  35.412  1.00  0.00     0.173 A 
ATOM     62  C   UNL A   1      38.577  31.350  36.277  1.00  0.00     0.173 A 
ATOM     63  F   UNL A   1      40.837  33.618  34.550  1.00  0.00    -0.203 F 
ATOM     64  C   UNL A   1      39.432  33.987  36.402  1.00  0.00     0.198 A 
ATOM     65  C   UNL A   1      38.061  32.208  37.244  1.00  0.00     0.198 A 
ATOM     66  F   UNL A   1      38.153  30.078  36.253  1.00  0.00    -0.203 F 
ATOM     67  F   UNL A   1      39.877  35.249  36.484  1.00  0.00    -0.200 F 
ATOM     68  C   UNL A   1      38.494  33.522  37.311  1.00  0.00     0.200 A 
ATOM     69  F   UNL A   1      37.144  31.760  38.113  1.00  0.00    -0.200 F 
ATOM     70  F   UNL A   1      38.014  34.340  38.258  1.00  0.00    -0.200 F 
ENDBRANCH  46  60
BRANCH  47  71
ATOM     71  C   UNL A   1      42.736  25.882  27.933  1.00  0.00     0.064 A 
ATOM     72  C   UNL A   1      42.351  24.538  27.835  1.00  0.00     0.173 A 
ATOM     73  C   UNL A   1      43.620  26.379  26.963  1.00  0.00     0.173 A 
ATOM     74  F   UNL A   1      41.526  24.009  28.750  1.00  0.00    -0.203 F 
ATOM     75  C   UNL A   1      42.846  23.719  26.822  1.00  0.00     0.198 A 
ATOM     76  C   UNL A   1      44.090  25.568  25.933  1.00  0.00     0.198 A 
ATOM     77  F   UNL A   1      44.021  27.658  27.010  1.00  0.00    -0.203 F 
ATOM     78  F   UNL A   1      42.500  22.425  26.781  1.00  0.00    -0.200 F 
ATOM     79  C   UNL A   1      43.709  24.235  25.868  1.00  0.00     0.200 A 
ATOM     80  F   UNL A   1      44.912  26.076  25.005  1.00  0.00    -0.200 F 
ATOM     81  F   UNL A   1      44.182  23.449  24.891  1.00  0.00    -0.200 F 
ENDBRANCH  47  71
BRANCH  59  82
ATOM     82  C   UNL A   1      45.109  27.354  34.325  1.00  0.00     0.064 A 
ATOM     83  C   UNL A   1      46.344  28.016  34.266  1.00  0.00     0.173 A 
ATOM     84  C   UNL A   1      45.002  26.239  35.171  1.00  0.00     0.173 A 
ATOM     85  F   UNL A   1      46.502  29.079  33.462  1.00  0.00    -0.203 F 
ATOM     86  C   UNL A   1      47.436  27.561  35.000  1.00  0.00     0.198 A 
ATOM     87  C   UNL A   1      46.086  25.809  35.931  1.00  0.00     0.198 A 
ATOM     88  F   UNL A   1      43.841  25.574  35.272  1.00  0.00    -0.203 F 
ATOM     89  F   UNL A   1      48.620  28.177  34.885  1.00  0.00    -0.200 F 
ATOM     90  C   UNL A   1      47.304  26.465  35.839  1.00  0.00     0.200 A 
ATOM     91  F   UNL A   1      45.951  24.760  36.755  1.00  0.00    -0.200 F 
ATOM     92  F   UNL A   1      48.354  26.035  36.552  1.00  0.00    -0.200 F 
ENDBRANCH  59  82
ENDBRANCH  33  34
ENDBRANCH  26  28
ENDBRANCH  25  26
ENDBRANCH  24  25
ENDBRANCH  23  24
ENDBRANCH  22  23
ENDBRANCH   1  22
TORSDOF 17
ENDMDL
MODEL 2
REMARK VINA RESULT:     -11.8      3.286      8.602
REMARK SMILES C[C@@H](C(=O)OCCOCCOC(=O)c1ccc(-c2c3nc(c(-c4c(F)c(F)c(F)c(F)c4F)c4ccc([nH]4)c(-c4c(F)c(F)c(F)c(F)c4F)c4nc(c(-c5c(F)c(F)c(F)c(F)c5F)c5ccc2[nH]5)C=C4)C=C3)cc1)c1cccc(C(=O)c2ccccc2)c1
REMARK SMILES IDX 7 1 6 2 5 3 3 4 4 5 2 6 1 7 77 8 78 9 90 10 79 11 81 12
REMARK SMILES IDX 80 13 82 14 83 15 84 16 85 17 89 18 86 19 88 20 87 21 8 22
REMARK SMILES IDX 9 23 10 24 11 25 12 26 13 27 14 28 15 29 76 30 16 31 75 32
REMARK SMILES IDX 17 33 18 34 19 35 69 36 20 37 74 38 68 39 70 40 21 41 73 42
REMARK SMILES IDX 67 43 66 44 22 46 54 47 34 48 53 49 35 50 38 51 52 52 71 53
REMARK SMILES IDX 36 54 37 55 51 57 72 58 39 59 23 60 24 61 32 62 25 63 26 64
REMARK SMILES IDX 30 65 33 66 27 67 28 68 31 69 29 70 55 71 56 72 64 73 57 74
REMARK SMILES IDX 58 75 62 76 65 77 59 78 60 79 63 80 61 81 40 82 41 83 49 84
REMARK SMILES IDX 42 85 43 86 47 87 50 88 44 89 45 90 48 91 46 92
REMARK H PARENT 70 45 38 56
REMARK Flexibility Score: inf
ROOT
ATOM      1  C   UNL A   1      40.304  21.440  26.530  1.00  0.00     0.202 C 
ENDROOT
BRANCH   1   2
ATOM      2  C   UNL A   1      38.902  21.404  25.910  1.00  0.00     0.261 C 
BRANCH   2   3
ATOM      3  O   UNL A   1      38.403  22.741  25.740  1.00  0.00    -0.463 OA
BRANCH   3   4
ATOM      4  C   UNL A   1      37.054  22.864  25.656  1.00  0.00     0.313 C 
ATOM      5  O   UNL A   1      36.376  23.525  26.435  1.00  0.00    -0.252 OA
BRANCH   4   6
ATOM      6  C   UNL A   1      36.464  22.145  24.437  1.00  0.00     0.126 C 
ATOM      7  C   UNL A   1      36.439  22.953  23.127  1.00  0.00     0.025 C 
BRANCH   6   8
ATOM      8  C   UNL A   1      35.089  21.519  24.700  1.00  0.00    -0.033 A 
ATOM      9  C   UNL A   1      34.996  20.118  24.759  1.00  0.00     0.004 A 
ATOM     10  C   UNL A   1      33.908  22.274  24.883  1.00  0.00     0.016 A 
ATOM     11  C   UNL A   1      33.776  19.488  25.000  1.00  0.00     0.001 A 
ATOM     12  C   UNL A   1      32.674  21.644  25.126  1.00  0.00     0.023 A 
ATOM     13  C   UNL A   1      32.622  20.247  25.187  1.00  0.00     0.012 A 
BRANCH  12  14
ATOM     14  C   UNL A   1      31.406  22.396  25.382  1.00  0.00     0.193 C 
ATOM     15  O   UNL A   1      30.436  21.829  25.878  1.00  0.00    -0.289 OA
BRANCH  14  16
ATOM     16  C   UNL A   1      31.278  23.830  25.067  1.00  0.00     0.022 A 
ATOM     17  C   UNL A   1      30.882  24.210  23.781  1.00  0.00     0.012 A 
ATOM     18  C   UNL A   1      31.599  24.796  26.022  1.00  0.00     0.012 A 
ATOM     19  C   UNL A   1      30.743  25.566  23.475  1.00  0.00     0.001 A 
ATOM     20  C   UNL A   1      31.447  26.149  25.713  1.00  0.00     0.001 A 
ATOM     21  C   UNL A   1      31.010  26.532  24.445  1.00  0.00     0.000 A 
ENDBRANCH  14  16
ENDBRANCH  12  14
ENDBRANCH   6   8
ENDBRANCH   4   6
ENDBRANCH   3   4
ENDBRANCH   2   3
ENDBRANCH   1   2
BRANCH   1  22
ATOM     22  O   UNL A   1      41.349  20.856  25.750  1.00  0.00    -0.374 OA
BRANCH  22  23
ATOM     23  C   UNL A   1      42.684  21.081  26.205  1.00  0.00     0.202 C 
BRANCH  23  24
ATOM     24  C   UNL A   1      43.605  21.878  25.284  1.00  0.00     0.261 C 
BRANCH  24  25
ATOM     25  O   UNL A   1      42.967  23.089  24.860  1.00  0.00    -0.460 OA
BRANCH  25  26
ATOM     26  C   UNL A   1      43.701  24.206  25.055  1.00  0.00     0.338 C 
ATOM     27  O   UNL A   1      44.711  24.543  24.457  1.00  0.00    -0.246 OA
BRANCH  26  28
ATOM     28  C   UNL A   1      42.980  25.101  25.977  1.00  0.00     0.060 A 
ATOM     29  C   UNL A   1      43.478  26.404  26.120  1.00  0.00     0.016 A 
ATOM     30  C   UNL A   1      41.860  24.680  26.698  1.00  0.00     0.016 A 
ATOM     31  C   UNL A   1      42.900  27.269  27.038  1.00  0.00     0.010 A 
ATOM     32  C   UNL A   1      41.283  25.550  27.624  1.00  0.00     0.010 A 
ATOM     33  C   UNL A   1      41.829  26.831  27.828  1.00  0.00    -0.014 A 
BRANCH  33  34
ATOM     34  C   UNL A   1      41.398  27.650  28.981  1.00  0.00     0.031 A 
ATOM     35  C   UNL A   1      42.180  27.557  30.261  1.00  0.00     0.074 A 
ATOM     36  C   UNL A   1      40.355  28.489  28.872  1.00  0.00     0.049 A 
ATOM     37  N   UNL A   1      41.974  28.154  31.406  1.00  0.00    -0.248 NA
ATOM     38  C   UNL A   1      43.351  26.666  30.248  1.00  0.00     0.031 C 
ATOM     39  C   UNL A   1      39.557  28.691  27.665  1.00  0.00     0.029 A 
ATOM     40  N   UNL A   1      39.787  29.326  29.798  1.00  0.00    -0.354 N 
ATOM     41  C   UNL A   1      42.980  27.701  32.251  1.00  0.00     0.074 A 
ATOM     42  C   UNL A   1      43.775  26.756  31.499  1.00  0.00     0.031 C 
ATOM     43  C   UNL A   1      38.596  29.593  27.925  1.00  0.00     0.029 A 
ATOM     44  C   UNL A   1      38.691  30.001  29.326  1.00  0.00     0.049 A 
ATOM     45  H   UNL A   1      40.134  29.432  30.713  1.00  0.00     0.167 HD
ATOM     46  C   UNL A   1      43.220  28.054  33.536  1.00  0.00     0.037 A 
ATOM     47  C   UNL A   1      37.849  30.836  29.964  1.00  0.00     0.037 A 
ATOM     48  C   UNL A   1      42.424  29.001  34.271  1.00  0.00     0.049 A 
ATOM     49  C   UNL A   1      38.095  31.154  31.416  1.00  0.00     0.074 A 
ATOM     50  C   UNL A   1      42.595  29.448  35.568  1.00  0.00     0.029 A 
ATOM     51  N   UNL A   1      41.296  29.638  33.772  1.00  0.00    -0.354 N 
ATOM     52  N   UNL A   1      39.063  30.747  32.203  1.00  0.00    -0.248 NA
ATOM     53  C   UNL A   1      37.133  32.052  32.068  1.00  0.00     0.031 C 
ATOM     54  C   UNL A   1      41.534  30.307  35.876  1.00  0.00     0.029 A 
ATOM     55  C   UNL A   1      40.741  30.449  34.748  1.00  0.00     0.049 A 
ATOM     56  H   UNL A   1      40.943  29.529  32.859  1.00  0.00     0.167 HD
ATOM     57  C   UNL A   1      38.847  31.363  33.428  1.00  0.00     0.074 A 
ATOM     58  C   UNL A   1      37.662  32.183  33.276  1.00  0.00     0.031 C 
ATOM     59  C   UNL A   1      39.564  31.264  34.576  1.00  0.00     0.037 A 
BRANCH  46  60
ATOM     60  C   UNL A   1      44.367  27.385  34.238  1.00  0.00     0.064 A 
ATOM     61  C   UNL A   1      45.650  27.952  34.273  1.00  0.00     0.173 A 
ATOM     62  C   UNL A   1      44.171  26.169  34.910  1.00  0.00     0.173 A 
ATOM     63  F   UNL A   1      45.897  29.105  33.633  1.00  0.00    -0.203 F 
ATOM     64  C   UNL A   1      46.699  27.312  34.930  1.00  0.00     0.198 A 
ATOM     65  C   UNL A   1      45.214  25.549  35.594  1.00  0.00     0.198 A 
ATOM     66  F   UNL A   1      42.965  25.582  34.910  1.00  0.00    -0.203 F 
ATOM     67  F   UNL A   1      47.928  27.847  34.904  1.00  0.00    -0.200 F 
ATOM     68  C   UNL A   1      46.478  26.116  35.596  1.00  0.00     0.200 A 
ATOM     69  F   UNL A   1      44.995  24.401  36.248  1.00  0.00    -0.200 F 
ATOM     70  F   UNL A   1      47.486  25.506  36.234  1.00  0.00    -0.200 F 
ENDBRANCH  46  60
BRANCH  47  71
ATOM     71  C   UNL A   1      36.692  31.423  29.239  1.00  0.00     0.064 A 
ATOM     72  C   UNL A   1      36.660  32.784  28.908  1.00  0.00     0.173 A 
ATOM     73  C   UNL A   1      35.588  30.638  28.874  1.00  0.00     0.173 A 
ATOM     74  F   UNL A   1      37.681  33.581  29.255  1.00  0.00    -0.203 F 
ATOM     75  C   UNL A   1      35.561  33.343  28.258  1.00  0.00     0.198 A 
ATOM     76  C   UNL A   1      34.503  31.190  28.196  1.00  0.00     0.198 A 
ATOM     77  F   UNL A   1      35.566  29.329  29.165  1.00  0.00    -0.203 F 
ATOM     78  F   UNL A   1      35.536  34.657  27.998  1.00  0.00    -0.200 F 
ATOM     79  C   UNL A   1      34.486  32.545  27.897  1.00  0.00     0.200 A 
ATOM     80  F   UNL A   1      33.474  30.412  27.836  1.00  0.00    -0.200 F 
ATOM     81  F   UNL A   1      33.431  33.081  27.269  1.00  0.00    -0.200 F 
ENDBRANCH  47  71
BRANCH  59  82
ATOM     82  C   UNL A   1      39.114  32.093  35.745  1.00  0.00     0.064 A 
ATOM     83  C   UNL A   1      38.262  31.580  36.734  1.00  0.00     0.173 A 
ATOM     84  C   UNL A   1      39.580  33.409  35.898  1.00  0.00     0.173 A 
ATOM     85  F   UNL A   1      37.779  30.333  36.627  1.00  0.00    -0.203 F 
ATOM     86  C   UNL A   1      37.867  32.363  37.815  1.00  0.00     0.198 A 
ATOM     87  C   UNL A   1      39.212  34.176  37.000  1.00  0.00     0.198 A 
ATOM     88  F   UNL A   1      40.404  33.946  34.987  1.00  0.00    -0.203 F 
ATOM     89  F   UNL A   1      37.009  31.869  38.718  1.00  0.00    -0.200 F 
ATOM     90  C   UNL A   1      38.349  33.656  37.953  1.00  0.00     0.200 A 
ATOM     91  F   UNL A   1      39.693  35.419  37.140  1.00  0.00    -0.200 F 
ATOM     92  F   UNL A   1      37.976  34.405  39.000  1.00  0.00    -0.200 F 
ENDBRANCH  59  82
ENDBRANCH  33  34
ENDBRANCH  26  28
ENDBRANCH  25  26
ENDBRANCH  24  25
ENDBRANCH  23  24
ENDBRANCH  22  23
ENDBRANCH   1  22
TORSDOF 17
ENDMDL
MODEL 3
REMARK VINA RESULT:     -11.8      0.571      7.398
REMARK SMILES C[C@@H](C(=O)OCCOCCOC(=O)c1ccc(-c2c3nc(c(-c4c(F)c(F)c(F)c(F)c4F)c4ccc([nH]4)c(-c4c(F)c(F)c(F)c(F)c4F)c4nc(c(-c5c(F)c(F)c(F)c(F)c5F)c5ccc2[nH]5)C=C4)C=C3)cc1)c1cccc(C(=O)c2ccccc2)c1
REMARK SMILES IDX 7 1 6 2 5 3 3 4 4 5 2 6 1 7 77 8 78 9 90 10 79 11 81 12
REMARK SMILES IDX 80 13 82 14 83 15 84 16 85 17 89 18 86 19 88 20 87 21 8 22
REMARK SMILES IDX 9 23 10 24 11 25 12 26 13 27 14 28 15 29 76 30 16 31 75 32
REMARK SMILES IDX 17 33 18 34 19 35 69 36 20 37 74 38 68 39 70 40 21 41 73 42
REMARK SMILES IDX 67 43 66 44 22 46 54 47 34 48 53 49 35 50 38 51 52 52 71 53
REMARK SMILES IDX 36 54 37 55 51 57 72 58 39 59 23 60 24 61 32 62 25 63 26 64
REMARK SMILES IDX 30 65 33 66 27 67 28 68 31 69 29 70 55 71 56 72 64 73 57 74
REMARK SMILES IDX 58 75 62 76 65 77 59 78 60 79 63 80 61 81 40 82 41 83 49 84
REMARK SMILES IDX 42 85 43 86 47 87 50 88 44 89 45 90 48 91 46 92
REMARK H PARENT 70 45 38 56
REMARK Flexibility Score: inf
ROOT
ATOM      1  C   UNL A   1      31.796  27.611  26.426  1.00  0.00     0.202 C 
ENDROOT
BRANCH   1   2
ATOM      2  C   UNL A   1      30.860  26.752  25.570  1.00  0.00     0.261 C 
BRANCH   2   3
ATOM      3  O   UNL A   1      31.535  25.552  25.153  1.00  0.00    -0.463 OA
BRANCH   3   4
ATOM      4  C   UNL A   1      32.132  24.835  26.139  1.00  0.00     0.313 C 
ATOM      5  O   UNL A   1      31.526  24.307  27.066  1.00  0.00    -0.252 OA
BRANCH   4   6
ATOM      6  C   UNL A   1      33.645  24.690  25.939  1.00  0.00     0.126 C 
ATOM      7  C   UNL A   1      34.288  25.669  24.939  1.00  0.00     0.025 C 
BRANCH   6   8
ATOM      8  C   UNL A   1      34.090  23.254  25.637  1.00  0.00    -0.033 A 
ATOM      9  C   UNL A   1      35.349  22.837  26.099  1.00  0.00     0.004 A 
ATOM     10  C   UNL A   1      33.303  22.328  24.915  1.00  0.00     0.016 A 
ATOM     11  C   UNL A   1      35.810  21.542  25.861  1.00  0.00     0.001 A 
ATOM     12  C   UNL A   1      33.762  21.021  24.672  1.00  0.00     0.023 A 
ATOM     13  C   UNL A   1      35.018  20.638  25.155  1.00  0.00     0.012 A 
BRANCH  12  14
ATOM     14  C   UNL A   1      32.947  19.985  23.963  1.00  0.00     0.193 C 
ATOM     15  O   UNL A   1      32.148  20.312  23.090  1.00  0.00    -0.289 OA
BRANCH  14  16
ATOM     16  C   UNL A   1      33.080  18.549  24.272  1.00  0.00     0.022 A 
ATOM     17  C   UNL A   1      32.528  18.056  25.457  1.00  0.00     0.012 A 
ATOM     18  C   UNL A   1      33.795  17.705  23.420  1.00  0.00     0.012 A 
ATOM     19  C   UNL A   1      32.634  16.696  25.754  1.00  0.00     0.001 A 
ATOM     20  C   UNL A   1      33.888  16.345  23.716  1.00  0.00     0.001 A 
ATOM     21  C   UNL A   1      33.300  15.839  24.876  1.00  0.00     0.000 A 
ENDBRANCH  14  16
ENDBRANCH  12  14
ENDBRANCH   6   8
ENDBRANCH   4   6
ENDBRANCH   3   4
ENDBRANCH   2   3
ENDBRANCH   1   2
BRANCH   1  22
ATOM     22  O   UNL A   1      32.334  28.775  25.794  1.00  0.00    -0.374 OA
BRANCH  22  23
ATOM     23  C   UNL A   1      31.413  29.829  25.512  1.00  0.00     0.202 C 
BRANCH  23  24
ATOM     24  C   UNL A   1      31.657  31.167  26.206  1.00  0.00     0.261 C 
BRANCH  24  25
ATOM     25  O   UNL A   1      32.627  31.022  27.251  1.00  0.00    -0.460 OA
BRANCH  25  26
ATOM     26  C   UNL A   1      33.411  32.104  27.442  1.00  0.00     0.338 C 
ATOM     27  O   UNL A   1      33.085  33.279  27.372  1.00  0.00    -0.246 OA
BRANCH  26  28
ATOM     28  C   UNL A   1      34.717  31.667  27.967  1.00  0.00     0.060 A 
ATOM     29  C   UNL A   1      34.855  30.307  28.277  1.00  0.00     0.016 A 
ATOM     30  C   UNL A   1      35.773  32.558  28.168  1.00  0.00     0.016 A 
ATOM     31  C   UNL A   1      36.029  29.846  28.858  1.00  0.00     0.010 A 
ATOM     32  C   UNL A   1      36.951  32.093  28.756  1.00  0.00     0.010 A 
ATOM     33  C   UNL A   1      37.063  30.745  29.142  1.00  0.00    -0.014 A 
BRANCH  33  34
ATOM     34  C   UNL A   1      38.188  30.307  29.998  1.00  0.00     0.031 A 
ATOM     35  C   UNL A   1      39.178  29.325  29.436  1.00  0.00     0.074 A 
ATOM     36  C   UNL A   1      38.342  30.806  31.235  1.00  0.00     0.049 A 
ATOM     37  N   UNL A   1      40.219  28.778  30.005  1.00  0.00    -0.248 NA
ATOM     38  C   UNL A   1      38.959  28.901  28.044  1.00  0.00     0.031 C 
ATOM     39  C   UNL A   1      37.468  31.796  31.860  1.00  0.00     0.029 A 
ATOM     40  N   UNL A   1      39.292  30.543  32.187  1.00  0.00    -0.354 N 
ATOM     41  C   UNL A   1      40.771  27.937  29.047  1.00  0.00     0.074 A 
ATOM     42  C   UNL A   1      39.932  28.019  27.872  1.00  0.00     0.031 C 
ATOM     43  C   UNL A   1      37.920  32.055  33.098  1.00  0.00     0.029 A 
ATOM     44  C   UNL A   1      39.091  31.221  33.363  1.00  0.00     0.049 A 
ATOM     45  H   UNL A   1      40.046  29.927  32.042  1.00  0.00     0.167 HD
ATOM     46  C   UNL A   1      41.886  27.173  29.139  1.00  0.00     0.037 A 
ATOM     47  C   UNL A   1      39.767  31.154  34.525  1.00  0.00     0.037 A 
ATOM     48  C   UNL A   1      42.716  27.104  30.313  1.00  0.00     0.049 A 
ATOM     49  C   UNL A   1      40.960  30.239  34.627  1.00  0.00     0.074 A 
ATOM     50  C   UNL A   1      43.880  26.382  30.505  1.00  0.00     0.029 A 
ATOM     51  N   UNL A   1      42.460  27.776  31.500  1.00  0.00    -0.354 N 
ATOM     52  N   UNL A   1      41.495  29.468  33.710  1.00  0.00    -0.248 NA
ATOM     53  C   UNL A   1      41.645  30.189  35.925  1.00  0.00     0.031 C 
ATOM     54  C   UNL A   1      44.294  26.567  31.828  1.00  0.00     0.029 A 
ATOM     55  C   UNL A   1      43.427  27.459  32.440  1.00  0.00     0.049 A 
ATOM     56  H   UNL A   1      41.704  28.388  31.651  1.00  0.00     0.167 HD
ATOM     57  C   UNL A   1      42.596  28.869  34.308  1.00  0.00     0.074 A 
ATOM     58  C   UNL A   1      42.660  29.377  35.663  1.00  0.00     0.031 C 
ATOM     59  C   UNL A   1      43.477  27.981  33.784  1.00  0.00     0.037 A 
BRANCH  46  60
ATOM     60  C   UNL A   1      42.248  26.324  27.955  1.00  0.00     0.064 A 
ATOM     61  C   UNL A   1      41.660  25.070  27.730  1.00  0.00     0.173 A 
ATOM     62  C   UNL A   1      43.180  26.788  27.013  1.00  0.00     0.173 A 
ATOM     63  F   UNL A   1      40.775  24.572  28.606  1.00  0.00    -0.203 F 
ATOM     64  C   UNL A   1      42.013  24.301  26.623  1.00  0.00     0.198 A 
ATOM     65  C   UNL A   1      43.506  26.030  25.891  1.00  0.00     0.198 A 
ATOM     66  F   UNL A   1      43.773  27.980  27.179  1.00  0.00    -0.203 F 
ATOM     67  F   UNL A   1      41.478  23.083  26.458  1.00  0.00    -0.200 F 
ATOM     68  C   UNL A   1      42.930  24.785  25.701  1.00  0.00     0.200 A 
ATOM     69  F   UNL A   1      44.381  26.506  24.995  1.00  0.00    -0.200 F 
ATOM     70  F   UNL A   1      43.262  24.047  24.633  1.00  0.00    -0.200 F 
ENDBRANCH  46  60
BRANCH  47  71
ATOM     71  C   UNL A   1      39.328  31.970  35.688  1.00  0.00     0.064 A 
ATOM     72  C   UNL A   1      39.867  33.242  35.924  1.00  0.00     0.173 A 
ATOM     73  C   UNL A   1      38.372  31.489  36.595  1.00  0.00     0.173 A 
ATOM     74  F   UNL A   1      40.801  33.737  35.099  1.00  0.00    -0.203 F 
ATOM     75  C   UNL A   1      39.482  33.993  37.033  1.00  0.00     0.198 A 
ATOM     76  C   UNL A   1      37.964  32.253  37.686  1.00  0.00     0.198 A 
ATOM     77  F   UNL A   1      37.824  30.278  36.417  1.00  0.00    -0.203 F 
ATOM     78  F   UNL A   1      40.049  35.185  37.261  1.00  0.00    -0.200 F 
ATOM     79  C   UNL A   1      38.526  33.502  37.909  1.00  0.00     0.200 A 
ATOM     80  F   UNL A   1      37.029  31.780  38.521  1.00  0.00    -0.200 F 
ATOM     81  F   UNL A   1      38.153  34.226  38.973  1.00  0.00    -0.200 F 
ENDBRANCH  47  71
BRANCH  59  82
ATOM     82  C   UNL A   1      44.612  27.533  34.661  1.00  0.00     0.064 A 
ATOM     83  C   UNL A   1      45.841  28.208  34.684  1.00  0.00     0.173 A 
ATOM     84  C   UNL A   1      44.448  26.437  35.523  1.00  0.00     0.173 A 
ATOM     85  F   UNL A   1      46.054  29.253  33.870  1.00  0.00    -0.203 F 
ATOM     86  C   UNL A   1      46.876  27.782  35.515  1.00  0.00     0.198 A 
ATOM     87  C   UNL A   1      45.472  26.038  36.378  1.00  0.00     0.198 A 
ATOM     88  F   UNL A   1      43.289  25.762  35.548  1.00  0.00    -0.203 F 
ATOM     89  F   UNL A   1      48.060  28.408  35.479  1.00  0.00    -0.200 F 
ATOM     90  C   UNL A   1      46.687  26.704  36.366  1.00  0.00     0.200 A 
ATOM     91  F   UNL A   1      45.281  25.007  37.213  1.00  0.00    -0.200 F 
ATOM     92  F   UNL A   1      47.681  26.303  37.171  1.00  0.00    -0.200 F 
ENDBRANCH  59  82
ENDBRANCH  33  34
ENDBRANCH  26  28
ENDBRANCH  25  26
ENDBRANCH  24  25
ENDBRANCH  23  24
ENDBRANCH  22  23
ENDBRANCH   1  22
TORSDOF 17
ENDMDL
