MODEL 1
REMARK VINA RESULT:      -9.3      0.000      0.000
REMARK SMILES COC[C@@H](C)CC(=O)N1CC(CC(=O)OCCOCCOC(=O)c2ccc(-c3c4nc(c(-c5c(F)c(F)c(F)c(F)c5F)c5ccc([nH]5)c(-c5c(F)c(F)c(F)c(F)c5F)c5nc(c(-c6c(F)c(F)c(F)c(F)c6F)c6ccc3[nH]6)C=C5)C=C4)cc2)C1
REMARK SMILES IDX 16 1 15 2 13 3 14 4 12 5 11 6 7 7 8 8 9 9 10 10 87 11 6 12
REMARK SMILES IDX 4 13 5 14 3 15 2 16 1 17 17 18 18 19 19 20 20 21 21 22 22 23
REMARK SMILES IDX 23 24 24 25 25 26 86 27 26 28 85 29 27 30 28 31 29 32 79 33
REMARK SMILES IDX 30 34 84 35 78 36 80 37 31 38 83 39 77 40 76 41 32 43 64 44
REMARK SMILES IDX 44 45 63 46 45 47 48 48 62 49 81 50 46 51 47 52 61 54 82 55
REMARK SMILES IDX 49 56 33 57 34 58 42 59 35 60 36 61 40 62 43 63 37 64 38 65
REMARK SMILES IDX 41 66 39 67 65 68 66 69 74 70 67 71 68 72 72 73 75 74 69 75
REMARK SMILES IDX 70 76 73 77 71 78 50 79 51 80 59 81 52 82 53 83 57 84 60 85
REMARK SMILES IDX 54 86 55 87 58 88 56 89
REMARK H PARENT 80 42 48 53
REMARK Flexibility Score: inf
ROOT
ATOM      1  C   UNL A   1      33.352  36.709  29.878  1.00  0.00     0.261 C 
ENDROOT
BRANCH   1   2
ATOM      2  O   UNL A   1      32.972  36.264  31.197  1.00  0.00    -0.463 OA
BRANCH   2   3
ATOM      3  C   UNL A   1      33.444  36.988  32.246  1.00  0.00     0.306 C 
ATOM      4  O   UNL A   1      33.277  38.191  32.400  1.00  0.00    -0.252 OA
BRANCH   3   5
ATOM      5  C   UNL A   1      34.273  36.149  33.191  1.00  0.00     0.130 C 
BRANCH   5   6
ATOM      6  C   UNL A   1      34.754  34.805  32.652  1.00  0.00     0.039 C 
ATOM      7  C   UNL A   1      36.319  31.983  33.098  1.00  0.00     0.222 C 
ATOM      8  O   UNL A   1      35.803  31.284  32.230  1.00  0.00    -0.275 OA
ATOM      9  N   UNL A   1      35.805  33.200  33.501  1.00  0.00    -0.342 N 
ATOM     10  C   UNL A   1      34.382  33.561  33.457  1.00  0.00     0.125 C 
ATOM     11  C   UNL A   1      36.221  34.472  32.906  1.00  0.00     0.125 C 
BRANCH   7  12
ATOM     12  C   UNL A   1      37.529  31.530  33.899  1.00  0.00     0.106 C 
BRANCH  12  13
ATOM     13  C   UNL A   1      37.770  32.278  35.218  1.00  0.00     0.021 C 
ATOM     14  C   UNL A   1      38.842  33.357  35.005  1.00  0.00     0.010 C 
BRANCH  13  15
ATOM     15  C   UNL A   1      38.198  31.330  36.347  1.00  0.00     0.163 C 
BRANCH  15  16
ATOM     16  O   UNL A   1      37.312  31.437  37.453  1.00  0.00    -0.384 OA
ATOM     17  C   UNL A   1      37.654  32.430  38.408  1.00  0.00     0.194 C 
ENDBRANCH  15  16
ENDBRANCH  13  15
ENDBRANCH  12  13
ENDBRANCH   7  12
ENDBRANCH   5   6
ENDBRANCH   3   5
ENDBRANCH   2   3
ENDBRANCH   1   2
BRANCH   1  18
ATOM     18  C   UNL A   1      32.558  35.959  28.804  1.00  0.00     0.202 C 
BRANCH  18  19
ATOM     19  O   UNL A   1      32.899  34.578  28.654  1.00  0.00    -0.374 OA
BRANCH  19  20
ATOM     20  C   UNL A   1      34.282  34.253  28.770  1.00  0.00     0.202 C 
BRANCH  20  21
ATOM     21  C   UNL A   1      34.606  32.766  28.962  1.00  0.00     0.261 C 
BRANCH  21  22
ATOM     22  O   UNL A   1      34.748  32.074  27.709  1.00  0.00    -0.460 OA
BRANCH  22  23
ATOM     23  C   UNL A   1      34.643  30.727  27.802  1.00  0.00     0.338 C 
ATOM     24  O   UNL A   1      33.661  30.043  27.543  1.00  0.00    -0.246 OA
BRANCH  23  25
ATOM     25  C   UNL A   1      35.947  30.127  28.136  1.00  0.00     0.060 A 
ATOM     26  C   UNL A   1      36.080  29.531  29.397  1.00  0.00     0.016 A 
ATOM     27  C   UNL A   1      37.043  30.207  27.279  1.00  0.00     0.016 A 
ATOM     28  C   UNL A   1      37.324  29.067  29.827  1.00  0.00     0.010 A 
ATOM     29  C   UNL A   1      38.289  29.740  27.715  1.00  0.00     0.010 A 
ATOM     30  C   UNL A   1      38.449  29.199  29.002  1.00  0.00    -0.014 A 
BRANCH  30  31
ATOM     31  C   UNL A   1      39.802  28.914  29.549  1.00  0.00     0.031 A 
ATOM     32  C   UNL A   1      40.548  27.698  29.064  1.00  0.00     0.074 A 
ATOM     33  C   UNL A   1      40.389  29.748  30.427  1.00  0.00     0.049 A 
ATOM     34  N   UNL A   1      41.762  27.295  29.350  1.00  0.00    -0.248 NA
ATOM     35  C   UNL A   1      39.827  26.810  28.138  1.00  0.00     0.031 C 
ATOM     36  C   UNL A   1      39.778  30.952  30.988  1.00  0.00     0.029 A 
ATOM     37  N   UNL A   1      41.640  29.712  30.996  1.00  0.00    -0.354 N 
ATOM     38  C   UNL A   1      41.943  26.111  28.645  1.00  0.00     0.074 A 
ATOM     39  C   UNL A   1      40.700  25.830  27.963  1.00  0.00     0.031 C 
ATOM     40  C   UNL A   1      40.664  31.553  31.801  1.00  0.00     0.029 A 
ATOM     41  C   UNL A   1      41.897  30.770  31.832  1.00  0.00     0.049 A 
ATOM     42  H   UNL A   1      42.291  28.994  30.818  1.00  0.00     0.167 HD
ATOM     43  C   UNL A   1      43.052  25.341  28.548  1.00  0.00     0.037 A 
ATOM     44  C   UNL A   1      43.007  31.076  32.534  1.00  0.00     0.037 A 
ATOM     45  C   UNL A   1      44.299  25.625  29.207  1.00  0.00     0.049 A 
ATOM     46  C   UNL A   1      44.226  30.195  32.421  1.00  0.00     0.074 A 
ATOM     47  C   UNL A   1      45.488  24.919  29.146  1.00  0.00     0.029 A 
ATOM     48  N   UNL A   1      44.516  26.704  30.049  1.00  0.00    -0.354 N 
ATOM     49  N   UNL A   1      44.403  29.112  31.706  1.00  0.00    -0.248 NA
ATOM     50  C   UNL A   1      45.406  30.593  33.205  1.00  0.00     0.031 C 
ATOM     51  C   UNL A   1      46.414  25.550  29.983  1.00  0.00     0.029 A 
ATOM     52  C   UNL A   1      45.817  26.677  30.526  1.00  0.00     0.049 A 
ATOM     53  H   UNL A   1      43.847  27.389  30.274  1.00  0.00     0.167 HD
ATOM     54  C   UNL A   1      45.720  28.721  31.922  1.00  0.00     0.074 A 
ATOM     55  C   UNL A   1      46.299  29.689  32.828  1.00  0.00     0.031 C 
ATOM     56  C   UNL A   1      46.388  27.657  31.412  1.00  0.00     0.037 A 
BRANCH  43  57
ATOM     57  C   UNL A   1      42.961  24.109  27.695  1.00  0.00     0.064 A 
ATOM     58  C   UNL A   1      43.259  24.142  26.324  1.00  0.00     0.173 A 
ATOM     59  C   UNL A   1      42.588  22.879  28.257  1.00  0.00     0.173 A 
ATOM     60  F   UNL A   1      43.607  25.296  25.736  1.00  0.00    -0.203 F 
ATOM     61  C   UNL A   1      43.152  22.995  25.541  1.00  0.00     0.198 A 
ATOM     62  C   UNL A   1      42.513  21.729  27.477  1.00  0.00     0.198 A 
ATOM     63  F   UNL A   1      42.299  22.792  29.564  1.00  0.00    -0.203 F 
ATOM     64  F   UNL A   1      43.387  23.062  24.223  1.00  0.00    -0.200 F 
ATOM     65  C   UNL A   1      42.785  21.789  26.119  1.00  0.00     0.200 A 
ATOM     66  F   UNL A   1      42.170  20.561  28.039  1.00  0.00    -0.200 F 
ATOM     67  F   UNL A   1      42.687  20.686  25.365  1.00  0.00    -0.200 F 
ENDBRANCH  43  57
BRANCH  44  68
ATOM     68  C   UNL A   1      43.037  32.295  33.386  1.00  0.00     0.064 A 
ATOM     69  C   UNL A   1      42.570  32.266  34.708  1.00  0.00     0.173 A 
ATOM     70  C   UNL A   1      43.509  33.518  32.888  1.00  0.00     0.173 A 
ATOM     71  F   UNL A   1      42.086  31.126  35.221  1.00  0.00    -0.203 F 
ATOM     72  C   UNL A   1      42.555  33.418  35.492  1.00  0.00     0.198 A 
ATOM     73  C   UNL A   1      43.518  34.663  33.681  1.00  0.00     0.198 A 
ATOM     74  F   UNL A   1      43.966  33.599  31.630  1.00  0.00    -0.203 F 
ATOM     75  F   UNL A   1      42.058  33.373  36.736  1.00  0.00    -0.200 F 
ATOM     76  C   UNL A   1      43.033  34.614  34.980  1.00  0.00     0.200 A 
ATOM     77  F   UNL A   1      43.992  35.814  33.187  1.00  0.00    -0.200 F 
ATOM     78  F   UNL A   1      43.018  35.722  35.733  1.00  0.00    -0.200 F 
ENDBRANCH  44  68
BRANCH  56  79
ATOM     79  C   UNL A   1      47.837  27.507  31.778  1.00  0.00     0.064 A 
ATOM     80  C   UNL A   1      48.263  26.591  32.750  1.00  0.00     0.173 A 
ATOM     81  C   UNL A   1      48.815  28.260  31.111  1.00  0.00     0.173 A 
ATOM     82  F   UNL A   1      47.366  25.856  33.426  1.00  0.00    -0.203 F 
ATOM     83  C   UNL A   1      49.614  26.454  33.061  1.00  0.00     0.198 A 
ATOM     84  C   UNL A   1      50.168  28.099  31.403  1.00  0.00     0.198 A 
ATOM     85  F   UNL A   1      48.462  29.144  30.165  1.00  0.00    -0.203 F 
ATOM     86  F   UNL A   1      49.994  25.607  34.026  1.00  0.00    -0.200 F 
ATOM     87  C   UNL A   1      50.565  27.202  32.382  1.00  0.00     0.200 A 
ATOM     88  F   UNL A   1      51.085  28.813  30.737  1.00  0.00    -0.200 F 
ATOM     89  F   UNL A   1      51.864  27.063  32.679  1.00  0.00    -0.200 F 
ENDBRANCH  56  79
ENDBRANCH  30  31
ENDBRANCH  23  25
ENDBRANCH  22  23
ENDBRANCH  21  22
ENDBRANCH  20  21
ENDBRANCH  19  20
ENDBRANCH  18  19
ENDBRANCH   1  18
TORSDOF 19
ENDMDL
MODEL 2
REMARK VINA RESULT:      -9.3      6.351     11.624
REMARK SMILES COC[C@@H](C)CC(=O)N1CC(CC(=O)OCCOCCOC(=O)c2ccc(-c3c4nc(c(-c5c(F)c(F)c(F)c(F)c5F)c5ccc([nH]5)c(-c5c(F)c(F)c(F)c(F)c5F)c5nc(c(-c6c(F)c(F)c(F)c(F)c6F)c6ccc3[nH]6)C=C5)C=C4)cc2)C1
REMARK SMILES IDX 16 1 15 2 13 3 14 4 12 5 11 6 7 7 8 8 9 9 10 10 87 11 6 12
REMARK SMILES IDX 4 13 5 14 3 15 2 16 1 17 17 18 18 19 19 20 20 21 21 22 22 23
REMARK SMILES IDX 23 24 24 25 25 26 86 27 26 28 85 29 27 30 28 31 29 32 79 33
REMARK SMILES IDX 30 34 84 35 78 36 80 37 31 38 83 39 77 40 76 41 32 43 64 44
REMARK SMILES IDX 44 45 63 46 45 47 48 48 62 49 81 50 46 51 47 52 61 54 82 55
REMARK SMILES IDX 49 56 33 57 34 58 42 59 35 60 36 61 40 62 43 63 37 64 38 65
REMARK SMILES IDX 41 66 39 67 65 68 66 69 74 70 67 71 68 72 72 73 75 74 69 75
REMARK SMILES IDX 70 76 73 77 71 78 50 79 51 80 59 81 52 82 53 83 57 84 60 85
REMARK SMILES IDX 54 86 55 87 58 88 56 89
REMARK H PARENT 80 42 48 53
REMARK Flexibility Score: inf
ROOT
ATOM      1  C   UNL A   1      38.993  21.462  25.737  1.00  0.00     0.261 C 
ENDROOT
BRANCH   1   2
ATOM      2  O   UNL A   1      38.103  22.426  26.338  1.00  0.00    -0.463 OA
BRANCH   2   3
ATOM      3  C   UNL A   1      37.184  23.002  25.519  1.00  0.00     0.306 C 
ATOM      4  O   UNL A   1      37.448  23.686  24.539  1.00  0.00    -0.252 OA
BRANCH   3   5
ATOM      5  C   UNL A   1      35.769  22.761  25.992  1.00  0.00     0.130 C 
BRANCH   5   6
ATOM      6  C   UNL A   1      34.863  21.986  25.039  1.00  0.00     0.039 C 
ATOM      7  C   UNL A   1      32.771  19.551  24.489  1.00  0.00     0.222 C 
ATOM      8  O   UNL A   1      32.171  19.970  23.503  1.00  0.00    -0.275 OA
ATOM      9  N   UNL A   1      33.585  20.341  25.278  1.00  0.00    -0.342 N 
ATOM     10  C   UNL A   1      33.411  21.787  25.471  1.00  0.00     0.125 C 
ATOM     11  C   UNL A   1      35.025  20.470  25.050  1.00  0.00     0.125 C 
BRANCH   7  12
ATOM     12  C   UNL A   1      32.599  18.133  25.008  1.00  0.00     0.106 C 
BRANCH  12  13
ATOM     13  C   UNL A   1      33.639  17.115  24.516  1.00  0.00     0.021 C 
ATOM     14  C   UNL A   1      33.735  17.181  22.985  1.00  0.00     0.010 C 
BRANCH  13  15
ATOM     15  C   UNL A   1      33.298  15.684  24.960  1.00  0.00     0.163 C 
BRANCH  15  16
ATOM     16  O   UNL A   1      34.471  14.994  25.367  1.00  0.00    -0.384 OA
ATOM     17  C   UNL A   1      35.656  15.776  25.386  1.00  0.00     0.194 C 
ENDBRANCH  15  16
ENDBRANCH  13  15
ENDBRANCH  12  13
ENDBRANCH   7  12
ENDBRANCH   5   6
ENDBRANCH   3   5
ENDBRANCH   2   3
ENDBRANCH   1   2
BRANCH   1  18
ATOM     18  C   UNL A   1      40.232  21.250  26.613  1.00  0.00     0.202 C 
BRANCH  18  19
ATOM     19  O   UNL A   1      41.369  20.711  25.933  1.00  0.00    -0.374 OA
BRANCH  19  20
ATOM     20  C   UNL A   1      42.070  19.667  26.607  1.00  0.00     0.202 C 
BRANCH  20  21
ATOM     21  C   UNL A   1      42.858  18.705  25.709  1.00  0.00     0.261 C 
BRANCH  21  22
ATOM     22  O   UNL A   1      44.229  19.107  25.551  1.00  0.00    -0.460 OA
BRANCH  22  23
ATOM     23  C   UNL A   1      44.465  19.856  24.447  1.00  0.00     0.338 C 
ATOM     24  O   UNL A   1      44.245  19.547  23.282  1.00  0.00    -0.246 OA
BRANCH  23  25
ATOM     25  C   UNL A   1      44.913  21.208  24.824  1.00  0.00     0.060 A 
ATOM     26  C   UNL A   1      45.377  21.395  26.132  1.00  0.00     0.016 A 
ATOM     27  C   UNL A   1      44.813  22.293  23.954  1.00  0.00     0.016 A 
ATOM     28  C   UNL A   1      45.685  22.676  26.592  1.00  0.00     0.010 A 
ATOM     29  C   UNL A   1      45.124  23.576  24.421  1.00  0.00     0.010 A 
ATOM     30  C   UNL A   1      45.528  23.785  25.750  1.00  0.00    -0.014 A 
BRANCH  30  31
ATOM     31  C   UNL A   1      45.639  25.158  26.310  1.00  0.00     0.031 A 
ATOM     32  C   UNL A   1      46.963  25.873  26.242  1.00  0.00     0.074 A 
ATOM     33  C   UNL A   1      44.568  25.788  26.828  1.00  0.00     0.049 A 
ATOM     34  N   UNL A   1      47.271  27.094  26.603  1.00  0.00    -0.248 NA
ATOM     35  C   UNL A   1      48.098  25.106  25.703  1.00  0.00     0.031 C 
ATOM     36  C   UNL A   1      43.232  25.211  26.966  1.00  0.00     0.029 A 
ATOM     37  N   UNL A   1      44.436  27.062  27.326  1.00  0.00    -0.354 N 
ATOM     38  C   UNL A   1      48.628  27.236  26.338  1.00  0.00     0.074 A 
ATOM     39  C   UNL A   1      49.098  25.963  25.840  1.00  0.00     0.031 C 
ATOM     40  C   UNL A   1      42.409  26.135  27.490  1.00  0.00     0.029 A 
ATOM     41  C   UNL A   1      43.162  27.363  27.741  1.00  0.00     0.049 A 
ATOM     42  H   UNL A   1      45.185  27.699  27.380  1.00  0.00     0.167 HD
ATOM     43  C   UNL A   1      49.409  28.334  26.469  1.00  0.00     0.037 A 
ATOM     44  C   UNL A   1      42.659  28.504  28.253  1.00  0.00     0.037 A 
ATOM     45  C   UNL A   1      48.945  29.610  26.943  1.00  0.00     0.049 A 
ATOM     46  C   UNL A   1      43.552  29.711  28.402  1.00  0.00     0.074 A 
ATOM     47  C   UNL A   1      49.655  30.790  27.082  1.00  0.00     0.029 A 
ATOM     48  N   UNL A   1      47.648  29.872  27.356  1.00  0.00    -0.354 N 
ATOM     49  N   UNL A   1      44.818  29.848  28.093  1.00  0.00    -0.248 NA
ATOM     50  C   UNL A   1      42.937  30.926  28.957  1.00  0.00     0.031 C 
ATOM     51  C   UNL A   1      48.797  31.756  27.617  1.00  0.00     0.029 A 
ATOM     52  C   UNL A   1      47.540  31.192  27.764  1.00  0.00     0.049 A 
ATOM     53  H   UNL A   1      46.913  29.218  27.359  1.00  0.00     0.167 HD
ATOM     54  C   UNL A   1      45.140  31.170  28.380  1.00  0.00     0.074 A 
ATOM     55  C   UNL A   1      43.934  31.795  28.879  1.00  0.00     0.031 C 
ATOM     56  C   UNL A   1      46.328  31.807  28.240  1.00  0.00     0.037 A 
BRANCH  43  57
ATOM     57  C   UNL A   1      50.856  28.197  26.092  1.00  0.00     0.064 A 
ATOM     58  C   UNL A   1      51.853  28.012  27.063  1.00  0.00     0.173 A 
ATOM     59  C   UNL A   1      51.249  28.232  24.746  1.00  0.00     0.173 A 
ATOM     60  F   UNL A   1      51.531  27.984  28.365  1.00  0.00    -0.203 F 
ATOM     61  C   UNL A   1      53.193  27.904  26.701  1.00  0.00     0.198 A 
ATOM     62  C   UNL A   1      52.586  28.093  24.387  1.00  0.00     0.198 A 
ATOM     63  F   UNL A   1      50.335  28.401  23.779  1.00  0.00    -0.203 F 
ATOM     64  F   UNL A   1      54.134  27.784  27.649  1.00  0.00    -0.200 F 
ATOM     65  C   UNL A   1      53.558  27.938  25.364  1.00  0.00     0.200 A 
ATOM     66  F   UNL A   1      52.936  28.114  23.093  1.00  0.00    -0.200 F 
ATOM     67  F   UNL A   1      54.848  27.831  25.017  1.00  0.00    -0.200 F 
ENDBRANCH  43  57
BRANCH  44  68
ATOM     68  C   UNL A   1      41.223  28.580  28.635  1.00  0.00     0.064 A 
ATOM     69  C   UNL A   1      40.791  28.178  29.907  1.00  0.00     0.173 A 
ATOM     70  C   UNL A   1      40.253  29.032  27.729  1.00  0.00     0.173 A 
ATOM     71  F   UNL A   1      41.678  27.715  30.800  1.00  0.00    -0.203 F 
ATOM     72  C   UNL A   1      39.440  28.205  30.250  1.00  0.00     0.198 A 
ATOM     73  C   UNL A   1      38.906  29.084  28.082  1.00  0.00     0.198 A 
ATOM     74  F   UNL A   1      40.615  29.428  26.500  1.00  0.00    -0.203 F 
ATOM     75  F   UNL A   1      39.049  27.769  31.456  1.00  0.00    -0.200 F 
ATOM     76  C   UNL A   1      38.500  28.662  29.340  1.00  0.00     0.200 A 
ATOM     77  F   UNL A   1      38.002  29.537  27.204  1.00  0.00    -0.200 F 
ATOM     78  F   UNL A   1      37.202  28.688  29.669  1.00  0.00    -0.200 F 
ENDBRANCH  44  68
BRANCH  56  79
ATOM     79  C   UNL A   1      46.377  33.269  28.580  1.00  0.00     0.064 A 
ATOM     80  C   UNL A   1      46.706  33.719  29.867  1.00  0.00     0.173 A 
ATOM     81  C   UNL A   1      46.133  34.233  27.590  1.00  0.00     0.173 A 
ATOM     82  F   UNL A   1      46.935  32.838  30.852  1.00  0.00    -0.203 F 
ATOM     83  C   UNL A   1      46.764  35.080  30.156  1.00  0.00     0.198 A 
ATOM     84  C   UNL A   1      46.221  35.594  27.875  1.00  0.00     0.198 A 
ATOM     85  F   UNL A   1      45.822  33.857  26.339  1.00  0.00    -0.203 F 
ATOM     86  F   UNL A   1      47.034  35.487  31.403  1.00  0.00    -0.200 F 
ATOM     87  C   UNL A   1      46.528  36.016  29.159  1.00  0.00     0.200 A 
ATOM     88  F   UNL A   1      46.007  36.495  26.907  1.00  0.00    -0.200 F 
ATOM     89  F   UNL A   1      46.591  37.325  29.438  1.00  0.00    -0.200 F 
ENDBRANCH  56  79
ENDBRANCH  30  31
ENDBRANCH  23  25
ENDBRANCH  22  23
ENDBRANCH  21  22
ENDBRANCH  20  21
ENDBRANCH  19  20
ENDBRANCH  18  19
ENDBRANCH   1  18
TORSDOF 19
ENDMDL
MODEL 3
REMARK VINA RESULT:      -9.3      3.915     10.215
REMARK SMILES COC[C@@H](C)CC(=O)N1CC(CC(=O)OCCOCCOC(=O)c2ccc(-c3c4nc(c(-c5c(F)c(F)c(F)c(F)c5F)c5ccc([nH]5)c(-c5c(F)c(F)c(F)c(F)c5F)c5nc(c(-c6c(F)c(F)c(F)c(F)c6F)c6ccc3[nH]6)C=C5)C=C4)cc2)C1
REMARK SMILES IDX 16 1 15 2 13 3 14 4 12 5 11 6 7 7 8 8 9 9 10 10 87 11 6 12
REMARK SMILES IDX 4 13 5 14 3 15 2 16 1 17 17 18 18 19 19 20 20 21 21 22 22 23
REMARK SMILES IDX 23 24 24 25 25 26 86 27 26 28 85 29 27 30 28 31 29 32 79 33
REMARK SMILES IDX 30 34 84 35 78 36 80 37 31 38 83 39 77 40 76 41 32 43 64 44
REMARK SMILES IDX 44 45 63 46 45 47 48 48 62 49 81 50 46 51 47 52 61 54 82 55
REMARK SMILES IDX 49 56 33 57 34 58 42 59 35 60 36 61 40 62 43 63 37 64 38 65
REMARK SMILES IDX 41 66 39 67 65 68 66 69 74 70 67 71 68 72 72 73 75 74 69 75
REMARK SMILES IDX 70 76 73 77 71 78 50 79 51 80 59 81 52 82 53 83 57 84 60 85
REMARK SMILES IDX 54 86 55 87 58 88 56 89
REMARK H PARENT 80 42 48 53
REMARK Flexibility Score: inf
ROOT
ATOM      1  C   UNL A   1      34.637  29.010  27.530  1.00  0.00     0.261 C 
ENDROOT
BRANCH   1   2
ATOM      2  O   UNL A   1      33.608  28.938  26.520  1.00  0.00    -0.463 OA
BRANCH   2   3
ATOM      3  C   UNL A   1      32.497  28.220  26.831  1.00  0.00     0.306 C 
ATOM      4  O   UNL A   1      31.839  28.352  27.855  1.00  0.00    -0.252 OA
BRANCH   3   5
ATOM      5  C   UNL A   1      32.187  27.170  25.788  1.00  0.00     0.130 C 
BRANCH   5   6
ATOM      6  C   UNL A   1      31.790  27.689  24.409  1.00  0.00     0.039 C 
ATOM      7  C   UNL A   1      29.673  29.240  22.479  1.00  0.00     0.222 C 
ATOM      8  O   UNL A   1      30.407  29.607  21.566  1.00  0.00    -0.275 OA
ATOM      9  N   UNL A   1      30.142  28.768  23.690  1.00  0.00    -0.342 N 
ATOM     10  C   UNL A   1      31.415  29.167  24.305  1.00  0.00     0.125 C 
ATOM     11  C   UNL A   1      30.376  27.347  23.950  1.00  0.00     0.125 C 
BRANCH   7  12
ATOM     12  C   UNL A   1      28.160  29.363  22.410  1.00  0.00     0.106 C 
BRANCH  12  13
ATOM     13  C   UNL A   1      27.614  30.796  22.315  1.00  0.00     0.021 C 
ATOM     14  C   UNL A   1      27.912  31.365  20.920  1.00  0.00     0.010 C 
BRANCH  13  15
ATOM     15  C   UNL A   1      28.212  31.712  23.394  1.00  0.00     0.163 C 
BRANCH  15  16
ATOM     16  O   UNL A   1      28.221  33.063  22.954  1.00  0.00    -0.384 OA
ATOM     17  C   UNL A   1      29.339  33.829  23.376  1.00  0.00     0.194 C 
ENDBRANCH  15  16
ENDBRANCH  13  15
ENDBRANCH  12  13
ENDBRANCH   7  12
ENDBRANCH   5   6
ENDBRANCH   3   5
ENDBRANCH   2   3
ENDBRANCH   1   2
BRANCH   1  18
ATOM     18  C   UNL A   1      34.861  30.459  27.971  1.00  0.00     0.202 C 
BRANCH  18  19
ATOM     19  O   UNL A   1      34.223  31.446  27.156  1.00  0.00    -0.374 OA
BRANCH  19  20
ATOM     20  C   UNL A   1      32.895  31.808  27.526  1.00  0.00     0.202 C 
BRANCH  20  21
ATOM     21  C   UNL A   1      32.523  33.282  27.323  1.00  0.00     0.261 C 
BRANCH  21  22
ATOM     22  O   UNL A   1      32.293  33.962  28.569  1.00  0.00    -0.460 OA
BRANCH  22  23
ATOM     23  C   UNL A   1      33.145  34.988  28.808  1.00  0.00     0.338 C 
ATOM     24  O   UNL A   1      32.961  36.174  28.565  1.00  0.00    -0.246 OA
BRANCH  23  25
ATOM     25  C   UNL A   1      34.324  34.518  29.557  1.00  0.00     0.060 A 
ATOM     26  C   UNL A   1      35.582  34.725  28.979  1.00  0.00     0.016 A 
ATOM     27  C   UNL A   1      34.211  33.822  30.760  1.00  0.00     0.016 A 
ATOM     28  C   UNL A   1      36.725  34.185  29.570  1.00  0.00     0.010 A 
ATOM     29  C   UNL A   1      35.361  33.282  31.349  1.00  0.00     0.010 A 
ATOM     30  C   UNL A   1      36.620  33.427  30.744  1.00  0.00    -0.014 A 
BRANCH  30  31
ATOM     31  C   UNL A   1      37.800  32.669  31.240  1.00  0.00     0.031 A 
ATOM     32  C   UNL A   1      38.342  32.973  32.612  1.00  0.00     0.074 A 
ATOM     33  C   UNL A   1      38.355  31.687  30.507  1.00  0.00     0.049 A 
ATOM     34  N   UNL A   1      39.314  32.392  33.273  1.00  0.00    -0.248 NA
ATOM     35  C   UNL A   1      37.713  34.089  33.336  1.00  0.00     0.031 C 
ATOM     36  C   UNL A   1      37.939  31.296  29.162  1.00  0.00     0.029 A 
ATOM     37  N   UNL A   1      39.388  30.828  30.800  1.00  0.00    -0.354 N 
ATOM     38  C   UNL A   1      39.410  33.072  34.481  1.00  0.00     0.074 A 
ATOM     39  C   UNL A   1      38.440  34.143  34.441  1.00  0.00     0.031 C 
ATOM     40  C   UNL A   1      38.693  30.260  28.754  1.00  0.00     0.029 A 
ATOM     41  C   UNL A   1      39.655  29.924  29.801  1.00  0.00     0.049 A 
ATOM     42  H   UNL A   1      39.890  30.859  31.647  1.00  0.00     0.167 HD
ATOM     43  C   UNL A   1      40.211  32.814  35.540  1.00  0.00     0.037 A 
ATOM     44  C   UNL A   1      40.565  28.931  29.745  1.00  0.00     0.037 A 
ATOM     45  C   UNL A   1      41.164  31.737  35.596  1.00  0.00     0.049 A 
ATOM     46  C   UNL A   1      41.457  28.670  30.933  1.00  0.00     0.074 A 
ATOM     47  C   UNL A   1      42.001  31.377  36.638  1.00  0.00     0.029 A 
ATOM     48  N   UNL A   1      41.406  30.847  34.561  1.00  0.00    -0.354 N 
ATOM     49  N   UNL A   1      41.497  29.284  32.090  1.00  0.00    -0.248 NA
ATOM     50  C   UNL A   1      42.420  27.565  30.810  1.00  0.00     0.031 C 
ATOM     51  C   UNL A   1      42.778  30.292  36.219  1.00  0.00     0.029 A 
ATOM     52  C   UNL A   1      42.389  29.945  34.935  1.00  0.00     0.049 A 
ATOM     53  H   UNL A   1      40.947  30.853  33.691  1.00  0.00     0.167 HD
ATOM     54  C   UNL A   1      42.459  28.619  32.843  1.00  0.00     0.074 A 
ATOM     55  C   UNL A   1      42.971  27.548  32.015  1.00  0.00     0.031 C 
ATOM     56  C   UNL A   1      42.876  28.871  34.108  1.00  0.00     0.037 A 
BRANCH  43  57
ATOM     57  C   UNL A   1      40.090  33.720  36.731  1.00  0.00     0.064 A 
ATOM     58  C   UNL A   1      40.893  34.863  36.868  1.00  0.00     0.173 A 
ATOM     59  C   UNL A   1      39.150  33.453  37.737  1.00  0.00     0.173 A 
ATOM     60  F   UNL A   1      41.817  35.155  35.940  1.00  0.00    -0.203 F 
ATOM     61  C   UNL A   1      40.783  35.686  37.986  1.00  0.00     0.198 A 
ATOM     62  C   UNL A   1      39.022  34.295  38.838  1.00  0.00     0.198 A 
ATOM     63  F   UNL A   1      38.355  32.377  37.651  1.00  0.00    -0.203 F 
ATOM     64  F   UNL A   1      41.598  36.741  38.123  1.00  0.00    -0.200 F 
ATOM     65  C   UNL A   1      39.844  35.405  38.967  1.00  0.00     0.200 A 
ATOM     66  F   UNL A   1      38.105  34.029  39.779  1.00  0.00    -0.200 F 
ATOM     67  F   UNL A   1      39.736  36.199  40.041  1.00  0.00    -0.200 F 
ENDBRANCH  43  57
BRANCH  44  68
ATOM     68  C   UNL A   1      40.662  28.078  28.531  1.00  0.00     0.064 A 
ATOM     69  C   UNL A   1      39.982  26.854  28.451  1.00  0.00     0.173 A 
ATOM     70  C   UNL A   1      41.455  28.456  27.438  1.00  0.00     0.173 A 
ATOM     71  F   UNL A   1      39.231  26.437  29.481  1.00  0.00    -0.203 F 
ATOM     72  C   UNL A   1      40.109  26.031  27.333  1.00  0.00     0.198 A 
ATOM     73  C   UNL A   1      41.560  27.645  26.310  1.00  0.00     0.198 A 
ATOM     74  F   UNL A   1      42.126  29.617  27.465  1.00  0.00    -0.203 F 
ATOM     75  F   UNL A   1      39.487  24.844  27.303  1.00  0.00    -0.200 F 
ATOM     76  C   UNL A   1      40.894  26.430  26.262  1.00  0.00     0.200 A 
ATOM     77  F   UNL A   1      42.310  28.039  25.272  1.00  0.00    -0.200 F 
ATOM     78  F   UNL A   1      41.016  25.639  25.187  1.00  0.00    -0.200 F 
ENDBRANCH  44  68
BRANCH  56  79
ATOM     79  C   UNL A   1      43.902  27.947  34.699  1.00  0.00     0.064 A 
ATOM     80  C   UNL A   1      43.539  26.764  35.360  1.00  0.00     0.173 A 
ATOM     81  C   UNL A   1      45.270  28.229  34.560  1.00  0.00     0.173 A 
ATOM     82  F   UNL A   1      42.244  26.455  35.529  1.00  0.00    -0.203 F 
ATOM     83  C   UNL A   1      44.508  25.911  35.883  1.00  0.00     0.198 A 
ATOM     84  C   UNL A   1      46.236  27.359  35.059  1.00  0.00     0.198 A 
ATOM     85  F   UNL A   1      45.671  29.343  33.929  1.00  0.00    -0.203 F 
ATOM     86  F   UNL A   1      44.138  24.811  36.552  1.00  0.00    -0.200 F 
ATOM     87  C   UNL A   1      45.855  26.206  35.726  1.00  0.00     0.200 A 
ATOM     88  F   UNL A   1      47.536  27.638  34.894  1.00  0.00    -0.200 F 
ATOM     89  F   UNL A   1      46.784  25.380  36.226  1.00  0.00    -0.200 F 
ENDBRANCH  56  79
ENDBRANCH  30  31
ENDBRANCH  23  25
ENDBRANCH  22  23
ENDBRANCH  21  22
ENDBRANCH  20  21
ENDBRANCH  19  20
ENDBRANCH  18  19
ENDBRANCH   1  18
TORSDOF 19
ENDMDL
