MODEL 1
REMARK VINA RESULT:     -12.2      0.000      0.000
REMARK SMILES Cc1ccc(S(=O)(=O)N2CCN(C(=O)[C@H]3CCCC[C@H]3C(=O)OCCOCCOC(=O)c3ccc(-c4c5nc(c(-c6c(F)c(F)c(F)c(F)c6F)c6ccc([nH]6)c(-c6c(F)c(F)c(F)c(F)c6F)c6nc(c(-c7c(F)c(F)c(F)c(F)c7F)c7ccc4[nH]7)C=C6)C=C5)cc3)CC2)cc1C
REMARK SMILES IDX 25 1 24 2 23 3 21 4 22 5 20 6 15 7 16 8 17 9 19 10 18 11
REMARK SMILES IDX 13 12 9 13 10 14 96 15 11 16 95 17 12 18 14 19 6 20 7 21
REMARK SMILES IDX 8 22 5 23 1 24 2 25 3 26 98 27 4 28 97 29 99 30 26 31 27 32
REMARK SMILES IDX 28 33 29 34 30 35 31 36 32 37 33 38 94 39 34 40 93 41 35 42
REMARK SMILES IDX 36 43 37 44 87 45 38 46 92 47 86 48 88 49 39 50 91 51 85 52
REMARK SMILES IDX 84 53 40 55 72 56 52 57 71 58 53 59 56 60 70 61 89 62 54 63
REMARK SMILES IDX 55 64 69 66 90 67 57 68 41 69 42 70 50 71 43 72 44 73 48 74
REMARK SMILES IDX 51 75 45 76 46 77 49 78 47 79 73 80 74 81 82 82 75 83 76 84
REMARK SMILES IDX 80 85 83 86 77 87 78 88 81 89 79 90 58 91 59 92 67 93 60 94
REMARK SMILES IDX 61 95 65 96 68 97 62 98 63 99 66 100 64 101
REMARK H PARENT 88 54 56 65
REMARK Flexibility Score: inf
ROOT
ATOM      1  C   UNL A   1      35.650  24.161  24.959  1.00  0.00     0.202 C 
ENDROOT
BRANCH   1   2
ATOM      2  C   UNL A   1      34.851  23.963  26.245  1.00  0.00     0.261 C 
BRANCH   2   3
ATOM      3  O   UNL A   1      34.783  22.567  26.600  1.00  0.00    -0.463 OA
BRANCH   3   4
ATOM      4  C   UNL A   1      33.537  22.069  26.757  1.00  0.00     0.309 C 
ATOM      5  O   UNL A   1      32.726  22.476  27.585  1.00  0.00    -0.252 OA
BRANCH   4   6
ATOM      6  C   UNL A   1      33.188  20.926  25.822  1.00  0.00     0.111 C 
ATOM      7  C   UNL A   1      32.167  21.135  24.671  1.00  0.00     0.093 C 
ATOM      8  C   UNL A   1      31.882  19.739  24.066  1.00  0.00     0.014 C 
ATOM      9  C   UNL A   1      33.153  19.033  23.593  1.00  0.00     0.001 C 
ATOM     10  C   UNL A   1      34.480  20.229  25.381  1.00  0.00     0.016 C 
ATOM     11  C   UNL A   1      34.184  18.897  24.705  1.00  0.00     0.001 C 
BRANCH   7  12
ATOM     12  C   UNL A   1      32.609  22.124  23.579  1.00  0.00     0.226 C 
ATOM     13  N   UNL A   1      30.755  25.870  23.057  1.00  0.00    -0.194 NA
ATOM     14  C   UNL A   1      31.605  25.250  22.018  1.00  0.00     0.124 C 
ATOM     15  C   UNL A   1      30.232  24.938  24.079  1.00  0.00     0.124 C 
ATOM     16  C   UNL A   1      32.710  24.402  22.657  1.00  0.00     0.136 C 
ATOM     17  C   UNL A   1      31.364  24.078  24.689  1.00  0.00     0.136 C 
ATOM     18  N   UNL A   1      32.195  23.450  23.652  1.00  0.00    -0.340 N 
ATOM     19  O   UNL A   1      33.318  21.747  22.645  1.00  0.00    -0.275 OA
BRANCH  13  20
ATOM     20  S   UNL A   1      30.538  27.532  23.148  1.00  0.00     0.243 S 
ATOM     21  O   UNL A   1      29.241  27.787  23.744  1.00  0.00    -0.207 OA
ATOM     22  O   UNL A   1      30.908  28.093  21.870  1.00  0.00    -0.207 OA
BRANCH  20  23
ATOM     23  C   UNL A   1      31.745  28.090  24.335  1.00  0.00     0.082 A 
ATOM     24  C   UNL A   1      34.725  29.391  27.171  1.00  0.00     0.044 C 
ATOM     25  C   UNL A   1      33.645  28.970  26.213  1.00  0.00    -0.048 A 
ATOM     26  C   UNL A   1      33.820  27.762  25.518  1.00  0.00     0.005 A 
ATOM     27  C   UNL A   1      32.448  29.692  26.033  1.00  0.00    -0.047 A 
ATOM     28  C   UNL A   1      32.862  27.310  24.613  1.00  0.00     0.022 A 
ATOM     29  C   UNL A   1      31.524  29.268  25.055  1.00  0.00     0.025 A 
ATOM     30  C   UNL A   1      32.045  30.841  26.918  1.00  0.00     0.044 C 
ENDBRANCH  20  23
ENDBRANCH  13  20
ENDBRANCH   7  12
ENDBRANCH   4   6
ENDBRANCH   3   4
ENDBRANCH   2   3
ENDBRANCH   1   2
BRANCH   1  31
ATOM     31  O   UNL A   1      35.741  23.024  24.099  1.00  0.00    -0.374 OA
BRANCH  31  32
ATOM     32  C   UNL A   1      37.047  22.571  23.752  1.00  0.00     0.202 C 
BRANCH  32  33
ATOM     33  C   UNL A   1      37.525  21.298  24.461  1.00  0.00     0.261 C 
BRANCH  33  34
ATOM     34  O   UNL A   1      37.843  21.526  25.845  1.00  0.00    -0.460 OA
BRANCH  34  35
ATOM     35  C   UNL A   1      39.163  21.415  26.140  1.00  0.00     0.338 C 
ATOM     36  O   UNL A   1      39.918  20.516  25.807  1.00  0.00    -0.246 OA
BRANCH  35  37
ATOM     37  C   UNL A   1      39.644  22.623  26.843  1.00  0.00     0.060 A 
ATOM     38  C   UNL A   1      39.008  23.837  26.563  1.00  0.00     0.016 A 
ATOM     39  C   UNL A   1      40.739  22.591  27.705  1.00  0.00     0.016 A 
ATOM     40  C   UNL A   1      39.512  25.024  27.090  1.00  0.00     0.010 A 
ATOM     41  C   UNL A   1      41.247  23.780  28.239  1.00  0.00     0.010 A 
ATOM     42  C   UNL A   1      40.660  25.007  27.896  1.00  0.00    -0.014 A 
BRANCH  42  43
ATOM     43  C   UNL A   1      41.307  26.295  28.245  1.00  0.00     0.031 A 
ATOM     44  C   UNL A   1      42.693  26.582  27.742  1.00  0.00     0.074 A 
ATOM     45  C   UNL A   1      40.633  27.225  28.940  1.00  0.00     0.049 A 
ATOM     46  N   UNL A   1      43.395  27.686  27.805  1.00  0.00    -0.248 NA
ATOM     47  C   UNL A   1      43.385  25.471  27.073  1.00  0.00     0.031 C 
ATOM     48  C   UNL A   1      39.290  27.058  29.490  1.00  0.00     0.029 A 
ATOM     49  N   UNL A   1      40.988  28.503  29.287  1.00  0.00    -0.354 N 
ATOM     50  C   UNL A   1      44.605  27.401  27.185  1.00  0.00     0.074 A 
ATOM     51  C   UNL A   1      44.556  26.015  26.780  1.00  0.00     0.031 C 
ATOM     52  C   UNL A   1      38.923  28.202  30.090  1.00  0.00     0.029 A 
ATOM     53  C   UNL A   1      40.007  29.176  29.971  1.00  0.00     0.049 A 
ATOM     54  H   UNL A   1      41.862  28.900  29.067  1.00  0.00     0.167 HD
ATOM     55  C   UNL A   1      45.657  28.224  26.959  1.00  0.00     0.037 A 
ATOM     56  C   UNL A   1      39.985  30.441  30.429  1.00  0.00     0.037 A 
ATOM     57  C   UNL A   1      45.692  29.609  27.350  1.00  0.00     0.049 A 
ATOM     58  C   UNL A   1      41.152  31.349  30.144  1.00  0.00     0.074 A 
ATOM     59  C   UNL A   1      46.689  30.545  27.137  1.00  0.00     0.029 A 
ATOM     60  N   UNL A   1      44.677  30.255  28.042  1.00  0.00    -0.354 N 
ATOM     61  N   UNL A   1      42.267  31.091  29.503  1.00  0.00    -0.248 NA
ATOM     62  C   UNL A   1      41.045  32.733  30.624  1.00  0.00     0.031 C 
ATOM     63  C   UNL A   1      46.294  31.746  27.735  1.00  0.00     0.029 A 
ATOM     64  C   UNL A   1      45.030  31.574  28.274  1.00  0.00     0.049 A 
ATOM     65  H   UNL A   1      43.832  29.838  28.324  1.00  0.00     0.167 HD
ATOM     66  C   UNL A   1      42.978  32.283  29.477  1.00  0.00     0.074 A 
ATOM     67  C   UNL A   1      42.160  33.270  30.151  1.00  0.00     0.031 C 
ATOM     68  C   UNL A   1      44.199  32.541  28.943  1.00  0.00     0.037 A 
BRANCH  55  69
ATOM     69  C   UNL A   1      46.861  27.649  26.268  1.00  0.00     0.064 A 
ATOM     70  C   UNL A   1      47.004  27.692  24.872  1.00  0.00     0.173 A 
ATOM     71  C   UNL A   1      47.905  27.077  27.013  1.00  0.00     0.173 A 
ATOM     72  F   UNL A   1      46.029  28.210  24.110  1.00  0.00    -0.203 F 
ATOM     73  C   UNL A   1      48.132  27.165  24.248  1.00  0.00     0.198 A 
ATOM     74  C   UNL A   1      49.046  26.580  26.388  1.00  0.00     0.198 A 
ATOM     75  F   UNL A   1      47.822  27.010  28.350  1.00  0.00    -0.203 F 
ATOM     76  F   UNL A   1      48.222  27.173  22.912  1.00  0.00    -0.200 F 
ATOM     77  C   UNL A   1      49.155  26.617  25.007  1.00  0.00     0.200 A 
ATOM     78  F   UNL A   1      50.038  26.061  27.124  1.00  0.00    -0.200 F 
ATOM     79  F   UNL A   1      50.244  26.118  24.406  1.00  0.00    -0.200 F 
ENDBRANCH  55  69
BRANCH  56  80
ATOM     80  C   UNL A   1      38.789  30.936  31.158  1.00  0.00     0.064 A 
ATOM     81  C   UNL A   1      38.705  30.850  32.554  1.00  0.00     0.173 A 
ATOM     82  C   UNL A   1      37.711  31.514  30.473  1.00  0.00     0.173 A 
ATOM     83  F   UNL A   1      39.704  30.287  33.252  1.00  0.00    -0.203 F 
ATOM     84  C   UNL A   1      37.581  31.307  33.237  1.00  0.00     0.198 A 
ATOM     85  C   UNL A   1      36.599  31.996  31.158  1.00  0.00     0.198 A 
ATOM     86  F   UNL A   1      37.746  31.623  29.137  1.00  0.00    -0.203 F 
ATOM     87  F   UNL A   1      37.508  31.176  34.569  1.00  0.00    -0.200 F 
ATOM     88  C   UNL A   1      36.531  31.886  32.539  1.00  0.00     0.200 A 
ATOM     89  F   UNL A   1      35.593  32.567  30.482  1.00  0.00    -0.200 F 
ATOM     90  F   UNL A   1      35.453  32.333  33.196  1.00  0.00    -0.200 F 
ENDBRANCH  56  80
BRANCH  68  91
ATOM     91  C   UNL A   1      44.703  33.952  29.037  1.00  0.00     0.064 A 
ATOM     92  C   UNL A   1      45.482  34.388  30.119  1.00  0.00     0.173 A 
ATOM     93  C   UNL A   1      44.418  34.875  28.018  1.00  0.00     0.173 A 
ATOM     94  F   UNL A   1      45.773  33.546  31.122  1.00  0.00    -0.203 F 
ATOM     95  C   UNL A   1      45.925  35.705  30.197  1.00  0.00     0.198 A 
ATOM     96  C   UNL A   1      44.889  36.183  28.085  1.00  0.00     0.198 A 
ATOM     97  F   UNL A   1      43.686  34.506  26.956  1.00  0.00    -0.203 F 
ATOM     98  F   UNL A   1      46.617  36.114  31.269  1.00  0.00    -0.200 F 
ATOM     99  C   UNL A   1      45.631  36.601  29.179  1.00  0.00     0.200 A 
ATOM    100  F   UNL A   1      44.617  37.043  27.093  1.00  0.00    -0.200 F 
ATOM    101  F   UNL A   1      46.057  37.869  29.257  1.00  0.00    -0.200 F 
ENDBRANCH  68  91
ENDBRANCH  42  43
ENDBRANCH  35  37
ENDBRANCH  34  35
ENDBRANCH  33  34
ENDBRANCH  32  33
ENDBRANCH  31  32
ENDBRANCH   1  31
TORSDOF 17
ENDMDL
MODEL 2
REMARK VINA RESULT:     -12.0      1.841      2.865
REMARK SMILES Cc1ccc(S(=O)(=O)N2CCN(C(=O)[C@H]3CCCC[C@H]3C(=O)OCCOCCOC(=O)c3ccc(-c4c5nc(c(-c6c(F)c(F)c(F)c(F)c6F)c6ccc([nH]6)c(-c6c(F)c(F)c(F)c(F)c6F)c6nc(c(-c7c(F)c(F)c(F)c(F)c7F)c7ccc4[nH]7)C=C6)C=C5)cc3)CC2)cc1C
REMARK SMILES IDX 25 1 24 2 23 3 21 4 22 5 20 6 15 7 16 8 17 9 19 10 18 11
REMARK SMILES IDX 13 12 9 13 10 14 96 15 11 16 95 17 12 18 14 19 6 20 7 21
REMARK SMILES IDX 8 22 5 23 1 24 2 25 3 26 98 27 4 28 97 29 99 30 26 31 27 32
REMARK SMILES IDX 28 33 29 34 30 35 31 36 32 37 33 38 94 39 34 40 93 41 35 42
REMARK SMILES IDX 36 43 37 44 87 45 38 46 92 47 86 48 88 49 39 50 91 51 85 52
REMARK SMILES IDX 84 53 40 55 72 56 52 57 71 58 53 59 56 60 70 61 89 62 54 63
REMARK SMILES IDX 55 64 69 66 90 67 57 68 41 69 42 70 50 71 43 72 44 73 48 74
REMARK SMILES IDX 51 75 45 76 46 77 49 78 47 79 73 80 74 81 82 82 75 83 76 84
REMARK SMILES IDX 80 85 83 86 77 87 78 88 81 89 79 90 58 91 59 92 67 93 60 94
REMARK SMILES IDX 61 95 65 96 68 97 62 98 63 99 66 100 64 101
REMARK H PARENT 88 54 56 65
REMARK Flexibility Score: inf
ROOT
ATOM      1  C   UNL A   1      37.998  23.703  25.864  1.00  0.00     0.202 C 
ENDROOT
BRANCH   1   2
ATOM      2  C   UNL A   1      36.479  23.623  26.003  1.00  0.00     0.261 C 
BRANCH   2   3
ATOM      3  O   UNL A   1      36.045  22.256  26.145  1.00  0.00    -0.463 OA
BRANCH   3   4
ATOM      4  C   UNL A   1      34.829  22.090  26.709  1.00  0.00     0.309 C 
ATOM      5  O   UNL A   1      34.489  22.576  27.785  1.00  0.00    -0.252 OA
BRANCH   4   6
ATOM      6  C   UNL A   1      33.873  21.226  25.909  1.00  0.00     0.111 C 
ATOM      7  C   UNL A   1      32.668  21.865  25.167  1.00  0.00     0.093 C 
ATOM      8  C   UNL A   1      31.790  20.700  24.650  1.00  0.00     0.014 C 
ATOM      9  C   UNL A   1      32.567  19.727  23.763  1.00  0.00     0.001 C 
ATOM     10  C   UNL A   1      34.681  20.251  25.045  1.00  0.00     0.016 C 
ATOM     11  C   UNL A   1      33.792  19.158  24.468  1.00  0.00     0.001 C 
BRANCH   7  12
ATOM     12  C   UNL A   1      33.041  22.819  24.019  1.00  0.00     0.226 C 
ATOM     13  N   UNL A   1      30.745  26.227  23.096  1.00  0.00    -0.194 NA
ATOM     14  C   UNL A   1      31.730  25.651  22.156  1.00  0.00     0.124 C 
ATOM     15  C   UNL A   1      30.289  25.314  24.165  1.00  0.00     0.124 C 
ATOM     16  C   UNL A   1      32.896  25.012  22.917  1.00  0.00     0.136 C 
ATOM     17  C   UNL A   1      31.485  24.664  24.899  1.00  0.00     0.136 C 
ATOM     18  N   UNL A   1      32.452  24.078  23.961  1.00  0.00    -0.340 N 
ATOM     19  O   UNL A   1      33.848  22.471  23.156  1.00  0.00    -0.275 OA
BRANCH  13  20
ATOM     20  S   UNL A   1      30.306  27.847  23.037  1.00  0.00     0.243 S 
ATOM     21  O   UNL A   1      28.943  27.964  23.519  1.00  0.00    -0.207 OA
ATOM     22  O   UNL A   1      30.701  28.361  21.747  1.00  0.00    -0.207 OA
BRANCH  20  23
ATOM     23  C   UNL A   1      31.332  28.647  24.256  1.00  0.00     0.082 A 
ATOM     24  C   UNL A   1      33.879  30.533  27.184  1.00  0.00     0.044 C 
ATOM     25  C   UNL A   1      32.944  29.908  26.184  1.00  0.00    -0.048 A 
ATOM     26  C   UNL A   1      33.271  28.636  25.689  1.00  0.00     0.005 A 
ATOM     27  C   UNL A   1      31.735  30.507  25.778  1.00  0.00    -0.047 A 
ATOM     28  C   UNL A   1      32.453  27.996  24.759  1.00  0.00     0.022 A 
ATOM     29  C   UNL A   1      30.959  29.890  24.776  1.00  0.00     0.025 A 
ATOM     30  C   UNL A   1      31.164  31.731  26.445  1.00  0.00     0.044 C 
ENDBRANCH  20  23
ENDBRANCH  13  20
ENDBRANCH   7  12
ENDBRANCH   4   6
ENDBRANCH   3   4
ENDBRANCH   2   3
ENDBRANCH   1   2
BRANCH   1  31
ATOM     31  O   UNL A   1      38.739  22.678  26.527  1.00  0.00    -0.374 OA
BRANCH  31  32
ATOM     32  C   UNL A   1      39.153  21.561  25.745  1.00  0.00     0.202 C 
BRANCH  32  33
ATOM     33  C   UNL A   1      39.922  20.466  26.494  1.00  0.00     0.261 C 
BRANCH  33  34
ATOM     34  O   UNL A   1      40.621  19.578  25.604  1.00  0.00    -0.460 OA
BRANCH  34  35
ATOM     35  C   UNL A   1      41.911  19.341  25.952  1.00  0.00     0.338 C 
ATOM     36  O   UNL A   1      42.515  18.285  25.858  1.00  0.00    -0.246 OA
BRANCH  35  37
ATOM     37  C   UNL A   1      42.579  20.592  26.368  1.00  0.00     0.060 A 
ATOM     38  C   UNL A   1      42.563  20.918  27.728  1.00  0.00     0.016 A 
ATOM     39  C   UNL A   1      43.148  21.469  25.445  1.00  0.00     0.016 A 
ATOM     40  C   UNL A   1      43.054  22.152  28.152  1.00  0.00     0.010 A 
ATOM     41  C   UNL A   1      43.644  22.707  25.868  1.00  0.00     0.010 A 
ATOM     42  C   UNL A   1      43.556  23.071  27.220  1.00  0.00    -0.014 A 
BRANCH  42  43
ATOM     43  C   UNL A   1      43.848  24.454  27.666  1.00  0.00     0.031 A 
ATOM     44  C   UNL A   1      45.268  24.945  27.660  1.00  0.00     0.074 A 
ATOM     45  C   UNL A   1      42.847  25.283  28.001  1.00  0.00     0.049 A 
ATOM     46  N   UNL A   1      45.739  26.148  27.875  1.00  0.00    -0.248 NA
ATOM     47  C   UNL A   1      46.301  23.941  27.372  1.00  0.00     0.031 C 
ATOM     48  C   UNL A   1      41.433  24.920  28.055  1.00  0.00     0.029 A 
ATOM     49  N   UNL A   1      42.872  26.611  28.343  1.00  0.00    -0.354 N 
ATOM     50  C   UNL A   1      47.118  26.042  27.745  1.00  0.00     0.074 A 
ATOM     51  C   UNL A   1      47.412  24.655  27.466  1.00  0.00     0.031 C 
ATOM     52  C   UNL A   1      40.719  26.006  28.391  1.00  0.00     0.029 A 
ATOM     53  C   UNL A   1      41.627  27.138  28.580  1.00  0.00     0.049 A 
ATOM     54  H   UNL A   1      43.702  27.136  28.411  1.00  0.00     0.167 HD
ATOM     55  C   UNL A   1      48.056  27.016  27.836  1.00  0.00     0.037 A 
ATOM     56  C   UNL A   1      41.265  28.395  28.894  1.00  0.00     0.037 A 
ATOM     57  C   UNL A   1      47.754  28.399  28.098  1.00  0.00     0.049 A 
ATOM     58  C   UNL A   1      42.319  29.469  28.964  1.00  0.00     0.074 A 
ATOM     59  C   UNL A   1      48.621  29.476  28.172  1.00  0.00     0.029 A 
ATOM     60  N   UNL A   1      46.480  28.894  28.333  1.00  0.00    -0.354 N 
ATOM     61  N   UNL A   1      43.613  29.375  28.779  1.00  0.00    -0.248 NA
ATOM     62  C   UNL A   1      41.854  30.830  29.259  1.00  0.00     0.031 C 
ATOM     63  C   UNL A   1      47.874  30.615  28.492  1.00  0.00     0.029 A 
ATOM     64  C   UNL A   1      46.537  30.258  28.564  1.00  0.00     0.049 A 
ATOM     65  H   UNL A   1      45.656  28.355  28.334  1.00  0.00     0.167 HD
ATOM     66  C   UNL A   1      44.113  30.664  28.906  1.00  0.00     0.074 A 
ATOM     67  C   UNL A   1      42.978  31.526  29.165  1.00  0.00     0.031 C 
ATOM     68  C   UNL A   1      45.395  31.099  28.816  1.00  0.00     0.037 A 
BRANCH  55  69
ATOM     69  C   UNL A   1      49.495  26.622  27.662  1.00  0.00     0.064 A 
ATOM     70  C   UNL A   1      50.073  26.470  26.391  1.00  0.00     0.173 A 
ATOM     71  C   UNL A   1      50.321  26.427  28.781  1.00  0.00     0.173 A 
ATOM     72  F   UNL A   1      49.326  26.626  25.288  1.00  0.00    -0.203 F 
ATOM     73  C   UNL A   1      51.412  26.115  26.249  1.00  0.00     0.198 A 
ATOM     74  C   UNL A   1      51.667  26.104  28.634  1.00  0.00     0.198 A 
ATOM     75  F   UNL A   1      49.822  26.559  30.019  1.00  0.00    -0.203 F 
ATOM     76  F   UNL A   1      51.927  25.928  25.026  1.00  0.00    -0.200 F 
ATOM     77  C   UNL A   1      52.210  25.941  27.369  1.00  0.00     0.200 A 
ATOM     78  F   UNL A   1      52.439  25.946  29.718  1.00  0.00    -0.200 F 
ATOM     79  F   UNL A   1      53.500  25.608  27.229  1.00  0.00    -0.200 F 
ENDBRANCH  55  69
BRANCH  56  80
ATOM     80  C   UNL A   1      39.830  28.712  29.113  1.00  0.00     0.064 A 
ATOM     81  C   UNL A   1      39.021  29.166  28.064  1.00  0.00     0.173 A 
ATOM     82  C   UNL A   1      39.240  28.557  30.375  1.00  0.00     0.173 A 
ATOM     83  F   UNL A   1      39.547  29.347  26.843  1.00  0.00    -0.203 F 
ATOM     84  C   UNL A   1      37.678  29.470  28.271  1.00  0.00     0.198 A 
ATOM     85  C   UNL A   1      37.890  28.835  30.576  1.00  0.00     0.198 A 
ATOM     86  F   UNL A   1      39.972  28.121  31.411  1.00  0.00    -0.203 F 
ATOM     87  F   UNL A   1      36.935  29.941  27.260  1.00  0.00    -0.200 F 
ATOM     88  C   UNL A   1      37.112  29.298  29.525  1.00  0.00     0.200 A 
ATOM     89  F   UNL A   1      37.343  28.655  31.785  1.00  0.00    -0.200 F 
ATOM     90  F   UNL A   1      35.818  29.584  29.723  1.00  0.00    -0.200 F 
ENDBRANCH  56  80
BRANCH  68  91
ATOM     91  C   UNL A   1      45.630  32.574  28.963  1.00  0.00     0.064 A 
ATOM     92  C   UNL A   1      45.906  33.157  30.209  1.00  0.00     0.173 A 
ATOM     93  C   UNL A   1      45.598  33.412  27.838  1.00  0.00     0.173 A 
ATOM     94  F   UNL A   1      45.938  32.400  31.316  1.00  0.00    -0.203 F 
ATOM     95  C   UNL A   1      46.103  34.530  30.328  1.00  0.00     0.198 A 
ATOM     96  C   UNL A   1      45.827  34.780  27.957  1.00  0.00     0.198 A 
ATOM     97  F   UNL A   1      45.350  32.903  26.621  1.00  0.00    -0.203 F 
ATOM     98  F   UNL A   1      46.306  35.072  31.536  1.00  0.00    -0.200 F 
ATOM     99  C   UNL A   1      46.067  35.340  29.203  1.00  0.00     0.200 A 
ATOM    100  F   UNL A   1      45.806  35.559  26.866  1.00  0.00    -0.200 F 
ATOM    101  F   UNL A   1      46.255  36.661  29.320  1.00  0.00    -0.200 F 
ENDBRANCH  68  91
ENDBRANCH  42  43
ENDBRANCH  35  37
ENDBRANCH  34  35
ENDBRANCH  33  34
ENDBRANCH  32  33
ENDBRANCH  31  32
ENDBRANCH   1  31
TORSDOF 17
ENDMDL
MODEL 3
REMARK VINA RESULT:     -11.9      2.426      4.298
REMARK SMILES Cc1ccc(S(=O)(=O)N2CCN(C(=O)[C@H]3CCCC[C@H]3C(=O)OCCOCCOC(=O)c3ccc(-c4c5nc(c(-c6c(F)c(F)c(F)c(F)c6F)c6ccc([nH]6)c(-c6c(F)c(F)c(F)c(F)c6F)c6nc(c(-c7c(F)c(F)c(F)c(F)c7F)c7ccc4[nH]7)C=C6)C=C5)cc3)CC2)cc1C
REMARK SMILES IDX 25 1 24 2 23 3 21 4 22 5 20 6 15 7 16 8 17 9 19 10 18 11
REMARK SMILES IDX 13 12 9 13 10 14 96 15 11 16 95 17 12 18 14 19 6 20 7 21
REMARK SMILES IDX 8 22 5 23 1 24 2 25 3 26 98 27 4 28 97 29 99 30 26 31 27 32
REMARK SMILES IDX 28 33 29 34 30 35 31 36 32 37 33 38 94 39 34 40 93 41 35 42
REMARK SMILES IDX 36 43 37 44 87 45 38 46 92 47 86 48 88 49 39 50 91 51 85 52
REMARK SMILES IDX 84 53 40 55 72 56 52 57 71 58 53 59 56 60 70 61 89 62 54 63
REMARK SMILES IDX 55 64 69 66 90 67 57 68 41 69 42 70 50 71 43 72 44 73 48 74
REMARK SMILES IDX 51 75 45 76 46 77 49 78 47 79 73 80 74 81 82 82 75 83 76 84
REMARK SMILES IDX 80 85 83 86 77 87 78 88 81 89 79 90 58 91 59 92 67 93 60 94
REMARK SMILES IDX 61 95 65 96 68 97 62 98 63 99 66 100 64 101
REMARK H PARENT 88 54 56 65
REMARK Flexibility Score: inf
ROOT
ATOM      1  C   UNL A   1      40.958  21.505  27.628  1.00  0.00     0.202 C 
ENDROOT
BRANCH   1   2
ATOM      2  C   UNL A   1      40.030  22.518  26.961  1.00  0.00     0.261 C 
BRANCH   2   3
ATOM      3  O   UNL A   1      39.114  21.864  26.062  1.00  0.00    -0.463 OA
BRANCH   3   4
ATOM      4  C   UNL A   1      37.932  22.493  25.878  1.00  0.00     0.309 C 
ATOM      5  O   UNL A   1      37.795  23.713  25.837  1.00  0.00    -0.252 OA
BRANCH   4   6
ATOM      6  C   UNL A   1      36.738  21.570  25.729  1.00  0.00     0.111 C 
ATOM      7  C   UNL A   1      35.319  22.151  25.482  1.00  0.00     0.093 C 
ATOM      8  C   UNL A   1      34.324  20.972  25.601  1.00  0.00     0.014 C 
ATOM      9  C   UNL A   1      34.655  19.825  24.646  1.00  0.00     0.001 C 
ATOM     10  C   UNL A   1      37.107  20.423  24.782  1.00  0.00     0.016 C 
ATOM     11  C   UNL A   1      36.073  19.306  24.839  1.00  0.00     0.001 C 
BRANCH   7  12
ATOM     12  C   UNL A   1      35.140  22.885  24.141  1.00  0.00     0.226 C 
ATOM     13  N   UNL A   1      31.716  25.179  23.277  1.00  0.00    -0.194 NA
ATOM     14  C   UNL A   1      32.649  24.714  22.228  1.00  0.00     0.124 C 
ATOM     15  C   UNL A   1      31.790  24.441  24.556  1.00  0.00     0.124 C 
ATOM     16  C   UNL A   1      34.079  24.631  22.774  1.00  0.00     0.136 C 
ATOM     17  C   UNL A   1      33.246  24.351  25.070  1.00  0.00     0.136 C 
ATOM     18  N   UNL A   1      34.167  23.871  24.030  1.00  0.00    -0.340 N 
ATOM     19  O   UNL A   1      35.847  22.598  23.174  1.00  0.00    -0.275 OA
BRANCH  13  20
ATOM     20  S   UNL A   1      30.760  26.544  23.070  1.00  0.00     0.243 S 
ATOM     21  O   UNL A   1      29.415  26.225  23.507  1.00  0.00    -0.207 OA
ATOM     22  O   UNL A   1      31.025  27.068  21.751  1.00  0.00    -0.207 OA
BRANCH  20  23
ATOM     23  C   UNL A   1      31.392  27.729  24.242  1.00  0.00     0.082 A 
ATOM     24  C   UNL A   1      32.938  30.652  27.014  1.00  0.00     0.044 C 
ATOM     25  C   UNL A   1      32.393  29.594  26.094  1.00  0.00    -0.048 A 
ATOM     26  C   UNL A   1      32.746  29.662  24.737  1.00  0.00     0.005 A 
ATOM     27  C   UNL A   1      31.609  28.512  26.541  1.00  0.00    -0.047 A 
ATOM     28  C   UNL A   1      32.277  28.718  23.826  1.00  0.00     0.022 A 
ATOM     29  C   UNL A   1      31.073  27.610  25.598  1.00  0.00     0.025 A 
ATOM     30  C   UNL A   1      31.401  28.198  27.999  1.00  0.00     0.044 C 
ENDBRANCH  20  23
ENDBRANCH  13  20
ENDBRANCH   7  12
ENDBRANCH   4   6
ENDBRANCH   3   4
ENDBRANCH   2   3
ENDBRANCH   1   2
BRANCH   1  31
ATOM     31  O   UNL A   1      41.006  20.212  27.025  1.00  0.00    -0.374 OA
BRANCH  31  32
ATOM     32  C   UNL A   1      42.120  19.382  27.347  1.00  0.00     0.202 C 
BRANCH  32  33
ATOM     33  C   UNL A   1      42.767  18.641  26.171  1.00  0.00     0.261 C 
BRANCH  33  34
ATOM     34  O   UNL A   1      42.881  19.466  24.998  1.00  0.00    -0.460 OA
BRANCH  34  35
ATOM     35  C   UNL A   1      44.154  19.647  24.564  1.00  0.00     0.338 C 
ATOM     36  O   UNL A   1      44.826  18.865  23.912  1.00  0.00    -0.246 OA
BRANCH  35  37
ATOM     37  C   UNL A   1      44.624  21.012  24.880  1.00  0.00     0.060 A 
ATOM     38  C   UNL A   1      45.306  21.205  26.085  1.00  0.00     0.016 A 
ATOM     39  C   UNL A   1      44.345  22.100  24.053  1.00  0.00     0.016 A 
ATOM     40  C   UNL A   1      45.645  22.493  26.494  1.00  0.00     0.010 A 
ATOM     41  C   UNL A   1      44.686  23.394  24.458  1.00  0.00     0.010 A 
ATOM     42  C   UNL A   1      45.298  23.599  25.704  1.00  0.00    -0.014 A 
BRANCH  42  43
ATOM     43  C   UNL A   1      45.458  24.959  26.271  1.00  0.00     0.031 A 
ATOM     44  C   UNL A   1      46.794  25.640  26.187  1.00  0.00     0.074 A 
ATOM     45  C   UNL A   1      44.400  25.606  26.787  1.00  0.00     0.049 A 
ATOM     46  N   UNL A   1      47.128  26.870  26.487  1.00  0.00    -0.248 NA
ATOM     47  C   UNL A   1      47.910  24.820  25.694  1.00  0.00     0.031 C 
ATOM     48  C   UNL A   1      43.058  25.048  26.932  1.00  0.00     0.029 A 
ATOM     49  N   UNL A   1      44.292  26.886  27.269  1.00  0.00    -0.354 N 
ATOM     50  C   UNL A   1      48.488  26.969  26.218  1.00  0.00     0.074 A 
ATOM     51  C   UNL A   1      48.924  25.669  25.762  1.00  0.00     0.031 C 
ATOM     52  C   UNL A   1      42.252  25.988  27.452  1.00  0.00     0.029 A 
ATOM     53  C   UNL A   1      43.023  27.210  27.678  1.00  0.00     0.049 A 
ATOM     54  H   UNL A   1      45.051  27.511  27.317  1.00  0.00     0.167 HD
ATOM     55  C   UNL A   1      49.298  28.049  26.328  1.00  0.00     0.037 A 
ATOM     56  C   UNL A   1      42.539  28.369  28.161  1.00  0.00     0.037 A 
ATOM     57  C   UNL A   1      48.852  29.345  26.768  1.00  0.00     0.049 A 
ATOM     58  C   UNL A   1      43.449  29.566  28.250  1.00  0.00     0.074 A 
ATOM     59  C   UNL A   1      49.577  30.519  26.878  1.00  0.00     0.029 A 
ATOM     60  N   UNL A   1      47.557  29.634  27.174  1.00  0.00    -0.354 N 
ATOM     61  N   UNL A   1      44.717  29.670  27.936  1.00  0.00    -0.248 NA
ATOM     62  C   UNL A   1      42.848  30.815  28.736  1.00  0.00     0.031 C 
ATOM     63  C   UNL A   1      48.730  31.509  27.390  1.00  0.00     0.029 A 
ATOM     64  C   UNL A   1      47.465  30.965  27.547  1.00  0.00     0.049 A 
ATOM     65  H   UNL A   1      46.814  28.990  27.192  1.00  0.00     0.167 HD
ATOM     66  C   UNL A   1      45.060  30.998  28.156  1.00  0.00     0.074 A 
ATOM     67  C   UNL A   1      43.858  31.665  28.614  1.00  0.00     0.031 C 
ATOM     68  C   UNL A   1      46.259  31.611  27.995  1.00  0.00     0.037 A 
BRANCH  55  69
ATOM     69  C   UNL A   1      50.749  27.876  25.978  1.00  0.00     0.064 A 
ATOM     70  C   UNL A   1      51.718  27.603  26.956  1.00  0.00     0.173 A 
ATOM     71  C   UNL A   1      51.173  27.948  24.642  1.00  0.00     0.173 A 
ATOM     72  F   UNL A   1      51.372  27.541  28.251  1.00  0.00    -0.203 F 
ATOM     73  C   UNL A   1      53.057  27.433  26.613  1.00  0.00     0.198 A 
ATOM     74  C   UNL A   1      52.507  27.745  24.299  1.00  0.00     0.198 A 
ATOM     75  F   UNL A   1      50.289  28.206  23.666  1.00  0.00    -0.203 F 
ATOM     76  F   UNL A   1      53.971  27.223  27.570  1.00  0.00    -0.200 F 
ATOM     77  C   UNL A   1      53.449  27.496  25.284  1.00  0.00     0.200 A 
ATOM     78  F   UNL A   1      52.882  27.797  23.013  1.00  0.00    -0.200 F 
ATOM     79  F   UNL A   1      54.736  27.324  24.954  1.00  0.00    -0.200 F 
ENDBRANCH  55  69
BRANCH  56  80
ATOM     80  C   UNL A   1      41.108  28.462  28.547  1.00  0.00     0.064 A 
ATOM     81  C   UNL A   1      40.144  28.934  27.645  1.00  0.00     0.173 A 
ATOM     82  C   UNL A   1      40.675  28.072  29.822  1.00  0.00     0.173 A 
ATOM     83  F   UNL A   1      40.515  29.336  26.420  1.00  0.00    -0.203 F 
ATOM     84  C   UNL A   1      38.804  29.028  28.009  1.00  0.00     0.198 A 
ATOM     85  C   UNL A   1      39.330  28.141  30.176  1.00  0.00     0.198 A 
ATOM     86  F   UNL A   1      41.558  27.610  30.719  1.00  0.00    -0.203 F 
ATOM     87  F   UNL A   1      37.909  29.520  27.142  1.00  0.00    -0.200 F 
ATOM     88  C   UNL A   1      38.396  28.625  29.272  1.00  0.00     0.200 A 
ATOM     89  F   UNL A   1      38.938  27.738  31.392  1.00  0.00    -0.200 F 
ATOM     90  F   UNL A   1      37.105  28.709  29.620  1.00  0.00    -0.200 F 
ENDBRANCH  56  80
BRANCH  68  91
ATOM     91  C   UNL A   1      46.318  33.084  28.282  1.00  0.00     0.064 A 
ATOM     92  C   UNL A   1      46.059  34.041  27.290  1.00  0.00     0.173 A 
ATOM     93  C   UNL A   1      46.621  33.542  29.574  1.00  0.00     0.173 A 
ATOM     94  F   UNL A   1      45.776  33.653  26.037  1.00  0.00    -0.203 F 
ATOM     95  C   UNL A   1      46.138  35.402  27.571  1.00  0.00     0.198 A 
ATOM     96  C   UNL A   1      46.668  34.903  29.858  1.00  0.00     0.198 A 
ATOM     97  F   UNL A   1      46.866  32.668  30.562  1.00  0.00    -0.203 F 
ATOM     98  F   UNL A   1      45.944  36.297  26.593  1.00  0.00    -0.200 F 
ATOM     99  C   UNL A   1      46.438  35.832  28.855  1.00  0.00     0.200 A 
ATOM    100  F   UNL A   1      46.943  35.318  31.103  1.00  0.00    -0.200 F 
ATOM    101  F   UNL A   1      46.515  37.143  29.122  1.00  0.00    -0.200 F 
ENDBRANCH  68  91
ENDBRANCH  42  43
ENDBRANCH  35  37
ENDBRANCH  34  35
ENDBRANCH  33  34
ENDBRANCH  32  33
ENDBRANCH  31  32
ENDBRANCH   1  31
TORSDOF 17
ENDMDL
