MODEL 1
REMARK VINA RESULT:     -12.5      0.000      0.000
REMARK SMILES Cc1cccc(O[C@H](C)C(=O)NNC(=O)[C@H]2[C@@H]3CC[C@@H](C3)[C@@H]2C(=O)OCCOCCOC(=O)c2ccc(-c3c4nc(c(-c5c(F)c(F)c(F)c(F)c5F)c5ccc([nH]5)c(-c5c(F)c(F)c(F)c(F)c5F)c5nc(c(-c6c(F)c(F)c(F)c(F)c6F)c6ccc3[nH]6)C=C5)C=C4)cc2)c1
REMARK SMILES IDX 26 1 25 2 23 3 24 4 22 5 16 6 17 7 18 8 21 9 20 10 19 11
REMARK SMILES IDX 14 12 13 13 15 15 12 16 10 17 11 18 8 20 9 21 7 22 6 23 1 24
REMARK SMILES IDX 2 25 3 26 97 27 4 28 5 29 27 30 28 31 29 32 30 33 31 34
REMARK SMILES IDX 32 35 33 36 34 37 35 38 96 39 36 40 95 41 37 42 38 43 39 44
REMARK SMILES IDX 89 45 40 46 94 47 88 48 90 49 41 50 93 51 87 52 86 53 42 55
REMARK SMILES IDX 74 56 54 57 73 58 55 59 58 60 72 61 91 62 56 63 57 64 71 66
REMARK SMILES IDX 92 67 59 68 43 69 44 70 52 71 45 72 46 73 50 74 53 75 47 76
REMARK SMILES IDX 48 77 51 78 49 79 75 80 76 81 84 82 77 83 78 84 82 85 85 86
REMARK SMILES IDX 79 87 80 88 83 89 81 90 60 91 61 92 69 93 62 94 63 95 67 96
REMARK SMILES IDX 70 97 64 98 65 99 68 100 66 101
REMARK H PARENT 13 14 12 19 90 54 58 65
REMARK Flexibility Score: inf
ROOT
ATOM      1  C   UNL A   1      33.438  27.545  26.623  1.00  0.00     0.261 C 
ENDROOT
BRANCH   1   2
ATOM      2  O   UNL A   1      34.049  27.457  25.318  1.00  0.00    -0.463 OA
BRANCH   2   3
ATOM      3  C   UNL A   1      33.482  28.072  24.227  1.00  0.00     0.310 C 
ATOM      4  O   UNL A   1      33.990  28.895  23.505  1.00  0.00    -0.252 OA
BRANCH   3   5
ATOM      5  C   UNL A   1      32.138  27.436  23.998  1.00  0.00     0.115 C 
ATOM      6  C   UNL A   1      31.896  27.221  22.505  1.00  0.00     0.098 C 
ATOM      7  C   UNL A   1      30.369  27.408  22.367  1.00  0.00     0.003 C 
ATOM      8  C   UNL A   1      30.098  28.925  22.317  1.00  0.00     0.005 C 
ATOM      9  C   UNL A   1      29.842  27.101  23.772  1.00  0.00     0.009 C 
ATOM     10  C   UNL A   1      30.822  28.069  24.460  1.00  0.00     0.004 C 
ATOM     11  C   UNL A   1      30.498  29.383  23.728  1.00  0.00     0.005 C 
BRANCH   6  12
ATOM     12  C   UNL A   1      32.509  25.999  21.858  1.00  0.00     0.242 C 
ATOM     13  N   UNL A   1      32.376  24.730  22.331  1.00  0.00    -0.267 N 
ATOM     14  H   UNL A   1      33.116  24.120  22.108  1.00  0.00     0.191 HD
ATOM     15  O   UNL A   1      33.231  26.151  20.865  1.00  0.00    -0.273 OA
BRANCH  13  16
ATOM     16  N   UNL A   1      31.355  24.174  23.078  1.00  0.00    -0.264 N 
ATOM     17  C   UNL A   1      31.532  23.758  24.371  1.00  0.00     0.279 C 
ATOM     18  O   UNL A   1      30.654  24.050  25.191  1.00  0.00    -0.269 OA
ATOM     19  H   UNL A   1      30.466  24.073  22.665  1.00  0.00     0.191 HD
BRANCH  17  20
ATOM     20  C   UNL A   1      32.646  22.736  24.732  1.00  0.00     0.260 C 
ATOM     21  C   UNL A   1      32.007  21.502  25.383  1.00  0.00     0.064 C 
BRANCH  20  22
ATOM     22  O   UNL A   1      33.821  22.496  23.986  1.00  0.00    -0.481 OA
BRANCH  22  23
ATOM     23  C   UNL A   1      35.097  22.618  24.429  1.00  0.00     0.120 A 
ATOM     24  C   UNL A   1      37.843  20.022  24.999  1.00  0.00     0.044 C 
ATOM     25  C   UNL A   1      37.095  21.321  24.976  1.00  0.00    -0.047 A 
ATOM     26  C   UNL A   1      37.677  22.467  25.523  1.00  0.00     0.003 A 
ATOM     27  C   UNL A   1      35.809  21.410  24.428  1.00  0.00     0.049 A 
ATOM     28  C   UNL A   1      36.995  23.680  25.490  1.00  0.00     0.004 A 
ATOM     29  C   UNL A   1      35.719  23.762  24.926  1.00  0.00     0.046 A 
ENDBRANCH  22  23
ENDBRANCH  20  22
ENDBRANCH  17  20
ENDBRANCH  13  16
ENDBRANCH   6  12
ENDBRANCH   3   5
ENDBRANCH   2   3
ENDBRANCH   1   2
BRANCH   1  30
ATOM     30  C   UNL A   1      33.436  28.958  27.160  1.00  0.00     0.202 C 
BRANCH  30  31
ATOM     31  O   UNL A   1      34.782  29.299  27.439  1.00  0.00    -0.374 OA
BRANCH  31  32
ATOM     32  C   UNL A   1      35.033  30.667  27.714  1.00  0.00     0.202 C 
BRANCH  32  33
ATOM     33  C   UNL A   1      33.760  31.527  27.742  1.00  0.00     0.261 C 
BRANCH  33  34
ATOM     34  O   UNL A   1      34.109  32.926  27.815  1.00  0.00    -0.460 OA
BRANCH  34  35
ATOM     35  C   UNL A   1      34.029  33.489  29.053  1.00  0.00     0.338 C 
ATOM     36  O   UNL A   1      33.112  34.187  29.452  1.00  0.00    -0.246 OA
BRANCH  35  37
ATOM     37  C   UNL A   1      35.342  33.356  29.750  1.00  0.00     0.060 A 
ATOM     38  C   UNL A   1      36.518  33.831  29.137  1.00  0.00     0.016 A 
ATOM     39  C   UNL A   1      35.430  32.488  30.831  1.00  0.00     0.016 A 
ATOM     40  C   UNL A   1      37.773  33.314  29.509  1.00  0.00     0.010 A 
ATOM     41  C   UNL A   1      36.648  31.907  31.111  1.00  0.00     0.010 A 
ATOM     42  C   UNL A   1      37.830  32.289  30.450  1.00  0.00    -0.014 A 
BRANCH  42  43
ATOM     43  C   UNL A   1      39.007  31.475  30.790  1.00  0.00     0.031 A 
ATOM     44  C   UNL A   1      39.274  30.238  30.007  1.00  0.00     0.074 A 
ATOM     45  C   UNL A   1      40.019  31.954  31.558  1.00  0.00     0.049 A 
ATOM     46  N   UNL A   1      40.196  29.384  30.297  1.00  0.00    -0.248 NA
ATOM     47  C   UNL A   1      38.503  29.833  28.839  1.00  0.00     0.031 C 
ATOM     48  C   UNL A   1      41.433  31.590  31.423  1.00  0.00     0.029 A 
ATOM     49  N   UNL A   1      40.041  32.925  32.567  1.00  0.00    -0.354 N 
ATOM     50  C   UNL A   1      40.387  28.570  29.206  1.00  0.00     0.074 A 
ATOM     51  C   UNL A   1      39.221  28.800  28.391  1.00  0.00     0.031 C 
ATOM     52  C   UNL A   1      42.150  32.142  32.410  1.00  0.00     0.029 A 
ATOM     53  C   UNL A   1      41.212  32.739  33.329  1.00  0.00     0.049 A 
ATOM     54  H   UNL A   1      39.359  33.618  32.717  1.00  0.00     0.167 HD
ATOM     55  C   UNL A   1      41.577  27.910  29.085  1.00  0.00     0.037 A 
ATOM     56  C   UNL A   1      41.178  32.539  34.672  1.00  0.00     0.037 A 
ATOM     57  C   UNL A   1      42.469  28.215  30.224  1.00  0.00     0.049 A 
ATOM     58  C   UNL A   1      41.751  31.195  35.018  1.00  0.00     0.074 A 
ATOM     59  C   UNL A   1      43.654  28.924  30.351  1.00  0.00     0.029 A 
ATOM     60  N   UNL A   1      42.037  27.968  31.528  1.00  0.00    -0.354 N 
ATOM     61  N   UNL A   1      41.903  30.257  34.125  1.00  0.00    -0.248 NA
ATOM     62  C   UNL A   1      42.245  30.797  36.325  1.00  0.00     0.031 C 
ATOM     63  C   UNL A   1      43.958  29.042  31.737  1.00  0.00     0.029 A 
ATOM     64  C   UNL A   1      42.964  28.399  32.458  1.00  0.00     0.049 A 
ATOM     65  H   UNL A   1      41.181  27.541  31.758  1.00  0.00     0.167 HD
ATOM     66  C   UNL A   1      42.531  29.178  34.668  1.00  0.00     0.074 A 
ATOM     67  C   UNL A   1      42.708  29.559  36.059  1.00  0.00     0.031 C 
ATOM     68  C   UNL A   1      42.815  28.093  33.885  1.00  0.00     0.037 A 
BRANCH  55  69
ATOM     69  C   UNL A   1      42.068  27.133  27.862  1.00  0.00     0.064 A 
ATOM     70  C   UNL A   1      42.500  25.789  27.989  1.00  0.00     0.173 A 
ATOM     71  C   UNL A   1      42.158  27.625  26.543  1.00  0.00     0.173 A 
ATOM     72  F   UNL A   1      42.407  25.127  29.149  1.00  0.00    -0.203 F 
ATOM     73  C   UNL A   1      43.033  25.052  26.922  1.00  0.00     0.198 A 
ATOM     74  C   UNL A   1      42.705  26.897  25.480  1.00  0.00     0.198 A 
ATOM     75  F   UNL A   1      41.677  28.813  26.185  1.00  0.00    -0.203 F 
ATOM     76  F   UNL A   1      43.432  23.787  27.121  1.00  0.00    -0.200 F 
ATOM     77  C   UNL A   1      43.150  25.611  25.670  1.00  0.00     0.200 A 
ATOM     78  F   UNL A   1      42.779  27.458  24.264  1.00  0.00    -0.200 F 
ATOM     79  F   UNL A   1      43.663  24.912  24.648  1.00  0.00    -0.200 F 
ENDBRANCH  55  69
BRANCH  56  80
ATOM     80  C   UNL A   1      40.070  33.291  35.313  1.00  0.00     0.064 A 
ATOM     81  C   UNL A   1      39.019  32.515  35.849  1.00  0.00     0.173 A 
ATOM     82  C   UNL A   1      40.310  34.545  35.894  1.00  0.00     0.173 A 
ATOM     83  F   UNL A   1      38.765  31.296  35.345  1.00  0.00    -0.203 F 
ATOM     84  C   UNL A   1      38.351  32.906  37.008  1.00  0.00     0.198 A 
ATOM     85  C   UNL A   1      39.650  34.922  37.067  1.00  0.00     0.198 A 
ATOM     86  F   UNL A   1      41.306  35.318  35.438  1.00  0.00    -0.203 F 
ATOM     87  F   UNL A   1      37.466  32.077  37.583  1.00  0.00    -0.200 F 
ATOM     88  C   UNL A   1      38.701  34.086  37.641  1.00  0.00     0.200 A 
ATOM     89  F   UNL A   1      40.015  36.040  37.711  1.00  0.00    -0.200 F 
ATOM     90  F   UNL A   1      38.180  34.381  38.841  1.00  0.00    -0.200 F 
ENDBRANCH  56  80
BRANCH  68  91
ATOM     91  C   UNL A   1      43.038  26.662  34.343  1.00  0.00     0.064 A 
ATOM     92  C   UNL A   1      42.041  25.811  34.843  1.00  0.00     0.173 A 
ATOM     93  C   UNL A   1      44.296  26.033  34.133  1.00  0.00     0.173 A 
ATOM     94  F   UNL A   1      40.784  26.220  35.034  1.00  0.00    -0.203 F 
ATOM     95  C   UNL A   1      42.281  24.462  35.124  1.00  0.00     0.198 A 
ATOM     96  C   UNL A   1      44.514  24.675  34.355  1.00  0.00     0.198 A 
ATOM     97  F   UNL A   1      45.364  26.696  33.668  1.00  0.00    -0.203 F 
ATOM     98  F   UNL A   1      41.291  23.710  35.625  1.00  0.00    -0.200 F 
ATOM     99  C   UNL A   1      43.507  23.889  34.861  1.00  0.00     0.200 A 
ATOM    100  F   UNL A   1      45.702  24.136  34.047  1.00  0.00    -0.200 F 
ATOM    101  F   UNL A   1      43.711  22.585  35.078  1.00  0.00    -0.200 F 
ENDBRANCH  68  91
ENDBRANCH  42  43
ENDBRANCH  35  37
ENDBRANCH  34  35
ENDBRANCH  33  34
ENDBRANCH  32  33
ENDBRANCH  31  32
ENDBRANCH  30  31
ENDBRANCH   1  30
TORSDOF 19
ENDMDL
MODEL 2
REMARK VINA RESULT:     -12.3      3.947      9.922
REMARK SMILES Cc1cccc(O[C@H](C)C(=O)NNC(=O)[C@H]2[C@@H]3CC[C@@H](C3)[C@@H]2C(=O)OCCOCCOC(=O)c2ccc(-c3c4nc(c(-c5c(F)c(F)c(F)c(F)c5F)c5ccc([nH]5)c(-c5c(F)c(F)c(F)c(F)c5F)c5nc(c(-c6c(F)c(F)c(F)c(F)c6F)c6ccc3[nH]6)C=C5)C=C4)cc2)c1
REMARK SMILES IDX 26 1 25 2 23 3 24 4 22 5 16 6 17 7 18 8 21 9 20 10 19 11
REMARK SMILES IDX 14 12 13 13 15 15 12 16 10 17 11 18 8 20 9 21 7 22 6 23 1 24
REMARK SMILES IDX 2 25 3 26 97 27 4 28 5 29 27 30 28 31 29 32 30 33 31 34
REMARK SMILES IDX 32 35 33 36 34 37 35 38 96 39 36 40 95 41 37 42 38 43 39 44
REMARK SMILES IDX 89 45 40 46 94 47 88 48 90 49 41 50 93 51 87 52 86 53 42 55
REMARK SMILES IDX 74 56 54 57 73 58 55 59 58 60 72 61 91 62 56 63 57 64 71 66
REMARK SMILES IDX 92 67 59 68 43 69 44 70 52 71 45 72 46 73 50 74 53 75 47 76
REMARK SMILES IDX 48 77 51 78 49 79 75 80 76 81 84 82 77 83 78 84 82 85 85 86
REMARK SMILES IDX 79 87 80 88 83 89 81 90 60 91 61 92 69 93 62 94 63 95 67 96
REMARK SMILES IDX 70 97 64 98 65 99 68 100 66 101
REMARK H PARENT 13 14 12 19 90 54 58 65
REMARK Flexibility Score: inf
ROOT
ATOM      1  C   UNL A   1      36.580  22.328  23.820  1.00  0.00     0.261 C 
ENDROOT
BRANCH   1   2
ATOM      2  O   UNL A   1      35.975  23.445  23.136  1.00  0.00    -0.463 OA
BRANCH   2   3
ATOM      3  C   UNL A   1      34.835  24.041  23.622  1.00  0.00     0.310 C 
ATOM      4  O   UNL A   1      34.762  25.038  24.299  1.00  0.00    -0.252 OA
BRANCH   3   5
ATOM      5  C   UNL A   1      33.658  23.302  23.046  1.00  0.00     0.115 C 
ATOM      6  C   UNL A   1      32.508  24.267  22.760  1.00  0.00     0.098 C 
ATOM      7  C   UNL A   1      31.254  23.404  23.019  1.00  0.00     0.003 C 
ATOM      8  C   UNL A   1      31.021  23.385  24.544  1.00  0.00     0.005 C 
ATOM      9  C   UNL A   1      31.757  21.972  22.820  1.00  0.00     0.009 C 
ATOM     10  C   UNL A   1      32.954  22.153  23.773  1.00  0.00     0.004 C 
ATOM     11  C   UNL A   1      32.239  22.602  25.058  1.00  0.00     0.005 C 
BRANCH   6  12
ATOM     12  C   UNL A   1      32.554  25.060  21.474  1.00  0.00     0.242 C 
ATOM     13  N   UNL A   1      31.708  26.081  21.169  1.00  0.00    -0.267 N 
ATOM     14  H   UNL A   1      31.551  26.223  20.207  1.00  0.00     0.191 HD
ATOM     15  O   UNL A   1      33.371  24.735  20.603  1.00  0.00    -0.273 OA
BRANCH  13  16
ATOM     16  N   UNL A   1      31.037  26.946  22.012  1.00  0.00    -0.264 N 
ATOM     17  C   UNL A   1      31.644  28.031  22.587  1.00  0.00     0.279 C 
ATOM     18  O   UNL A   1      31.021  29.099  22.592  1.00  0.00    -0.269 OA
ATOM     19  H   UNL A   1      30.086  26.777  22.206  1.00  0.00     0.191 HD
BRANCH  17  20
ATOM     20  C   UNL A   1      32.936  27.863  23.435  1.00  0.00     0.260 C 
ATOM     21  C   UNL A   1      34.101  28.564  22.725  1.00  0.00     0.064 C 
BRANCH  20  22
ATOM     22  O   UNL A   1      33.001  27.841  24.846  1.00  0.00    -0.481 OA
BRANCH  22  23
ATOM     23  C   UNL A   1      33.175  28.910  25.663  1.00  0.00     0.120 A 
ATOM     24  C   UNL A   1      35.830  29.681  28.301  1.00  0.00     0.044 C 
ATOM     25  C   UNL A   1      34.605  29.782  27.442  1.00  0.00    -0.047 A 
ATOM     26  C   UNL A   1      33.703  30.830  27.640  1.00  0.00     0.003 A 
ATOM     27  C   UNL A   1      34.333  28.833  26.449  1.00  0.00     0.049 A 
ATOM     28  C   UNL A   1      32.572  30.940  26.835  1.00  0.00     0.004 A 
ATOM     29  C   UNL A   1      32.319  29.996  25.835  1.00  0.00     0.046 A 
ENDBRANCH  22  23
ENDBRANCH  20  22
ENDBRANCH  17  20
ENDBRANCH  13  16
ENDBRANCH   6  12
ENDBRANCH   3   5
ENDBRANCH   2   3
ENDBRANCH   1   2
BRANCH   1  30
ATOM     30  C   UNL A   1      36.485  22.457  25.323  1.00  0.00     0.202 C 
BRANCH  30  31
ATOM     31  O   UNL A   1      37.767  22.841  25.789  1.00  0.00    -0.374 OA
BRANCH  31  32
ATOM     32  C   UNL A   1      38.757  21.827  25.789  1.00  0.00     0.202 C 
BRANCH  32  33
ATOM     33  C   UNL A   1      39.828  22.018  26.874  1.00  0.00     0.261 C 
BRANCH  33  34
ATOM     34  O   UNL A   1      40.672  20.849  26.949  1.00  0.00    -0.460 OA
BRANCH  34  35
ATOM     35  C   UNL A   1      41.847  20.928  26.266  1.00  0.00     0.338 C 
ATOM     36  O   UNL A   1      42.273  20.083  25.496  1.00  0.00    -0.246 OA
BRANCH  35  37
ATOM     37  C   UNL A   1      42.663  22.057  26.801  1.00  0.00     0.060 A 
ATOM     38  C   UNL A   1      42.838  22.207  28.190  1.00  0.00     0.016 A 
ATOM     39  C   UNL A   1      42.962  23.115  25.950  1.00  0.00     0.016 A 
ATOM     40  C   UNL A   1      43.164  23.462  28.735  1.00  0.00     0.010 A 
ATOM     41  C   UNL A   1      43.169  24.362  26.499  1.00  0.00     0.010 A 
ATOM     42  C   UNL A   1      43.254  24.564  27.889  1.00  0.00    -0.014 A 
BRANCH  42  43
ATOM     43  C   UNL A   1      43.354  25.975  28.294  1.00  0.00     0.031 A 
ATOM     44  C   UNL A   1      42.101  26.762  28.461  1.00  0.00     0.074 A 
ATOM     45  C   UNL A   1      44.490  26.497  28.819  1.00  0.00     0.049 A 
ATOM     46  N   UNL A   1      42.072  28.032  28.684  1.00  0.00    -0.248 NA
ATOM     47  C   UNL A   1      40.764  26.194  28.359  1.00  0.00     0.031 C 
ATOM     48  C   UNL A   1      44.549  27.562  29.826  1.00  0.00     0.029 A 
ATOM     49  N   UNL A   1      45.838  26.153  28.651  1.00  0.00    -0.354 N 
ATOM     50  C   UNL A   1      40.809  28.362  29.117  1.00  0.00     0.074 A 
ATOM     51  C   UNL A   1      40.008  27.218  28.762  1.00  0.00     0.031 C 
ATOM     52  C   UNL A   1      45.818  27.930  30.039  1.00  0.00     0.029 A 
ATOM     53  C   UNL A   1      46.624  27.250  29.055  1.00  0.00     0.049 A 
ATOM     54  H   UNL A   1      46.176  25.294  28.311  1.00  0.00     0.167 HD
ATOM     55  C   UNL A   1      40.646  29.512  29.837  1.00  0.00     0.037 A 
ATOM     56  C   UNL A   1      47.531  27.835  28.229  1.00  0.00     0.037 A 
ATOM     57  C   UNL A   1      41.935  30.216  30.008  1.00  0.00     0.049 A 
ATOM     58  C   UNL A   1      47.166  29.268  27.978  1.00  0.00     0.074 A 
ATOM     59  C   UNL A   1      42.760  30.456  31.097  1.00  0.00     0.029 A 
ATOM     60  N   UNL A   1      42.680  30.581  28.886  1.00  0.00    -0.354 N 
ATOM     61  N   UNL A   1      45.973  29.733  28.228  1.00  0.00    -0.248 NA
ATOM     62  C   UNL A   1      48.069  30.300  27.497  1.00  0.00     0.031 C 
ATOM     63  C   UNL A   1      43.974  31.026  30.622  1.00  0.00     0.029 A 
ATOM     64  C   UNL A   1      43.891  31.143  29.243  1.00  0.00     0.049 A 
ATOM     65  H   UNL A   1      42.381  30.456  27.956  1.00  0.00     0.167 HD
ATOM     66  C   UNL A   1      45.928  31.076  28.009  1.00  0.00     0.074 A 
ATOM     67  C   UNL A   1      47.266  31.383  27.532  1.00  0.00     0.031 C 
ATOM     68  C   UNL A   1      44.770  31.764  28.245  1.00  0.00     0.037 A 
BRANCH  55  69
ATOM     69  C   UNL A   1      39.384  29.950  30.582  1.00  0.00     0.064 A 
ATOM     70  C   UNL A   1      38.837  29.141  31.610  1.00  0.00     0.173 A 
ATOM     71  C   UNL A   1      38.647  31.130  30.349  1.00  0.00     0.173 A 
ATOM     72  F   UNL A   1      39.449  28.026  32.027  1.00  0.00    -0.203 F 
ATOM     73  C   UNL A   1      37.642  29.451  32.273  1.00  0.00     0.198 A 
ATOM     74  C   UNL A   1      37.444  31.433  30.999  1.00  0.00     0.198 A 
ATOM     75  F   UNL A   1      39.064  32.087  29.525  1.00  0.00    -0.203 F 
ATOM     76  F   UNL A   1      37.180  28.631  33.229  1.00  0.00    -0.200 F 
ATOM     77  C   UNL A   1      36.935  30.590  31.957  1.00  0.00     0.200 A 
ATOM     78  F   UNL A   1      36.794  32.564  30.690  1.00  0.00    -0.200 F 
ATOM     79  F   UNL A   1      35.791  30.887  32.585  1.00  0.00    -0.200 F 
ENDBRANCH  55  69
BRANCH  56  80
ATOM     80  C   UNL A   1      48.169  26.845  27.324  1.00  0.00     0.064 A 
ATOM     81  C   UNL A   1      47.781  26.902  25.967  1.00  0.00     0.173 A 
ATOM     82  C   UNL A   1      49.448  26.345  27.610  1.00  0.00     0.173 A 
ATOM     83  F   UNL A   1      46.576  27.396  25.637  1.00  0.00    -0.203 F 
ATOM     84  C   UNL A   1      48.686  26.625  24.944  1.00  0.00     0.198 A 
ATOM     85  C   UNL A   1      50.357  26.088  26.580  1.00  0.00     0.198 A 
ATOM     86  F   UNL A   1      49.877  26.284  28.879  1.00  0.00    -0.203 F 
ATOM     87  F   UNL A   1      48.339  26.838  23.666  1.00  0.00    -0.200 F 
ATOM     88  C   UNL A   1      49.986  26.264  25.253  1.00  0.00     0.200 A 
ATOM     89  F   UNL A   1      51.630  25.784  26.872  1.00  0.00    -0.200 F 
ATOM     90  F   UNL A   1      50.901  26.161  24.278  1.00  0.00    -0.200 F 
ENDBRANCH  56  80
BRANCH  68  91
ATOM     91  C   UNL A   1      44.348  33.090  27.637  1.00  0.00     0.064 A 
ATOM     92  C   UNL A   1      44.013  33.288  26.289  1.00  0.00     0.173 A 
ATOM     93  C   UNL A   1      44.109  34.216  28.473  1.00  0.00     0.173 A 
ATOM     94  F   UNL A   1      44.108  32.314  25.380  1.00  0.00    -0.203 F 
ATOM     95  C   UNL A   1      43.503  34.501  25.815  1.00  0.00     0.198 A 
ATOM     96  C   UNL A   1      43.544  35.401  28.008  1.00  0.00     0.198 A 
ATOM     97  F   UNL A   1      44.379  34.208  29.785  1.00  0.00    -0.203 F 
ATOM     98  F   UNL A   1      43.228  34.632  24.509  1.00  0.00    -0.200 F 
ATOM     99  C   UNL A   1      43.250  35.548  26.675  1.00  0.00     0.200 A 
ATOM    100  F   UNL A   1      43.266  36.386  28.875  1.00  0.00    -0.200 F 
ATOM    101  F   UNL A   1      42.708  36.686  26.223  1.00  0.00    -0.200 F 
ENDBRANCH  68  91
ENDBRANCH  42  43
ENDBRANCH  35  37
ENDBRANCH  34  35
ENDBRANCH  33  34
ENDBRANCH  32  33
ENDBRANCH  31  32
ENDBRANCH  30  31
ENDBRANCH   1  30
TORSDOF 19
ENDMDL
MODEL 3
REMARK VINA RESULT:     -12.2      1.541      4.121
REMARK SMILES Cc1cccc(O[C@H](C)C(=O)NNC(=O)[C@H]2[C@@H]3CC[C@@H](C3)[C@@H]2C(=O)OCCOCCOC(=O)c2ccc(-c3c4nc(c(-c5c(F)c(F)c(F)c(F)c5F)c5ccc([nH]5)c(-c5c(F)c(F)c(F)c(F)c5F)c5nc(c(-c6c(F)c(F)c(F)c(F)c6F)c6ccc3[nH]6)C=C5)C=C4)cc2)c1
REMARK SMILES IDX 26 1 25 2 23 3 24 4 22 5 16 6 17 7 18 8 21 9 20 10 19 11
REMARK SMILES IDX 14 12 13 13 15 15 12 16 10 17 11 18 8 20 9 21 7 22 6 23 1 24
REMARK SMILES IDX 2 25 3 26 97 27 4 28 5 29 27 30 28 31 29 32 30 33 31 34
REMARK SMILES IDX 32 35 33 36 34 37 35 38 96 39 36 40 95 41 37 42 38 43 39 44
REMARK SMILES IDX 89 45 40 46 94 47 88 48 90 49 41 50 93 51 87 52 86 53 42 55
REMARK SMILES IDX 74 56 54 57 73 58 55 59 58 60 72 61 91 62 56 63 57 64 71 66
REMARK SMILES IDX 92 67 59 68 43 69 44 70 52 71 45 72 46 73 50 74 53 75 47 76
REMARK SMILES IDX 48 77 51 78 49 79 75 80 76 81 84 82 77 83 78 84 82 85 85 86
REMARK SMILES IDX 79 87 80 88 83 89 81 90 60 91 61 92 69 93 62 94 63 95 67 96
REMARK SMILES IDX 70 97 64 98 65 99 68 100 66 101
REMARK H PARENT 13 14 12 19 90 54 58 65
REMARK Flexibility Score: inf
ROOT
ATOM      1  C   UNL A   1      33.905  28.227  26.868  1.00  0.00     0.261 C 
ENDROOT
BRANCH   1   2
ATOM      2  O   UNL A   1      33.481  27.264  25.881  1.00  0.00    -0.463 OA
BRANCH   2   3
ATOM      3  C   UNL A   1      33.874  27.376  24.567  1.00  0.00     0.310 C 
ATOM      4  O   UNL A   1      34.164  28.386  23.974  1.00  0.00    -0.252 OA
BRANCH   3   5
ATOM      5  C   UNL A   1      34.014  25.982  24.019  1.00  0.00     0.115 C 
ATOM      6  C   UNL A   1      32.716  25.541  23.344  1.00  0.00     0.098 C 
ATOM      7  C   UNL A   1      32.679  24.021  23.615  1.00  0.00     0.003 C 
ATOM      8  C   UNL A   1      32.143  23.826  25.048  1.00  0.00     0.005 C 
ATOM      9  C   UNL A   1      34.150  23.661  23.842  1.00  0.00     0.009 C 
ATOM     10  C   UNL A   1      34.364  24.771  24.888  1.00  0.00     0.004 C 
ATOM     11  C   UNL A   1      33.266  24.426  25.909  1.00  0.00     0.005 C 
BRANCH   6  12
ATOM     12  C   UNL A   1      32.464  26.001  21.926  1.00  0.00     0.242 C 
ATOM     13  N   UNL A   1      31.714  27.085  21.590  1.00  0.00    -0.267 N 
ATOM     14  H   UNL A   1      31.285  27.041  20.705  1.00  0.00     0.191 HD
ATOM     15  O   UNL A   1      32.915  25.325  20.992  1.00  0.00    -0.273 OA
BRANCH  13  16
ATOM     16  N   UNL A   1      31.466  28.238  22.311  1.00  0.00    -0.264 N 
ATOM     17  C   UNL A   1      30.540  28.289  23.320  1.00  0.00     0.279 C 
ATOM     18  O   UNL A   1      30.861  28.877  24.360  1.00  0.00    -0.269 OA
ATOM     19  H   UNL A   1      31.973  29.053  22.091  1.00  0.00     0.191 HD
BRANCH  17  20
ATOM     20  C   UNL A   1      29.065  27.870  23.068  1.00  0.00     0.260 C 
ATOM     21  C   UNL A   1      28.783  26.551  23.801  1.00  0.00     0.064 C 
BRANCH  20  22
ATOM     22  O   UNL A   1      27.966  28.749  22.941  1.00  0.00    -0.481 OA
BRANCH  22  23
ATOM     23  C   UNL A   1      28.024  30.090  22.744  1.00  0.00     0.120 A 
ATOM     24  C   UNL A   1      28.056  32.183  19.546  1.00  0.00     0.044 C 
ATOM     25  C   UNL A   1      28.116  31.792  20.993  1.00  0.00    -0.047 A 
ATOM     26  C   UNL A   1      28.368  32.763  21.964  1.00  0.00     0.003 A 
ATOM     27  C   UNL A   1      27.941  30.462  21.394  1.00  0.00     0.049 A 
ATOM     28  C   UNL A   1      28.409  32.411  23.311  1.00  0.00     0.004 A 
ATOM     29  C   UNL A   1      28.216  31.082  23.702  1.00  0.00     0.046 A 
ENDBRANCH  22  23
ENDBRANCH  20  22
ENDBRANCH  17  20
ENDBRANCH  13  16
ENDBRANCH   6  12
ENDBRANCH   3   5
ENDBRANCH   2   3
ENDBRANCH   1   2
BRANCH   1  30
ATOM     30  C   UNL A   1      32.826  29.237  27.184  1.00  0.00     0.202 C 
BRANCH  30  31
ATOM     31  O   UNL A   1      33.297  30.499  26.743  1.00  0.00    -0.374 OA
BRANCH  31  32
ATOM     32  C   UNL A   1      34.254  31.131  27.576  1.00  0.00     0.202 C 
BRANCH  32  33
ATOM     33  C   UNL A   1      33.872  32.567  27.965  1.00  0.00     0.261 C 
BRANCH  33  34
ATOM     34  O   UNL A   1      34.015  32.749  29.390  1.00  0.00    -0.460 OA
BRANCH  34  35
ATOM     35  C   UNL A   1      34.523  33.951  29.781  1.00  0.00     0.338 C 
ATOM     36  O   UNL A   1      34.018  35.037  29.556  1.00  0.00    -0.246 OA
BRANCH  35  37
ATOM     37  C   UNL A   1      35.916  33.766  30.283  1.00  0.00     0.060 A 
ATOM     38  C   UNL A   1      37.012  33.996  29.428  1.00  0.00     0.016 A 
ATOM     39  C   UNL A   1      36.103  33.065  31.468  1.00  0.00     0.016 A 
ATOM     40  C   UNL A   1      38.256  33.392  29.687  1.00  0.00     0.010 A 
ATOM     41  C   UNL A   1      37.289  32.388  31.654  1.00  0.00     0.010 A 
ATOM     42  C   UNL A   1      38.373  32.521  30.766  1.00  0.00    -0.014 A 
BRANCH  42  43
ATOM     43  C   UNL A   1      39.508  31.630  31.055  1.00  0.00     0.031 A 
ATOM     44  C   UNL A   1      39.696  30.414  30.216  1.00  0.00     0.074 A 
ATOM     45  C   UNL A   1      40.553  32.019  31.828  1.00  0.00     0.049 A 
ATOM     46  N   UNL A   1      40.573  29.500  30.458  1.00  0.00    -0.248 NA
ATOM     47  C   UNL A   1      38.890  30.102  29.044  1.00  0.00     0.031 C 
ATOM     48  C   UNL A   1      41.943  31.585  31.657  1.00  0.00     0.029 A 
ATOM     49  N   UNL A   1      40.642  32.944  32.876  1.00  0.00    -0.354 N 
ATOM     50  C   UNL A   1      40.706  28.724  29.330  1.00  0.00     0.074 A 
ATOM     51  C   UNL A   1      39.544  29.052  28.543  1.00  0.00     0.031 C 
ATOM     52  C   UNL A   1      42.702  32.053  32.656  1.00  0.00     0.029 A 
ATOM     53  C   UNL A   1      41.810  32.661  33.612  1.00  0.00     0.049 A 
ATOM     54  H   UNL A   1      40.000  33.666  33.065  1.00  0.00     0.167 HD
ATOM     55  C   UNL A   1      41.856  28.005  29.165  1.00  0.00     0.037 A 
ATOM     56  C   UNL A   1      41.781  32.406  34.947  1.00  0.00     0.037 A 
ATOM     57  C   UNL A   1      42.777  28.212  30.303  1.00  0.00     0.049 A 
ATOM     58  C   UNL A   1      42.282  31.020  35.227  1.00  0.00     0.074 A 
ATOM     59  C   UNL A   1      44.001  28.849  30.443  1.00  0.00     0.029 A 
ATOM     60  N   UNL A   1      42.348  27.934  31.602  1.00  0.00    -0.354 N 
ATOM     61  N   UNL A   1      42.372  30.113  34.294  1.00  0.00    -0.248 NA
ATOM     62  C   UNL A   1      42.769  30.539  36.509  1.00  0.00     0.031 C 
ATOM     63  C   UNL A   1      44.327  28.891  31.827  1.00  0.00     0.029 A 
ATOM     64  C   UNL A   1      43.308  28.273  32.535  1.00  0.00     0.049 A 
ATOM     65  H   UNL A   1      41.472  27.545  31.825  1.00  0.00     0.167 HD
ATOM     66  C   UNL A   1      42.945  28.979  34.782  1.00  0.00     0.074 A 
ATOM     67  C   UNL A   1      43.160  29.290  36.185  1.00  0.00     0.031 C 
ATOM     68  C   UNL A   1      43.159  27.915  33.950  1.00  0.00     0.037 A 
BRANCH  55  69
ATOM     69  C   UNL A   1      42.289  27.255  27.903  1.00  0.00     0.064 A 
ATOM     70  C   UNL A   1      41.790  25.957  27.631  1.00  0.00     0.173 A 
ATOM     71  C   UNL A   1      43.187  27.725  26.922  1.00  0.00     0.173 A 
ATOM     72  F   UNL A   1      40.861  25.384  28.407  1.00  0.00    -0.203 F 
ATOM     73  C   UNL A   1      42.208  25.190  26.535  1.00  0.00     0.198 A 
ATOM     74  C   UNL A   1      43.619  26.955  25.836  1.00  0.00     0.198 A 
ATOM     75  F   UNL A   1      43.661  28.968  26.918  1.00  0.00    -0.203 F 
ATOM     76  F   UNL A   1      41.700  23.963  26.348  1.00  0.00    -0.200 F 
ATOM     77  C   UNL A   1      43.136  25.683  25.644  1.00  0.00     0.200 A 
ATOM     78  F   UNL A   1      44.501  27.473  24.969  1.00  0.00    -0.200 F 
ATOM     79  F   UNL A   1      43.542  24.953  24.598  1.00  0.00    -0.200 F 
ENDBRANCH  55  69
BRANCH  56  80
ATOM     80  C   UNL A   1      40.723  33.190  35.634  1.00  0.00     0.064 A 
ATOM     81  C   UNL A   1      39.560  32.479  36.000  1.00  0.00     0.173 A 
ATOM     82  C   UNL A   1      41.062  34.314  36.402  1.00  0.00     0.173 A 
ATOM     83  F   UNL A   1      39.205  31.380  35.313  1.00  0.00    -0.203 F 
ATOM     84  C   UNL A   1      38.864  32.782  37.168  1.00  0.00     0.198 A 
ATOM     85  C   UNL A   1      40.373  34.601  37.584  1.00  0.00     0.198 A 
ATOM     86  F   UNL A   1      42.166  35.018  36.113  1.00  0.00    -0.203 F 
ATOM     87  F   UNL A   1      37.857  31.994  37.574  1.00  0.00    -0.200 F 
ATOM     88  C   UNL A   1      39.301  33.813  37.983  1.00  0.00     0.200 A 
ATOM     89  F   UNL A   1      40.818  35.568  38.400  1.00  0.00    -0.200 F 
ATOM     90  F   UNL A   1      38.738  34.000  39.186  1.00  0.00    -0.200 F 
ENDBRANCH  56  80
BRANCH  68  91
ATOM     91  C   UNL A   1      43.309  26.456  34.345  1.00  0.00     0.064 A 
ATOM     92  C   UNL A   1      42.309  25.678  34.949  1.00  0.00     0.173 A 
ATOM     93  C   UNL A   1      44.469  25.727  33.962  1.00  0.00     0.173 A 
ATOM     94  F   UNL A   1      41.129  26.187  35.308  1.00  0.00    -0.203 F 
ATOM     95  C   UNL A   1      42.460  24.304  35.168  1.00  0.00     0.198 A 
ATOM     96  C   UNL A   1      44.589  24.349  34.125  1.00  0.00     0.198 A 
ATOM     97  F   UNL A   1      45.525  26.310  33.379  1.00  0.00    -0.203 F 
ATOM     98  F   UNL A   1      41.477  23.625  35.775  1.00  0.00    -0.200 F 
ATOM     99  C   UNL A   1      43.587  23.637  34.738  1.00  0.00     0.200 A 
ATOM    100  F   UNL A   1      45.676  23.720  33.656  1.00  0.00    -0.200 F 
ATOM    101  F   UNL A   1      43.699  22.313  34.899  1.00  0.00    -0.200 F 
ENDBRANCH  68  91
ENDBRANCH  42  43
ENDBRANCH  35  37
ENDBRANCH  34  35
ENDBRANCH  33  34
ENDBRANCH  32  33
ENDBRANCH  31  32
ENDBRANCH  30  31
ENDBRANCH   1  30
TORSDOF 19
ENDMDL
