MODEL 1
REMARK VINA RESULT:     -11.5      0.000      0.000
REMARK SMILES C[C@H](C(=O)OCCOCCOC(=O)c1ccc(-c2c3nc(c(-c4c(F)c(F)c(F)c(F)c4F)c4ccc([nH]4)c(-c4c(F)c(F)c(F)c(F)c4F)c4nc(c(-c5c(F)c(F)c(F)c(F)c5F)c5ccc2[nH]5)C=C4)C=C3)cc1)c1ccc2c(c1)OCCO2
REMARK SMILES IDX 9 1 8 2 7 3 6 4 5 5 3 6 4 7 2 8 1 9 77 10 78 11 82 12 79 13
REMARK SMILES IDX 81 14 80 15 83 16 86 17 84 18 85 19 10 20 11 21 12 22 13 23
REMARK SMILES IDX 14 24 15 25 76 26 16 27 75 28 17 29 18 30 19 31 69 32 20 33
REMARK SMILES IDX 74 34 68 35 70 36 21 37 73 38 67 39 66 40 22 42 54 43 34 44
REMARK SMILES IDX 53 45 35 46 38 47 52 48 71 49 36 50 37 51 51 53 72 54 39 55
REMARK SMILES IDX 23 56 24 57 32 58 25 59 26 60 30 61 33 62 27 63 28 64 31 65
REMARK SMILES IDX 29 66 55 67 56 68 64 69 57 70 58 71 62 72 65 73 59 74 60 75
REMARK SMILES IDX 63 76 61 77 40 78 41 79 49 80 42 81 43 82 47 83 50 84 44 85
REMARK SMILES IDX 45 86 48 87 46 88
REMARK H PARENT 70 41 38 52
REMARK Flexibility Score: inf
ROOT
ATOM      1  C   UNL A   1      31.269  31.636  26.476  1.00  0.00     0.202 C 
ENDROOT
BRANCH   1   2
ATOM      2  O   UNL A   1      32.151  30.534  26.697  1.00  0.00    -0.374 OA
BRANCH   2   3
ATOM      3  C   UNL A   1      31.802  29.329  26.007  1.00  0.00     0.202 C 
BRANCH   3   4
ATOM      4  C   UNL A   1      31.451  28.160  26.932  1.00  0.00     0.261 C 
BRANCH   4   5
ATOM      5  O   UNL A   1      31.788  26.909  26.308  1.00  0.00    -0.463 OA
BRANCH   5   6
ATOM      6  C   UNL A   1      30.772  26.158  25.798  1.00  0.00     0.313 C 
ATOM      7  O   UNL A   1      29.929  25.578  26.472  1.00  0.00    -0.252 OA
BRANCH   6   8
ATOM      8  C   UNL A   1      30.754  26.169  24.262  1.00  0.00     0.126 C 
ATOM      9  C   UNL A   1      30.646  24.702  23.813  1.00  0.00     0.025 C 
BRANCH   8  10
ATOM     10  C   UNL A   1      29.682  27.063  23.639  1.00  0.00    -0.030 A 
ATOM     11  C   UNL A   1      28.310  26.850  23.872  1.00  0.00     0.009 A 
ATOM     12  C   UNL A   1      30.055  28.179  22.872  1.00  0.00     0.055 A 
ATOM     13  C   UNL A   1      27.368  27.826  23.539  1.00  0.00     0.051 A 
ATOM     14  C   UNL A   1      29.141  29.198  22.640  1.00  0.00     0.161 A 
ATOM     15  C   UNL A   1      27.808  29.033  23.012  1.00  0.00     0.161 A 
ATOM     16  O   UNL A   1      29.659  30.375  22.172  1.00  0.00    -0.486 OA
ATOM     17  O   UNL A   1      26.923  30.080  22.981  1.00  0.00    -0.486 OA
ATOM     18  C   UNL A   1      28.777  31.493  22.331  1.00  0.00     0.271 C 
ATOM     19  C   UNL A   1      27.661  31.255  23.340  1.00  0.00     0.271 C 
ENDBRANCH   8  10
ENDBRANCH   6   8
ENDBRANCH   5   6
ENDBRANCH   4   5
ENDBRANCH   3   4
ENDBRANCH   2   3
ENDBRANCH   1   2
BRANCH   1  20
ATOM     20  C   UNL A   1      31.782  32.982  26.988  1.00  0.00     0.261 C 
BRANCH  20  21
ATOM     21  O   UNL A   1      33.215  33.059  26.905  1.00  0.00    -0.460 OA
BRANCH  21  22
ATOM     22  C   UNL A   1      33.803  33.587  28.001  1.00  0.00     0.338 C 
ATOM     23  O   UNL A   1      33.368  34.476  28.722  1.00  0.00    -0.246 OA
BRANCH  22  24
ATOM     24  C   UNL A   1      35.038  32.853  28.323  1.00  0.00     0.060 A 
ATOM     25  C   UNL A   1      34.902  31.516  28.716  1.00  0.00     0.016 A 
ATOM     26  C   UNL A   1      36.293  33.470  28.326  1.00  0.00     0.016 A 
ATOM     27  C   UNL A   1      36.008  30.811  29.182  1.00  0.00     0.010 A 
ATOM     28  C   UNL A   1      37.404  32.760  28.794  1.00  0.00     0.010 A 
ATOM     29  C   UNL A   1      37.255  31.444  29.266  1.00  0.00    -0.014 A 
BRANCH  29  30
ATOM     30  C   UNL A   1      38.356  30.775  29.998  1.00  0.00     0.031 A 
ATOM     31  C   UNL A   1      38.590  31.130  31.440  1.00  0.00     0.074 A 
ATOM     32  C   UNL A   1      39.103  29.833  29.398  1.00  0.00     0.049 A 
ATOM     33  N   UNL A   1      39.494  30.677  32.272  1.00  0.00    -0.248 NA
ATOM     34  C   UNL A   1      37.683  32.131  32.024  1.00  0.00     0.031 C 
ATOM     35  C   UNL A   1      38.943  29.381  28.018  1.00  0.00     0.029 A 
ATOM     36  N   UNL A   1      40.150  29.087  29.880  1.00  0.00    -0.354 N 
ATOM     37  C   UNL A   1      39.263  31.336  33.472  1.00  0.00     0.074 A 
ATOM     38  C   UNL A   1      38.161  32.246  33.253  1.00  0.00     0.031 C 
ATOM     39  C   UNL A   1      39.866  28.439  27.759  1.00  0.00     0.029 A 
ATOM     40  C   UNL A   1      40.697  28.243  28.946  1.00  0.00     0.049 A 
ATOM     41  H   UNL A   1      40.477  29.150  30.806  1.00  0.00     0.167 HD
ATOM     42  C   UNL A   1      39.905  31.184  34.655  1.00  0.00     0.037 A 
ATOM     43  C   UNL A   1      41.759  27.420  29.038  1.00  0.00     0.037 A 
ATOM     44  C   UNL A   1      41.001  30.276  34.869  1.00  0.00     0.049 A 
ATOM     45  C   UNL A   1      42.497  27.314  30.347  1.00  0.00     0.074 A 
ATOM     46  C   UNL A   1      41.714  30.040  36.031  1.00  0.00     0.029 A 
ATOM     47  N   UNL A   1      41.546  29.457  33.891  1.00  0.00    -0.354 N 
ATOM     48  N   UNL A   1      42.259  27.924  31.484  1.00  0.00    -0.248 NA
ATOM     49  C   UNL A   1      43.648  26.401  30.388  1.00  0.00     0.031 C 
ATOM     50  C   UNL A   1      42.722  29.112  35.744  1.00  0.00     0.029 A 
ATOM     51  C   UNL A   1      42.602  28.731  34.416  1.00  0.00     0.049 A 
ATOM     52  H   UNL A   1      41.230  29.401  32.960  1.00  0.00     0.167 HD
ATOM     53  C   UNL A   1      43.209  27.451  32.379  1.00  0.00     0.074 A 
ATOM     54  C   UNL A   1      44.020  26.493  31.657  1.00  0.00     0.031 C 
ATOM     55  C   UNL A   1      43.394  27.779  33.681  1.00  0.00     0.037 A 
BRANCH  42  56
ATOM     56  C   UNL A   1      39.450  32.034  35.805  1.00  0.00     0.064 A 
ATOM     57  C   UNL A   1      40.001  33.302  36.048  1.00  0.00     0.173 A 
ATOM     58  C   UNL A   1      38.431  31.587  36.660  1.00  0.00     0.173 A 
ATOM     59  F   UNL A   1      40.989  33.768  35.271  1.00  0.00    -0.203 F 
ATOM     60  C   UNL A   1      39.566  34.079  37.118  1.00  0.00     0.198 A 
ATOM     61  C   UNL A   1      37.977  32.379  37.711  1.00  0.00     0.198 A 
ATOM     62  F   UNL A   1      37.869  30.385  36.469  1.00  0.00    -0.203 F 
ATOM     63  F   UNL A   1      40.138  35.267  37.359  1.00  0.00    -0.200 F 
ATOM     64  C   UNL A   1      38.550  33.621  37.945  1.00  0.00     0.200 A 
ATOM     65  F   UNL A   1      36.989  31.939  38.501  1.00  0.00    -0.200 F 
ATOM     66  F   UNL A   1      38.128  34.373  38.970  1.00  0.00    -0.200 F 
ENDBRANCH  42  56
BRANCH  43  67
ATOM     67  C   UNL A   1      42.194  26.638  27.852  1.00  0.00     0.064 A 
ATOM     68  C   UNL A   1      43.172  27.129  26.975  1.00  0.00     0.173 A 
ATOM     69  C   UNL A   1      41.634  25.385  27.567  1.00  0.00     0.173 A 
ATOM     70  F   UNL A   1      43.720  28.333  27.192  1.00  0.00    -0.203 F 
ATOM     71  C   UNL A   1      43.559  26.404  25.850  1.00  0.00     0.198 A 
ATOM     72  C   UNL A   1      42.040  24.647  26.457  1.00  0.00     0.198 A 
ATOM     73  F   UNL A   1      40.695  24.868  28.375  1.00  0.00    -0.203 F 
ATOM     74  F   UNL A   1      44.463  26.916  25.004  1.00  0.00    -0.200 F 
ATOM     75  C   UNL A   1      42.998  25.162  25.595  1.00  0.00     0.200 A 
ATOM     76  F   UNL A   1      41.506  23.442  26.222  1.00  0.00    -0.200 F 
ATOM     77  F   UNL A   1      43.372  24.463  24.515  1.00  0.00    -0.200 F 
ENDBRANCH  43  67
BRANCH  55  78
ATOM     78  C   UNL A   1      44.497  27.075  34.418  1.00  0.00     0.064 A 
ATOM     79  C   UNL A   1      45.783  27.625  34.519  1.00  0.00     0.173 A 
ATOM     80  C   UNL A   1      44.249  25.856  35.069  1.00  0.00     0.173 A 
ATOM     81  F   UNL A   1      46.072  28.781  33.902  1.00  0.00    -0.203 F 
ATOM     82  C   UNL A   1      46.788  26.969  35.224  1.00  0.00     0.198 A 
ATOM     83  C   UNL A   1      45.249  25.217  35.798  1.00  0.00     0.198 A 
ATOM     84  F   UNL A   1      43.034  25.292  35.011  1.00  0.00    -0.203 F 
ATOM     85  F   UNL A   1      48.022  27.490  35.269  1.00  0.00    -0.200 F 
ATOM     86  C   UNL A   1      46.518  25.770  35.868  1.00  0.00     0.200 A 
ATOM     87  F   UNL A   1      44.984  24.067  36.430  1.00  0.00    -0.200 F 
ATOM     88  F   UNL A   1      47.486  25.144  36.553  1.00  0.00    -0.200 F 
ENDBRANCH  55  78
ENDBRANCH  29  30
ENDBRANCH  22  24
ENDBRANCH  21  22
ENDBRANCH  20  21
ENDBRANCH   1  20
TORSDOF 15
ENDMDL
MODEL 2
REMARK VINA RESULT:     -11.4      5.297     10.709
REMARK SMILES C[C@H](C(=O)OCCOCCOC(=O)c1ccc(-c2c3nc(c(-c4c(F)c(F)c(F)c(F)c4F)c4ccc([nH]4)c(-c4c(F)c(F)c(F)c(F)c4F)c4nc(c(-c5c(F)c(F)c(F)c(F)c5F)c5ccc2[nH]5)C=C4)C=C3)cc1)c1ccc2c(c1)OCCO2
REMARK SMILES IDX 9 1 8 2 7 3 6 4 5 5 3 6 4 7 2 8 1 9 77 10 78 11 82 12 79 13
REMARK SMILES IDX 81 14 80 15 83 16 86 17 84 18 85 19 10 20 11 21 12 22 13 23
REMARK SMILES IDX 14 24 15 25 76 26 16 27 75 28 17 29 18 30 19 31 69 32 20 33
REMARK SMILES IDX 74 34 68 35 70 36 21 37 73 38 67 39 66 40 22 42 54 43 34 44
REMARK SMILES IDX 53 45 35 46 38 47 52 48 71 49 36 50 37 51 51 53 72 54 39 55
REMARK SMILES IDX 23 56 24 57 32 58 25 59 26 60 30 61 33 62 27 63 28 64 31 65
REMARK SMILES IDX 29 66 55 67 56 68 64 69 57 70 58 71 62 72 65 73 59 74 60 75
REMARK SMILES IDX 63 76 61 77 40 78 41 79 49 80 42 81 43 82 47 83 50 84 44 85
REMARK SMILES IDX 45 86 48 87 46 88
REMARK H PARENT 70 41 38 52
REMARK Flexibility Score: inf
ROOT
ATOM      1  C   UNL A   1      36.168  20.693  25.372  1.00  0.00     0.202 C 
ENDROOT
BRANCH   1   2
ATOM      2  O   UNL A   1      36.092  21.921  26.097  1.00  0.00    -0.374 OA
BRANCH   2   3
ATOM      3  C   UNL A   1      34.769  22.336  26.452  1.00  0.00     0.202 C 
BRANCH   3   4
ATOM      4  C   UNL A   1      34.235  23.501  25.613  1.00  0.00     0.261 C 
BRANCH   4   5
ATOM      5  O   UNL A   1      34.722  23.411  24.262  1.00  0.00    -0.463 OA
BRANCH   5   6
ATOM      6  C   UNL A   1      33.816  23.170  23.274  1.00  0.00     0.313 C 
ATOM      7  O   UNL A   1      34.031  23.329  22.078  1.00  0.00    -0.252 OA
BRANCH   6   8
ATOM      8  C   UNL A   1      32.496  22.604  23.820  1.00  0.00     0.126 C 
ATOM      9  C   UNL A   1      31.369  23.469  23.230  1.00  0.00     0.025 C 
BRANCH   8  10
ATOM     10  C   UNL A   1      32.288  21.108  23.576  1.00  0.00    -0.030 A 
ATOM     11  C   UNL A   1      32.057  20.591  22.287  1.00  0.00     0.009 A 
ATOM     12  C   UNL A   1      32.404  20.200  24.639  1.00  0.00     0.055 A 
ATOM     13  C   UNL A   1      32.153  19.220  22.039  1.00  0.00     0.051 A 
ATOM     14  C   UNL A   1      32.611  18.851  24.381  1.00  0.00     0.161 A 
ATOM     15  C   UNL A   1      32.525  18.374  23.074  1.00  0.00     0.161 A 
ATOM     16  O   UNL A   1      33.029  18.093  25.440  1.00  0.00    -0.486 OA
ATOM     17  O   UNL A   1      32.913  17.099  22.752  1.00  0.00    -0.486 OA
ATOM     18  C   UNL A   1      33.608  16.840  25.056  1.00  0.00     0.271 C 
ATOM     19  C   UNL A   1      34.030  16.783  23.593  1.00  0.00     0.271 C 
ENDBRANCH   8  10
ENDBRANCH   6   8
ENDBRANCH   5   6
ENDBRANCH   4   5
ENDBRANCH   3   4
ENDBRANCH   2   3
ENDBRANCH   1   2
BRANCH   1  20
ATOM     20  C   UNL A   1      37.586  20.234  25.031  1.00  0.00     0.261 C 
BRANCH  20  21
ATOM     21  O   UNL A   1      38.529  21.307  25.177  1.00  0.00    -0.460 OA
BRANCH  21  22
ATOM     22  C   UNL A   1      39.480  21.083  26.111  1.00  0.00     0.338 C 
ATOM     23  O   UNL A   1      40.042  20.024  26.359  1.00  0.00    -0.246 OA
BRANCH  22  24
ATOM     24  C   UNL A   1      39.875  22.348  26.753  1.00  0.00     0.060 A 
ATOM     25  C   UNL A   1      39.205  23.507  26.346  1.00  0.00     0.016 A 
ATOM     26  C   UNL A   1      40.931  22.422  27.668  1.00  0.00     0.016 A 
ATOM     27  C   UNL A   1      39.632  24.753  26.796  1.00  0.00     0.010 A 
ATOM     28  C   UNL A   1      41.359  23.674  28.119  1.00  0.00     0.010 A 
ATOM     29  C   UNL A   1      40.739  24.846  27.649  1.00  0.00    -0.014 A 
BRANCH  29  30
ATOM     30  C   UNL A   1      41.340  26.175  27.912  1.00  0.00     0.031 A 
ATOM     31  C   UNL A   1      42.735  26.450  27.426  1.00  0.00     0.074 A 
ATOM     32  C   UNL A   1      40.632  27.135  28.531  1.00  0.00     0.049 A 
ATOM     33  N   UNL A   1      43.459  27.533  27.545  1.00  0.00    -0.248 NA
ATOM     34  C   UNL A   1      43.407  25.354  26.707  1.00  0.00     0.031 C 
ATOM     35  C   UNL A   1      39.259  26.995  29.011  1.00  0.00     0.029 A 
ATOM     36  N   UNL A   1      40.977  28.421  28.862  1.00  0.00    -0.354 N 
ATOM     37  C   UNL A   1      44.666  27.251  26.919  1.00  0.00     0.074 A 
ATOM     38  C   UNL A   1      44.594  25.883  26.453  1.00  0.00     0.031 C 
ATOM     39  C   UNL A   1      38.879  28.148  29.585  1.00  0.00     0.029 A 
ATOM     40  C   UNL A   1      39.991  29.097  29.535  1.00  0.00     0.049 A 
ATOM     41  H   UNL A   1      41.848  28.821  28.638  1.00  0.00     0.167 HD
ATOM     42  C   UNL A   1      45.734  28.064  26.737  1.00  0.00     0.037 A 
ATOM     43  C   UNL A   1      39.995  30.335  30.065  1.00  0.00     0.037 A 
ATOM     44  C   UNL A   1      45.801  29.425  27.202  1.00  0.00     0.049 A 
ATOM     45  C   UNL A   1      41.218  31.201  29.904  1.00  0.00     0.074 A 
ATOM     46  C   UNL A   1      46.832  30.336  27.061  1.00  0.00     0.029 A 
ATOM     47  N   UNL A   1      44.792  30.067  27.905  1.00  0.00    -0.354 N 
ATOM     48  N   UNL A   1      42.347  30.934  29.291  1.00  0.00    -0.248 NA
ATOM     49  C   UNL A   1      41.166  32.542  30.503  1.00  0.00     0.031 C 
ATOM     50  C   UNL A   1      46.466  31.516  27.719  1.00  0.00     0.029 A 
ATOM     51  C   UNL A   1      45.185  31.356  28.226  1.00  0.00     0.049 A 
ATOM     52  H   UNL A   1      43.925  29.665  28.142  1.00  0.00     0.167 HD
ATOM     53  C   UNL A   1      43.126  32.077  29.407  1.00  0.00     0.074 A 
ATOM     54  C   UNL A   1      42.336  33.047  30.138  1.00  0.00     0.031 C 
ATOM     55  C   UNL A   1      44.382  32.306  28.950  1.00  0.00     0.037 A 
BRANCH  42  56
ATOM     56  C   UNL A   1      46.924  27.496  26.021  1.00  0.00     0.064 A 
ATOM     57  C   UNL A   1      47.069  27.610  24.630  1.00  0.00     0.173 A 
ATOM     58  C   UNL A   1      47.945  26.854  26.737  1.00  0.00     0.173 A 
ATOM     59  F   UNL A   1      46.113  28.201  23.897  1.00  0.00    -0.203 F 
ATOM     60  C   UNL A   1      48.181  27.081  23.980  1.00  0.00     0.198 A 
ATOM     61  C   UNL A   1      49.069  26.351  26.087  1.00  0.00     0.198 A 
ATOM     62  F   UNL A   1      47.856  26.721  28.068  1.00  0.00    -0.203 F 
ATOM     63  F   UNL A   1      48.277  27.161  22.646  1.00  0.00    -0.200 F 
ATOM     64  C   UNL A   1      49.183  26.458  24.709  1.00  0.00     0.200 A 
ATOM     65  F   UNL A   1      50.041  25.759  26.795  1.00  0.00    -0.200 F 
ATOM     66  F   UNL A   1      50.255  25.954  24.083  1.00  0.00    -0.200 F 
ENDBRANCH  42  56
BRANCH  43  67
ATOM     67  C   UNL A   1      38.805  30.828  30.806  1.00  0.00     0.064 A 
ATOM     68  C   UNL A   1      38.701  30.681  32.195  1.00  0.00     0.173 A 
ATOM     69  C   UNL A   1      37.742  31.450  30.135  1.00  0.00     0.173 A 
ATOM     70  F   UNL A   1      39.681  30.071  32.879  1.00  0.00    -0.203 F 
ATOM     71  C   UNL A   1      37.572  31.121  32.883  1.00  0.00     0.198 A 
ATOM     72  C   UNL A   1      36.625  31.914  30.826  1.00  0.00     0.198 A 
ATOM     73  F   UNL A   1      37.792  31.617  28.805  1.00  0.00    -0.203 F 
ATOM     74  F   UNL A   1      37.478  30.927  34.206  1.00  0.00    -0.200 F 
ATOM     75  C   UNL A   1      36.538  31.742  32.199  1.00  0.00     0.200 A 
ATOM     76  F   UNL A   1      35.636  32.526  30.163  1.00  0.00    -0.200 F 
ATOM     77  F   UNL A   1      35.454  32.168  32.862  1.00  0.00    -0.200 F 
ENDBRANCH  43  67
BRANCH  55  78
ATOM     78  C   UNL A   1      44.968  33.665  29.200  1.00  0.00     0.064 A 
ATOM     79  C   UNL A   1      45.744  33.934  30.336  1.00  0.00     0.173 A 
ATOM     80  C   UNL A   1      44.787  34.698  28.267  1.00  0.00     0.173 A 
ATOM     81  F   UNL A   1      45.935  32.983  31.263  1.00  0.00    -0.203 F 
ATOM     82  C   UNL A   1      46.298  35.195  30.542  1.00  0.00     0.198 A 
ATOM     83  C   UNL A   1      45.366  35.949  28.462  1.00  0.00     0.198 A 
ATOM     84  F   UNL A   1      44.059  34.490  27.160  1.00  0.00    -0.203 F 
ATOM     85  F   UNL A   1      46.999  35.443  31.657  1.00  0.00    -0.200 F 
ATOM     86  C   UNL A   1      46.114  36.198  29.602  1.00  0.00     0.200 A 
ATOM     87  F   UNL A   1      45.199  36.913  27.547  1.00  0.00    -0.200 F 
ATOM     88  F   UNL A   1      46.655  37.409  29.798  1.00  0.00    -0.200 F 
ENDBRANCH  55  78
ENDBRANCH  29  30
ENDBRANCH  22  24
ENDBRANCH  21  22
ENDBRANCH  20  21
ENDBRANCH   1  20
TORSDOF 15
ENDMDL
MODEL 3
REMARK VINA RESULT:     -11.3      5.189     10.609
REMARK SMILES C[C@H](C(=O)OCCOCCOC(=O)c1ccc(-c2c3nc(c(-c4c(F)c(F)c(F)c(F)c4F)c4ccc([nH]4)c(-c4c(F)c(F)c(F)c(F)c4F)c4nc(c(-c5c(F)c(F)c(F)c(F)c5F)c5ccc2[nH]5)C=C4)C=C3)cc1)c1ccc2c(c1)OCCO2
REMARK SMILES IDX 9 1 8 2 7 3 6 4 5 5 3 6 4 7 2 8 1 9 77 10 78 11 82 12 79 13
REMARK SMILES IDX 81 14 80 15 83 16 86 17 84 18 85 19 10 20 11 21 12 22 13 23
REMARK SMILES IDX 14 24 15 25 76 26 16 27 75 28 17 29 18 30 19 31 69 32 20 33
REMARK SMILES IDX 74 34 68 35 70 36 21 37 73 38 67 39 66 40 22 42 54 43 34 44
REMARK SMILES IDX 53 45 35 46 38 47 52 48 71 49 36 50 37 51 51 53 72 54 39 55
REMARK SMILES IDX 23 56 24 57 32 58 25 59 26 60 30 61 33 62 27 63 28 64 31 65
REMARK SMILES IDX 29 66 55 67 56 68 64 69 57 70 58 71 62 72 65 73 59 74 60 75
REMARK SMILES IDX 63 76 61 77 40 78 41 79 49 80 42 81 43 82 47 83 50 84 44 85
REMARK SMILES IDX 45 86 48 87 46 88
REMARK H PARENT 70 41 38 52
REMARK Flexibility Score: inf
ROOT
ATOM      1  C   UNL A   1      36.181  20.707  25.279  1.00  0.00     0.202 C 
ENDROOT
BRANCH   1   2
ATOM      2  O   UNL A   1      36.007  21.897  26.050  1.00  0.00    -0.374 OA
BRANCH   2   3
ATOM      3  C   UNL A   1      34.699  22.078  26.601  1.00  0.00     0.202 C 
BRANCH   3   4
ATOM      4  C   UNL A   1      33.988  23.346  26.118  1.00  0.00     0.261 C 
BRANCH   4   5
ATOM      5  O   UNL A   1      34.526  23.771  24.854  1.00  0.00    -0.463 OA
BRANCH   5   6
ATOM      6  C   UNL A   1      33.988  23.238  23.721  1.00  0.00     0.313 C 
ATOM      7  O   UNL A   1      34.593  23.087  22.667  1.00  0.00    -0.252 OA
BRANCH   6   8
ATOM      8  C   UNL A   1      32.537  22.776  23.928  1.00  0.00     0.126 C 
ATOM      9  C   UNL A   1      31.648  23.757  23.146  1.00  0.00     0.025 C 
BRANCH   8  10
ATOM     10  C   UNL A   1      32.271  21.313  23.566  1.00  0.00    -0.030 A 
ATOM     11  C   UNL A   1      32.022  20.910  22.241  1.00  0.00     0.009 A 
ATOM     12  C   UNL A   1      32.349  20.319  24.555  1.00  0.00     0.055 A 
ATOM     13  C   UNL A   1      32.064  19.560  21.885  1.00  0.00     0.051 A 
ATOM     14  C   UNL A   1      32.503  18.989  24.190  1.00  0.00     0.161 A 
ATOM     15  C   UNL A   1      32.400  18.620  22.850  1.00  0.00     0.161 A 
ATOM     16  O   UNL A   1      32.889  18.133  25.186  1.00  0.00    -0.486 OA
ATOM     17  O   UNL A   1      32.739  17.360  22.427  1.00  0.00    -0.486 OA
ATOM     18  C   UNL A   1      33.420  16.892  24.702  1.00  0.00     0.271 C 
ATOM     19  C   UNL A   1      33.841  16.935  23.239  1.00  0.00     0.271 C 
ENDBRANCH   8  10
ENDBRANCH   6   8
ENDBRANCH   5   6
ENDBRANCH   4   5
ENDBRANCH   3   4
ENDBRANCH   2   3
ENDBRANCH   1   2
BRANCH   1  20
ATOM     20  C   UNL A   1      37.636  20.329  25.000  1.00  0.00     0.261 C 
BRANCH  20  21
ATOM     21  O   UNL A   1      38.517  21.438  25.238  1.00  0.00    -0.460 OA
BRANCH  21  22
ATOM     22  C   UNL A   1      39.480  21.191  26.154  1.00  0.00     0.338 C 
ATOM     23  O   UNL A   1      40.049  20.127  26.365  1.00  0.00    -0.246 OA
BRANCH  22  24
ATOM     24  C   UNL A   1      39.878  22.439  26.826  1.00  0.00     0.060 A 
ATOM     25  C   UNL A   1      39.188  23.604  26.473  1.00  0.00     0.016 A 
ATOM     26  C   UNL A   1      40.955  22.494  27.718  1.00  0.00     0.016 A 
ATOM     27  C   UNL A   1      39.613  24.839  26.952  1.00  0.00     0.010 A 
ATOM     28  C   UNL A   1      41.382  23.736  28.199  1.00  0.00     0.010 A 
ATOM     29  C   UNL A   1      40.740  24.916  27.781  1.00  0.00    -0.014 A 
BRANCH  29  30
ATOM     30  C   UNL A   1      41.334  26.242  28.072  1.00  0.00     0.031 A 
ATOM     31  C   UNL A   1      42.730  26.532  27.595  1.00  0.00     0.074 A 
ATOM     32  C   UNL A   1      40.621  27.186  28.708  1.00  0.00     0.049 A 
ATOM     33  N   UNL A   1      43.449  27.616  27.739  1.00  0.00    -0.248 NA
ATOM     34  C   UNL A   1      43.408  25.454  26.857  1.00  0.00     0.031 C 
ATOM     35  C   UNL A   1      39.247  27.031  29.181  1.00  0.00     0.029 A 
ATOM     36  N   UNL A   1      40.959  28.468  29.065  1.00  0.00    -0.354 N 
ATOM     37  C   UNL A   1      44.659  27.351  27.111  1.00  0.00     0.074 A 
ATOM     38  C   UNL A   1      44.594  25.993  26.617  1.00  0.00     0.031 C 
ATOM     39  C   UNL A   1      38.861  28.172  29.777  1.00  0.00     0.029 A 
ATOM     40  C   UNL A   1      39.968  29.126  29.749  1.00  0.00     0.049 A 
ATOM     41  H   UNL A   1      41.829  28.875  28.852  1.00  0.00     0.167 HD
ATOM     42  C   UNL A   1      45.723  28.172  26.948  1.00  0.00     0.037 A 
ATOM     43  C   UNL A   1      39.966  30.353  30.303  1.00  0.00     0.037 A 
ATOM     44  C   UNL A   1      45.784  29.524  27.440  1.00  0.00     0.049 A 
ATOM     45  C   UNL A   1      41.186  31.226  30.163  1.00  0.00     0.074 A 
ATOM     46  C   UNL A   1      46.811  30.442  27.320  1.00  0.00     0.029 A 
ATOM     47  N   UNL A   1      44.770  30.147  28.153  1.00  0.00    -0.354 N 
ATOM     48  N   UNL A   1      42.317  30.977  29.548  1.00  0.00    -0.248 NA
ATOM     49  C   UNL A   1      41.126  32.555  30.789  1.00  0.00     0.031 C 
ATOM     50  C   UNL A   1      46.438  31.607  28.001  1.00  0.00     0.029 A 
ATOM     51  C   UNL A   1      45.157  31.431  28.500  1.00  0.00     0.049 A 
ATOM     52  H   UNL A   1      43.904  29.738  28.379  1.00  0.00     0.167 HD
ATOM     53  C   UNL A   1      43.091  32.121  29.690  1.00  0.00     0.074 A 
ATOM     54  C   UNL A   1      42.295  33.072  30.437  1.00  0.00     0.031 C 
ATOM     55  C   UNL A   1      44.347  32.364  29.241  1.00  0.00     0.037 A 
BRANCH  42  56
ATOM     56  C   UNL A   1      46.918  27.624  26.224  1.00  0.00     0.064 A 
ATOM     57  C   UNL A   1      47.966  26.987  26.908  1.00  0.00     0.173 A 
ATOM     58  C   UNL A   1      47.005  27.712  24.827  1.00  0.00     0.173 A 
ATOM     59  F   UNL A   1      47.939  26.891  28.245  1.00  0.00    -0.203 F 
ATOM     60  C   UNL A   1      49.066  26.481  26.221  1.00  0.00     0.198 A 
ATOM     61  C   UNL A   1      48.093  27.180  24.141  1.00  0.00     0.198 A 
ATOM     62  F   UNL A   1      46.030  28.309  24.126  1.00  0.00    -0.203 F 
ATOM     63  F   UNL A   1      50.076  25.918  26.898  1.00  0.00    -0.200 F 
ATOM     64  C   UNL A   1      49.126  26.572  24.838  1.00  0.00     0.200 A 
ATOM     65  F   UNL A   1      48.143  27.259  22.804  1.00  0.00    -0.200 F 
ATOM     66  F   UNL A   1      50.183  26.079  24.178  1.00  0.00    -0.200 F 
ENDBRANCH  42  56
BRANCH  43  67
ATOM     67  C   UNL A   1      38.772  30.826  31.050  1.00  0.00     0.064 A 
ATOM     68  C   UNL A   1      37.692  31.428  30.391  1.00  0.00     0.173 A 
ATOM     69  C   UNL A   1      38.691  30.691  32.444  1.00  0.00     0.173 A 
ATOM     70  F   UNL A   1      37.733  31.601  29.061  1.00  0.00    -0.203 F 
ATOM     71  C   UNL A   1      36.585  31.894  31.098  1.00  0.00     0.198 A 
ATOM     72  C   UNL A   1      37.573  31.131  33.148  1.00  0.00     0.198 A 
ATOM     73  F   UNL A   1      39.697  30.120  33.124  1.00  0.00    -0.203 F 
ATOM     74  F   UNL A   1      35.586  32.506  30.448  1.00  0.00    -0.200 F 
ATOM     75  C   UNL A   1      36.523  31.739  32.475  1.00  0.00     0.200 A 
ATOM     76  F   UNL A   1      37.511  30.968  34.476  1.00  0.00    -0.200 F 
ATOM     77  F   UNL A   1      35.457  32.184  33.154  1.00  0.00    -0.200 F 
ENDBRANCH  43  67
BRANCH  55  78
ATOM     78  C   UNL A   1      44.927  33.720  29.519  1.00  0.00     0.064 A 
ATOM     79  C   UNL A   1      45.699  33.970  30.663  1.00  0.00     0.173 A 
ATOM     80  C   UNL A   1      44.744  34.771  28.607  1.00  0.00     0.173 A 
ATOM     81  F   UNL A   1      45.892  33.001  31.571  1.00  0.00    -0.203 F 
ATOM     82  C   UNL A   1      46.247  35.228  30.895  1.00  0.00     0.198 A 
ATOM     83  C   UNL A   1      45.317  36.020  28.828  1.00  0.00     0.198 A 
ATOM     84  F   UNL A   1      44.020  34.582  27.494  1.00  0.00    -0.203 F 
ATOM     85  F   UNL A   1      46.944  35.457  32.017  1.00  0.00    -0.200 F 
ATOM     86  C   UNL A   1      46.062  36.249  29.975  1.00  0.00     0.200 A 
ATOM     87  F   UNL A   1      45.149  37.001  27.932  1.00  0.00    -0.200 F 
ATOM     88  F   UNL A   1      46.596  37.459  30.197  1.00  0.00    -0.200 F 
ENDBRANCH  55  78
ENDBRANCH  29  30
ENDBRANCH  22  24
ENDBRANCH  21  22
ENDBRANCH  20  21
ENDBRANCH   1  20
TORSDOF 15
ENDMDL
