MODEL 1
REMARK VINA RESULT:     -12.8      0.000      0.000
REMARK SMILES Cc1ccccc1OC1(C(=O)OCCOCCOC(=O)c2ccc(-c3c4nc(c(-c5c(F)c(F)c(F)c(F)c5F)c5ccc([nH]5)c(-c5c(F)c(F)c(F)c(F)c5F)c5nc(c(-c6c(F)c(F)c(F)c(F)c6F)c6ccc3[nH]6)C=C5)C=C4)cc2)CCN(C(=O)[C@H]2CCCCO2)CC1
REMARK SMILES IDX 15 1 14 2 13 3 12 4 10 5 11 6 9 7 84 8 96 9 85 10 95 11
REMARK SMILES IDX 86 12 87 13 88 14 8 15 7 16 1 17 2 18 3 19 4 20 6 21 5 22
REMARK SMILES IDX 89 23 90 24 94 25 91 26 93 27 92 28 16 29 17 30 18 31 19 32
REMARK SMILES IDX 20 33 21 34 22 35 83 36 23 37 82 38 24 39 25 40 26 41 76 42
REMARK SMILES IDX 27 43 81 44 75 45 77 46 28 47 80 48 74 49 73 50 29 52 61 53
REMARK SMILES IDX 41 54 60 55 42 56 45 57 59 58 78 59 43 60 44 61 58 63 79 64
REMARK SMILES IDX 46 65 30 66 31 67 39 68 32 69 33 70 37 71 40 72 34 73 35 74
REMARK SMILES IDX 38 75 36 76 62 77 63 78 71 79 64 80 65 81 69 82 72 83 66 84
REMARK SMILES IDX 67 85 70 86 68 87 47 88 48 89 56 90 49 91 50 92 54 93 57 94
REMARK SMILES IDX 51 95 52 96 55 97 53 98
REMARK H PARENT 77 51 45 62
REMARK Flexibility Score: inf
ROOT
ATOM      1  O   UNL A   1      31.648  26.626  24.528  1.00  0.00    -0.374 OA
ENDROOT
BRANCH   1   2
ATOM      2  C   UNL A   1      32.113  25.352  24.133  1.00  0.00     0.202 C 
BRANCH   2   3
ATOM      3  C   UNL A   1      30.943  24.412  24.281  1.00  0.00     0.261 C 
BRANCH   3   4
ATOM      4  O   UNL A   1      31.298  23.006  24.265  1.00  0.00    -0.460 OA
BRANCH   4   5
ATOM      5  C   UNL A   1      31.487  22.263  25.410  1.00  0.00     0.350 C 
ATOM      6  O   UNL A   1      30.924  22.464  26.475  1.00  0.00    -0.247 OA
BRANCH   5   7
ATOM      7  C   UNL A   1      32.589  21.188  25.128  1.00  0.00     0.209 C 
ATOM      8  C   UNL A   1      33.186  21.633  23.791  1.00  0.00     0.082 C 
ATOM      9  C   UNL A   1      33.456  21.195  26.391  1.00  0.00     0.082 C 
ATOM     10  C   UNL A   1      34.357  22.592  23.940  1.00  0.00     0.124 C 
ATOM     11  C   UNL A   1      34.828  21.845  26.296  1.00  0.00     0.124 C 
ATOM     12  N   UNL A   1      35.316  22.193  24.964  1.00  0.00    -0.340 N 
ATOM     13  C   UNL A   1      36.671  22.380  24.667  1.00  0.00     0.251 C 
ATOM     14  O   UNL A   1      37.016  22.837  23.573  1.00  0.00    -0.272 OA
BRANCH   7  15
ATOM     15  O   UNL A   1      31.928  19.916  24.976  1.00  0.00    -0.475 OA
BRANCH  15  16
ATOM     16  C   UNL A   1      32.475  18.706  24.626  1.00  0.00     0.123 A 
ATOM     17  C   UNL A   1      32.450  18.595  22.010  1.00  0.00     0.048 C 
ATOM     18  C   UNL A   1      32.740  18.094  23.386  1.00  0.00    -0.009 A 
ATOM     19  C   UNL A   1      33.274  16.782  23.351  1.00  0.00     0.007 A 
ATOM     20  C   UNL A   1      33.556  16.070  24.506  1.00  0.00     0.001 A 
ATOM     21  C   UNL A   1      32.774  17.958  25.783  1.00  0.00     0.047 A 
ATOM     22  C   UNL A   1      33.304  16.662  25.729  1.00  0.00     0.004 A 
ENDBRANCH  15  16
ENDBRANCH   7  15
BRANCH  13  23
ATOM     23  C   UNL A   1      37.724  21.959  25.722  1.00  0.00     0.207 C 
ATOM     24  C   UNL A   1      38.503  20.741  25.202  1.00  0.00     0.042 C 
ATOM     25  O   UNL A   1      38.608  23.065  25.942  1.00  0.00    -0.368 OA
ATOM     26  C   UNL A   1      39.708  20.417  26.075  1.00  0.00     0.006 C 
ATOM     27  C   UNL A   1      39.667  22.780  26.845  1.00  0.00     0.161 C 
ATOM     28  C   UNL A   1      40.544  21.666  26.299  1.00  0.00     0.029 C 
ENDBRANCH  13  23
ENDBRANCH   5   7
ENDBRANCH   4   5
ENDBRANCH   3   4
ENDBRANCH   2   3
ENDBRANCH   1   2
BRANCH   1  29
ATOM     29  C   UNL A   1      32.189  27.154  25.724  1.00  0.00     0.202 C 
BRANCH  29  30
ATOM     30  C   UNL A   1      33.339  28.137  25.476  1.00  0.00     0.261 C 
BRANCH  30  31
ATOM     31  O   UNL A   1      34.181  28.220  26.646  1.00  0.00    -0.460 OA
BRANCH  31  32
ATOM     32  C   UNL A   1      33.997  29.314  27.433  1.00  0.00     0.338 C 
ATOM     33  O   UNL A   1      32.953  29.950  27.522  1.00  0.00    -0.246 OA
BRANCH  32  34
ATOM     34  C   UNL A   1      35.309  29.796  27.949  1.00  0.00     0.060 A 
ATOM     35  C   UNL A   1      36.358  30.091  27.056  1.00  0.00     0.016 A 
ATOM     36  C   UNL A   1      35.582  29.629  29.304  1.00  0.00     0.016 A 
ATOM     37  C   UNL A   1      37.691  30.060  27.499  1.00  0.00     0.010 A 
ATOM     38  C   UNL A   1      36.891  29.469  29.700  1.00  0.00     0.010 A 
ATOM     39  C   UNL A   1      37.956  29.657  28.805  1.00  0.00    -0.014 A 
BRANCH  39  40
ATOM     40  C   UNL A   1      39.268  29.331  29.372  1.00  0.00     0.031 A 
ATOM     41  C   UNL A   1      39.908  28.057  28.951  1.00  0.00     0.074 A 
ATOM     42  C   UNL A   1      40.014  30.266  30.016  1.00  0.00     0.049 A 
ATOM     43  N   UNL A   1      41.026  27.634  29.425  1.00  0.00    -0.248 NA
ATOM     44  C   UNL A   1      39.330  27.117  27.987  1.00  0.00     0.031 C 
ATOM     45  C   UNL A   1      41.473  30.310  30.145  1.00  0.00     0.029 A 
ATOM     46  N   UNL A   1      39.611  31.406  30.731  1.00  0.00    -0.354 N 
ATOM     47  C   UNL A   1      41.472  26.617  28.620  1.00  0.00     0.074 A 
ATOM     48  C   UNL A   1      40.330  26.241  27.833  1.00  0.00     0.031 C 
ATOM     49  C   UNL A   1      41.817  31.185  31.105  1.00  0.00     0.029 A 
ATOM     50  C   UNL A   1      40.587  31.648  31.716  1.00  0.00     0.049 A 
ATOM     51  H   UNL A   1      38.797  31.937  30.574  1.00  0.00     0.167 HD
ATOM     52  C   UNL A   1      42.800  26.316  28.656  1.00  0.00     0.037 A 
ATOM     53  C   UNL A   1      40.287  31.635  33.042  1.00  0.00     0.037 A 
ATOM     54  C   UNL A   1      43.446  26.998  29.786  1.00  0.00     0.049 A 
ATOM     55  C   UNL A   1      41.068  30.544  33.708  1.00  0.00     0.074 A 
ATOM     56  C   UNL A   1      44.349  28.040  29.893  1.00  0.00     0.029 A 
ATOM     57  N   UNL A   1      42.932  26.793  31.069  1.00  0.00    -0.354 N 
ATOM     58  N   UNL A   1      41.503  29.506  33.047  1.00  0.00    -0.248 NA
ATOM     59  C   UNL A   1      41.522  30.565  35.092  1.00  0.00     0.031 C 
ATOM     60  C   UNL A   1      44.299  28.518  31.237  1.00  0.00     0.029 A 
ATOM     61  C   UNL A   1      43.405  27.738  31.957  1.00  0.00     0.049 A 
ATOM     62  H   UNL A   1      42.312  26.067  31.309  1.00  0.00     0.167 HD
ATOM     63  C   UNL A   1      42.342  28.789  33.837  1.00  0.00     0.074 A 
ATOM     64  C   UNL A   1      42.289  29.460  35.125  1.00  0.00     0.031 C 
ATOM     65  C   UNL A   1      43.022  27.707  33.368  1.00  0.00     0.037 A 
BRANCH  52  66
ATOM     66  C   UNL A   1      43.558  25.523  27.610  1.00  0.00     0.064 A 
ATOM     67  C   UNL A   1      44.305  26.198  26.618  1.00  0.00     0.173 A 
ATOM     68  C   UNL A   1      43.525  24.119  27.459  1.00  0.00     0.173 A 
ATOM     69  F   UNL A   1      44.400  27.535  26.611  1.00  0.00    -0.203 F 
ATOM     70  C   UNL A   1      44.970  25.525  25.584  1.00  0.00     0.198 A 
ATOM     71  C   UNL A   1      44.235  23.444  26.459  1.00  0.00     0.198 A 
ATOM     72  F   UNL A   1      42.762  23.336  28.229  1.00  0.00    -0.203 F 
ATOM     73  F   UNL A   1      45.624  26.224  24.647  1.00  0.00    -0.200 F 
ATOM     74  C   UNL A   1      44.950  24.147  25.515  1.00  0.00     0.200 A 
ATOM     75  F   UNL A   1      44.193  22.104  26.406  1.00  0.00    -0.200 F 
ATOM     76  F   UNL A   1      45.599  23.501  24.536  1.00  0.00    -0.200 F 
ENDBRANCH  52  66
BRANCH  53  77
ATOM     77  C   UNL A   1      38.905  32.116  33.309  1.00  0.00     0.064 A 
ATOM     78  C   UNL A   1      38.699  33.509  33.201  1.00  0.00     0.173 A 
ATOM     79  C   UNL A   1      37.790  31.286  33.129  1.00  0.00     0.173 A 
ATOM     80  F   UNL A   1      39.738  34.348  33.343  1.00  0.00    -0.203 F 
ATOM     81  C   UNL A   1      37.479  34.032  32.775  1.00  0.00     0.198 A 
ATOM     82  C   UNL A   1      36.567  31.818  32.702  1.00  0.00     0.198 A 
ATOM     83  F   UNL A   1      37.918  29.954  33.209  1.00  0.00    -0.203 F 
ATOM     84  F   UNL A   1      37.367  35.344  32.518  1.00  0.00    -0.200 F 
ATOM     85  C   UNL A   1      36.428  33.181  32.483  1.00  0.00     0.200 A 
ATOM     86  F   UNL A   1      35.553  30.997  32.391  1.00  0.00    -0.200 F 
ATOM     87  F   UNL A   1      35.310  33.666  31.923  1.00  0.00    -0.200 F 
ENDBRANCH  53  77
BRANCH  65  88
ATOM     88  C   UNL A   1      43.435  26.560  34.247  1.00  0.00     0.064 A 
ATOM     89  C   UNL A   1      42.511  25.740  34.919  1.00  0.00     0.173 A 
ATOM     90  C   UNL A   1      44.778  26.125  34.282  1.00  0.00     0.173 A 
ATOM     91  F   UNL A   1      41.190  25.958  34.847  1.00  0.00    -0.203 F 
ATOM     92  C   UNL A   1      42.908  24.618  35.642  1.00  0.00     0.198 A 
ATOM     93  C   UNL A   1      45.161  24.963  34.946  1.00  0.00     0.198 A 
ATOM     94  F   UNL A   1      45.751  26.787  33.640  1.00  0.00    -0.203 F 
ATOM     95  F   UNL A   1      41.991  23.903  36.308  1.00  0.00    -0.200 F 
ATOM     96  C   UNL A   1      44.231  24.222  35.646  1.00  0.00     0.200 A 
ATOM     97  F   UNL A   1      46.434  24.552  34.882  1.00  0.00    -0.200 F 
ATOM     98  F   UNL A   1      44.601  23.116  36.301  1.00  0.00    -0.200 F 
ENDBRANCH  65  88
ENDBRANCH  39  40
ENDBRANCH  32  34
ENDBRANCH  31  32
ENDBRANCH  30  31
ENDBRANCH  29  30
ENDBRANCH   1  29
TORSDOF 17
ENDMDL
MODEL 2
REMARK VINA RESULT:     -12.7      1.724      4.082
REMARK SMILES Cc1ccccc1OC1(C(=O)OCCOCCOC(=O)c2ccc(-c3c4nc(c(-c5c(F)c(F)c(F)c(F)c5F)c5ccc([nH]5)c(-c5c(F)c(F)c(F)c(F)c5F)c5nc(c(-c6c(F)c(F)c(F)c(F)c6F)c6ccc3[nH]6)C=C5)C=C4)cc2)CCN(C(=O)[C@H]2CCCCO2)CC1
REMARK SMILES IDX 15 1 14 2 13 3 12 4 10 5 11 6 9 7 84 8 96 9 85 10 95 11
REMARK SMILES IDX 86 12 87 13 88 14 8 15 7 16 1 17 2 18 3 19 4 20 6 21 5 22
REMARK SMILES IDX 89 23 90 24 94 25 91 26 93 27 92 28 16 29 17 30 18 31 19 32
REMARK SMILES IDX 20 33 21 34 22 35 83 36 23 37 82 38 24 39 25 40 26 41 76 42
REMARK SMILES IDX 27 43 81 44 75 45 77 46 28 47 80 48 74 49 73 50 29 52 61 53
REMARK SMILES IDX 41 54 60 55 42 56 45 57 59 58 78 59 43 60 44 61 58 63 79 64
REMARK SMILES IDX 46 65 30 66 31 67 39 68 32 69 33 70 37 71 40 72 34 73 35 74
REMARK SMILES IDX 38 75 36 76 62 77 63 78 71 79 64 80 65 81 69 82 72 83 66 84
REMARK SMILES IDX 67 85 70 86 68 87 47 88 48 89 56 90 49 91 50 92 54 93 57 94
REMARK SMILES IDX 51 95 52 96 55 97 53 98
REMARK H PARENT 77 51 45 62
REMARK Flexibility Score: inf
ROOT
ATOM      1  O   UNL A   1      31.964  28.620  27.616  1.00  0.00    -0.374 OA
ENDROOT
BRANCH   1   2
ATOM      2  C   UNL A   1      31.597  27.417  26.973  1.00  0.00     0.202 C 
BRANCH   2   3
ATOM      3  C   UNL A   1      32.861  26.861  26.366  1.00  0.00     0.261 C 
BRANCH   3   4
ATOM      4  O   UNL A   1      32.865  25.419  26.206  1.00  0.00    -0.460 OA
BRANCH   4   5
ATOM      5  C   UNL A   1      31.745  24.695  25.864  1.00  0.00     0.350 C 
ATOM      6  O   UNL A   1      30.704  24.673  26.502  1.00  0.00    -0.247 OA
BRANCH   5   7
ATOM      7  C   UNL A   1      32.066  23.862  24.578  1.00  0.00     0.209 C 
ATOM      8  C   UNL A   1      33.593  23.766  24.588  1.00  0.00     0.082 C 
ATOM      9  C   UNL A   1      31.221  22.592  24.731  1.00  0.00     0.082 C 
ATOM     10  C   UNL A   1      34.120  22.552  25.338  1.00  0.00     0.124 C 
ATOM     11  C   UNL A   1      31.949  21.305  25.093  1.00  0.00     0.124 C 
ATOM     12  N   UNL A   1      33.407  21.318  25.030  1.00  0.00    -0.340 N 
ATOM     13  C   UNL A   1      34.181  20.158  24.906  1.00  0.00     0.251 C 
ATOM     14  O   UNL A   1      35.409  20.206  25.028  1.00  0.00    -0.272 OA
BRANCH   7  15
ATOM     15  O   UNL A   1      31.625  24.628  23.441  1.00  0.00    -0.475 OA
BRANCH  15  16
ATOM     16  C   UNL A   1      31.401  25.981  23.358  1.00  0.00     0.123 A 
ATOM     17  C   UNL A   1      28.890  26.370  23.989  1.00  0.00     0.048 C 
ATOM     18  C   UNL A   1      30.269  26.783  23.594  1.00  0.00    -0.009 A 
ATOM     19  C   UNL A   1      30.338  28.180  23.362  1.00  0.00     0.007 A 
ATOM     20  C   UNL A   1      31.494  28.796  22.913  1.00  0.00     0.001 A 
ATOM     21  C   UNL A   1      32.564  26.636  22.902  1.00  0.00     0.047 A 
ATOM     22  C   UNL A   1      32.614  28.019  22.682  1.00  0.00     0.004 A 
ENDBRANCH  15  16
ENDBRANCH   7  15
BRANCH  13  23
ATOM     23  C   UNL A   1      33.466  18.826  24.568  1.00  0.00     0.207 C 
ATOM     24  C   UNL A   1      34.468  17.866  23.909  1.00  0.00     0.042 C 
ATOM     25  O   UNL A   1      32.958  18.265  25.784  1.00  0.00    -0.368 OA
ATOM     26  C   UNL A   1      33.903  16.459  23.764  1.00  0.00     0.006 C 
ATOM     27  C   UNL A   1      32.335  16.999  25.616  1.00  0.00     0.161 C 
ATOM     28  C   UNL A   1      33.336  15.983  25.091  1.00  0.00     0.029 C 
ENDBRANCH  13  23
ENDBRANCH   5   7
ENDBRANCH   4   5
ENDBRANCH   3   4
ENDBRANCH   2   3
ENDBRANCH   1   2
BRANCH   1  29
ATOM     29  C   UNL A   1      32.186  29.740  26.782  1.00  0.00     0.202 C 
BRANCH  29  30
ATOM     30  C   UNL A   1      33.657  30.172  26.740  1.00  0.00     0.261 C 
BRANCH  30  31
ATOM     31  O   UNL A   1      33.962  31.003  27.881  1.00  0.00    -0.460 OA
BRANCH  31  32
ATOM     32  C   UNL A   1      35.240  31.463  27.954  1.00  0.00     0.338 C 
ATOM     33  O   UNL A   1      35.602  32.590  27.639  1.00  0.00    -0.246 OA
BRANCH  32  34
ATOM     34  C   UNL A   1      36.175  30.329  28.200  1.00  0.00     0.060 A 
ATOM     35  C   UNL A   1      36.271  29.752  29.482  1.00  0.00     0.016 A 
ATOM     36  C   UNL A   1      37.167  30.081  27.256  1.00  0.00     0.016 A 
ATOM     37  C   UNL A   1      37.435  29.064  29.860  1.00  0.00     0.010 A 
ATOM     38  C   UNL A   1      38.355  29.524  27.675  1.00  0.00     0.010 A 
ATOM     39  C   UNL A   1      38.513  29.032  28.981  1.00  0.00    -0.014 A 
BRANCH  39  40
ATOM     40  C   UNL A   1      39.876  28.583  29.280  1.00  0.00     0.031 A 
ATOM     41  C   UNL A   1      40.246  27.193  28.905  1.00  0.00     0.074 A 
ATOM     42  C   UNL A   1      40.857  29.464  29.606  1.00  0.00     0.049 A 
ATOM     43  N   UNL A   1      41.388  26.666  29.170  1.00  0.00    -0.248 NA
ATOM     44  C   UNL A   1      39.349  26.248  28.233  1.00  0.00     0.031 C 
ATOM     45  C   UNL A   1      42.300  29.311  29.399  1.00  0.00     0.029 A 
ATOM     46  N   UNL A   1      40.771  30.719  30.231  1.00  0.00    -0.354 N 
ATOM     47  C   UNL A   1      41.509  25.516  28.433  1.00  0.00     0.074 A 
ATOM     48  C   UNL A   1      40.176  25.226  27.980  1.00  0.00     0.031 C 
ATOM     49  C   UNL A   1      42.962  30.224  30.129  1.00  0.00     0.029 A 
ATOM     50  C   UNL A   1      41.976  30.922  30.929  1.00  0.00     0.049 A 
ATOM     51  H   UNL A   1      40.009  31.342  30.189  1.00  0.00     0.167 HD
ATOM     52  C   UNL A   1      42.763  25.033  28.211  1.00  0.00     0.037 A 
ATOM     53  C   UNL A   1      42.002  31.093  32.278  1.00  0.00     0.037 A 
ATOM     54  C   UNL A   1      43.735  25.731  29.064  1.00  0.00     0.049 A 
ATOM     55  C   UNL A   1      42.790  29.979  32.896  1.00  0.00     0.074 A 
ATOM     56  C   UNL A   1      44.751  26.638  28.823  1.00  0.00     0.029 A 
ATOM     57  N   UNL A   1      43.524  25.739  30.446  1.00  0.00    -0.354 N 
ATOM     58  N   UNL A   1      42.931  28.824  32.302  1.00  0.00    -0.248 NA
ATOM     59  C   UNL A   1      43.561  30.081  34.127  1.00  0.00     0.031 C 
ATOM     60  C   UNL A   1      45.080  27.258  30.066  1.00  0.00     0.029 A 
ATOM     61  C   UNL A   1      44.301  26.695  31.068  1.00  0.00     0.049 A 
ATOM     62  H   UNL A   1      42.900  25.140  30.915  1.00  0.00     0.167 HD
ATOM     63  C   UNL A   1      43.846  28.082  32.976  1.00  0.00     0.074 A 
ATOM     64  C   UNL A   1      44.182  28.887  34.139  1.00  0.00     0.031 C 
ATOM     65  C   UNL A   1      44.265  26.870  32.519  1.00  0.00     0.037 A 
BRANCH  52  66
ATOM     66  C   UNL A   1      43.153  24.033  27.141  1.00  0.00     0.064 A 
ATOM     67  C   UNL A   1      42.814  22.669  27.293  1.00  0.00     0.173 A 
ATOM     68  C   UNL A   1      43.932  24.315  25.997  1.00  0.00     0.173 A 
ATOM     69  F   UNL A   1      42.105  22.245  28.349  1.00  0.00    -0.203 F 
ATOM     70  C   UNL A   1      43.205  21.686  26.375  1.00  0.00     0.198 A 
ATOM     71  C   UNL A   1      44.275  23.341  25.052  1.00  0.00     0.198 A 
ATOM     72  F   UNL A   1      44.450  25.525  25.766  1.00  0.00    -0.203 F 
ATOM     73  F   UNL A   1      42.892  20.403  26.599  1.00  0.00    -0.200 F 
ATOM     74  C   UNL A   1      43.921  22.024  25.245  1.00  0.00     0.200 A 
ATOM     75  F   UNL A   1      44.979  23.692  23.964  1.00  0.00    -0.200 F 
ATOM     76  F   UNL A   1      44.282  21.088  24.357  1.00  0.00    -0.200 F 
ENDBRANCH  52  66
BRANCH  53  77
ATOM     77  C   UNL A   1      40.789  31.793  32.780  1.00  0.00     0.064 A 
ATOM     78  C   UNL A   1      40.675  33.159  32.440  1.00  0.00     0.173 A 
ATOM     79  C   UNL A   1      39.604  31.100  33.061  1.00  0.00     0.173 A 
ATOM     80  F   UNL A   1      41.777  33.865  32.140  1.00  0.00    -0.203 F 
ATOM     81  C   UNL A   1      39.431  33.756  32.237  1.00  0.00     0.198 A 
ATOM     82  C   UNL A   1      38.358  31.705  32.856  1.00  0.00     0.198 A 
ATOM     83  F   UNL A   1      39.641  29.798  33.381  1.00  0.00    -0.203 F 
ATOM     84  F   UNL A   1      39.360  35.004  31.750  1.00  0.00    -0.200 F 
ATOM     85  C   UNL A   1      38.275  33.014  32.401  1.00  0.00     0.200 A 
ATOM     86  F   UNL A   1      37.234  30.985  32.986  1.00  0.00    -0.200 F 
ATOM     87  F   UNL A   1      37.090  33.536  32.052  1.00  0.00    -0.200 F 
ENDBRANCH  53  77
BRANCH  65  88
ATOM     88  C   UNL A   1      44.743  25.776  33.432  1.00  0.00     0.064 A 
ATOM     89  C   UNL A   1      43.867  24.958  34.169  1.00  0.00     0.173 A 
ATOM     90  C   UNL A   1      46.099  25.383  33.441  1.00  0.00     0.173 A 
ATOM     91  F   UNL A   1      42.538  25.134  34.132  1.00  0.00    -0.203 F 
ATOM     92  C   UNL A   1      44.323  23.881  34.926  1.00  0.00     0.198 A 
ATOM     93  C   UNL A   1      46.539  24.263  34.141  1.00  0.00     0.198 A 
ATOM     94  F   UNL A   1      47.030  26.045  32.739  1.00  0.00    -0.203 F 
ATOM     95  F   UNL A   1      43.450  23.169  35.652  1.00  0.00    -0.200 F 
ATOM     96  C   UNL A   1      45.656  23.526  34.902  1.00  0.00     0.200 A 
ATOM     97  F   UNL A   1      47.823  23.888  34.051  1.00  0.00    -0.200 F 
ATOM     98  F   UNL A   1      46.082  22.461  35.591  1.00  0.00    -0.200 F 
ENDBRANCH  65  88
ENDBRANCH  39  40
ENDBRANCH  32  34
ENDBRANCH  31  32
ENDBRANCH  30  31
ENDBRANCH  29  30
ENDBRANCH   1  29
TORSDOF 17
ENDMDL
MODEL 3
REMARK VINA RESULT:     -12.4      3.141      9.442
REMARK SMILES Cc1ccccc1OC1(C(=O)OCCOCCOC(=O)c2ccc(-c3c4nc(c(-c5c(F)c(F)c(F)c(F)c5F)c5ccc([nH]5)c(-c5c(F)c(F)c(F)c(F)c5F)c5nc(c(-c6c(F)c(F)c(F)c(F)c6F)c6ccc3[nH]6)C=C5)C=C4)cc2)CCN(C(=O)[C@H]2CCCCO2)CC1
REMARK SMILES IDX 15 1 14 2 13 3 12 4 10 5 11 6 9 7 84 8 96 9 85 10 95 11
REMARK SMILES IDX 86 12 87 13 88 14 8 15 7 16 1 17 2 18 3 19 4 20 6 21 5 22
REMARK SMILES IDX 89 23 90 24 94 25 91 26 93 27 92 28 16 29 17 30 18 31 19 32
REMARK SMILES IDX 20 33 21 34 22 35 83 36 23 37 82 38 24 39 25 40 26 41 76 42
REMARK SMILES IDX 27 43 81 44 75 45 77 46 28 47 80 48 74 49 73 50 29 52 61 53
REMARK SMILES IDX 41 54 60 55 42 56 45 57 59 58 78 59 43 60 44 61 58 63 79 64
REMARK SMILES IDX 46 65 30 66 31 67 39 68 32 69 33 70 37 71 40 72 34 73 35 74
REMARK SMILES IDX 38 75 36 76 62 77 63 78 71 79 64 80 65 81 69 82 72 83 66 84
REMARK SMILES IDX 67 85 70 86 68 87 47 88 48 89 56 90 49 91 50 92 54 93 57 94
REMARK SMILES IDX 51 95 52 96 55 97 53 98
REMARK H PARENT 77 51 45 62
REMARK Flexibility Score: inf
ROOT
ATOM      1  O   UNL A   1      36.301  22.328  25.889  1.00  0.00    -0.374 OA
ENDROOT
BRANCH   1   2
ATOM      2  C   UNL A   1      36.087  23.700  25.630  1.00  0.00     0.202 C 
BRANCH   2   3
ATOM      3  C   UNL A   1      35.471  23.778  24.256  1.00  0.00     0.261 C 
BRANCH   3   4
ATOM      4  O   UNL A   1      34.403  24.752  24.131  1.00  0.00    -0.460 OA
BRANCH   4   5
ATOM      5  C   UNL A   1      33.402  24.656  23.190  1.00  0.00     0.350 C 
ATOM      6  O   UNL A   1      33.571  24.373  22.014  1.00  0.00    -0.247 OA
BRANCH   5   7
ATOM      7  C   UNL A   1      32.045  25.045  23.868  1.00  0.00     0.209 C 
ATOM      8  C   UNL A   1      32.473  25.942  25.032  1.00  0.00     0.082 C 
ATOM      9  C   UNL A   1      31.206  25.626  22.725  1.00  0.00     0.082 C 
ATOM     10  C   UNL A   1      32.551  27.415  24.664  1.00  0.00     0.124 C 
ATOM     11  C   UNL A   1      31.006  27.134  22.700  1.00  0.00     0.124 C 
ATOM     12  N   UNL A   1      31.414  27.886  23.882  1.00  0.00    -0.340 N 
ATOM     13  C   UNL A   1      30.920  29.159  24.192  1.00  0.00     0.251 C 
ATOM     14  O   UNL A   1      31.420  29.821  25.106  1.00  0.00    -0.272 OA
BRANCH   7  15
ATOM     15  O   UNL A   1      31.447  23.834  24.370  1.00  0.00    -0.475 OA
BRANCH  15  16
ATOM     16  C   UNL A   1      32.068  22.676  24.768  1.00  0.00     0.123 A 
ATOM     17  C   UNL A   1      32.788  23.023  27.262  1.00  0.00     0.048 C 
ATOM     18  C   UNL A   1      32.642  22.263  25.985  1.00  0.00    -0.009 A 
ATOM     19  C   UNL A   1      33.272  20.995  26.070  1.00  0.00     0.007 A 
ATOM     20  C   UNL A   1      33.339  20.132  24.989  1.00  0.00     0.001 A 
ATOM     21  C   UNL A   1      32.150  21.775  23.686  1.00  0.00     0.047 A 
ATOM     22  C   UNL A   1      32.775  20.525  23.789  1.00  0.00     0.004 A 
ENDBRANCH  15  16
ENDBRANCH   7  15
BRANCH  13  23
ATOM     23  C   UNL A   1      29.705  29.694  23.394  1.00  0.00     0.207 C 
ATOM     24  C   UNL A   1      29.154  30.948  24.090  1.00  0.00     0.042 C 
ATOM     25  O   UNL A   1      30.140  30.007  22.066  1.00  0.00    -0.368 OA
ATOM     26  C   UNL A   1      28.112  31.664  23.240  1.00  0.00     0.006 C 
ATOM     27  C   UNL A   1      29.126  30.574  21.249  1.00  0.00     0.161 C 
ATOM     28  C   UNL A   1      28.649  31.892  21.836  1.00  0.00     0.029 C 
ENDBRANCH  13  23
ENDBRANCH   5   7
ENDBRANCH   4   5
ENDBRANCH   3   4
ENDBRANCH   2   3
ENDBRANCH   1   2
BRANCH   1  29
ATOM     29  C   UNL A   1      37.030  21.606  24.915  1.00  0.00     0.202 C 
BRANCH  29  30
ATOM     30  C   UNL A   1      38.399  21.135  25.423  1.00  0.00     0.261 C 
BRANCH  30  31
ATOM     31  O   UNL A   1      39.314  22.250  25.489  1.00  0.00    -0.460 OA
BRANCH  31  32
ATOM     32  C   UNL A   1      39.741  22.592  26.735  1.00  0.00     0.338 C 
ATOM     33  O   UNL A   1      40.031  21.800  27.622  1.00  0.00    -0.246 OA
BRANCH  32  34
ATOM     34  C   UNL A   1      39.538  24.052  26.958  1.00  0.00     0.060 A 
ATOM     35  C   UNL A   1      40.196  24.994  26.142  1.00  0.00     0.016 A 
ATOM     36  C   UNL A   1      38.974  24.458  28.164  1.00  0.00     0.016 A 
ATOM     37  C   UNL A   1      40.424  26.297  26.612  1.00  0.00     0.010 A 
ATOM     38  C   UNL A   1      39.316  25.692  28.671  1.00  0.00     0.010 A 
ATOM     39  C   UNL A   1      40.060  26.614  27.918  1.00  0.00    -0.014 A 
BRANCH  39  40
ATOM     40  C   UNL A   1      40.426  27.824  28.661  1.00  0.00     0.031 A 
ATOM     41  C   UNL A   1      39.471  28.964  28.643  1.00  0.00     0.074 A 
ATOM     42  C   UNL A   1      41.434  27.819  29.570  1.00  0.00     0.049 A 
ATOM     43  N   UNL A   1      39.707  30.096  29.206  1.00  0.00    -0.248 NA
ATOM     44  C   UNL A   1      38.177  28.951  27.956  1.00  0.00     0.031 C 
ATOM     45  C   UNL A   1      41.583  28.684  30.744  1.00  0.00     0.029 A 
ATOM     46  N   UNL A   1      42.591  27.024  29.630  1.00  0.00    -0.354 N 
ATOM     47  C   UNL A   1      38.528  30.794  29.267  1.00  0.00     0.074 A 
ATOM     48  C   UNL A   1      37.646  30.111  28.362  1.00  0.00     0.031 C 
ATOM     49  C   UNL A   1      42.841  28.606  31.208  1.00  0.00     0.029 A 
ATOM     50  C   UNL A   1      43.585  27.780  30.278  1.00  0.00     0.049 A 
ATOM     51  H   UNL A   1      42.688  26.107  29.284  1.00  0.00     0.167 HD
ATOM     52  C   UNL A   1      38.434  31.798  30.184  1.00  0.00     0.037 A 
ATOM     53  C   UNL A   1      44.753  28.105  29.662  1.00  0.00     0.037 A 
ATOM     54  C   UNL A   1      39.757  32.098  30.748  1.00  0.00     0.049 A 
ATOM     55  C   UNL A   1      44.849  29.596  29.555  1.00  0.00     0.074 A 
ATOM     56  C   UNL A   1      40.341  31.908  31.988  1.00  0.00     0.029 A 
ATOM     57  N   UNL A   1      40.797  32.422  29.872  1.00  0.00    -0.354 N 
ATOM     58  N   UNL A   1      43.788  30.357  29.558  1.00  0.00    -0.248 NA
ATOM     59  C   UNL A   1      46.091  30.357  29.555  1.00  0.00     0.031 C 
ATOM     60  C   UNL A   1      41.753  32.030  31.823  1.00  0.00     0.029 A 
ATOM     61  C   UNL A   1      42.025  32.342  30.497  1.00  0.00     0.049 A 
ATOM     62  H   UNL A   1      40.669  32.676  28.929  1.00  0.00     0.167 HD
ATOM     63  C   UNL A   1      44.167  31.656  29.655  1.00  0.00     0.074 A 
ATOM     64  C   UNL A   1      45.619  31.616  29.602  1.00  0.00     0.031 C 
ATOM     65  C   UNL A   1      43.259  32.662  29.782  1.00  0.00     0.037 A 
BRANCH  52  66
ATOM     66  C   UNL A   1      37.147  32.427  30.681  1.00  0.00     0.064 A 
ATOM     67  C   UNL A   1      36.425  33.308  29.846  1.00  0.00     0.173 A 
ATOM     68  C   UNL A   1      36.615  32.290  31.982  1.00  0.00     0.173 A 
ATOM     69  F   UNL A   1      36.829  33.564  28.594  1.00  0.00    -0.203 F 
ATOM     70  C   UNL A   1      35.268  33.975  30.272  1.00  0.00     0.198 A 
ATOM     71  C   UNL A   1      35.429  32.913  32.389  1.00  0.00     0.198 A 
ATOM     72  F   UNL A   1      37.241  31.601  32.941  1.00  0.00    -0.203 F 
ATOM     73  F   UNL A   1      34.653  34.834  29.448  1.00  0.00    -0.200 F 
ATOM     74  C   UNL A   1      34.760  33.763  31.537  1.00  0.00     0.200 A 
ATOM     75  F   UNL A   1      34.959  32.700  33.627  1.00  0.00    -0.200 F 
ATOM     76  F   UNL A   1      33.645  34.387  31.940  1.00  0.00    -0.200 F 
ENDBRANCH  52  66
BRANCH  53  77
ATOM     77  C   UNL A   1      45.199  27.052  28.712  1.00  0.00     0.064 A 
ATOM     78  C   UNL A   1      44.964  27.308  27.343  1.00  0.00     0.173 A 
ATOM     79  C   UNL A   1      46.240  26.168  29.030  1.00  0.00     0.173 A 
ATOM     80  F   UNL A   1      43.994  28.164  26.984  1.00  0.00    -0.203 F 
ATOM     81  C   UNL A   1      45.825  26.833  26.356  1.00  0.00     0.198 A 
ATOM     82  C   UNL A   1      47.101  25.693  28.033  1.00  0.00     0.198 A 
ATOM     83  F   UNL A   1      46.522  25.888  30.310  1.00  0.00    -0.203 F 
ATOM     84  F   UNL A   1      45.673  27.234  25.085  1.00  0.00    -0.200 F 
ATOM     85  C   UNL A   1      46.919  26.063  26.708  1.00  0.00     0.200 A 
ATOM     86  F   UNL A   1      48.179  24.969  28.370  1.00  0.00    -0.200 F 
ATOM     87  F   UNL A   1      47.836  25.739  25.783  1.00  0.00    -0.200 F 
ENDBRANCH  53  77
BRANCH  65  88
ATOM     88  C   UNL A   1      43.514  34.059  29.288  1.00  0.00     0.064 A 
ATOM     89  C   UNL A   1      43.576  34.387  27.921  1.00  0.00     0.173 A 
ATOM     90  C   UNL A   1      43.508  35.153  30.181  1.00  0.00     0.173 A 
ATOM     91  F   UNL A   1      43.448  33.457  26.965  1.00  0.00    -0.203 F 
ATOM     92  C   UNL A   1      43.707  35.703  27.484  1.00  0.00     0.198 A 
ATOM     93  C   UNL A   1      43.567  36.470  29.735  1.00  0.00     0.198 A 
ATOM     94  F   UNL A   1      43.402  34.981  31.506  1.00  0.00    -0.203 F 
ATOM     95  F   UNL A   1      43.815  35.954  26.172  1.00  0.00    -0.200 F 
ATOM     96  C   UNL A   1      43.690  36.745  28.389  1.00  0.00     0.200 A 
ATOM     97  F   UNL A   1      43.477  37.473  30.619  1.00  0.00    -0.200 F 
ATOM     98  F   UNL A   1      43.766  38.011  27.961  1.00  0.00    -0.200 F 
ENDBRANCH  65  88
ENDBRANCH  39  40
ENDBRANCH  32  34
ENDBRANCH  31  32
ENDBRANCH  30  31
ENDBRANCH  29  30
ENDBRANCH   1  29
TORSDOF 17
ENDMDL
