MODEL 1
REMARK VINA RESULT:     -11.4      0.000      0.000
REMARK SMILES C[C@H]1[C@H](C(=O)OCCOCCOC(=O)c2ccc(-c3c4nc(c(-c5c(F)c(F)c(F)c(F)c5F)c5ccc([nH]5)c(-c5c(F)c(F)c(F)c(F)c5F)c5nc(c(-c6c(F)c(F)c(F)c(F)c6F)c6ccc3[nH]6)C=C5)C=C4)cc2)CCN1C(=O)[C@H]1CC[C@@H](C[NH3+])CC1
REMARK SMILES IDX 8 1 7 2 6 3 4 4 5 5 3 6 1 7 2 8 80 9 78 10 79 11 81 12 82 13
REMARK SMILES IDX 83 14 90 15 84 16 89 17 85 18 86 19 87 20 88 21 9 25 10 26
REMARK SMILES IDX 11 27 12 28 13 29 14 30 15 31 16 32 77 33 17 34 76 35 18 36
REMARK SMILES IDX 19 37 20 38 70 39 21 40 75 41 69 42 71 43 22 44 74 45 68 46
REMARK SMILES IDX 67 47 23 49 55 50 35 51 54 52 36 53 39 54 53 55 72 56 37 57
REMARK SMILES IDX 38 58 52 60 73 61 40 62 24 63 25 64 33 65 26 66 27 67 31 68
REMARK SMILES IDX 34 69 28 70 29 71 32 72 30 73 56 74 57 75 65 76 58 77 59 78
REMARK SMILES IDX 63 79 66 80 60 81 61 82 64 83 62 84 41 85 42 86 50 87 43 88
REMARK SMILES IDX 44 89 48 90 51 91 45 92 46 93 49 94 47 95
REMARK H PARENT 88 22 88 23 88 24 71 48 39 59
REMARK Flexibility Score: inf
ROOT
ATOM      1  C   UNL A   1      42.500  19.866  25.938  1.00  0.00     0.202 C 
ENDROOT
BRANCH   1   2
ATOM      2  C   UNL A   1      41.414  20.008  27.009  1.00  0.00     0.261 C 
BRANCH   2   3
ATOM      3  O   UNL A   1      40.149  20.469  26.502  1.00  0.00    -0.463 OA
BRANCH   3   4
ATOM      4  C   UNL A   1      39.865  21.770  26.775  1.00  0.00     0.311 C 
ATOM      5  O   UNL A   1      40.385  22.427  27.669  1.00  0.00    -0.252 OA
BRANCH   4   6
ATOM      6  C   UNL A   1      38.772  22.350  25.912  1.00  0.00     0.123 C 
ATOM      7  C   UNL A   1      37.432  20.859  24.460  1.00  0.00     0.032 C 
ATOM      8  C   UNL A   1      37.423  21.586  25.811  1.00  0.00     0.096 C 
ATOM      9  N   UNL A   1      36.393  22.649  25.891  1.00  0.00    -0.339 N 
ATOM     10  C   UNL A   1      38.407  23.747  26.382  1.00  0.00     0.039 C 
ATOM     11  C   UNL A   1      37.041  23.951  25.770  1.00  0.00     0.121 C 
BRANCH   9  12
ATOM     12  C   UNL A   1      35.035  22.651  26.132  1.00  0.00     0.225 C 
ATOM     13  O   UNL A   1      34.627  22.430  27.283  1.00  0.00    -0.275 OA
BRANCH  12  14
ATOM     14  C   UNL A   1      33.951  22.927  25.083  1.00  0.00     0.078 C 
ATOM     15  C   UNL A   1      34.398  22.662  23.646  1.00  0.00     0.014 C 
ATOM     16  C   UNL A   1      32.543  22.419  25.387  1.00  0.00     0.014 C 
ATOM     17  C   UNL A   1      33.366  23.136  22.622  1.00  0.00     0.010 C 
ATOM     18  C   UNL A   1      31.552  22.952  24.341  1.00  0.00     0.010 C 
ATOM     19  C   UNL A   1      31.956  22.587  22.902  1.00  0.00     0.044 C 
BRANCH  19  20
ATOM     20  C   UNL A   1      31.878  21.075  22.600  1.00  0.00     0.262 C 
BRANCH  20  21
ATOM     21  N   UNL A   1      31.756  20.809  21.172  1.00  0.00    -0.357 N 
ATOM     22  H   UNL A   1      32.618  21.081  20.701  1.00  0.00     0.344 HD
ATOM     23  H   UNL A   1      30.976  21.345  20.792  1.00  0.00     0.344 HD
ATOM     24  H   UNL A   1      31.587  19.814  21.025  1.00  0.00     0.344 HD
ENDBRANCH  20  21
ENDBRANCH  19  20
ENDBRANCH  12  14
ENDBRANCH   9  12
ENDBRANCH   4   6
ENDBRANCH   3   4
ENDBRANCH   2   3
ENDBRANCH   1   2
BRANCH   1  25
ATOM     25  O   UNL A   1      42.959  21.056  25.308  1.00  0.00    -0.374 OA
BRANCH  25  26
ATOM     26  C   UNL A   1      44.361  21.209  25.100  1.00  0.00     0.202 C 
BRANCH  26  27
ATOM     27  C   UNL A   1      44.829  22.487  24.398  1.00  0.00     0.261 C 
BRANCH  27  28
ATOM     28  O   UNL A   1      43.899  23.581  24.545  1.00  0.00    -0.460 OA
BRANCH  28  29
ATOM     29  C   UNL A   1      44.474  24.748  24.924  1.00  0.00     0.338 C 
ATOM     30  O   UNL A   1      45.558  25.184  24.558  1.00  0.00    -0.246 OA
BRANCH  29  31
ATOM     31  C   UNL A   1      43.576  25.549  25.776  1.00  0.00     0.060 A 
ATOM     32  C   UNL A   1      44.011  26.826  26.147  1.00  0.00     0.016 A 
ATOM     33  C   UNL A   1      42.409  25.018  26.327  1.00  0.00     0.016 A 
ATOM     34  C   UNL A   1      43.325  27.537  27.129  1.00  0.00     0.010 A 
ATOM     35  C   UNL A   1      41.723  25.728  27.320  1.00  0.00     0.010 A 
ATOM     36  C   UNL A   1      42.210  26.969  27.762  1.00  0.00    -0.014 A 
BRANCH  36  37
ATOM     37  C   UNL A   1      41.667  27.625  28.975  1.00  0.00     0.031 A 
ATOM     38  C   UNL A   1      42.391  27.469  30.284  1.00  0.00     0.074 A 
ATOM     39  C   UNL A   1      40.582  28.414  28.896  1.00  0.00     0.049 A 
ATOM     40  N   UNL A   1      42.165  28.055  31.434  1.00  0.00    -0.248 NA
ATOM     41  C   UNL A   1      43.523  26.530  30.302  1.00  0.00     0.031 C 
ATOM     42  C   UNL A   1      39.793  28.643  27.688  1.00  0.00     0.029 A 
ATOM     43  N   UNL A   1      39.964  29.177  29.855  1.00  0.00    -0.354 N 
ATOM     44  C   UNL A   1      43.130  27.566  32.304  1.00  0.00     0.074 A 
ATOM     45  C   UNL A   1      43.918  26.603  31.565  1.00  0.00     0.031 C 
ATOM     46  C   UNL A   1      38.797  29.499  27.974  1.00  0.00     0.029 A 
ATOM     47  C   UNL A   1      38.877  29.872  29.385  1.00  0.00     0.049 A 
ATOM     48  H   UNL A   1      40.270  29.221  30.788  1.00  0.00     0.167 HD
ATOM     49  C   UNL A   1      43.354  27.905  33.597  1.00  0.00     0.037 A 
ATOM     50  C   UNL A   1      38.048  30.720  30.022  1.00  0.00     0.037 A 
ATOM     51  C   UNL A   1      42.570  28.859  34.335  1.00  0.00     0.049 A 
ATOM     52  C   UNL A   1      38.302  31.060  31.468  1.00  0.00     0.074 A 
ATOM     53  C   UNL A   1      42.734  29.288  35.642  1.00  0.00     0.029 A 
ATOM     54  N   UNL A   1      41.465  29.529  33.831  1.00  0.00    -0.354 N 
ATOM     55  N   UNL A   1      39.258  30.644  32.262  1.00  0.00    -0.248 NA
ATOM     56  C   UNL A   1      37.369  32.006  32.098  1.00  0.00     0.031 C 
ATOM     57  C   UNL A   1      41.704  30.188  35.940  1.00  0.00     0.029 A 
ATOM     58  C   UNL A   1      40.925  30.352  34.806  1.00  0.00     0.049 A 
ATOM     59  H   UNL A   1      41.115  29.432  32.916  1.00  0.00     0.167 HD
ATOM     60  C   UNL A   1      39.059  31.295  33.473  1.00  0.00     0.074 A 
ATOM     61  C   UNL A   1      37.899  32.146  33.304  1.00  0.00     0.031 C 
ATOM     62  C   UNL A   1      39.774  31.197  34.621  1.00  0.00     0.037 A 
BRANCH  49  63
ATOM     63  C   UNL A   1      44.493  27.228  34.302  1.00  0.00     0.064 A 
ATOM     64  C   UNL A   1      44.298  26.060  35.054  1.00  0.00     0.173 A 
ATOM     65  C   UNL A   1      45.799  27.729  34.193  1.00  0.00     0.173 A 
ATOM     66  F   UNL A   1      43.067  25.547  35.198  1.00  0.00    -0.203 F 
ATOM     67  C   UNL A   1      45.366  25.431  35.690  1.00  0.00     0.198 A 
ATOM     68  C   UNL A   1      46.867  27.084  34.810  1.00  0.00     0.198 A 
ATOM     69  F   UNL A   1      46.038  28.840  33.481  1.00  0.00    -0.203 F 
ATOM     70  F   UNL A   1      45.150  24.339  36.435  1.00  0.00    -0.200 F 
ATOM     71  C   UNL A   1      46.649  25.940  35.563  1.00  0.00     0.200 A 
ATOM     72  F   UNL A   1      48.109  27.571  34.677  1.00  0.00    -0.200 F 
ATOM     73  F   UNL A   1      47.677  25.331  36.170  1.00  0.00    -0.200 F 
ENDBRANCH  49  63
BRANCH  50  74
ATOM     74  C   UNL A   1      36.914  31.334  29.288  1.00  0.00     0.064 A 
ATOM     75  C   UNL A   1      36.930  32.688  28.932  1.00  0.00     0.173 A 
ATOM     76  C   UNL A   1      35.787  30.577  28.935  1.00  0.00     0.173 A 
ATOM     77  F   UNL A   1      37.977  33.456  29.267  1.00  0.00    -0.203 F 
ATOM     78  C   UNL A   1      35.854  33.269  28.264  1.00  0.00     0.198 A 
ATOM     79  C   UNL A   1      34.722  31.152  28.247  1.00  0.00     0.198 A 
ATOM     80  F   UNL A   1      35.726  29.275  29.255  1.00  0.00    -0.203 F 
ATOM     81  F   UNL A   1      35.876  34.576  27.971  1.00  0.00    -0.200 F 
ATOM     82  C   UNL A   1      34.752  32.499  27.918  1.00  0.00     0.200 A 
ATOM     83  F   UNL A   1      33.665  30.404  27.905  1.00  0.00    -0.200 F 
ATOM     84  F   UNL A   1      33.719  33.057  27.275  1.00  0.00    -0.200 F 
ENDBRANCH  50  74
BRANCH  62  85
ATOM     85  C   UNL A   1      39.339  32.054  35.775  1.00  0.00     0.064 A 
ATOM     86  C   UNL A   1      39.828  33.356  35.948  1.00  0.00     0.173 A 
ATOM     87  C   UNL A   1      38.402  31.574  36.702  1.00  0.00     0.173 A 
ATOM     88  F   UNL A   1      40.736  33.855  35.097  1.00  0.00    -0.203 F 
ATOM     89  C   UNL A   1      39.418  34.136  37.026  1.00  0.00     0.198 A 
ATOM     90  C   UNL A   1      37.973  32.366  37.763  1.00  0.00     0.198 A 
ATOM     91  F   UNL A   1      37.898  30.337  36.576  1.00  0.00    -0.203 F 
ATOM     92  F   UNL A   1      39.936  35.360  37.201  1.00  0.00    -0.200 F 
ATOM     93  C   UNL A   1      38.487  33.644  37.930  1.00  0.00     0.200 A 
ATOM     94  F   UNL A   1      37.067  31.893  38.629  1.00  0.00    -0.200 F 
ATOM     95  F   UNL A   1      38.094  34.396  38.966  1.00  0.00    -0.200 F 
ENDBRANCH  62  85
ENDBRANCH  36  37
ENDBRANCH  29  31
ENDBRANCH  28  29
ENDBRANCH  27  28
ENDBRANCH  26  27
ENDBRANCH  25  26
ENDBRANCH   1  25
TORSDOF 18
ENDMDL
MODEL 2
REMARK VINA RESULT:     -11.0      1.664      7.527
REMARK SMILES C[C@H]1[C@H](C(=O)OCCOCCOC(=O)c2ccc(-c3c4nc(c(-c5c(F)c(F)c(F)c(F)c5F)c5ccc([nH]5)c(-c5c(F)c(F)c(F)c(F)c5F)c5nc(c(-c6c(F)c(F)c(F)c(F)c6F)c6ccc3[nH]6)C=C5)C=C4)cc2)CCN1C(=O)[C@H]1CC[C@@H](C[NH3+])CC1
REMARK SMILES IDX 8 1 7 2 6 3 4 4 5 5 3 6 1 7 2 8 80 9 78 10 79 11 81 12 82 13
REMARK SMILES IDX 83 14 90 15 84 16 89 17 85 18 86 19 87 20 88 21 9 25 10 26
REMARK SMILES IDX 11 27 12 28 13 29 14 30 15 31 16 32 77 33 17 34 76 35 18 36
REMARK SMILES IDX 19 37 20 38 70 39 21 40 75 41 69 42 71 43 22 44 74 45 68 46
REMARK SMILES IDX 67 47 23 49 55 50 35 51 54 52 36 53 39 54 53 55 72 56 37 57
REMARK SMILES IDX 38 58 52 60 73 61 40 62 24 63 25 64 33 65 26 66 27 67 31 68
REMARK SMILES IDX 34 69 28 70 29 71 32 72 30 73 56 74 57 75 65 76 58 77 59 78
REMARK SMILES IDX 63 79 66 80 60 81 61 82 64 83 62 84 41 85 42 86 50 87 43 88
REMARK SMILES IDX 44 89 48 90 51 91 45 92 46 93 49 94 47 95
REMARK H PARENT 88 22 88 23 88 24 71 48 39 59
REMARK Flexibility Score: inf
ROOT
ATOM      1  C   UNL A   1      40.531  21.332  25.907  1.00  0.00     0.202 C 
ENDROOT
BRANCH   1   2
ATOM      2  C   UNL A   1      39.257  21.897  26.545  1.00  0.00     0.261 C 
BRANCH   2   3
ATOM      3  O   UNL A   1      38.244  22.275  25.595  1.00  0.00    -0.463 OA
BRANCH   3   4
ATOM      4  C   UNL A   1      37.638  23.464  25.851  1.00  0.00     0.311 C 
ATOM      5  O   UNL A   1      38.087  24.335  26.588  1.00  0.00    -0.252 OA
BRANCH   4   6
ATOM      6  C   UNL A   1      36.288  23.614  25.195  1.00  0.00     0.123 C 
ATOM      7  C   UNL A   1      35.972  22.877  22.853  1.00  0.00     0.032 C 
ATOM      8  C   UNL A   1      35.760  22.450  24.311  1.00  0.00     0.096 C 
ATOM      9  N   UNL A   1      34.329  22.330  24.678  1.00  0.00    -0.339 N 
ATOM     10  C   UNL A   1      35.210  23.843  26.240  1.00  0.00     0.039 C 
ATOM     11  C   UNL A   1      33.948  23.480  25.492  1.00  0.00     0.121 C 
BRANCH   9  12
ATOM     12  C   UNL A   1      33.368  21.359  24.486  1.00  0.00     0.225 C 
ATOM     13  O   UNL A   1      32.174  21.651  24.656  1.00  0.00    -0.275 OA
BRANCH  12  14
ATOM     14  C   UNL A   1      33.645  19.914  24.053  1.00  0.00     0.078 C 
ATOM     15  C   UNL A   1      34.660  19.187  24.934  1.00  0.00     0.014 C 
ATOM     16  C   UNL A   1      32.438  19.057  23.677  1.00  0.00     0.014 C 
ATOM     17  C   UNL A   1      35.059  17.828  24.357  1.00  0.00     0.010 C 
ATOM     18  C   UNL A   1      32.905  17.721  23.081  1.00  0.00     0.010 C 
ATOM     19  C   UNL A   1      33.843  16.946  24.022  1.00  0.00     0.044 C 
BRANCH  19  20
ATOM     20  C   UNL A   1      33.153  16.440  25.306  1.00  0.00     0.262 C 
BRANCH  20  21
ATOM     21  N   UNL A   1      32.464  15.172  25.093  1.00  0.00    -0.357 N 
ATOM     22  H   UNL A   1      31.481  15.351  24.886  1.00  0.00     0.344 HD
ATOM     23  H   UNL A   1      32.536  14.600  25.934  1.00  0.00     0.344 HD
ATOM     24  H   UNL A   1      32.893  14.680  24.310  1.00  0.00     0.344 HD
ENDBRANCH  20  21
ENDBRANCH  19  20
ENDBRANCH  12  14
ENDBRANCH   9  12
ENDBRANCH   4   6
ENDBRANCH   3   4
ENDBRANCH   2   3
ENDBRANCH   1   2
BRANCH   1  25
ATOM     25  O   UNL A   1      41.778  21.768  26.436  1.00  0.00    -0.374 OA
BRANCH  25  26
ATOM     26  C   UNL A   1      42.971  21.292  25.820  1.00  0.00     0.202 C 
BRANCH  26  27
ATOM     27  C   UNL A   1      43.867  22.329  25.135  1.00  0.00     0.261 C 
BRANCH  27  28
ATOM     28  O   UNL A   1      43.172  23.556  24.831  1.00  0.00    -0.460 OA
BRANCH  28  29
ATOM     29  C   UNL A   1      43.856  24.677  25.171  1.00  0.00     0.338 C 
ATOM     30  O   UNL A   1      44.952  25.023  24.750  1.00  0.00    -0.246 OA
BRANCH  29  31
ATOM     31  C   UNL A   1      43.064  25.552  26.056  1.00  0.00     0.060 A 
ATOM     32  C   UNL A   1      43.388  26.913  26.069  1.00  0.00     0.016 A 
ATOM     33  C   UNL A   1      42.134  25.043  26.962  1.00  0.00     0.016 A 
ATOM     34  C   UNL A   1      42.843  27.749  27.042  1.00  0.00     0.010 A 
ATOM     35  C   UNL A   1      41.592  25.879  27.945  1.00  0.00     0.010 A 
ATOM     36  C   UNL A   1      41.986  27.225  28.021  1.00  0.00    -0.014 A 
BRANCH  36  37
ATOM     37  C   UNL A   1      41.638  28.069  29.190  1.00  0.00     0.031 A 
ATOM     38  C   UNL A   1      40.389  28.906  29.148  1.00  0.00     0.074 A 
ATOM     39  C   UNL A   1      42.386  28.032  30.305  1.00  0.00     0.049 A 
ATOM     40  N   UNL A   1      39.831  29.614  30.098  1.00  0.00    -0.248 NA
ATOM     41  C   UNL A   1      39.669  28.950  27.865  1.00  0.00     0.031 C 
ATOM     42  C   UNL A   1      43.618  27.263  30.468  1.00  0.00     0.029 A 
ATOM     43  N   UNL A   1      42.210  28.651  31.516  1.00  0.00    -0.354 N 
ATOM     44  C   UNL A   1      38.693  30.176  29.533  1.00  0.00     0.074 A 
ATOM     45  C   UNL A   1      38.661  29.764  28.147  1.00  0.00     0.031 C 
ATOM     46  C   UNL A   1      44.085  27.448  31.714  1.00  0.00     0.029 A 
ATOM     47  C   UNL A   1      43.188  28.351  32.432  1.00  0.00     0.049 A 
ATOM     48  H   UNL A   1      41.455  29.251  31.710  1.00  0.00     0.167 HD
ATOM     49  C   UNL A   1      37.749  30.949  30.123  1.00  0.00     0.037 A 
ATOM     50  C   UNL A   1      43.334  28.755  33.709  1.00  0.00     0.037 A 
ATOM     51  C   UNL A   1      37.781  31.363  31.500  1.00  0.00     0.049 A 
ATOM     52  C   UNL A   1      42.283  29.636  34.334  1.00  0.00     0.074 A 
ATOM     53  C   UNL A   1      36.858  32.125  32.196  1.00  0.00     0.029 A 
ATOM     54  N   UNL A   1      38.798  31.056  32.392  1.00  0.00    -0.354 N 
ATOM     55  N   UNL A   1      41.177  30.105  33.811  1.00  0.00    -0.248 NA
ATOM     56  C   UNL A   1      42.496  30.025  35.735  1.00  0.00     0.031 C 
ATOM     57  C   UNL A   1      37.335  32.311  33.499  1.00  0.00     0.029 A 
ATOM     58  C   UNL A   1      38.535  31.629  33.626  1.00  0.00     0.049 A 
ATOM     59  H   UNL A   1      39.590  30.511  32.179  1.00  0.00     0.167 HD
ATOM     60  C   UNL A   1      40.550  30.821  34.823  1.00  0.00     0.074 A 
ATOM     61  C   UNL A   1      41.392  30.711  35.996  1.00  0.00     0.031 C 
ATOM     62  C   UNL A   1      39.381  31.506  34.785  1.00  0.00     0.037 A 
BRANCH  49  63
ATOM     63  C   UNL A   1      36.600  31.405  29.273  1.00  0.00     0.064 A 
ATOM     64  C   UNL A   1      35.568  30.527  28.905  1.00  0.00     0.173 A 
ATOM     65  C   UNL A   1      36.507  32.740  28.852  1.00  0.00     0.173 A 
ATOM     66  F   UNL A   1      35.617  29.238  29.272  1.00  0.00    -0.203 F 
ATOM     67  C   UNL A   1      34.498  30.964  28.129  1.00  0.00     0.198 A 
ATOM     68  C   UNL A   1      35.423  33.179  28.097  1.00  0.00     0.198 A 
ATOM     69  F   UNL A   1      37.465  33.619  29.182  1.00  0.00    -0.203 F 
ATOM     70  F   UNL A   1      33.545  30.100  27.757  1.00  0.00    -0.200 F 
ATOM     71  C   UNL A   1      34.424  32.291  27.731  1.00  0.00     0.200 A 
ATOM     72  F   UNL A   1      35.347  34.464  27.722  1.00  0.00    -0.200 F 
ATOM     73  F   UNL A   1      33.390  32.712  26.989  1.00  0.00    -0.200 F 
ENDBRANCH  49  63
BRANCH  50  74
ATOM     74  C   UNL A   1      44.509  28.304  34.495  1.00  0.00     0.064 A 
ATOM     75  C   UNL A   1      45.674  29.078  34.564  1.00  0.00     0.173 A 
ATOM     76  C   UNL A   1      44.491  27.083  35.187  1.00  0.00     0.173 A 
ATOM     77  F   UNL A   1      45.745  30.241  33.900  1.00  0.00    -0.203 F 
ATOM     78  C   UNL A   1      46.786  28.641  35.281  1.00  0.00     0.198 A 
ATOM     79  C   UNL A   1      45.594  26.659  35.923  1.00  0.00     0.198 A 
ATOM     80  F   UNL A   1      43.397  26.308  35.150  1.00  0.00    -0.203 F 
ATOM     81  F   UNL A   1      47.903  29.380  35.297  1.00  0.00    -0.200 F 
ATOM     82  C   UNL A   1      46.743  27.434  35.964  1.00  0.00     0.200 A 
ATOM     83  F   UNL A   1      45.545  25.498  36.590  1.00  0.00    -0.200 F 
ATOM     84  F   UNL A   1      47.811  27.015  36.656  1.00  0.00    -0.200 F 
ENDBRANCH  50  74
BRANCH  62  85
ATOM     85  C   UNL A   1      38.930  32.165  36.056  1.00  0.00     0.064 A 
ATOM     86  C   UNL A   1      38.140  31.487  36.996  1.00  0.00     0.173 A 
ATOM     87  C   UNL A   1      39.315  33.482  36.349  1.00  0.00     0.173 A 
ATOM     88  F   UNL A   1      37.734  30.231  36.755  1.00  0.00    -0.203 F 
ATOM     89  C   UNL A   1      37.727  32.114  38.168  1.00  0.00     0.198 A 
ATOM     90  C   UNL A   1      38.923  34.096  37.535  1.00  0.00     0.198 A 
ATOM     91  F   UNL A   1      40.077  34.171  35.487  1.00  0.00    -0.203 F 
ATOM     92  F   UNL A   1      36.930  31.464  39.029  1.00  0.00    -0.200 F 
ATOM     93  C   UNL A   1      38.122  33.415  38.440  1.00  0.00     0.200 A 
ATOM     94  F   UNL A   1      39.313  35.350  37.800  1.00  0.00    -0.200 F 
ATOM     95  F   UNL A   1      37.723  34.016  39.569  1.00  0.00    -0.200 F 
ENDBRANCH  62  85
ENDBRANCH  36  37
ENDBRANCH  29  31
ENDBRANCH  28  29
ENDBRANCH  27  28
ENDBRANCH  26  27
ENDBRANCH  25  26
ENDBRANCH   1  25
TORSDOF 18
ENDMDL
MODEL 3
REMARK VINA RESULT:     -10.9      1.404      2.530
REMARK SMILES C[C@H]1[C@H](C(=O)OCCOCCOC(=O)c2ccc(-c3c4nc(c(-c5c(F)c(F)c(F)c(F)c5F)c5ccc([nH]5)c(-c5c(F)c(F)c(F)c(F)c5F)c5nc(c(-c6c(F)c(F)c(F)c(F)c6F)c6ccc3[nH]6)C=C5)C=C4)cc2)CCN1C(=O)[C@H]1CC[C@@H](C[NH3+])CC1
REMARK SMILES IDX 8 1 7 2 6 3 4 4 5 5 3 6 1 7 2 8 80 9 78 10 79 11 81 12 82 13
REMARK SMILES IDX 83 14 90 15 84 16 89 17 85 18 86 19 87 20 88 21 9 25 10 26
REMARK SMILES IDX 11 27 12 28 13 29 14 30 15 31 16 32 77 33 17 34 76 35 18 36
REMARK SMILES IDX 19 37 20 38 70 39 21 40 75 41 69 42 71 43 22 44 74 45 68 46
REMARK SMILES IDX 67 47 23 49 55 50 35 51 54 52 36 53 39 54 53 55 72 56 37 57
REMARK SMILES IDX 38 58 52 60 73 61 40 62 24 63 25 64 33 65 26 66 27 67 31 68
REMARK SMILES IDX 34 69 28 70 29 71 32 72 30 73 56 74 57 75 65 76 58 77 59 78
REMARK SMILES IDX 63 79 66 80 60 81 61 82 64 83 62 84 41 85 42 86 50 87 43 88
REMARK SMILES IDX 44 89 48 90 51 91 45 92 46 93 49 94 47 95
REMARK H PARENT 88 22 88 23 88 24 71 48 39 59
REMARK Flexibility Score: inf
ROOT
ATOM      1  C   UNL A   1      40.662  21.273  26.115  1.00  0.00     0.202 C 
ENDROOT
BRANCH   1   2
ATOM      2  C   UNL A   1      39.426  22.115  26.447  1.00  0.00     0.261 C 
BRANCH   2   3
ATOM      3  O   UNL A   1      38.200  21.596  25.900  1.00  0.00    -0.463 OA
BRANCH   3   4
ATOM      4  C   UNL A   1      37.276  22.539  25.577  1.00  0.00     0.311 C 
ATOM      5  O   UNL A   1      37.535  23.699  25.277  1.00  0.00    -0.252 OA
BRANCH   4   6
ATOM      6  C   UNL A   1      35.850  22.059  25.684  1.00  0.00     0.123 C 
ATOM      7  C   UNL A   1      34.046  23.671  26.207  1.00  0.00     0.032 C 
ATOM      8  C   UNL A   1      34.726  22.926  25.052  1.00  0.00     0.096 C 
ATOM      9  N   UNL A   1      33.834  21.945  24.389  1.00  0.00    -0.339 N 
ATOM     10  C   UNL A   1      35.701  20.687  25.049  1.00  0.00     0.039 C 
ATOM     11  C   UNL A   1      34.212  20.599  24.806  1.00  0.00     0.121 C 
BRANCH   9  12
ATOM     12  C   UNL A   1      32.835  22.045  23.443  1.00  0.00     0.225 C 
ATOM     13  O   UNL A   1      32.435  21.014  22.879  1.00  0.00    -0.275 OA
BRANCH  12  14
ATOM     14  C   UNL A   1      32.138  23.345  23.026  1.00  0.00     0.078 C 
ATOM     15  C   UNL A   1      31.173  23.895  24.075  1.00  0.00     0.014 C 
ATOM     16  C   UNL A   1      33.004  24.419  22.371  1.00  0.00     0.014 C 
ATOM     17  C   UNL A   1      30.353  25.072  23.546  1.00  0.00     0.010 C 
ATOM     18  C   UNL A   1      32.120  25.557  21.838  1.00  0.00     0.010 C 
ATOM     19  C   UNL A   1      31.229  26.176  22.928  1.00  0.00     0.044 C 
BRANCH  19  20
ATOM     20  C   UNL A   1      32.017  26.935  24.017  1.00  0.00     0.262 C 
BRANCH  20  21
ATOM     21  N   UNL A   1      32.908  27.939  23.447  1.00  0.00    -0.357 N 
ATOM     22  H   UNL A   1      32.403  28.819  23.339  1.00  0.00     0.344 HD
ATOM     23  H   UNL A   1      33.237  27.622  22.535  1.00  0.00     0.344 HD
ATOM     24  H   UNL A   1      33.706  28.077  24.067  1.00  0.00     0.344 HD
ENDBRANCH  20  21
ENDBRANCH  19  20
ENDBRANCH  12  14
ENDBRANCH   9  12
ENDBRANCH   4   6
ENDBRANCH   3   4
ENDBRANCH   2   3
ENDBRANCH   1   2
BRANCH   1  25
ATOM     25  O   UNL A   1      41.932  21.803  26.474  1.00  0.00    -0.374 OA
BRANCH  25  26
ATOM     26  C   UNL A   1      43.090  21.251  25.854  1.00  0.00     0.202 C 
BRANCH  26  27
ATOM     27  C   UNL A   1      43.919  22.182  24.963  1.00  0.00     0.261 C 
BRANCH  27  28
ATOM     28  O   UNL A   1      43.246  23.426  24.673  1.00  0.00    -0.460 OA
BRANCH  28  29
ATOM     29  C   UNL A   1      43.961  24.529  25.001  1.00  0.00     0.338 C 
ATOM     30  O   UNL A   1      45.083  24.820  24.607  1.00  0.00    -0.246 OA
BRANCH  29  31
ATOM     31  C   UNL A   1      43.177  25.462  25.833  1.00  0.00     0.060 A 
ATOM     32  C   UNL A   1      43.858  26.545  26.398  1.00  0.00     0.016 A 
ATOM     33  C   UNL A   1      41.850  25.209  26.179  1.00  0.00     0.016 A 
ATOM     34  C   UNL A   1      43.237  27.326  27.372  1.00  0.00     0.010 A 
ATOM     35  C   UNL A   1      41.228  25.986  27.163  1.00  0.00     0.010 A 
ATOM     36  C   UNL A   1      41.939  27.015  27.801  1.00  0.00    -0.014 A 
BRANCH  36  37
ATOM     37  C   UNL A   1      41.409  27.686  29.013  1.00  0.00     0.031 A 
ATOM     38  C   UNL A   1      42.140  27.534  30.319  1.00  0.00     0.074 A 
ATOM     39  C   UNL A   1      40.330  28.484  28.934  1.00  0.00     0.049 A 
ATOM     40  N   UNL A   1      41.926  28.131  31.465  1.00  0.00    -0.248 NA
ATOM     41  C   UNL A   1      43.264  26.585  30.337  1.00  0.00     0.031 C 
ATOM     42  C   UNL A   1      39.536  28.710  27.729  1.00  0.00     0.029 A 
ATOM     43  N   UNL A   1      39.725  29.259  29.891  1.00  0.00    -0.354 N 
ATOM     44  C   UNL A   1      42.893  27.640  32.333  1.00  0.00     0.074 A 
ATOM     45  C   UNL A   1      43.668  26.665  31.597  1.00  0.00     0.031 C 
ATOM     46  C   UNL A   1      38.549  29.577  28.015  1.00  0.00     0.029 A 
ATOM     47  C   UNL A   1      38.641  29.960  29.423  1.00  0.00     0.049 A 
ATOM     48  H   UNL A   1      40.037  29.308  30.822  1.00  0.00     0.167 HD
ATOM     49  C   UNL A   1      43.127  27.987  33.622  1.00  0.00     0.037 A 
ATOM     50  C   UNL A   1      37.823  30.820  30.059  1.00  0.00     0.037 A 
ATOM     51  C   UNL A   1      42.356  28.954  34.357  1.00  0.00     0.049 A 
ATOM     52  C   UNL A   1      38.089  31.169  31.500  1.00  0.00     0.074 A 
ATOM     53  C   UNL A   1      42.533  29.392  35.659  1.00  0.00     0.029 A 
ATOM     54  N   UNL A   1      41.254  29.629  33.855  1.00  0.00    -0.354 N 
ATOM     55  N   UNL A   1      39.047  30.751  32.291  1.00  0.00    -0.248 NA
ATOM     56  C   UNL A   1      37.169  32.128  32.128  1.00  0.00     0.031 C 
ATOM     57  C   UNL A   1      41.512  30.303  35.957  1.00  0.00     0.029 A 
ATOM     58  C   UNL A   1      40.728  30.464  34.827  1.00  0.00     0.049 A 
ATOM     59  H   UNL A   1      40.898  29.528  32.943  1.00  0.00     0.167 HD
ATOM     60  C   UNL A   1      38.861  31.413  33.498  1.00  0.00     0.074 A 
ATOM     61  C   UNL A   1      37.708  32.273  33.330  1.00  0.00     0.031 C 
ATOM     62  C   UNL A   1      39.582  31.318  34.642  1.00  0.00     0.037 A 
BRANCH  49  63
ATOM     63  C   UNL A   1      44.265  27.306  34.324  1.00  0.00     0.064 A 
ATOM     64  C   UNL A   1      45.552  27.866  34.346  1.00  0.00     0.173 A 
ATOM     65  C   UNL A   1      44.062  26.102  35.014  1.00  0.00     0.173 A 
ATOM     66  F   UNL A   1      45.801  29.011  33.692  1.00  0.00    -0.203 F 
ATOM     67  C   UNL A   1      46.597  27.234  35.015  1.00  0.00     0.198 A 
ATOM     68  C   UNL A   1      45.104  25.486  35.702  1.00  0.00     0.198 A 
ATOM     69  F   UNL A   1      42.849  25.528  35.028  1.00  0.00    -0.203 F 
ATOM     70  F   UNL A   1      47.826  27.767  34.989  1.00  0.00    -0.200 F 
ATOM     71  C   UNL A   1      46.371  26.048  35.696  1.00  0.00     0.200 A 
ATOM     72  F   UNL A   1      44.880  24.345  36.370  1.00  0.00    -0.200 F 
ATOM     73  F   UNL A   1      47.376  25.444  36.345  1.00  0.00    -0.200 F 
ENDBRANCH  49  63
BRANCH  50  74
ATOM     74  C   UNL A   1      36.689  31.438  29.326  1.00  0.00     0.064 A 
ATOM     75  C   UNL A   1      36.687  32.803  29.015  1.00  0.00     0.173 A 
ATOM     76  C   UNL A   1      35.582  30.673  28.931  1.00  0.00     0.173 A 
ATOM     77  F   UNL A   1      37.715  33.578  29.393  1.00  0.00    -0.203 F 
ATOM     78  C   UNL A   1      35.611  33.387  28.350  1.00  0.00     0.198 A 
ATOM     79  C   UNL A   1      34.518  31.253  28.245  1.00  0.00     0.198 A 
ATOM     80  F   UNL A   1      35.540  29.361  29.206  1.00  0.00    -0.203 F 
ATOM     81  F   UNL A   1      35.614  34.703  28.101  1.00  0.00    -0.200 F 
ATOM     82  C   UNL A   1      34.529  32.609  27.961  1.00  0.00     0.200 A 
ATOM     83  F   UNL A   1      33.480  30.497  27.861  1.00  0.00    -0.200 F 
ATOM     84  F   UNL A   1      33.496  33.171  27.320  1.00  0.00    -0.200 F 
ENDBRANCH  50  74
BRANCH  62  85
ATOM     85  C   UNL A   1      39.162  32.187  35.792  1.00  0.00     0.064 A 
ATOM     86  C   UNL A   1      38.297  31.717  36.791  1.00  0.00     0.173 A 
ATOM     87  C   UNL A   1      39.651  33.497  35.909  1.00  0.00     0.173 A 
ATOM     88  F   UNL A   1      37.791  30.477  36.716  1.00  0.00    -0.203 F 
ATOM     89  C   UNL A   1      37.914  32.537  37.849  1.00  0.00     0.198 A 
ATOM     90  C   UNL A   1      39.288  34.305  36.982  1.00  0.00     0.198 A 
ATOM     91  F   UNL A   1      40.487  33.991  34.984  1.00  0.00    -0.203 F 
ATOM     92  F   UNL A   1      37.047  32.085  38.766  1.00  0.00    -0.200 F 
ATOM     93  C   UNL A   1      38.413  33.828  37.947  1.00  0.00     0.200 A 
ATOM     94  F   UNL A   1      39.779  35.548  37.081  1.00  0.00    -0.200 F 
ATOM     95  F   UNL A   1      38.042  34.615  38.966  1.00  0.00    -0.200 F 
ENDBRANCH  62  85
ENDBRANCH  36  37
ENDBRANCH  29  31
ENDBRANCH  28  29
ENDBRANCH  27  28
ENDBRANCH  26  27
ENDBRANCH  25  26
ENDBRANCH   1  25
TORSDOF 18
ENDMDL
