MODEL 1
REMARK VINA RESULT:     -13.0      0.000      0.000
REMARK SMILES COc1cccc(-c2nn(-c3cc4c(cc3C(N)=O)OCO4)cc2C(=O)OCCOCCOC(=O)c2ccc(-c3c4nc(c(-c5c(F)c(F)c(F)c(F)c5F)c5ccc([nH]5)c(-c5c(F)c(F)c(F)c(F)c5F)c5nc(c(-c6c(F)c(F)c(F)c(F)c6F)c6ccc3[nH]6)C=C5)C=C4)cc2)c1
REMARK SMILES IDX 30 1 29 2 28 3 27 4 25 5 26 6 24 7 8 8 9 9 10 10 23 11 7 12
REMARK SMILES IDX 3 13 4 14 99 15 5 16 6 17 2 18 1 19 11 20 12 21 16 22 13 23
REMARK SMILES IDX 15 24 14 25 22 26 20 27 21 28 17 29 18 30 19 31 31 34 32 35
REMARK SMILES IDX 33 36 34 37 35 38 36 39 37 40 98 41 38 42 97 43 39 44 40 45
REMARK SMILES IDX 41 46 91 47 42 48 96 49 90 50 92 51 43 52 95 53 89 54 88 55
REMARK SMILES IDX 44 57 76 58 56 59 75 60 57 61 60 62 74 63 93 64 58 65 59 66
REMARK SMILES IDX 73 68 94 69 61 70 45 71 46 72 54 73 47 74 48 75 52 76 55 77
REMARK SMILES IDX 49 78 50 79 53 80 51 81 77 82 78 83 86 84 79 85 80 86 84 87
REMARK SMILES IDX 87 88 81 89 82 90 85 91 83 92 62 93 63 94 71 95 64 96 65 97
REMARK SMILES IDX 69 98 72 99 66 100 67 101 70 102 68 103
REMARK H PARENT 18 32 18 33 92 56 60 67
REMARK Flexibility Score: inf
ROOT
ATOM      1  O   UNL A   1      40.826  21.702  26.209  1.00  0.00    -0.374 OA
ENDROOT
BRANCH   1   2
ATOM      2  C   UNL A   1      39.461  22.113  26.282  1.00  0.00     0.202 C 
BRANCH   2   3
ATOM      3  C   UNL A   1      38.430  21.421  25.388  1.00  0.00     0.261 C 
BRANCH   3   4
ATOM      4  O   UNL A   1      37.102  21.927  25.597  1.00  0.00    -0.460 OA
BRANCH   4   5
ATOM      5  C   UNL A   1      36.539  22.543  24.512  1.00  0.00     0.342 C 
ATOM      6  O   UNL A   1      36.957  22.458  23.370  1.00  0.00    -0.246 OA
BRANCH   5   7
ATOM      7  C   UNL A   1      35.315  23.231  24.851  1.00  0.00     0.106 A 
ATOM      8  C   UNL A   1      33.970  22.845  24.590  1.00  0.00     0.107 A 
ATOM      9  N   UNL A   1      33.116  23.832  24.921  1.00  0.00    -0.167 NA
ATOM     10  N   UNL A   1      33.941  24.885  25.161  1.00  0.00    -0.239 N 
ATOM     11  C   UNL A   1      35.200  24.445  25.491  1.00  0.00     0.131 A 
BRANCH   8  12
ATOM     12  C   UNL A   1      33.525  21.540  24.114  1.00  0.00     0.007 A 
ATOM     13  C   UNL A   1      33.324  19.145  24.403  1.00  0.00     0.119 A 
ATOM     14  C   UNL A   1      32.425  19.093  23.335  1.00  0.00     0.046 A 
ATOM     15  C   UNL A   1      33.873  20.369  24.796  1.00  0.00     0.056 A 
ATOM     16  C   UNL A   1      32.082  20.253  22.644  1.00  0.00     0.005 A 
ATOM     17  C   UNL A   1      32.652  21.469  23.019  1.00  0.00     0.011 A 
BRANCH  13  18
ATOM     18  O   UNL A   1      33.638  17.931  24.951  1.00  0.00    -0.497 OA
ATOM     19  C   UNL A   1      33.236  16.797  24.193  1.00  0.00     0.278 C 
ENDBRANCH  13  18
ENDBRANCH   8  12
BRANCH  10  20
ATOM     20  C   UNL A   1      33.492  26.231  25.132  1.00  0.00     0.081 A 
ATOM     21  C   UNL A   1      33.230  26.858  26.369  1.00  0.00     0.079 A 
ATOM     22  C   UNL A   1      33.313  26.941  23.903  1.00  0.00     0.069 A 
ATOM     23  C   UNL A   1      32.881  28.190  26.347  1.00  0.00     0.167 A 
ATOM     24  C   UNL A   1      33.081  28.325  23.951  1.00  0.00     0.066 A 
ATOM     25  C   UNL A   1      32.844  28.905  25.175  1.00  0.00     0.166 A 
ATOM     26  O   UNL A   1      32.529  28.953  27.416  1.00  0.00    -0.454 OA
ATOM     27  O   UNL A   1      32.473  30.201  25.364  1.00  0.00    -0.454 OA
ATOM     28  C   UNL A   1      32.067  30.147  26.746  1.00  0.00     0.468 C 
BRANCH  22  29
ATOM     29  C   UNL A   1      33.100  26.237  22.583  1.00  0.00     0.251 C 
ATOM     30  N   UNL A   1      31.823  26.004  22.153  1.00  0.00    -0.366 N 
ATOM     31  O   UNL A   1      34.000  25.768  21.900  1.00  0.00    -0.269 OA
ATOM     32  H   UNL A   1      31.060  26.358  22.664  1.00  0.00     0.159 HD
ATOM     33  H   UNL A   1      31.666  25.484  21.332  1.00  0.00     0.159 HD
ENDBRANCH  22  29
ENDBRANCH  10  20
ENDBRANCH   5   7
ENDBRANCH   4   5
ENDBRANCH   3   4
ENDBRANCH   2   3
ENDBRANCH   1   2
BRANCH   1  34
ATOM     34  C   UNL A   1      41.230  20.441  26.725  1.00  0.00     0.202 C 
BRANCH  34  35
ATOM     35  C   UNL A   1      42.538  19.828  26.244  1.00  0.00     0.261 C 
BRANCH  35  36
ATOM     36  O   UNL A   1      43.019  20.415  25.052  1.00  0.00    -0.460 OA
BRANCH  36  37
ATOM     37  C   UNL A   1      44.351  20.641  25.088  1.00  0.00     0.338 C 
ATOM     38  O   UNL A   1      45.244  19.817  25.157  1.00  0.00    -0.246 OA
BRANCH  37  39
ATOM     39  C   UNL A   1      44.566  22.080  25.239  1.00  0.00     0.060 A 
ATOM     40  C   UNL A   1      45.334  22.455  26.341  1.00  0.00     0.016 A 
ATOM     41  C   UNL A   1      43.732  22.979  24.557  1.00  0.00     0.016 A 
ATOM     42  C   UNL A   1      45.054  23.661  26.930  1.00  0.00     0.010 A 
ATOM     43  C   UNL A   1      43.446  24.181  25.152  1.00  0.00     0.010 A 
ATOM     44  C   UNL A   1      44.037  24.454  26.381  1.00  0.00    -0.014 A 
BRANCH  44  45
ATOM     45  C   UNL A   1      43.715  25.684  27.061  1.00  0.00     0.031 A 
ATOM     46  C   UNL A   1      44.704  26.722  26.732  1.00  0.00     0.074 A 
ATOM     47  C   UNL A   1      42.624  25.839  27.831  1.00  0.00     0.049 A 
ATOM     48  N   UNL A   1      45.699  27.096  27.462  1.00  0.00    -0.248 NA
ATOM     49  C   UNL A   1      44.759  27.210  25.345  1.00  0.00     0.031 C 
ATOM     50  C   UNL A   1      41.472  24.940  27.945  1.00  0.00     0.029 A 
ATOM     51  N   UNL A   1      42.274  26.898  28.618  1.00  0.00    -0.354 N 
ATOM     52  C   UNL A   1      46.329  28.086  26.719  1.00  0.00     0.074 A 
ATOM     53  C   UNL A   1      45.895  27.910  25.363  1.00  0.00     0.031 C 
ATOM     54  C   UNL A   1      40.457  25.592  28.562  1.00  0.00     0.029 A 
ATOM     55  C   UNL A   1      40.941  26.881  29.021  1.00  0.00     0.049 A 
ATOM     56  H   UNL A   1      42.906  27.606  28.877  1.00  0.00     0.167 HD
ATOM     57  C   UNL A   1      46.803  29.188  27.359  1.00  0.00     0.037 A 
ATOM     58  C   UNL A   1      40.296  27.903  29.636  1.00  0.00     0.037 A 
ATOM     59  C   UNL A   1      46.890  28.945  28.779  1.00  0.00     0.049 A 
ATOM     60  C   UNL A   1      41.329  28.759  30.271  1.00  0.00     0.074 A 
ATOM     61  C   UNL A   1      47.740  28.283  29.638  1.00  0.00     0.029 A 
ATOM     62  N   UNL A   1      45.694  29.101  29.429  1.00  0.00    -0.354 N 
ATOM     63  N   UNL A   1      42.069  28.361  31.269  1.00  0.00    -0.248 NA
ATOM     64  C   UNL A   1      41.818  29.936  29.558  1.00  0.00     0.031 C 
ATOM     65  C   UNL A   1      46.976  27.977  30.806  1.00  0.00     0.029 A 
ATOM     66  C   UNL A   1      45.694  28.497  30.655  1.00  0.00     0.049 A 
ATOM     67  H   UNL A   1      44.926  29.589  29.057  1.00  0.00     0.167 HD
ATOM     68  C   UNL A   1      43.294  28.957  31.042  1.00  0.00     0.074 A 
ATOM     69  C   UNL A   1      43.038  30.033  30.094  1.00  0.00     0.031 C 
ATOM     70  C   UNL A   1      44.450  28.312  31.366  1.00  0.00     0.037 A 
BRANCH  57  71
ATOM     71  C   UNL A   1      46.653  30.601  26.832  1.00  0.00     0.064 A 
ATOM     72  C   UNL A   1      47.779  31.449  26.859  1.00  0.00     0.173 A 
ATOM     73  C   UNL A   1      45.418  31.251  26.604  1.00  0.00     0.173 A 
ATOM     74  F   UNL A   1      49.003  30.950  27.089  1.00  0.00    -0.203 F 
ATOM     75  C   UNL A   1      47.665  32.837  26.736  1.00  0.00     0.198 A 
ATOM     76  C   UNL A   1      45.314  32.629  26.432  1.00  0.00     0.198 A 
ATOM     77  F   UNL A   1      44.245  30.614  26.650  1.00  0.00    -0.203 F 
ATOM     78  F   UNL A   1      48.749  33.609  26.883  1.00  0.00    -0.200 F 
ATOM     79  C   UNL A   1      46.431  33.426  26.526  1.00  0.00     0.200 A 
ATOM     80  F   UNL A   1      44.104  33.179  26.256  1.00  0.00    -0.200 F 
ATOM     81  F   UNL A   1      46.311  34.758  26.462  1.00  0.00    -0.200 F 
ENDBRANCH  57  71
BRANCH  58  82
ATOM     82  C   UNL A   1      38.901  28.365  29.454  1.00  0.00     0.064 A 
ATOM     83  C   UNL A   1      38.060  28.587  30.558  1.00  0.00     0.173 A 
ATOM     84  C   UNL A   1      38.474  28.896  28.223  1.00  0.00     0.173 A 
ATOM     85  F   UNL A   1      38.416  28.151  31.775  1.00  0.00    -0.203 F 
ATOM     86  C   UNL A   1      36.879  29.331  30.443  1.00  0.00     0.198 A 
ATOM     87  C   UNL A   1      37.296  29.637  28.109  1.00  0.00     0.198 A 
ATOM     88  F   UNL A   1      39.244  28.794  27.129  1.00  0.00    -0.203 F 
ATOM     89  F   UNL A   1      36.139  29.583  31.531  1.00  0.00    -0.200 F 
ATOM     90  C   UNL A   1      36.508  29.868  29.221  1.00  0.00     0.200 A 
ATOM     91  F   UNL A   1      36.969  30.187  26.931  1.00  0.00    -0.200 F 
ATOM     92  F   UNL A   1      35.419  30.645  29.125  1.00  0.00    -0.200 F 
ENDBRANCH  58  82
BRANCH  70  93
ATOM     93  C   UNL A   1      44.383  27.262  32.427  1.00  0.00     0.064 A 
ATOM     94  C   UNL A   1      44.223  25.889  32.186  1.00  0.00     0.173 A 
ATOM     95  C   UNL A   1      44.562  27.675  33.753  1.00  0.00     0.173 A 
ATOM     96  F   UNL A   1      44.114  25.418  30.936  1.00  0.00    -0.203 F 
ATOM     97  C   UNL A   1      44.213  24.974  33.240  1.00  0.00     0.198 A 
ATOM     98  C   UNL A   1      44.587  26.759  34.798  1.00  0.00     0.198 A 
ATOM     99  F   UNL A   1      44.753  28.974  34.031  1.00  0.00    -0.203 F 
ATOM    100  F   UNL A   1      44.042  23.667  32.995  1.00  0.00    -0.200 F 
ATOM    101  C   UNL A   1      44.403  25.411  34.543  1.00  0.00     0.200 A 
ATOM    102  F   UNL A   1      44.810  27.184  36.049  1.00  0.00    -0.200 F 
ATOM    103  F   UNL A   1      44.427  24.530  35.553  1.00  0.00    -0.200 F 
ENDBRANCH  70  93
ENDBRANCH  44  45
ENDBRANCH  37  39
ENDBRANCH  36  37
ENDBRANCH  35  36
ENDBRANCH  34  35
ENDBRANCH   1  34
TORSDOF 18
ENDMDL
MODEL 2
REMARK VINA RESULT:     -12.3      3.427      9.608
REMARK SMILES COc1cccc(-c2nn(-c3cc4c(cc3C(N)=O)OCO4)cc2C(=O)OCCOCCOC(=O)c2ccc(-c3c4nc(c(-c5c(F)c(F)c(F)c(F)c5F)c5ccc([nH]5)c(-c5c(F)c(F)c(F)c(F)c5F)c5nc(c(-c6c(F)c(F)c(F)c(F)c6F)c6ccc3[nH]6)C=C5)C=C4)cc2)c1
REMARK SMILES IDX 30 1 29 2 28 3 27 4 25 5 26 6 24 7 8 8 9 9 10 10 23 11 7 12
REMARK SMILES IDX 3 13 4 14 99 15 5 16 6 17 2 18 1 19 11 20 12 21 16 22 13 23
REMARK SMILES IDX 15 24 14 25 22 26 20 27 21 28 17 29 18 30 19 31 31 34 32 35
REMARK SMILES IDX 33 36 34 37 35 38 36 39 37 40 98 41 38 42 97 43 39 44 40 45
REMARK SMILES IDX 41 46 91 47 42 48 96 49 90 50 92 51 43 52 95 53 89 54 88 55
REMARK SMILES IDX 44 57 76 58 56 59 75 60 57 61 60 62 74 63 93 64 58 65 59 66
REMARK SMILES IDX 73 68 94 69 61 70 45 71 46 72 54 73 47 74 48 75 52 76 55 77
REMARK SMILES IDX 49 78 50 79 53 80 51 81 77 82 78 83 86 84 79 85 80 86 84 87
REMARK SMILES IDX 87 88 81 89 82 90 85 91 83 92 62 93 63 94 71 95 64 96 65 97
REMARK SMILES IDX 69 98 72 99 66 100 67 101 70 102 68 103
REMARK H PARENT 18 32 18 33 92 56 60 67
REMARK Flexibility Score: inf
ROOT
ATOM      1  O   UNL A   1      34.595  32.930  27.866  1.00  0.00    -0.374 OA
ENDROOT
BRANCH   1   2
ATOM      2  C   UNL A   1      34.298  31.539  27.986  1.00  0.00     0.202 C 
BRANCH   2   3
ATOM      3  C   UNL A   1      33.088  30.973  27.241  1.00  0.00     0.261 C 
BRANCH   3   4
ATOM      4  O   UNL A   1      33.441  29.871  26.390  1.00  0.00    -0.460 OA
BRANCH   4   5
ATOM      5  C   UNL A   1      32.585  28.805  26.437  1.00  0.00     0.342 C 
ATOM      6  O   UNL A   1      31.526  28.790  27.043  1.00  0.00    -0.246 OA
BRANCH   5   7
ATOM      7  C   UNL A   1      33.023  27.716  25.595  1.00  0.00     0.106 A 
ATOM      8  C   UNL A   1      32.428  27.210  24.405  1.00  0.00     0.107 A 
ATOM      9  N   UNL A   1      33.047  26.086  24.000  1.00  0.00    -0.167 NA
ATOM     10  N   UNL A   1      33.855  25.784  25.051  1.00  0.00    -0.239 N 
ATOM     11  C   UNL A   1      34.123  26.911  25.791  1.00  0.00     0.131 A 
BRANCH   8  12
ATOM     12  C   UNL A   1      31.352  27.839  23.645  1.00  0.00     0.007 A 
ATOM     13  C   UNL A   1      28.995  28.170  23.205  1.00  0.00     0.119 A 
ATOM     14  C   UNL A   1      29.303  29.255  22.380  1.00  0.00     0.046 A 
ATOM     15  C   UNL A   1      30.018  27.462  23.841  1.00  0.00     0.056 A 
ATOM     16  C   UNL A   1      30.629  29.629  22.172  1.00  0.00     0.005 A 
ATOM     17  C   UNL A   1      31.650  28.904  22.784  1.00  0.00     0.011 A 
BRANCH  13  18
ATOM     18  O   UNL A   1      27.664  27.856  23.269  1.00  0.00    -0.497 OA
ATOM     19  C   UNL A   1      26.774  28.965  23.244  1.00  0.00     0.278 C 
ENDBRANCH  13  18
ENDBRANCH   8  12
BRANCH  10  20
ATOM     20  C   UNL A   1      34.379  24.484  25.265  1.00  0.00     0.081 A 
ATOM     21  C   UNL A   1      35.604  24.163  24.643  1.00  0.00     0.079 A 
ATOM     22  C   UNL A   1      33.704  23.522  26.082  1.00  0.00     0.069 A 
ATOM     23  C   UNL A   1      36.158  22.933  24.921  1.00  0.00     0.167 A 
ATOM     24  C   UNL A   1      34.378  22.340  26.430  1.00  0.00     0.066 A 
ATOM     25  C   UNL A   1      35.577  22.068  25.815  1.00  0.00     0.166 A 
ATOM     26  O   UNL A   1      37.292  22.413  24.378  1.00  0.00    -0.454 OA
ATOM     27  O   UNL A   1      36.274  20.907  25.948  1.00  0.00    -0.454 OA
ATOM     28  C   UNL A   1      37.222  21.058  24.872  1.00  0.00     0.468 C 
BRANCH  22  29
ATOM     29  C   UNL A   1      32.222  23.598  26.369  1.00  0.00     0.251 C 
ATOM     30  N   UNL A   1      31.339  23.468  25.332  1.00  0.00    -0.366 N 
ATOM     31  O   UNL A   1      31.745  23.864  27.463  1.00  0.00    -0.269 OA
ATOM     32  H   UNL A   1      31.668  23.255  24.429  1.00  0.00     0.159 HD
ATOM     33  H   UNL A   1      30.374  23.587  25.489  1.00  0.00     0.159 HD
ENDBRANCH  22  29
ENDBRANCH  10  20
ENDBRANCH   5   7
ENDBRANCH   4   5
ENDBRANCH   3   4
ENDBRANCH   2   3
ENDBRANCH   1   2
BRANCH   1  34
ATOM     34  C   UNL A   1      33.583  33.907  28.066  1.00  0.00     0.202 C 
BRANCH  34  35
ATOM     35  C   UNL A   1      33.718  34.888  29.222  1.00  0.00     0.261 C 
BRANCH  35  36
ATOM     36  O   UNL A   1      33.320  34.341  30.463  1.00  0.00    -0.460 OA
BRANCH  36  37
ATOM     37  C   UNL A   1      33.873  34.987  31.513  1.00  0.00     0.338 C 
ATOM     38  O   UNL A   1      33.690  36.139  31.859  1.00  0.00    -0.246 OA
BRANCH  37  39
ATOM     39  C   UNL A   1      34.914  34.129  32.080  1.00  0.00     0.060 A 
ATOM     40  C   UNL A   1      36.172  34.718  32.198  1.00  0.00     0.016 A 
ATOM     41  C   UNL A   1      34.724  32.739  32.109  1.00  0.00     0.016 A 
ATOM     42  C   UNL A   1      37.269  33.906  32.067  1.00  0.00     0.010 A 
ATOM     43  C   UNL A   1      35.821  31.929  31.969  1.00  0.00     0.010 A 
ATOM     44  C   UNL A   1      37.066  32.537  31.849  1.00  0.00    -0.014 A 
BRANCH  44  45
ATOM     45  C   UNL A   1      38.235  31.718  31.643  1.00  0.00     0.031 A 
ATOM     46  C   UNL A   1      38.919  31.478  32.923  1.00  0.00     0.074 A 
ATOM     47  C   UNL A   1      38.585  31.215  30.446  1.00  0.00     0.049 A 
ATOM     48  N   UNL A   1      39.967  32.087  33.363  1.00  0.00    -0.248 NA
ATOM     49  C   UNL A   1      38.223  30.671  33.939  1.00  0.00     0.031 C 
ATOM     50  C   UNL A   1      37.783  31.181  29.220  1.00  0.00     0.029 A 
ATOM     51  N   UNL A   1      39.717  30.538  30.100  1.00  0.00    -0.354 N 
ATOM     52  C   UNL A   1      40.217  31.512  34.601  1.00  0.00     0.074 A 
ATOM     53  C   UNL A   1      38.992  30.883  35.008  1.00  0.00     0.031 C 
ATOM     54  C   UNL A   1      38.350  30.320  28.341  1.00  0.00     0.029 A 
ATOM     55  C   UNL A   1      39.623  29.874  28.879  1.00  0.00     0.049 A 
ATOM     56  H   UNL A   1      40.526  30.519  30.661  1.00  0.00     0.167 HD
ATOM     57  C   UNL A   1      41.502  31.256  34.961  1.00  0.00     0.037 A 
ATOM     58  C   UNL A   1      40.523  28.981  28.401  1.00  0.00     0.037 A 
ATOM     59  C   UNL A   1      42.415  31.989  34.117  1.00  0.00     0.049 A 
ATOM     60  C   UNL A   1      41.812  29.240  29.091  1.00  0.00     0.074 A 
ATOM     61  C   UNL A   1      42.874  33.284  34.015  1.00  0.00     0.029 A 
ATOM     62  N   UNL A   1      42.647  31.378  32.913  1.00  0.00    -0.354 N 
ATOM     63  N   UNL A   1      42.505  30.331  28.918  1.00  0.00    -0.248 NA
ATOM     64  C   UNL A   1      42.159  28.457  30.274  1.00  0.00     0.031 C 
ATOM     65  C   UNL A   1      43.322  33.449  32.668  1.00  0.00     0.029 A 
ATOM     66  C   UNL A   1      43.169  32.242  31.991  1.00  0.00     0.049 A 
ATOM     67  H   UNL A   1      42.460  30.429  32.733  1.00  0.00     0.167 HD
ATOM     68  C   UNL A   1      43.057  30.583  30.159  1.00  0.00     0.074 A 
ATOM     69  C   UNL A   1      42.958  29.330  30.894  1.00  0.00     0.031 C 
ATOM     70  C   UNL A   1      43.221  31.863  30.599  1.00  0.00     0.037 A 
BRANCH  57  71
ATOM     71  C   UNL A   1      41.951  29.981  35.648  1.00  0.00     0.064 A 
ATOM     72  C   UNL A   1      42.929  30.073  36.660  1.00  0.00     0.173 A 
ATOM     73  C   UNL A   1      41.713  28.675  35.160  1.00  0.00     0.173 A 
ATOM     74  F   UNL A   1      43.256  31.264  37.185  1.00  0.00    -0.203 F 
ATOM     75  C   UNL A   1      43.653  28.959  37.094  1.00  0.00     0.198 A 
ATOM     76  C   UNL A   1      42.402  27.560  35.632  1.00  0.00     0.198 A 
ATOM     77  F   UNL A   1      40.897  28.422  34.134  1.00  0.00    -0.203 F 
ATOM     78  F   UNL A   1      44.650  29.116  37.974  1.00  0.00    -0.200 F 
ATOM     79  C   UNL A   1      43.391  27.704  36.577  1.00  0.00     0.200 A 
ATOM     80  F   UNL A   1      42.148  26.357  35.096  1.00  0.00    -0.200 F 
ATOM     81  F   UNL A   1      44.118  26.644  36.951  1.00  0.00    -0.200 F 
ENDBRANCH  57  71
BRANCH  58  82
ATOM     82  C   UNL A   1      40.281  27.734  27.640  1.00  0.00     0.064 A 
ATOM     83  C   UNL A   1      41.038  27.421  26.498  1.00  0.00     0.173 A 
ATOM     84  C   UNL A   1      39.526  26.686  28.198  1.00  0.00     0.173 A 
ATOM     85  F   UNL A   1      41.818  28.353  25.931  1.00  0.00    -0.203 F 
ATOM     86  C   UNL A   1      41.067  26.126  25.968  1.00  0.00     0.198 A 
ATOM     87  C   UNL A   1      39.555  25.393  27.668  1.00  0.00     0.198 A 
ATOM     88  F   UNL A   1      38.828  26.871  29.328  1.00  0.00    -0.203 F 
ATOM     89  F   UNL A   1      41.856  25.849  24.920  1.00  0.00    -0.200 F 
ATOM     90  C   UNL A   1      40.337  25.110  26.565  1.00  0.00     0.200 A 
ATOM     91  F   UNL A   1      38.878  24.411  28.279  1.00  0.00    -0.200 F 
ATOM     92  F   UNL A   1      40.424  23.853  26.105  1.00  0.00    -0.200 F 
ENDBRANCH  58  82
BRANCH  70  93
ATOM     93  C   UNL A   1      43.327  32.940  29.569  1.00  0.00     0.064 A 
ATOM     94  C   UNL A   1      42.307  33.851  29.255  1.00  0.00     0.173 A 
ATOM     95  C   UNL A   1      44.560  33.092  28.920  1.00  0.00     0.173 A 
ATOM     96  F   UNL A   1      41.126  33.806  29.887  1.00  0.00    -0.203 F 
ATOM     97  C   UNL A   1      42.510  34.853  28.305  1.00  0.00     0.198 A 
ATOM     98  C   UNL A   1      44.771  34.111  28.001  1.00  0.00     0.198 A 
ATOM     99  F   UNL A   1      45.577  32.266  29.211  1.00  0.00    -0.203 F 
ATOM    100  F   UNL A   1      41.520  35.706  28.004  1.00  0.00    -0.200 F 
ATOM    101  C   UNL A   1      43.745  34.986  27.686  1.00  0.00     0.200 A 
ATOM    102  F   UNL A   1      45.978  34.257  27.436  1.00  0.00    -0.200 F 
ATOM    103  F   UNL A   1      43.951  35.969  26.798  1.00  0.00    -0.200 F 
ENDBRANCH  70  93
ENDBRANCH  44  45
ENDBRANCH  37  39
ENDBRANCH  36  37
ENDBRANCH  35  36
ENDBRANCH  34  35
ENDBRANCH   1  34
TORSDOF 18
ENDMDL
MODEL 3
REMARK VINA RESULT:     -12.3      2.067      2.766
REMARK SMILES COc1cccc(-c2nn(-c3cc4c(cc3C(N)=O)OCO4)cc2C(=O)OCCOCCOC(=O)c2ccc(-c3c4nc(c(-c5c(F)c(F)c(F)c(F)c5F)c5ccc([nH]5)c(-c5c(F)c(F)c(F)c(F)c5F)c5nc(c(-c6c(F)c(F)c(F)c(F)c6F)c6ccc3[nH]6)C=C5)C=C4)cc2)c1
REMARK SMILES IDX 30 1 29 2 28 3 27 4 25 5 26 6 24 7 8 8 9 9 10 10 23 11 7 12
REMARK SMILES IDX 3 13 4 14 99 15 5 16 6 17 2 18 1 19 11 20 12 21 16 22 13 23
REMARK SMILES IDX 15 24 14 25 22 26 20 27 21 28 17 29 18 30 19 31 31 34 32 35
REMARK SMILES IDX 33 36 34 37 35 38 36 39 37 40 98 41 38 42 97 43 39 44 40 45
REMARK SMILES IDX 41 46 91 47 42 48 96 49 90 50 92 51 43 52 95 53 89 54 88 55
REMARK SMILES IDX 44 57 76 58 56 59 75 60 57 61 60 62 74 63 93 64 58 65 59 66
REMARK SMILES IDX 73 68 94 69 61 70 45 71 46 72 54 73 47 74 48 75 52 76 55 77
REMARK SMILES IDX 49 78 50 79 53 80 51 81 77 82 78 83 86 84 79 85 80 86 84 87
REMARK SMILES IDX 87 88 81 89 82 90 85 91 83 92 62 93 63 94 71 95 64 96 65 97
REMARK SMILES IDX 69 98 72 99 66 100 67 101 70 102 68 103
REMARK H PARENT 18 32 18 33 92 56 60 67
REMARK Flexibility Score: inf
ROOT
ATOM      1  O   UNL A   1      39.408  21.088  25.906  1.00  0.00    -0.374 OA
ENDROOT
BRANCH   1   2
ATOM      2  C   UNL A   1      38.331  20.325  25.362  1.00  0.00     0.202 C 
BRANCH   2   3
ATOM      3  C   UNL A   1      37.040  21.045  24.965  1.00  0.00     0.261 C 
BRANCH   3   4
ATOM      4  O   UNL A   1      37.259  22.437  24.685  1.00  0.00    -0.460 OA
BRANCH   4   5
ATOM      5  C   UNL A   1      36.427  22.976  23.741  1.00  0.00     0.342 C 
ATOM      6  O   UNL A   1      36.576  22.861  22.536  1.00  0.00    -0.246 OA
BRANCH   5   7
ATOM      7  C   UNL A   1      35.276  23.618  24.332  1.00  0.00     0.106 A 
ATOM      8  C   UNL A   1      33.923  23.176  24.364  1.00  0.00     0.107 A 
ATOM      9  N   UNL A   1      33.120  24.131  24.868  1.00  0.00    -0.167 NA
ATOM     10  N   UNL A   1      33.933  25.219  24.926  1.00  0.00    -0.239 N 
ATOM     11  C   UNL A   1      35.250  24.832  24.981  1.00  0.00     0.131 A 
BRANCH   8  12
ATOM     12  C   UNL A   1      33.441  21.849  23.995  1.00  0.00     0.007 A 
ATOM     13  C   UNL A   1      33.054  19.521  24.532  1.00  0.00     0.119 A 
ATOM     14  C   UNL A   1      32.263  19.390  23.387  1.00  0.00     0.046 A 
ATOM     15  C   UNL A   1      33.642  20.751  24.839  1.00  0.00     0.056 A 
ATOM     16  C   UNL A   1      32.068  20.476  22.536  1.00  0.00     0.005 A 
ATOM     17  C   UNL A   1      32.678  21.695  22.829  1.00  0.00     0.011 A 
BRANCH  13  18
ATOM     18  O   UNL A   1      33.230  18.365  25.244  1.00  0.00    -0.497 OA
ATOM     19  C   UNL A   1      32.356  17.298  24.901  1.00  0.00     0.278 C 
ENDBRANCH  13  18
ENDBRANCH   8  12
BRANCH  10  20
ATOM     20  C   UNL A   1      33.433  26.544  24.993  1.00  0.00     0.081 A 
ATOM     21  C   UNL A   1      33.141  27.069  26.270  1.00  0.00     0.079 A 
ATOM     22  C   UNL A   1      33.232  27.336  23.817  1.00  0.00     0.069 A 
ATOM     23  C   UNL A   1      32.741  28.385  26.342  1.00  0.00     0.167 A 
ATOM     24  C   UNL A   1      32.948  28.703  23.965  1.00  0.00     0.066 A 
ATOM     25  C   UNL A   1      32.683  29.182  25.226  1.00  0.00     0.166 A 
ATOM     26  O   UNL A   1      32.355  29.054  27.462  1.00  0.00    -0.454 OA
ATOM     27  O   UNL A   1      32.262  30.445  25.506  1.00  0.00    -0.454 OA
ATOM     28  C   UNL A   1      31.852  30.275  26.878  1.00  0.00     0.468 C 
BRANCH  22  29
ATOM     29  C   UNL A   1      33.053  26.723  22.448  1.00  0.00     0.251 C 
ATOM     30  N   UNL A   1      31.803  26.689  21.894  1.00  0.00    -0.366 N 
ATOM     31  O   UNL A   1      33.942  26.161  21.824  1.00  0.00    -0.269 OA
ATOM     32  H   UNL A   1      31.050  27.125  22.354  1.00  0.00     0.159 HD
ATOM     33  H   UNL A   1      31.656  26.230  21.036  1.00  0.00     0.159 HD
ENDBRANCH  22  29
ENDBRANCH  10  20
ENDBRANCH   5   7
ENDBRANCH   4   5
ENDBRANCH   3   4
ENDBRANCH   2   3
ENDBRANCH   1   2
BRANCH   1  34
ATOM     34  C   UNL A   1      40.559  20.442  26.433  1.00  0.00     0.202 C 
BRANCH  34  35
ATOM     35  C   UNL A   1      41.917  21.114  26.291  1.00  0.00     0.261 C 
BRANCH  35  36
ATOM     36  O   UNL A   1      41.882  22.262  25.467  1.00  0.00    -0.460 OA
BRANCH  36  37
ATOM     37  C   UNL A   1      42.748  23.217  25.875  1.00  0.00     0.338 C 
ATOM     38  O   UNL A   1      43.943  23.279  25.658  1.00  0.00    -0.246 OA
BRANCH  37  39
ATOM     39  C   UNL A   1      42.050  24.092  26.817  1.00  0.00     0.060 A 
ATOM     40  C   UNL A   1      41.145  24.983  26.243  1.00  0.00     0.016 A 
ATOM     41  C   UNL A   1      42.565  24.265  28.111  1.00  0.00     0.016 A 
ATOM     42  C   UNL A   1      40.969  26.195  26.859  1.00  0.00     0.010 A 
ATOM     43  C   UNL A   1      42.395  25.481  28.721  1.00  0.00     0.010 A 
ATOM     44  C   UNL A   1      41.683  26.459  28.036  1.00  0.00    -0.014 A 
BRANCH  44  45
ATOM     45  C   UNL A   1      41.534  27.767  28.623  1.00  0.00     0.031 A 
ATOM     46  C   UNL A   1      42.661  28.630  28.237  1.00  0.00     0.074 A 
ATOM     47  C   UNL A   1      40.470  28.128  29.363  1.00  0.00     0.049 A 
ATOM     48  N   UNL A   1      43.694  28.913  28.955  1.00  0.00    -0.248 NA
ATOM     49  C   UNL A   1      42.792  29.005  26.820  1.00  0.00     0.031 C 
ATOM     50  C   UNL A   1      39.203  27.410  29.521  1.00  0.00     0.029 A 
ATOM     51  N   UNL A   1      40.269  29.279  30.068  1.00  0.00    -0.354 N 
ATOM     52  C   UNL A   1      44.462  29.748  28.154  1.00  0.00     0.074 A 
ATOM     53  C   UNL A   1      44.015  29.538  26.806  1.00  0.00     0.031 C 
ATOM     54  C   UNL A   1      38.286  28.239  30.074  1.00  0.00     0.029 A 
ATOM     55  C   UNL A   1      38.944  29.478  30.449  1.00  0.00     0.049 A 
ATOM     56  H   UNL A   1      40.992  29.909  30.286  1.00  0.00     0.167 HD
ATOM     57  C   UNL A   1      45.081  30.817  28.722  1.00  0.00     0.037 A 
ATOM     58  C   UNL A   1      38.446  30.621  30.980  1.00  0.00     0.037 A 
ATOM     59  C   UNL A   1      45.125  30.667  30.157  1.00  0.00     0.049 A 
ATOM     60  C   UNL A   1      39.585  31.368  31.570  1.00  0.00     0.074 A 
ATOM     61  C   UNL A   1      45.869  29.957  31.074  1.00  0.00     0.029 A 
ATOM     62  N   UNL A   1      43.960  31.035  30.775  1.00  0.00    -0.354 N 
ATOM     63  N   UNL A   1      40.256  30.944  32.605  1.00  0.00    -0.248 NA
ATOM     64  C   UNL A   1      40.239  32.410  30.783  1.00  0.00     0.031 C 
ATOM     65  C   UNL A   1      45.063  29.845  32.248  1.00  0.00     0.029 A 
ATOM     66  C   UNL A   1      43.867  30.527  32.041  1.00  0.00     0.049 A 
ATOM     67  H   UNL A   1      43.270  31.598  30.357  1.00  0.00     0.167 HD
ATOM     68  C   UNL A   1      41.553  31.345  32.356  1.00  0.00     0.074 A 
ATOM     69  C   UNL A   1      41.457  32.375  31.331  1.00  0.00     0.031 C 
ATOM     70  C   UNL A   1      42.605  30.569  32.743  1.00  0.00     0.037 A 
BRANCH  57  71
ATOM     71  C   UNL A   1      45.135  32.196  28.095  1.00  0.00     0.064 A 
ATOM     72  C   UNL A   1      46.398  32.767  27.840  1.00  0.00     0.173 A 
ATOM     73  C   UNL A   1      44.045  33.094  28.026  1.00  0.00     0.173 A 
ATOM     74  F   UNL A   1      47.510  32.018  27.898  1.00  0.00    -0.203 F 
ATOM     75  C   UNL A   1      46.559  34.136  27.604  1.00  0.00     0.198 A 
ATOM     76  C   UNL A   1      44.204  34.448  27.741  1.00  0.00     0.198 A 
ATOM     77  F   UNL A   1      42.795  32.742  28.340  1.00  0.00    -0.203 F 
ATOM     78  F   UNL A   1      47.789  34.650  27.482  1.00  0.00    -0.200 F 
ATOM     79  C   UNL A   1      45.461  34.976  27.559  1.00  0.00     0.200 A 
ATOM     80  F   UNL A   1      43.126  35.247  27.728  1.00  0.00    -0.200 F 
ATOM     81  F   UNL A   1      45.614  36.294  27.387  1.00  0.00    -0.200 F 
ENDBRANCH  57  71
BRANCH  58  82
ATOM     82  C   UNL A   1      37.130  31.260  30.744  1.00  0.00     0.064 A 
ATOM     83  C   UNL A   1      36.236  31.492  31.802  1.00  0.00     0.173 A 
ATOM     84  C   UNL A   1      36.865  31.934  29.538  1.00  0.00     0.173 A 
ATOM     85  F   UNL A   1      36.443  30.921  32.998  1.00  0.00    -0.203 F 
ATOM     86  C   UNL A   1      35.160  32.379  31.672  1.00  0.00     0.198 A 
ATOM     87  C   UNL A   1      35.790  32.817  29.409  1.00  0.00     0.198 A 
ATOM     88  F   UNL A   1      37.702  31.829  28.496  1.00  0.00    -0.203 F 
ATOM     89  F   UNL A   1      34.368  32.630  32.725  1.00  0.00    -0.200 F 
ATOM     90  C   UNL A   1      34.948  33.052  30.480  1.00  0.00     0.200 A 
ATOM     91  F   UNL A   1      35.621  33.494  28.264  1.00  0.00    -0.200 F 
ATOM     92  F   UNL A   1      33.965  33.957  30.378  1.00  0.00    -0.200 F 
ENDBRANCH  58  82
BRANCH  70  93
ATOM     93  C   UNL A   1      42.385  29.618  33.874  1.00  0.00     0.064 A 
ATOM     94  C   UNL A   1      41.867  28.321  33.740  1.00  0.00     0.173 A 
ATOM     95  C   UNL A   1      42.792  30.030  35.150  1.00  0.00     0.173 A 
ATOM     96  F   UNL A   1      41.521  27.839  32.539  1.00  0.00    -0.203 F 
ATOM     97  C   UNL A   1      41.734  27.486  34.850  1.00  0.00     0.198 A 
ATOM     98  C   UNL A   1      42.692  29.184  36.247  1.00  0.00     0.198 A 
ATOM     99  F   UNL A   1      43.326  31.249  35.322  1.00  0.00    -0.203 F 
ATOM    100  F   UNL A   1      41.221  26.255  34.709  1.00  0.00    -0.200 F 
ATOM    101  C   UNL A   1      42.154  27.917  36.101  1.00  0.00     0.200 A 
ATOM    102  F   UNL A   1      43.136  29.594  37.444  1.00  0.00    -0.200 F 
ATOM    103  F   UNL A   1      42.059  27.103  37.162  1.00  0.00    -0.200 F 
ENDBRANCH  70  93
ENDBRANCH  44  45
ENDBRANCH  37  39
ENDBRANCH  36  37
ENDBRANCH  35  36
ENDBRANCH  34  35
ENDBRANCH   1  34
TORSDOF 18
ENDMDL
