MODEL 1
REMARK VINA RESULT:     -11.7      0.000      0.000
REMARK SMILES COc1ccc2c(c1)[C@@](NC=O)(C(=O)OCCOCCOC(=O)c1ccc(-c3c4nc(c(-c5c(F)c(F)c(F)c(F)c5F)c5ccc([nH]5)c(-c5c(F)c(F)c(F)c(F)c5F)c5nc(c(-c6c(F)c(F)c(F)c(F)c6F)c6ccc3[nH]6)C=C5)C=C4)cc1)CCC2
REMARK SMILES IDX 19 1 18 2 17 3 16 4 15 5 13 6 14 7 9 8 3 9 4 10 8 11 5 12
REMARK SMILES IDX 7 13 6 14 89 15 87 16 88 17 2 18 1 19 10 20 11 21 12 23
REMARK SMILES IDX 20 24 21 25 22 26 23 27 24 28 25 29 86 30 26 31 85 32 27 33
REMARK SMILES IDX 28 34 29 35 79 36 30 37 84 38 78 39 80 40 31 41 83 42 77 43
REMARK SMILES IDX 76 44 32 46 64 47 44 48 63 49 45 50 48 51 62 52 81 53 46 54
REMARK SMILES IDX 47 55 61 57 82 58 49 59 33 60 34 61 42 62 35 63 36 64 40 65
REMARK SMILES IDX 43 66 37 67 38 68 41 69 39 70 65 71 66 72 74 73 67 74 68 75
REMARK SMILES IDX 72 76 75 77 69 78 70 79 73 80 71 81 50 82 51 83 59 84 52 85
REMARK SMILES IDX 53 86 57 87 60 88 54 89 55 90 58 91 56 92
REMARK H PARENT 10 22 80 45 48 56
REMARK Flexibility Score: inf
ROOT
ATOM      1  C   UNL A   1      31.838  31.886  26.615  1.00  0.00     0.202 C 
ENDROOT
BRANCH   1   2
ATOM      2  O   UNL A   1      32.498  30.800  27.260  1.00  0.00    -0.374 OA
BRANCH   2   3
ATOM      3  C   UNL A   1      33.473  30.075  26.515  1.00  0.00     0.202 C 
BRANCH   3   4
ATOM      4  C   UNL A   1      33.035  28.750  25.883  1.00  0.00     0.261 C 
BRANCH   4   5
ATOM      5  O   UNL A   1      32.070  28.946  24.836  1.00  0.00    -0.461 OA
BRANCH   5   6
ATOM      6  C   UNL A   1      32.460  28.533  23.597  1.00  0.00     0.336 C 
ATOM      7  O   UNL A   1      33.472  28.947  23.038  1.00  0.00    -0.249 OA
BRANCH   6   8
ATOM      8  C   UNL A   1      31.469  27.471  22.964  1.00  0.00     0.164 C 
ATOM      9  C   UNL A   1      29.126  30.282  21.884  1.00  0.00     0.119 A 
ATOM     10  C   UNL A   1      27.925  29.886  22.462  1.00  0.00     0.047 A 
ATOM     11  C   UNL A   1      30.218  29.433  21.982  1.00  0.00     0.053 A 
ATOM     12  C   UNL A   1      27.812  28.638  23.090  1.00  0.00     0.008 A 
ATOM     13  C   UNL A   1      30.157  28.224  22.709  1.00  0.00    -0.004 A 
ATOM     14  C   UNL A   1      28.920  27.785  23.199  1.00  0.00    -0.042 A 
ATOM     15  C   UNL A   1      28.763  26.443  23.867  1.00  0.00     0.036 C 
ATOM     16  C   UNL A   1      31.260  26.248  23.902  1.00  0.00     0.046 C 
ATOM     17  C   UNL A   1      29.950  25.517  23.603  1.00  0.00     0.008 C 
BRANCH   9  18
ATOM     18  O   UNL A   1      29.136  31.511  21.286  1.00  0.00    -0.497 OA
ATOM     19  C   UNL A   1      27.864  32.057  20.933  1.00  0.00     0.278 C 
ENDBRANCH   9  18
BRANCH   8  20
ATOM     20  N   UNL A   1      31.923  26.963  21.646  1.00  0.00    -0.339 N 
ATOM     21  C   UNL A   1      32.847  25.999  21.394  1.00  0.00     0.338 C 
ATOM     22  H   UNL A   1      31.504  27.376  20.857  1.00  0.00     0.164 HD
ATOM     23  O   UNL A   1      32.942  25.448  20.307  1.00  0.00    -0.279 OA
ENDBRANCH   8  20
ENDBRANCH   6   8
ENDBRANCH   5   6
ENDBRANCH   4   5
ENDBRANCH   3   4
ENDBRANCH   2   3
ENDBRANCH   1   2
BRANCH   1  24
ATOM     24  C   UNL A   1      31.884  33.255  27.296  1.00  0.00     0.261 C 
BRANCH  24  25
ATOM     25  O   UNL A   1      33.220  33.771  27.355  1.00  0.00    -0.460 OA
BRANCH  25  26
ATOM     26  C   UNL A   1      33.660  34.006  28.610  1.00  0.00     0.338 C 
ATOM     27  O   UNL A   1      33.090  34.634  29.495  1.00  0.00    -0.246 OA
BRANCH  26  28
ATOM     28  C   UNL A   1      34.880  33.228  28.862  1.00  0.00     0.060 A 
ATOM     29  C   UNL A   1      34.716  31.907  29.298  1.00  0.00     0.016 A 
ATOM     30  C   UNL A   1      36.154  33.786  28.728  1.00  0.00     0.016 A 
ATOM     31  C   UNL A   1      35.823  31.157  29.670  1.00  0.00     0.010 A 
ATOM     32  C   UNL A   1      37.266  33.035  29.114  1.00  0.00     0.010 A 
ATOM     33  C   UNL A   1      37.097  31.737  29.628  1.00  0.00    -0.014 A 
BRANCH  33  34
ATOM     34  C   UNL A   1      38.218  31.050  30.305  1.00  0.00     0.031 A 
ATOM     35  C   UNL A   1      38.490  31.374  31.746  1.00  0.00     0.074 A 
ATOM     36  C   UNL A   1      38.943  30.123  29.660  1.00  0.00     0.049 A 
ATOM     37  N   UNL A   1      39.420  30.913  32.542  1.00  0.00    -0.248 NA
ATOM     38  C   UNL A   1      37.591  32.354  32.377  1.00  0.00     0.031 C 
ATOM     39  C   UNL A   1      38.733  29.700  28.277  1.00  0.00     0.029 A 
ATOM     40  N   UNL A   1      40.006  29.371  30.087  1.00  0.00    -0.354 N 
ATOM     41  C   UNL A   1      39.221  31.549  33.761  1.00  0.00     0.074 A 
ATOM     42  C   UNL A   1      38.105  32.453  33.592  1.00  0.00     0.031 C 
ATOM     43  C   UNL A   1      39.649  28.767  27.965  1.00  0.00     0.029 A 
ATOM     44  C   UNL A   1      40.525  28.553  29.115  1.00  0.00     0.049 A 
ATOM     45  H   UNL A   1      40.364  29.413  31.003  1.00  0.00     0.167 HD
ATOM     46  C   UNL A   1      39.905  31.384  34.916  1.00  0.00     0.037 A 
ATOM     47  C   UNL A   1      41.598  27.741  29.152  1.00  0.00     0.037 A 
ATOM     48  C   UNL A   1      41.014  30.481  35.072  1.00  0.00     0.049 A 
ATOM     49  C   UNL A   1      42.385  27.627  30.431  1.00  0.00     0.074 A 
ATOM     50  C   UNL A   1      41.766  30.222  36.203  1.00  0.00     0.029 A 
ATOM     51  N   UNL A   1      41.535  29.694  34.054  1.00  0.00    -0.354 N 
ATOM     52  N   UNL A   1      42.179  28.212  31.586  1.00  0.00    -0.248 NA
ATOM     53  C   UNL A   1      43.553  26.734  30.411  1.00  0.00     0.031 C 
ATOM     54  C   UNL A   1      42.778  29.320  35.856  1.00  0.00     0.029 A 
ATOM     55  C   UNL A   1      42.619  28.970  34.524  1.00  0.00     0.049 A 
ATOM     56  H   UNL A   1      41.186  29.655  33.134  1.00  0.00     0.167 HD
ATOM     57  C   UNL A   1      43.171  27.740  32.437  1.00  0.00     0.074 A 
ATOM     58  C   UNL A   1      43.971  26.810  31.667  1.00  0.00     0.031 C 
ATOM     59  C   UNL A   1      43.400  28.047  33.738  1.00  0.00     0.037 A 
BRANCH  46  60
ATOM     60  C   UNL A   1      39.491  32.224  36.090  1.00  0.00     0.064 A 
ATOM     61  C   UNL A   1      40.068  33.478  36.343  1.00  0.00     0.173 A 
ATOM     62  C   UNL A   1      38.494  31.773  36.968  1.00  0.00     0.173 A 
ATOM     63  F   UNL A   1      41.039  33.949  35.546  1.00  0.00    -0.203 F 
ATOM     64  C   UNL A   1      39.683  34.234  37.448  1.00  0.00     0.198 A 
ATOM     65  C   UNL A   1      38.090  32.545  38.053  1.00  0.00     0.198 A 
ATOM     66  F   UNL A   1      37.910  30.581  36.772  1.00  0.00    -0.203 F 
ATOM     67  F   UNL A   1      40.286  35.404  37.700  1.00  0.00    -0.200 F 
ATOM     68  C   UNL A   1      38.690  33.771  38.298  1.00  0.00     0.200 A 
ATOM     69  F   UNL A   1      37.124  32.100  38.867  1.00  0.00    -0.200 F 
ATOM     70  F   UNL A   1      38.319  34.501  39.358  1.00  0.00    -0.200 F 
ENDBRANCH  46  60
BRANCH  47  71
ATOM     71  C   UNL A   1      41.992  26.983  27.936  1.00  0.00     0.064 A 
ATOM     72  C   UNL A   1      42.845  27.544  26.977  1.00  0.00     0.173 A 
ATOM     73  C   UNL A   1      41.523  25.680  27.709  1.00  0.00     0.173 A 
ATOM     74  F   UNL A   1      43.302  28.795  27.138  1.00  0.00    -0.203 F 
ATOM     75  C   UNL A   1      43.203  26.837  25.831  1.00  0.00     0.198 A 
ATOM     76  C   UNL A   1      41.904  24.964  26.578  1.00  0.00     0.198 A 
ATOM     77  F   UNL A   1      40.704  25.097  28.598  1.00  0.00    -0.203 F 
ATOM     78  F   UNL A   1      43.988  27.412  24.909  1.00  0.00    -0.200 F 
ATOM     79  C   UNL A   1      42.738  25.544  25.635  1.00  0.00     0.200 A 
ATOM     80  F   UNL A   1      41.463  23.710  26.401  1.00  0.00    -0.200 F 
ATOM     81  F   UNL A   1      43.089  24.862  24.536  1.00  0.00    -0.200 F 
ENDBRANCH  47  71
BRANCH  59  82
ATOM     82  C   UNL A   1      44.539  27.347  34.420  1.00  0.00     0.064 A 
ATOM     83  C   UNL A   1      45.820  27.914  34.485  1.00  0.00     0.173 A 
ATOM     84  C   UNL A   1      44.334  26.112  35.055  1.00  0.00     0.173 A 
ATOM     85  F   UNL A   1      46.071  29.086  33.882  1.00  0.00    -0.203 F 
ATOM     86  C   UNL A   1      46.861  27.257  35.137  1.00  0.00     0.198 A 
ATOM     87  C   UNL A   1      45.368  25.474  35.733  1.00  0.00     0.198 A 
ATOM     88  F   UNL A   1      43.125  25.531  35.030  1.00  0.00    -0.203 F 
ATOM     89  F   UNL A   1      48.089  27.793  35.143  1.00  0.00    -0.200 F 
ATOM     90  C   UNL A   1      46.633  26.042  35.766  1.00  0.00     0.200 A 
ATOM     91  F   UNL A   1      45.141  24.308  36.354  1.00  0.00    -0.200 F 
ATOM     92  F   UNL A   1      47.633  25.416  36.400  1.00  0.00    -0.200 F 
ENDBRANCH  59  82
ENDBRANCH  33  34
ENDBRANCH  26  28
ENDBRANCH  25  26
ENDBRANCH  24  25
ENDBRANCH   1  24
TORSDOF 16
ENDMDL
MODEL 2
REMARK VINA RESULT:     -11.7      0.485      2.010
REMARK SMILES COc1ccc2c(c1)[C@@](NC=O)(C(=O)OCCOCCOC(=O)c1ccc(-c3c4nc(c(-c5c(F)c(F)c(F)c(F)c5F)c5ccc([nH]5)c(-c5c(F)c(F)c(F)c(F)c5F)c5nc(c(-c6c(F)c(F)c(F)c(F)c6F)c6ccc3[nH]6)C=C5)C=C4)cc1)CCC2
REMARK SMILES IDX 19 1 18 2 17 3 16 4 15 5 13 6 14 7 9 8 3 9 4 10 8 11 5 12
REMARK SMILES IDX 7 13 6 14 89 15 87 16 88 17 2 18 1 19 10 20 11 21 12 23
REMARK SMILES IDX 20 24 21 25 22 26 23 27 24 28 25 29 86 30 26 31 85 32 27 33
REMARK SMILES IDX 28 34 29 35 79 36 30 37 84 38 78 39 80 40 31 41 83 42 77 43
REMARK SMILES IDX 76 44 32 46 64 47 44 48 63 49 45 50 48 51 62 52 81 53 46 54
REMARK SMILES IDX 47 55 61 57 82 58 49 59 33 60 34 61 42 62 35 63 36 64 40 65
REMARK SMILES IDX 43 66 37 67 38 68 41 69 39 70 65 71 66 72 74 73 67 74 68 75
REMARK SMILES IDX 72 76 75 77 69 78 70 79 73 80 71 81 50 82 51 83 59 84 52 85
REMARK SMILES IDX 53 86 57 87 60 88 54 89 55 90 58 91 56 92
REMARK H PARENT 10 22 80 45 48 56
REMARK Flexibility Score: inf
ROOT
ATOM      1  C   UNL A   1      31.883  32.052  27.137  1.00  0.00     0.202 C 
ENDROOT
BRANCH   1   2
ATOM      2  O   UNL A   1      32.909  31.118  27.465  1.00  0.00    -0.374 OA
BRANCH   2   3
ATOM      3  C   UNL A   1      33.273  30.155  26.479  1.00  0.00     0.202 C 
BRANCH   3   4
ATOM      4  C   UNL A   1      32.260  29.866  25.368  1.00  0.00     0.261 C 
BRANCH   4   5
ATOM      5  O   UNL A   1      32.379  28.525  24.865  1.00  0.00    -0.461 OA
BRANCH   5   6
ATOM      6  C   UNL A   1      32.497  28.416  23.512  1.00  0.00     0.336 C 
ATOM      7  O   UNL A   1      33.298  29.073  22.852  1.00  0.00    -0.249 OA
BRANCH   6   8
ATOM      8  C   UNL A   1      31.491  27.362  22.890  1.00  0.00     0.164 C 
ATOM      9  C   UNL A   1      29.060  30.173  22.024  1.00  0.00     0.119 A 
ATOM     10  C   UNL A   1      27.894  29.739  22.645  1.00  0.00     0.047 A 
ATOM     11  C   UNL A   1      30.167  29.338  22.039  1.00  0.00     0.053 A 
ATOM     12  C   UNL A   1      27.829  28.469  23.233  1.00  0.00     0.008 A 
ATOM     13  C   UNL A   1      30.157  28.104  22.725  1.00  0.00    -0.004 A 
ATOM     14  C   UNL A   1      28.952  27.629  23.259  1.00  0.00    -0.042 A 
ATOM     15  C   UNL A   1      28.846  26.263  23.886  1.00  0.00     0.036 C 
ATOM     16  C   UNL A   1      31.344  26.105  23.794  1.00  0.00     0.046 C 
ATOM     17  C   UNL A   1      30.030  25.365  23.533  1.00  0.00     0.008 C 
BRANCH   9  18
ATOM     18  O   UNL A   1      29.025  31.422  21.469  1.00  0.00    -0.497 OA
ATOM     19  C   UNL A   1      28.634  32.490  22.333  1.00  0.00     0.278 C 
ENDBRANCH   9  18
BRANCH   8  20
ATOM     20  N   UNL A   1      31.887  26.907  21.535  1.00  0.00    -0.339 N 
ATOM     21  C   UNL A   1      32.846  26.003  21.203  1.00  0.00     0.338 C 
ATOM     22  H   UNL A   1      31.395  27.309  20.784  1.00  0.00     0.164 HD
ATOM     23  O   UNL A   1      32.901  25.479  20.100  1.00  0.00    -0.279 OA
ENDBRANCH   8  20
ENDBRANCH   6   8
ENDBRANCH   5   6
ENDBRANCH   4   5
ENDBRANCH   3   4
ENDBRANCH   2   3
ENDBRANCH   1   2
BRANCH   1  24
ATOM     24  C   UNL A   1      32.211  33.541  27.254  1.00  0.00     0.261 C 
BRANCH  24  25
ATOM     25  O   UNL A   1      32.558  33.901  28.598  1.00  0.00    -0.460 OA
BRANCH  25  26
ATOM     26  C   UNL A   1      33.700  34.615  28.695  1.00  0.00     0.338 C 
ATOM     27  O   UNL A   1      33.817  35.835  28.727  1.00  0.00    -0.246 OA
BRANCH  26  28
ATOM     28  C   UNL A   1      34.829  33.712  28.954  1.00  0.00     0.060 A 
ATOM     29  C   UNL A   1      34.571  32.570  29.722  1.00  0.00     0.016 A 
ATOM     30  C   UNL A   1      36.121  33.997  28.505  1.00  0.00     0.016 A 
ATOM     31  C   UNL A   1      35.615  31.740  30.105  1.00  0.00     0.010 A 
ATOM     32  C   UNL A   1      37.173  33.168  28.900  1.00  0.00     0.010 A 
ATOM     33  C   UNL A   1      36.927  32.066  29.738  1.00  0.00    -0.014 A 
BRANCH  33  34
ATOM     34  C   UNL A   1      38.049  31.362  30.396  1.00  0.00     0.031 A 
ATOM     35  C   UNL A   1      38.367  31.701  31.824  1.00  0.00     0.074 A 
ATOM     36  C   UNL A   1      38.734  30.407  29.746  1.00  0.00     0.049 A 
ATOM     37  N   UNL A   1      39.307  31.229  32.602  1.00  0.00    -0.248 NA
ATOM     38  C   UNL A   1      37.509  32.712  32.462  1.00  0.00     0.031 C 
ATOM     39  C   UNL A   1      38.476  29.969  28.376  1.00  0.00     0.029 A 
ATOM     40  N   UNL A   1      39.789  29.636  30.157  1.00  0.00    -0.354 N 
ATOM     41  C   UNL A   1      39.156  31.888  33.815  1.00  0.00     0.074 A 
ATOM     42  C   UNL A   1      38.059  32.817  33.662  1.00  0.00     0.031 C 
ATOM     43  C   UNL A   1      39.360  29.009  28.055  1.00  0.00     0.029 A 
ATOM     44  C   UNL A   1      40.261  28.791  29.185  1.00  0.00     0.049 A 
ATOM     45  H   UNL A   1      40.173  29.683  31.063  1.00  0.00     0.167 HD
ATOM     46  C   UNL A   1      39.866  31.724  34.955  1.00  0.00     0.037 A 
ATOM     47  C   UNL A   1      41.315  27.953  29.206  1.00  0.00     0.037 A 
ATOM     48  C   UNL A   1      40.957  30.797  35.095  1.00  0.00     0.049 A 
ATOM     49  C   UNL A   1      42.134  27.839  30.465  1.00  0.00     0.074 A 
ATOM     50  C   UNL A   1      41.733  30.537  36.210  1.00  0.00     0.029 A 
ATOM     51  N   UNL A   1      41.431  29.981  34.076  1.00  0.00    -0.354 N 
ATOM     52  N   UNL A   1      41.973  28.447  31.616  1.00  0.00    -0.248 NA
ATOM     53  C   UNL A   1      43.279  26.918  30.429  1.00  0.00     0.031 C 
ATOM     54  C   UNL A   1      42.713  29.605  35.850  1.00  0.00     0.029 A 
ATOM     55  C   UNL A   1      42.509  29.239  34.529  1.00  0.00     0.049 A 
ATOM     56  H   UNL A   1      41.057  29.937  33.167  1.00  0.00     0.167 HD
ATOM     57  C   UNL A   1      42.975  27.964  32.448  1.00  0.00     0.074 A 
ATOM     58  C   UNL A   1      43.732  27.002  31.671  1.00  0.00     0.031 C 
ATOM     59  C   UNL A   1      43.246  28.285  33.737  1.00  0.00     0.037 A 
BRANCH  46  60
ATOM     60  C   UNL A   1      39.505  32.592  36.126  1.00  0.00     0.064 A 
ATOM     61  C   UNL A   1      38.524  32.213  37.054  1.00  0.00     0.173 A 
ATOM     62  C   UNL A   1      40.160  33.816  36.328  1.00  0.00     0.173 A 
ATOM     63  F   UNL A   1      37.854  31.061  36.898  1.00  0.00    -0.203 F 
ATOM     64  C   UNL A   1      38.191  33.041  38.124  1.00  0.00     0.198 A 
ATOM     65  C   UNL A   1      39.846  34.627  37.415  1.00  0.00     0.198 A 
ATOM     66  F   UNL A   1      41.107  34.227  35.470  1.00  0.00    -0.203 F 
ATOM     67  F   UNL A   1      37.213  32.684  38.967  1.00  0.00    -0.200 F 
ATOM     68  C   UNL A   1      38.857  34.244  38.307  1.00  0.00     0.200 A 
ATOM     69  F   UNL A   1      40.498  35.784  37.596  1.00  0.00    -0.200 F 
ATOM     70  F   UNL A   1      38.537  35.038  39.338  1.00  0.00    -0.200 F 
ENDBRANCH  46  60
BRANCH  47  71
ATOM     71  C   UNL A   1      41.658  27.167  27.993  1.00  0.00     0.064 A 
ATOM     72  C   UNL A   1      41.140  25.880  27.793  1.00  0.00     0.173 A 
ATOM     73  C   UNL A   1      42.510  27.687  27.007  1.00  0.00     0.173 A 
ATOM     74  F   UNL A   1      40.338  25.331  28.716  1.00  0.00    -0.203 F 
ATOM     75  C   UNL A   1      41.473  25.139  26.661  1.00  0.00     0.198 A 
ATOM     76  C   UNL A   1      42.819  26.957  25.863  1.00  0.00     0.198 A 
ATOM     77  F   UNL A   1      43.032  28.915  27.151  1.00  0.00    -0.203 F 
ATOM     78  F   UNL A   1      40.996  23.895  26.514  1.00  0.00    -0.200 F 
ATOM     79  C   UNL A   1      42.307  25.680  25.693  1.00  0.00     0.200 A 
ATOM     80  F   UNL A   1      43.614  27.490  24.924  1.00  0.00    -0.200 F 
ATOM     81  F   UNL A   1      42.620  24.969  24.601  1.00  0.00    -0.200 F 
ENDBRANCH  47  71
BRANCH  59  82
ATOM     82  C   UNL A   1      44.386  27.567  34.400  1.00  0.00     0.064 A 
ATOM     83  C   UNL A   1      44.210  26.324  35.027  1.00  0.00     0.173 A 
ATOM     84  C   UNL A   1      45.680  28.110  34.369  1.00  0.00     0.173 A 
ATOM     85  F   UNL A   1      42.991  25.769  35.095  1.00  0.00    -0.203 F 
ATOM     86  C   UNL A   1      45.283  25.665  35.622  1.00  0.00     0.198 A 
ATOM     87  C   UNL A   1      46.756  27.433  34.937  1.00  0.00     0.198 A 
ATOM     88  F   UNL A   1      45.904  29.292  33.775  1.00  0.00    -0.203 F 
ATOM     89  F   UNL A   1      45.082  24.504  36.258  1.00  0.00    -0.200 F 
ATOM     90  C   UNL A   1      46.555  26.216  35.570  1.00  0.00     0.200 A 
ATOM     91  F   UNL A   1      47.987  27.959  34.871  1.00  0.00    -0.200 F 
ATOM     92  F   UNL A   1      47.587  25.576  36.136  1.00  0.00    -0.200 F 
ENDBRANCH  59  82
ENDBRANCH  33  34
ENDBRANCH  26  28
ENDBRANCH  25  26
ENDBRANCH  24  25
ENDBRANCH   1  24
TORSDOF 16
ENDMDL
MODEL 3
REMARK VINA RESULT:     -11.6      1.346      7.520
REMARK SMILES COc1ccc2c(c1)[C@@](NC=O)(C(=O)OCCOCCOC(=O)c1ccc(-c3c4nc(c(-c5c(F)c(F)c(F)c(F)c5F)c5ccc([nH]5)c(-c5c(F)c(F)c(F)c(F)c5F)c5nc(c(-c6c(F)c(F)c(F)c(F)c6F)c6ccc3[nH]6)C=C5)C=C4)cc1)CCC2
REMARK SMILES IDX 19 1 18 2 17 3 16 4 15 5 13 6 14 7 9 8 3 9 4 10 8 11 5 12
REMARK SMILES IDX 7 13 6 14 89 15 87 16 88 17 2 18 1 19 10 20 11 21 12 23
REMARK SMILES IDX 20 24 21 25 22 26 23 27 24 28 25 29 86 30 26 31 85 32 27 33
REMARK SMILES IDX 28 34 29 35 79 36 30 37 84 38 78 39 80 40 31 41 83 42 77 43
REMARK SMILES IDX 76 44 32 46 64 47 44 48 63 49 45 50 48 51 62 52 81 53 46 54
REMARK SMILES IDX 47 55 61 57 82 58 49 59 33 60 34 61 42 62 35 63 36 64 40 65
REMARK SMILES IDX 43 66 37 67 38 68 41 69 39 70 65 71 66 72 74 73 67 74 68 75
REMARK SMILES IDX 72 76 75 77 69 78 70 79 73 80 71 81 50 82 51 83 59 84 52 85
REMARK SMILES IDX 53 86 57 87 60 88 54 89 55 90 58 91 56 92
REMARK H PARENT 10 22 80 45 48 56
REMARK Flexibility Score: inf
ROOT
ATOM      1  C   UNL A   1      31.661  31.722  26.500  1.00  0.00     0.202 C 
ENDROOT
BRANCH   1   2
ATOM      2  O   UNL A   1      32.195  30.591  27.183  1.00  0.00    -0.374 OA
BRANCH   2   3
ATOM      3  C   UNL A   1      33.435  30.058  26.723  1.00  0.00     0.202 C 
BRANCH   3   4
ATOM      4  C   UNL A   1      33.379  28.826  25.816  1.00  0.00     0.261 C 
BRANCH   4   5
ATOM      5  O   UNL A   1      32.224  28.838  24.961  1.00  0.00    -0.461 OA
BRANCH   5   6
ATOM      6  C   UNL A   1      32.471  28.607  23.641  1.00  0.00     0.336 C 
ATOM      7  O   UNL A   1      33.342  29.198  23.007  1.00  0.00    -0.249 OA
BRANCH   6   8
ATOM      8  C   UNL A   1      31.516  27.506  23.020  1.00  0.00     0.164 C 
ATOM      9  C   UNL A   1      29.060  30.223  21.949  1.00  0.00     0.119 A 
ATOM     10  C   UNL A   1      27.879  29.784  22.538  1.00  0.00     0.047 A 
ATOM     11  C   UNL A   1      30.184  29.416  22.041  1.00  0.00     0.053 A 
ATOM     12  C   UNL A   1      27.819  28.536  23.172  1.00  0.00     0.008 A 
ATOM     13  C   UNL A   1      30.174  28.209  22.773  1.00  0.00    -0.004 A 
ATOM     14  C   UNL A   1      28.959  27.726  23.275  1.00  0.00    -0.042 A 
ATOM     15  C   UNL A   1      28.858  26.382  23.950  1.00  0.00     0.036 C 
ATOM     16  C   UNL A   1      31.360  26.281  23.965  1.00  0.00     0.046 C 
ATOM     17  C   UNL A   1      30.076  25.500  23.680  1.00  0.00     0.008 C 
BRANCH   9  18
ATOM     18  O   UNL A   1      29.019  31.449  21.345  1.00  0.00    -0.497 OA
ATOM     19  C   UNL A   1      28.420  32.507  22.095  1.00  0.00     0.278 C 
ENDBRANCH   9  18
BRANCH   8  20
ATOM     20  N   UNL A   1      31.978  27.010  21.701  1.00  0.00    -0.339 N 
ATOM     21  C   UNL A   1      32.929  26.074  21.445  1.00  0.00     0.338 C 
ATOM     22  H   UNL A   1      31.542  27.409  20.913  1.00  0.00     0.164 HD
ATOM     23  O   UNL A   1      33.034  25.524  20.358  1.00  0.00    -0.279 OA
ENDBRANCH   8  20
ENDBRANCH   6   8
ENDBRANCH   5   6
ENDBRANCH   4   5
ENDBRANCH   3   4
ENDBRANCH   2   3
ENDBRANCH   1   2
BRANCH   1  24
ATOM     24  C   UNL A   1      31.777  33.087  27.180  1.00  0.00     0.261 C 
BRANCH  24  25
ATOM     25  O   UNL A   1      33.134  33.387  27.532  1.00  0.00    -0.460 OA
BRANCH  25  26
ATOM     26  C   UNL A   1      33.256  34.385  28.433  1.00  0.00     0.338 C 
ATOM     27  O   UNL A   1      32.499  35.336  28.602  1.00  0.00    -0.246 OA
BRANCH  26  28
ATOM     28  C   UNL A   1      34.358  34.087  29.358  1.00  0.00     0.060 A 
ATOM     29  C   UNL A   1      35.661  34.291  28.885  1.00  0.00     0.016 A 
ATOM     30  C   UNL A   1      34.131  33.571  30.636  1.00  0.00     0.016 A 
ATOM     31  C   UNL A   1      36.747  33.915  29.662  1.00  0.00     0.010 A 
ATOM     32  C   UNL A   1      35.224  33.183  31.413  1.00  0.00     0.010 A 
ATOM     33  C   UNL A   1      36.531  33.312  30.908  1.00  0.00    -0.014 A 
BRANCH  33  34
ATOM     34  C   UNL A   1      37.663  32.645  31.585  1.00  0.00     0.031 A 
ATOM     35  C   UNL A   1      38.324  31.484  30.897  1.00  0.00     0.074 A 
ATOM     36  C   UNL A   1      38.121  33.098  32.763  1.00  0.00     0.049 A 
ATOM     37  N   UNL A   1      39.320  30.737  31.298  1.00  0.00    -0.248 NA
ATOM     38  C   UNL A   1      37.787  31.114  29.578  1.00  0.00     0.031 C 
ATOM     39  C   UNL A   1      37.583  34.245  33.491  1.00  0.00     0.029 A 
ATOM     40  N   UNL A   1      39.144  32.643  33.553  1.00  0.00    -0.354 N 
ATOM     41  C   UNL A   1      39.524  29.808  30.286  1.00  0.00     0.074 A 
ATOM     42  C   UNL A   1      38.528  30.062  29.268  1.00  0.00     0.031 C 
ATOM     43  C   UNL A   1      38.277  34.398  34.632  1.00  0.00     0.029 A 
ATOM     44  C   UNL A   1      39.285  33.344  34.724  1.00  0.00     0.049 A 
ATOM     45  H   UNL A   1      39.723  31.886  33.304  1.00  0.00     0.167 HD
ATOM     46  C   UNL A   1      40.464  28.838  30.212  1.00  0.00     0.037 A 
ATOM     47  C   UNL A   1      40.121  33.137  35.759  1.00  0.00     0.037 A 
ATOM     48  C   UNL A   1      41.448  28.593  31.232  1.00  0.00     0.049 A 
ATOM     49  C   UNL A   1      41.113  32.006  35.683  1.00  0.00     0.074 A 
ATOM     50  C   UNL A   1      42.458  27.649  31.250  1.00  0.00     0.029 A 
ATOM     51  N   UNL A   1      41.538  29.301  32.423  1.00  0.00    -0.354 N 
ATOM     52  N   UNL A   1      41.317  31.146  34.714  1.00  0.00    -0.248 NA
ATOM     53  C   UNL A   1      41.995  31.820  36.844  1.00  0.00     0.031 C 
ATOM     54  C   UNL A   1      43.123  27.747  32.477  1.00  0.00     0.029 A 
ATOM     55  C   UNL A   1      42.568  28.793  33.197  1.00  0.00     0.049 A 
ATOM     56  H   UNL A   1      40.955  30.052  32.679  1.00  0.00     0.167 HD
ATOM     57  C   UNL A   1      42.364  30.337  35.134  1.00  0.00     0.074 A 
ATOM     58  C   UNL A   1      42.762  30.817  36.442  1.00  0.00     0.031 C 
ATOM     59  C   UNL A   1      42.947  29.290  34.497  1.00  0.00     0.037 A 
BRANCH  46  60
ATOM     60  C   UNL A   1      40.444  27.947  29.003  1.00  0.00     0.064 A 
ATOM     61  C   UNL A   1      41.195  28.242  27.854  1.00  0.00     0.173 A 
ATOM     62  C   UNL A   1      39.673  26.776  28.998  1.00  0.00     0.173 A 
ATOM     63  F   UNL A   1      41.936  29.359  27.798  1.00  0.00    -0.203 F 
ATOM     64  C   UNL A   1      41.149  27.412  26.736  1.00  0.00     0.198 A 
ATOM     65  C   UNL A   1      39.654  25.933  27.890  1.00  0.00     0.198 A 
ATOM     66  F   UNL A   1      38.936  26.447  30.071  1.00  0.00    -0.203 F 
ATOM     67  F   UNL A   1      41.831  27.742  25.631  1.00  0.00    -0.200 F 
ATOM     68  C   UNL A   1      40.384  26.255  26.757  1.00  0.00     0.200 A 
ATOM     69  F   UNL A   1      38.922  24.811  27.918  1.00  0.00    -0.200 F 
ATOM     70  F   UNL A   1      40.344  25.457  25.682  1.00  0.00    -0.200 F 
ENDBRANCH  46  60
BRANCH  47  71
ATOM     71  C   UNL A   1      40.048  34.016  36.954  1.00  0.00     0.064 A 
ATOM     72  C   UNL A   1      39.240  33.682  38.050  1.00  0.00     0.173 A 
ATOM     73  C   UNL A   1      40.784  35.208  37.026  1.00  0.00     0.173 A 
ATOM     74  F   UNL A   1      38.500  32.564  38.020  1.00  0.00    -0.203 F 
ATOM     75  C   UNL A   1      39.162  34.514  39.165  1.00  0.00     0.198 A 
ATOM     76  C   UNL A   1      40.727  36.024  38.152  1.00  0.00     0.198 A 
ATOM     77  F   UNL A   1      41.572  35.572  36.004  1.00  0.00    -0.203 F 
ATOM     78  F   UNL A   1      38.350  34.192  40.183  1.00  0.00    -0.200 F 
ATOM     79  C   UNL A   1      39.910  35.681  39.219  1.00  0.00     0.200 A 
ATOM     80  F   UNL A   1      41.463  37.143  38.205  1.00  0.00    -0.200 F 
ATOM     81  F   UNL A   1      39.840  36.477  40.295  1.00  0.00    -0.200 F 
ENDBRANCH  47  71
BRANCH  59  82
ATOM     82  C   UNL A   1      44.096  28.616  35.189  1.00  0.00     0.064 A 
ATOM     83  C   UNL A   1      43.902  27.526  36.050  1.00  0.00     0.173 A 
ATOM     84  C   UNL A   1      45.413  29.041  34.953  1.00  0.00     0.173 A 
ATOM     85  F   UNL A   1      42.661  27.091  36.319  1.00  0.00    -0.203 F 
ATOM     86  C   UNL A   1      44.982  26.903  36.670  1.00  0.00     0.198 A 
ATOM     87  C   UNL A   1      46.492  28.395  35.550  1.00  0.00     0.198 A 
ATOM     88  F   UNL A   1      45.654  30.074  34.132  1.00  0.00    -0.203 F 
ATOM     89  F   UNL A   1      44.769  25.895  37.527  1.00  0.00    -0.200 F 
ATOM     90  C   UNL A   1      46.276  27.333  36.414  1.00  0.00     0.200 A 
ATOM     91  F   UNL A   1      47.742  28.802  35.289  1.00  0.00    -0.200 F 
ATOM     92  F   UNL A   1      47.313  26.726  37.005  1.00  0.00    -0.200 F 
ENDBRANCH  59  82
ENDBRANCH  33  34
ENDBRANCH  26  28
ENDBRANCH  25  26
ENDBRANCH  24  25
ENDBRANCH   1  24
TORSDOF 16
ENDMDL
