MODEL 1
REMARK VINA RESULT:     -13.1      0.000      0.000
REMARK SMILES C[C@H](CCC(=O)OCCOCCOC(=O)c1ccc(-c2c3nc(c(-c4c(F)c(F)c(F)c(F)c4F)c4ccc([nH]4)c(-c4c(F)c(F)c(F)c(F)c4F)c4nc(c(-c5c(F)c(F)c(F)c(F)c5F)c5ccc2[nH]5)C=C4)C=C3)cc1)[C@H]1CC[C@@H]2[C@H]3CC[C@H]4C[C@@H](O)CC[C@@]4(C)C3=CC(=O)[C@]12C
REMARK SMILES IDX 9 1 8 2 7 3 5 4 6 5 4 6 3 7 2 8 1 9 79 10 80 11 98 12 81 13
REMARK SMILES IDX 82 14 96 15 99 16 83 17 95 18 97 19 84 20 94 21 85 22 92 23
REMARK SMILES IDX 86 24 91 25 93 26 87 27 90 28 88 29 89 30 10 32 11 33 12 34
REMARK SMILES IDX 13 35 14 36 15 37 16 38 17 39 78 40 18 41 77 42 19 43 20 44
REMARK SMILES IDX 21 45 71 46 22 47 76 48 70 49 72 50 23 51 75 52 69 53 68 54
REMARK SMILES IDX 24 56 56 57 36 58 55 59 37 60 40 61 54 62 73 63 38 64 39 65
REMARK SMILES IDX 53 67 74 68 41 69 25 70 26 71 34 72 27 73 28 74 32 75 35 76
REMARK SMILES IDX 29 77 30 78 33 79 31 80 57 81 58 82 66 83 59 84 60 85 64 86
REMARK SMILES IDX 67 87 61 88 62 89 65 90 63 91 42 92 43 93 51 94 44 95 45 96
REMARK SMILES IDX 49 97 52 98 46 99 47 100 50 101 48 102
REMARK H PARENT 89 31 72 55 40 66
REMARK Flexibility Score: inf
ROOT
ATOM      1  C   UNL A   1      41.117  21.396  27.277  1.00  0.00     0.202 C 
ENDROOT
BRANCH   1   2
ATOM      2  C   UNL A   1      40.300  20.950  26.062  1.00  0.00     0.261 C 
BRANCH   2   3
ATOM      3  O   UNL A   1      39.144  21.783  25.915  1.00  0.00    -0.463 OA
BRANCH   3   4
ATOM      4  C   UNL A   1      38.019  21.192  25.437  1.00  0.00     0.305 C 
ATOM      5  O   UNL A   1      37.969  20.076  24.938  1.00  0.00    -0.252 OA
BRANCH   4   6
ATOM      6  C   UNL A   1      36.793  22.038  25.685  1.00  0.00     0.123 C 
BRANCH   6   7
ATOM      7  C   UNL A   1      35.496  21.255  25.852  1.00  0.00     0.015 C 
BRANCH   7   8
ATOM      8  C   UNL A   1      34.231  22.041  26.298  1.00  0.00    -0.010 C 
ATOM      9  C   UNL A   1      34.345  22.933  27.517  1.00  0.00     0.008 C 
BRANCH   8  10
ATOM     10  C   UNL A   1      33.557  22.649  25.071  1.00  0.00     0.006 C 
ATOM     11  C   UNL A   1      33.468  21.818  23.720  1.00  0.00     0.005 C 
ATOM     12  C   UNL A   1      32.189  23.393  25.052  1.00  0.00     0.037 C 
ATOM     13  C   UNL A   1      32.515  22.689  22.781  1.00  0.00     0.005 C 
ATOM     14  C   UNL A   1      32.411  23.985  23.610  1.00  0.00     0.010 C 
ATOM     15  C   UNL A   1      31.776  24.471  26.064  1.00  0.00     0.162 C 
ATOM     16  C   UNL A   1      31.013  22.372  25.195  1.00  0.00     0.020 C 
ATOM     17  C   UNL A   1      32.891  25.478  23.633  1.00  0.00     0.020 C 
ATOM     18  C   UNL A   1      31.558  25.883  25.654  1.00  0.00     0.048 C 
ATOM     19  O   UNL A   1      31.543  24.203  27.246  1.00  0.00    -0.294 OA
ATOM     20  C   UNL A   1      33.274  25.991  22.241  1.00  0.00     0.009 C 
ATOM     21  C   UNL A   1      32.132  26.404  24.555  1.00  0.00    -0.057 C 
ATOM     22  C   UNL A   1      33.811  27.412  22.333  1.00  0.00     0.005 C 
ATOM     23  C   UNL A   1      32.443  27.921  24.461  1.00  0.00    -0.008 C 
ATOM     24  C   UNL A   1      32.787  28.340  22.996  1.00  0.00     0.001 C 
ATOM     25  C   UNL A   1      31.340  28.887  24.995  1.00  0.00     0.014 C 
ATOM     26  C   UNL A   1      33.682  28.157  25.381  1.00  0.00     0.016 C 
ATOM     27  C   UNL A   1      31.527  28.409  22.117  1.00  0.00     0.036 C 
ATOM     28  C   UNL A   1      30.121  29.019  24.090  1.00  0.00     0.032 C 
ATOM     29  C   UNL A   1      30.513  29.394  22.666  1.00  0.00     0.114 C 
BRANCH  29  30
ATOM     30  O   UNL A   1      29.348  29.371  21.850  1.00  0.00    -0.393 OA
ATOM     31  H   UNL A   1      28.562  29.284  22.412  1.00  0.00     0.210 HD
ENDBRANCH  29  30
ENDBRANCH   8  10
ENDBRANCH   7   8
ENDBRANCH   6   7
ENDBRANCH   4   6
ENDBRANCH   3   4
ENDBRANCH   2   3
ENDBRANCH   1   2
BRANCH   1  32
ATOM     32  O   UNL A   1      42.527  21.514  27.080  1.00  0.00    -0.374 OA
BRANCH  32  33
ATOM     33  C   UNL A   1      43.062  21.144  25.810  1.00  0.00     0.202 C 
BRANCH  33  34
ATOM     34  C   UNL A   1      44.040  22.137  25.167  1.00  0.00     0.261 C 
BRANCH  34  35
ATOM     35  O   UNL A   1      43.386  23.317  24.657  1.00  0.00    -0.460 OA
BRANCH  35  36
ATOM     36  C   UNL A   1      44.013  24.478  24.942  1.00  0.00     0.338 C 
ATOM     37  O   UNL A   1      45.119  24.845  24.547  1.00  0.00    -0.246 OA
BRANCH  36  38
ATOM     38  C   UNL A   1      43.145  25.375  25.718  1.00  0.00     0.060 A 
ATOM     39  C   UNL A   1      43.646  26.646  26.024  1.00  0.00     0.016 A 
ATOM     40  C   UNL A   1      41.945  24.930  26.280  1.00  0.00     0.016 A 
ATOM     41  C   UNL A   1      42.995  27.445  26.960  1.00  0.00     0.010 A 
ATOM     42  C   UNL A   1      41.293  25.736  27.223  1.00  0.00     0.010 A 
ATOM     43  C   UNL A   1      41.848  26.970  27.608  1.00  0.00    -0.014 A 
BRANCH  43  44
ATOM     44  C   UNL A   1      41.367  27.686  28.818  1.00  0.00     0.031 A 
ATOM     45  C   UNL A   1      42.146  27.555  30.102  1.00  0.00     0.074 A 
ATOM     46  C   UNL A   1      40.305  28.508  28.760  1.00  0.00     0.049 A 
ATOM     47  N   UNL A   1      41.948  28.132  31.260  1.00  0.00    -0.248 NA
ATOM     48  C   UNL A   1      43.307  26.651  30.073  1.00  0.00     0.031 C 
ATOM     49  C   UNL A   1      39.492  28.753  27.570  1.00  0.00     0.029 A 
ATOM     50  N   UNL A   1      39.736  29.300  29.727  1.00  0.00    -0.354 N 
ATOM     51  C   UNL A   1      42.951  27.657  32.097  1.00  0.00     0.074 A 
ATOM     52  C   UNL A   1      43.736  26.719  31.325  1.00  0.00     0.031 C 
ATOM     53  C   UNL A   1      38.532  29.643  27.876  1.00  0.00     0.029 A 
ATOM     54  C   UNL A   1      38.651  30.013  29.285  1.00  0.00     0.049 A 
ATOM     55  H   UNL A   1      40.075  29.350  30.650  1.00  0.00     0.167 HD
ATOM     56  C   UNL A   1      43.204  27.984  33.387  1.00  0.00     0.037 A 
ATOM     57  C   UNL A   1      37.845  30.866  29.946  1.00  0.00     0.037 A 
ATOM     58  C   UNL A   1      42.435  28.929  34.152  1.00  0.00     0.049 A 
ATOM     59  C   UNL A   1      38.122  31.179  31.395  1.00  0.00     0.074 A 
ATOM     60  C   UNL A   1      42.626  29.341  35.460  1.00  0.00     0.029 A 
ATOM     61  N   UNL A   1      41.324  29.609  33.677  1.00  0.00    -0.354 N 
ATOM     62  N   UNL A   1      39.090  30.750  32.167  1.00  0.00    -0.248 NA
ATOM     63  C   UNL A   1      37.198  32.110  32.059  1.00  0.00     0.031 C 
ATOM     64  C   UNL A   1      41.602  30.236  35.791  1.00  0.00     0.029 A 
ATOM     65  C   UNL A   1      40.806  30.423  34.673  1.00  0.00     0.049 A 
ATOM     66  H   UNL A   1      40.957  29.525  32.768  1.00  0.00     0.167 HD
ATOM     67  C   UNL A   1      38.918  31.386  33.389  1.00  0.00     0.074 A 
ATOM     68  C   UNL A   1      37.754  32.238  33.254  1.00  0.00     0.031 C 
ATOM     69  C   UNL A   1      39.659  31.280  34.519  1.00  0.00     0.037 A 
BRANCH  56  70
ATOM     70  C   UNL A   1      44.351  27.288  34.065  1.00  0.00     0.064 A 
ATOM     71  C   UNL A   1      45.632  27.857  34.122  1.00  0.00     0.173 A 
ATOM     72  C   UNL A   1      44.155  26.047  34.689  1.00  0.00     0.173 A 
ATOM     73  F   UNL A   1      45.875  29.035  33.529  1.00  0.00    -0.203 F 
ATOM     74  C   UNL A   1      46.681  27.196  34.755  1.00  0.00     0.198 A 
ATOM     75  C   UNL A   1      45.199  25.403  35.347  1.00  0.00     0.198 A 
ATOM     76  F   UNL A   1      42.949  25.461  34.667  1.00  0.00    -0.203 F 
ATOM     77  F   UNL A   1      47.909  27.734  34.755  1.00  0.00    -0.200 F 
ATOM     78  C   UNL A   1      46.463  25.973  35.372  1.00  0.00     0.200 A 
ATOM     79  F   UNL A   1      44.983  24.227  35.952  1.00  0.00    -0.200 F 
ATOM     80  F   UNL A   1      47.472  25.339  35.985  1.00  0.00    -0.200 F 
ENDBRANCH  56  70
BRANCH  57  81
ATOM     81  C   UNL A   1      36.702  31.505  29.242  1.00  0.00     0.064 A 
ATOM     82  C   UNL A   1      36.704  32.878  28.957  1.00  0.00     0.173 A 
ATOM     83  C   UNL A   1      35.575  30.762  28.863  1.00  0.00     0.173 A 
ATOM     84  F   UNL A   1      37.749  33.636  29.323  1.00  0.00    -0.203 F 
ATOM     85  C   UNL A   1      35.615  33.486  28.337  1.00  0.00     0.198 A 
ATOM     86  C   UNL A   1      34.498  31.366  28.218  1.00  0.00     0.198 A 
ATOM     87  F   UNL A   1      35.523  29.446  29.115  1.00  0.00    -0.203 F 
ATOM     88  F   UNL A   1      35.622  34.809  28.122  1.00  0.00    -0.200 F 
ATOM     89  C   UNL A   1      34.515  32.729  27.964  1.00  0.00     0.200 A 
ATOM     90  F   UNL A   1      33.441  30.629  27.850  1.00  0.00    -0.200 F 
ATOM     91  F   UNL A   1      33.467  33.314  27.369  1.00  0.00    -0.200 F 
ENDBRANCH  57  81
BRANCH  69  92
ATOM     92  C   UNL A   1      39.273  32.149  35.683  1.00  0.00     0.064 A 
ATOM     93  C   UNL A   1      38.395  31.704  36.683  1.00  0.00     0.173 A 
ATOM     94  C   UNL A   1      39.813  33.439  35.811  1.00  0.00     0.173 A 
ATOM     95  F   UNL A   1      37.842  30.485  36.601  1.00  0.00    -0.203 F 
ATOM     96  C   UNL A   1      38.046  32.531  37.748  1.00  0.00     0.198 A 
ATOM     97  C   UNL A   1      39.486  34.250  36.893  1.00  0.00     0.198 A 
ATOM     98  F   UNL A   1      40.665  33.909  34.887  1.00  0.00    -0.203 F 
ATOM     99  F   UNL A   1      37.162  32.105  38.661  1.00  0.00    -0.200 F 
ATOM    100  C   UNL A   1      38.596  33.800  37.856  1.00  0.00     0.200 A 
ATOM    101  F   UNL A   1      40.030  35.470  37.003  1.00  0.00    -0.200 F 
ATOM    102  F   UNL A   1      38.259  34.593  38.882  1.00  0.00    -0.200 F 
ENDBRANCH  69  92
ENDBRANCH  43  44
ENDBRANCH  36  38
ENDBRANCH  35  36
ENDBRANCH  34  35
ENDBRANCH  33  34
ENDBRANCH  32  33
ENDBRANCH   1  32
TORSDOF 18
ENDMDL
MODEL 2
REMARK VINA RESULT:     -12.9      4.347      6.621
REMARK SMILES C[C@H](CCC(=O)OCCOCCOC(=O)c1ccc(-c2c3nc(c(-c4c(F)c(F)c(F)c(F)c4F)c4ccc([nH]4)c(-c4c(F)c(F)c(F)c(F)c4F)c4nc(c(-c5c(F)c(F)c(F)c(F)c5F)c5ccc2[nH]5)C=C4)C=C3)cc1)[C@H]1CC[C@@H]2[C@H]3CC[C@H]4C[C@@H](O)CC[C@@]4(C)C3=CC(=O)[C@]12C
REMARK SMILES IDX 9 1 8 2 7 3 5 4 6 5 4 6 3 7 2 8 1 9 79 10 80 11 98 12 81 13
REMARK SMILES IDX 82 14 96 15 99 16 83 17 95 18 97 19 84 20 94 21 85 22 92 23
REMARK SMILES IDX 86 24 91 25 93 26 87 27 90 28 88 29 89 30 10 32 11 33 12 34
REMARK SMILES IDX 13 35 14 36 15 37 16 38 17 39 78 40 18 41 77 42 19 43 20 44
REMARK SMILES IDX 21 45 71 46 22 47 76 48 70 49 72 50 23 51 75 52 69 53 68 54
REMARK SMILES IDX 24 56 56 57 36 58 55 59 37 60 40 61 54 62 73 63 38 64 39 65
REMARK SMILES IDX 53 67 74 68 41 69 25 70 26 71 34 72 27 73 28 74 32 75 35 76
REMARK SMILES IDX 29 77 30 78 33 79 31 80 57 81 58 82 66 83 59 84 60 85 64 86
REMARK SMILES IDX 67 87 61 88 62 89 65 90 63 91 42 92 43 93 51 94 44 95 45 96
REMARK SMILES IDX 49 97 52 98 46 99 47 100 50 101 48 102
REMARK H PARENT 89 31 72 55 40 66
REMARK Flexibility Score: inf
ROOT
ATOM      1  C   UNL A   1      35.595  19.832  24.996  1.00  0.00     0.202 C 
ENDROOT
BRANCH   1   2
ATOM      2  C   UNL A   1      35.443  18.357  24.616  1.00  0.00     0.261 C 
BRANCH   2   3
ATOM      3  O   UNL A   1      34.067  17.968  24.696  1.00  0.00    -0.463 OA
BRANCH   3   4
ATOM      4  C   UNL A   1      33.426  17.738  23.522  1.00  0.00     0.305 C 
ATOM      5  O   UNL A   1      33.711  16.852  22.726  1.00  0.00    -0.252 OA
BRANCH   4   6
ATOM      6  C   UNL A   1      32.234  18.647  23.347  1.00  0.00     0.123 C 
BRANCH   6   7
ATOM      7  C   UNL A   1      32.173  19.820  24.319  1.00  0.00     0.015 C 
BRANCH   7   8
ATOM      8  C   UNL A   1      32.485  21.237  23.760  1.00  0.00    -0.010 C 
ATOM      9  C   UNL A   1      32.189  21.502  22.299  1.00  0.00     0.008 C 
BRANCH   8  10
ATOM     10  C   UNL A   1      31.999  22.289  24.754  1.00  0.00     0.006 C 
ATOM     11  C   UNL A   1      30.847  21.935  25.787  1.00  0.00     0.005 C 
ATOM     12  C   UNL A   1      32.902  23.214  25.623  1.00  0.00     0.037 C 
ATOM     13  C   UNL A   1      30.794  23.191  26.770  1.00  0.00     0.005 C 
ATOM     14  C   UNL A   1      31.719  24.173  26.022  1.00  0.00     0.010 C 
ATOM     15  C   UNL A   1      34.118  23.984  25.091  1.00  0.00     0.162 C 
ATOM     16  C   UNL A   1      33.543  22.400  26.795  1.00  0.00     0.020 C 
ATOM     17  C   UNL A   1      31.691  25.490  25.172  1.00  0.00     0.020 C 
ATOM     18  C   UNL A   1      34.142  25.470  25.047  1.00  0.00     0.048 C 
ATOM     19  O   UNL A   1      35.153  23.411  24.738  1.00  0.00    -0.294 OA
ATOM     20  C   UNL A   1      30.441  26.334  25.440  1.00  0.00     0.009 C 
ATOM     21  C   UNL A   1      33.015  26.201  25.008  1.00  0.00    -0.057 C 
ATOM     22  C   UNL A   1      30.423  27.553  24.530  1.00  0.00     0.005 C 
ATOM     23  C   UNL A   1      32.996  27.604  24.346  1.00  0.00    -0.008 C 
ATOM     24  C   UNL A   1      31.696  28.388  24.713  1.00  0.00     0.001 C 
ATOM     25  C   UNL A   1      34.219  28.526  24.647  1.00  0.00     0.014 C 
ATOM     26  C   UNL A   1      33.040  27.347  22.807  1.00  0.00     0.016 C 
ATOM     27  C   UNL A   1      31.746  28.923  26.153  1.00  0.00     0.036 C 
ATOM     28  C   UNL A   1      34.233  29.122  26.050  1.00  0.00     0.032 C 
ATOM     29  C   UNL A   1      32.931  29.844  26.370  1.00  0.00     0.114 C 
BRANCH  29  30
ATOM     30  O   UNL A   1      32.960  30.258  27.731  1.00  0.00    -0.393 OA
ATOM     31  H   UNL A   1      32.077  30.151  28.119  1.00  0.00     0.210 HD
ENDBRANCH  29  30
ENDBRANCH   8  10
ENDBRANCH   7   8
ENDBRANCH   6   7
ENDBRANCH   4   6
ENDBRANCH   3   4
ENDBRANCH   2   3
ENDBRANCH   1   2
BRANCH   1  32
ATOM     32  O   UNL A   1      36.928  20.343  25.021  1.00  0.00    -0.374 OA
BRANCH  32  33
ATOM     33  C   UNL A   1      37.998  19.446  24.727  1.00  0.00     0.202 C 
BRANCH  33  34
ATOM     34  C   UNL A   1      39.175  19.442  25.712  1.00  0.00     0.261 C 
BRANCH  34  35
ATOM     35  O   UNL A   1      39.685  20.762  25.982  1.00  0.00    -0.460 OA
BRANCH  35  36
ATOM     36  C   UNL A   1      40.790  20.794  26.755  1.00  0.00     0.338 C 
ATOM     37  O   UNL A   1      41.660  19.928  26.849  1.00  0.00    -0.246 OA
BRANCH  36  38
ATOM     38  C   UNL A   1      40.936  22.094  27.425  1.00  0.00     0.060 A 
ATOM     39  C   UNL A   1      40.187  23.164  26.920  1.00  0.00     0.016 A 
ATOM     40  C   UNL A   1      41.905  22.307  28.410  1.00  0.00     0.016 A 
ATOM     41  C   UNL A   1      40.462  24.464  27.334  1.00  0.00     0.010 A 
ATOM     42  C   UNL A   1      42.181  23.618  28.823  1.00  0.00     0.010 A 
ATOM     43  C   UNL A   1      41.500  24.704  28.243  1.00  0.00    -0.014 A 
BRANCH  43  44
ATOM     44  C   UNL A   1      41.986  26.098  28.416  1.00  0.00     0.031 A 
ATOM     45  C   UNL A   1      43.303  26.493  27.803  1.00  0.00     0.074 A 
ATOM     46  C   UNL A   1      41.231  27.022  29.036  1.00  0.00     0.049 A 
ATOM     47  N   UNL A   1      43.894  27.662  27.775  1.00  0.00    -0.248 NA
ATOM     48  C   UNL A   1      44.057  25.425  27.125  1.00  0.00     0.031 C 
ATOM     49  C   UNL A   1      39.921  26.776  29.636  1.00  0.00     0.029 A 
ATOM     50  N   UNL A   1      41.456  28.359  29.250  1.00  0.00    -0.354 N 
ATOM     51  C   UNL A   1      45.087  27.468  27.088  1.00  0.00     0.074 A 
ATOM     52  C   UNL A   1      45.153  26.065  26.744  1.00  0.00     0.031 C 
ATOM     53  C   UNL A   1      39.454  27.930  30.144  1.00  0.00     0.029 A 
ATOM     54  C   UNL A   1      40.439  28.987  29.924  1.00  0.00     0.049 A 
ATOM     55  H   UNL A   1      42.270  28.823  28.948  1.00  0.00     0.167 HD
ATOM     56  C   UNL A   1      46.034  28.379  26.761  1.00  0.00     0.037 A 
ATOM     57  C   UNL A   1      40.321  30.269  30.319  1.00  0.00     0.037 A 
ATOM     58  C   UNL A   1      45.962  29.779  27.086  1.00  0.00     0.049 A 
ATOM     59  C   UNL A   1      41.410  31.255  29.979  1.00  0.00     0.074 A 
ATOM     60  C   UNL A   1      46.863  30.785  26.780  1.00  0.00     0.029 A 
ATOM     61  N   UNL A   1      44.929  30.371  27.797  1.00  0.00    -0.354 N 
ATOM     62  N   UNL A   1      42.517  31.069  29.303  1.00  0.00    -0.248 NA
ATOM     63  C   UNL A   1      41.223  32.635  30.449  1.00  0.00     0.031 C 
ATOM     64  C   UNL A   1      46.397  31.977  27.345  1.00  0.00     0.029 A 
ATOM     65  C   UNL A   1      45.179  31.725  27.956  1.00  0.00     0.049 A 
ATOM     66  H   UNL A   1      44.136  29.899  28.138  1.00  0.00     0.167 HD
ATOM     67  C   UNL A   1      43.135  32.310  29.230  1.00  0.00     0.074 A 
ATOM     68  C   UNL A   1      42.276  33.245  29.927  1.00  0.00     0.031 C 
ATOM     69  C   UNL A   1      44.306  32.648  28.635  1.00  0.00     0.037 A 
BRANCH  56  70
ATOM     70  C   UNL A   1      47.249  27.882  26.030  1.00  0.00     0.064 A 
ATOM     71  C   UNL A   1      47.271  27.749  24.634  1.00  0.00     0.173 A 
ATOM     72  C   UNL A   1      48.417  27.561  26.738  1.00  0.00     0.173 A 
ATOM     73  F   UNL A   1      46.176  28.029  23.912  1.00  0.00    -0.203 F 
ATOM     74  C   UNL A   1      48.408  27.287  23.976  1.00  0.00     0.198 A 
ATOM     75  C   UNL A   1      49.561  27.128  26.075  1.00  0.00     0.198 A 
ATOM     76  F   UNL A   1      48.451  27.675  28.074  1.00  0.00    -0.203 F 
ATOM     77  F   UNL A   1      48.391  27.120  22.646  1.00  0.00    -0.200 F 
ATOM     78  C   UNL A   1      49.554  26.982  24.696  1.00  0.00     0.200 A 
ATOM     79  F   UNL A   1      50.671  26.845  26.772  1.00  0.00    -0.200 F 
ATOM     80  F   UNL A   1      50.649  26.541  24.062  1.00  0.00    -0.200 F 
ENDBRANCH  56  70
BRANCH  57  81
ATOM     81  C   UNL A   1      39.114  30.707  31.068  1.00  0.00     0.064 A 
ATOM     82  C   UNL A   1      39.058  30.616  32.466  1.00  0.00     0.173 A 
ATOM     83  C   UNL A   1      37.985  31.202  30.400  1.00  0.00     0.173 A 
ATOM     84  F   UNL A   1      40.103  30.125  33.148  1.00  0.00    -0.203 F 
ATOM     85  C   UNL A   1      37.910  30.984  33.165  1.00  0.00     0.198 A 
ATOM     86  C   UNL A   1      36.848  31.596  31.103  1.00  0.00     0.198 A 
ATOM     87  F   UNL A   1      37.988  31.307  29.063  1.00  0.00    -0.203 F 
ATOM     88  F   UNL A   1      37.864  30.840  34.497  1.00  0.00    -0.200 F 
ATOM     89  C   UNL A   1      36.809  31.478  32.484  1.00  0.00     0.200 A 
ATOM     90  F   UNL A   1      35.789  32.082  30.441  1.00  0.00    -0.200 F 
ATOM     91  F   UNL A   1      35.705  31.831  33.156  1.00  0.00    -0.200 F 
ENDBRANCH  57  81
BRANCH  69  92
ATOM     92  C   UNL A   1      44.700  34.098  28.657  1.00  0.00     0.064 A 
ATOM     93  C   UNL A   1      45.529  34.627  29.657  1.00  0.00     0.173 A 
ATOM     94  C   UNL A   1      44.260  34.964  27.644  1.00  0.00     0.173 A 
ATOM     95  F   UNL A   1      45.967  33.844  30.655  1.00  0.00    -0.203 F 
ATOM     96  C   UNL A   1      45.874  35.976  29.661  1.00  0.00     0.198 A 
ATOM     97  C   UNL A   1      44.632  36.305  27.633  1.00  0.00     0.198 A 
ATOM     98  F   UNL A   1      43.473  34.507  26.658  1.00  0.00    -0.203 F 
ATOM     99  F   UNL A   1      46.621  36.472  30.658  1.00  0.00    -0.200 F 
ATOM    100  C   UNL A   1      45.431  36.813  28.647  1.00  0.00     0.200 A 
ATOM    101  F   UNL A   1      44.215  37.108  26.644  1.00  0.00    -0.200 F 
ATOM    102  F   UNL A   1      45.765  38.110  28.652  1.00  0.00    -0.200 F 
ENDBRANCH  69  92
ENDBRANCH  43  44
ENDBRANCH  36  38
ENDBRANCH  35  36
ENDBRANCH  34  35
ENDBRANCH  33  34
ENDBRANCH  32  33
ENDBRANCH   1  32
TORSDOF 18
ENDMDL
MODEL 3
REMARK VINA RESULT:     -12.8      5.093     10.575
REMARK SMILES C[C@H](CCC(=O)OCCOCCOC(=O)c1ccc(-c2c3nc(c(-c4c(F)c(F)c(F)c(F)c4F)c4ccc([nH]4)c(-c4c(F)c(F)c(F)c(F)c4F)c4nc(c(-c5c(F)c(F)c(F)c(F)c5F)c5ccc2[nH]5)C=C4)C=C3)cc1)[C@H]1CC[C@@H]2[C@H]3CC[C@H]4C[C@@H](O)CC[C@@]4(C)C3=CC(=O)[C@]12C
REMARK SMILES IDX 9 1 8 2 7 3 5 4 6 5 4 6 3 7 2 8 1 9 79 10 80 11 98 12 81 13
REMARK SMILES IDX 82 14 96 15 99 16 83 17 95 18 97 19 84 20 94 21 85 22 92 23
REMARK SMILES IDX 86 24 91 25 93 26 87 27 90 28 88 29 89 30 10 32 11 33 12 34
REMARK SMILES IDX 13 35 14 36 15 37 16 38 17 39 78 40 18 41 77 42 19 43 20 44
REMARK SMILES IDX 21 45 71 46 22 47 76 48 70 49 72 50 23 51 75 52 69 53 68 54
REMARK SMILES IDX 24 56 56 57 36 58 55 59 37 60 40 61 54 62 73 63 38 64 39 65
REMARK SMILES IDX 53 67 74 68 41 69 25 70 26 71 34 72 27 73 28 74 32 75 35 76
REMARK SMILES IDX 29 77 30 78 33 79 31 80 57 81 58 82 66 83 59 84 60 85 64 86
REMARK SMILES IDX 67 87 61 88 62 89 65 90 63 91 42 92 43 93 51 94 44 95 45 96
REMARK SMILES IDX 49 97 52 98 46 99 47 100 50 101 48 102
REMARK H PARENT 89 31 72 55 40 66
REMARK Flexibility Score: inf
ROOT
ATOM      1  C   UNL A   1      33.663  34.765  30.855  1.00  0.00     0.202 C 
ENDROOT
BRANCH   1   2
ATOM      2  C   UNL A   1      33.310  35.167  29.420  1.00  0.00     0.261 C 
BRANCH   2   3
ATOM      3  O   UNL A   1      33.082  33.998  28.624  1.00  0.00    -0.463 OA
BRANCH   3   4
ATOM      4  C   UNL A   1      34.180  33.369  28.131  1.00  0.00     0.305 C 
ATOM      5  O   UNL A   1      35.121  33.925  27.579  1.00  0.00    -0.252 OA
BRANCH   4   6
ATOM      6  C   UNL A   1      34.160  31.890  28.432  1.00  0.00     0.123 C 
BRANCH   6   7
ATOM      7  C   UNL A   1      33.541  31.021  27.342  1.00  0.00     0.015 C 
BRANCH   7   8
ATOM      8  C   UNL A   1      34.278  29.708  26.961  1.00  0.00    -0.010 C 
ATOM      9  C   UNL A   1      35.508  29.329  27.760  1.00  0.00     0.008 C 
BRANCH   8  10
ATOM     10  C   UNL A   1      33.252  28.602  26.728  1.00  0.00     0.006 C 
ATOM     11  C   UNL A   1      31.886  28.604  27.537  1.00  0.00     0.005 C 
ATOM     12  C   UNL A   1      32.777  28.069  25.344  1.00  0.00     0.037 C 
ATOM     13  C   UNL A   1      31.020  27.448  26.856  1.00  0.00     0.005 C 
ATOM     14  C   UNL A   1      32.085  26.793  25.954  1.00  0.00     0.010 C 
ATOM     15  C   UNL A   1      33.717  27.720  24.183  1.00  0.00     0.162 C 
ATOM     16  C   UNL A   1      31.820  29.103  24.664  1.00  0.00     0.020 C 
ATOM     17  C   UNL A   1      32.965  25.502  25.821  1.00  0.00     0.020 C 
ATOM     18  C   UNL A   1      33.862  26.325  23.689  1.00  0.00     0.048 C 
ATOM     19  O   UNL A   1      34.343  28.586  23.565  1.00  0.00    -0.294 OA
ATOM     20  C   UNL A   1      32.368  24.306  26.569  1.00  0.00     0.009 C 
ATOM     21  C   UNL A   1      33.587  25.262  24.464  1.00  0.00    -0.057 C 
ATOM     22  C   UNL A   1      33.302  23.108  26.478  1.00  0.00     0.005 C 
ATOM     23  C   UNL A   1      34.298  23.902  24.234  1.00  0.00    -0.008 C 
ATOM     24  C   UNL A   1      33.588  22.751  25.015  1.00  0.00     0.001 C 
ATOM     25  C   UNL A   1      34.462  23.451  22.749  1.00  0.00     0.014 C 
ATOM     26  C   UNL A   1      35.751  24.087  24.774  1.00  0.00     0.016 C 
ATOM     27  C   UNL A   1      32.276  22.330  24.333  1.00  0.00     0.036 C 
ATOM     28  C   UNL A   1      33.178  22.959  22.091  1.00  0.00     0.032 C 
ATOM     29  C   UNL A   1      32.507  21.863  22.908  1.00  0.00     0.114 C 
BRANCH  29  30
ATOM     30  O   UNL A   1      31.256  21.547  22.310  1.00  0.00    -0.393 OA
ATOM     31  H   UNL A   1      30.733  21.007  22.923  1.00  0.00     0.210 HD
ENDBRANCH  29  30
ENDBRANCH   8  10
ENDBRANCH   7   8
ENDBRANCH   6   7
ENDBRANCH   4   6
ENDBRANCH   3   4
ENDBRANCH   2   3
ENDBRANCH   1   2
BRANCH   1  32
ATOM     32  O   UNL A   1      33.804  35.833  31.792  1.00  0.00    -0.374 OA
BRANCH  32  33
ATOM     33  C   UNL A   1      35.093  36.066  32.359  1.00  0.00     0.202 C 
BRANCH  33  34
ATOM     34  C   UNL A   1      35.582  35.035  33.385  1.00  0.00     0.261 C 
BRANCH  34  35
ATOM     35  O   UNL A   1      36.459  34.046  32.813  1.00  0.00    -0.460 OA
BRANCH  35  36
ATOM     36  C   UNL A   1      36.081  32.767  33.019  1.00  0.00     0.338 C 
ATOM     37  O   UNL A   1      35.117  32.371  33.674  1.00  0.00    -0.246 OA
BRANCH  36  38
ATOM     38  C   UNL A   1      36.908  31.834  32.240  1.00  0.00     0.060 A 
ATOM     39  C   UNL A   1      38.026  31.283  32.875  1.00  0.00     0.016 A 
ATOM     40  C   UNL A   1      36.697  31.635  30.873  1.00  0.00     0.016 A 
ATOM     41  C   UNL A   1      38.985  30.602  32.131  1.00  0.00     0.010 A 
ATOM     42  C   UNL A   1      37.665  30.951  30.125  1.00  0.00     0.010 A 
ATOM     43  C   UNL A   1      38.839  30.483  30.742  1.00  0.00    -0.014 A 
BRANCH  43  44
ATOM     44  C   UNL A   1      40.012  30.051  29.939  1.00  0.00     0.031 A 
ATOM     45  C   UNL A   1      41.151  31.015  29.732  1.00  0.00     0.074 A 
ATOM     46  C   UNL A   1      40.104  28.795  29.470  1.00  0.00     0.049 A 
ATOM     47  N   UNL A   1      42.294  30.838  29.119  1.00  0.00    -0.248 NA
ATOM     48  C   UNL A   1      40.977  32.364  30.296  1.00  0.00     0.031 C 
ATOM     49  C   UNL A   1      39.090  27.756  29.636  1.00  0.00     0.029 A 
ATOM     50  N   UNL A   1      41.109  28.177  28.767  1.00  0.00    -0.354 N 
ATOM     51  C   UNL A   1      42.970  32.049  29.217  1.00  0.00     0.074 A 
ATOM     52  C   UNL A   1      42.096  32.964  29.918  1.00  0.00     0.031 C 
ATOM     53  C   UNL A   1      39.530  26.624  29.058  1.00  0.00     0.029 A 
ATOM     54  C   UNL A   1      40.843  26.866  28.463  1.00  0.00     0.049 A 
ATOM     55  H   UNL A   1      41.942  28.633  28.505  1.00  0.00     0.167 HD
ATOM     56  C   UNL A   1      44.211  32.365  28.775  1.00  0.00     0.037 A 
ATOM     57  C   UNL A   1      41.577  25.966  27.781  1.00  0.00     0.037 A 
ATOM     58  C   UNL A   1      45.088  31.451  28.093  1.00  0.00     0.049 A 
ATOM     59  C   UNL A   1      42.937  26.356  27.263  1.00  0.00     0.074 A 
ATOM     60  C   UNL A   1      46.373  31.672  27.625  1.00  0.00     0.029 A 
ATOM     61  N   UNL A   1      44.769  30.139  27.778  1.00  0.00    -0.354 N 
ATOM     62  N   UNL A   1      43.579  27.493  27.387  1.00  0.00    -0.248 NA
ATOM     63  C   UNL A   1      43.681  25.330  26.518  1.00  0.00     0.031 C 
ATOM     64  C   UNL A   1      46.813  30.508  26.986  1.00  0.00     0.029 A 
ATOM     65  C   UNL A   1      45.824  29.544  27.104  1.00  0.00     0.049 A 
ATOM     66  H   UNL A   1      43.919  29.695  28.001  1.00  0.00     0.167 HD
ATOM     67  C   UNL A   1      44.813  27.305  26.777  1.00  0.00     0.074 A 
ATOM     68  C   UNL A   1      44.832  25.943  26.287  1.00  0.00     0.031 C 
ATOM     69  C   UNL A   1      45.839  28.181  26.640  1.00  0.00     0.037 A 
BRANCH  56  70
ATOM     70  C   UNL A   1      44.685  33.773  28.995  1.00  0.00     0.064 A 
ATOM     71  C   UNL A   1      45.450  34.131  30.115  1.00  0.00     0.173 A 
ATOM     72  C   UNL A   1      44.391  34.772  28.055  1.00  0.00     0.173 A 
ATOM     73  F   UNL A   1      45.746  33.217  31.051  1.00  0.00    -0.203 F 
ATOM     74  C   UNL A   1      45.880  35.443  30.299  1.00  0.00     0.198 A 
ATOM     75  C   UNL A   1      44.848  36.076  28.226  1.00  0.00     0.198 A 
ATOM     76  F   UNL A   1      43.667  34.482  26.964  1.00  0.00    -0.203 F 
ATOM     77  F   UNL A   1      46.567  35.773  31.402  1.00  0.00    -0.200 F 
ATOM     78  C   UNL A   1      45.584  36.413  29.352  1.00  0.00     0.200 A 
ATOM     79  F   UNL A   1      44.571  37.009  27.305  1.00  0.00    -0.200 F 
ATOM     80  F   UNL A   1      46.001  37.674  29.529  1.00  0.00    -0.200 F 
ENDBRANCH  56  70
BRANCH  57  81
ATOM     81  C   UNL A   1      41.052  24.593  27.561  1.00  0.00     0.064 A 
ATOM     82  C   UNL A   1      41.601  23.491  28.233  1.00  0.00     0.173 A 
ATOM     83  C   UNL A   1      40.008  24.351  26.656  1.00  0.00     0.173 A 
ATOM     84  F   UNL A   1      42.618  23.669  29.090  1.00  0.00    -0.203 F 
ATOM     85  C   UNL A   1      41.139  22.199  27.993  1.00  0.00     0.198 A 
ATOM     86  C   UNL A   1      39.529  23.061  26.438  1.00  0.00     0.198 A 
ATOM     87  F   UNL A   1      39.451  25.370  25.987  1.00  0.00    -0.203 F 
ATOM     88  F   UNL A   1      41.715  21.159  28.612  1.00  0.00    -0.200 F 
ATOM     89  C   UNL A   1      40.101  21.986  27.100  1.00  0.00     0.200 A 
ATOM     90  F   UNL A   1      38.518  22.861  25.582  1.00  0.00    -0.200 F 
ATOM     91  F   UNL A   1      39.657  20.742  26.870  1.00  0.00    -0.200 F 
ENDBRANCH  57  81
BRANCH  69  92
ATOM     92  C   UNL A   1      47.095  27.677  25.985  1.00  0.00     0.064 A 
ATOM     93  C   UNL A   1      47.334  27.842  24.613  1.00  0.00     0.173 A 
ATOM     94  C   UNL A   1      48.084  27.041  26.752  1.00  0.00     0.173 A 
ATOM     95  F   UNL A   1      46.415  28.431  23.834  1.00  0.00    -0.203 F 
ATOM     96  C   UNL A   1      48.502  27.359  24.028  1.00  0.00     0.198 A 
ATOM     97  C   UNL A   1      49.263  26.588  26.170  1.00  0.00     0.198 A 
ATOM     98  F   UNL A   1      47.908  26.866  28.071  1.00  0.00    -0.203 F 
ATOM     99  F   UNL A   1      48.685  27.478  22.705  1.00  0.00    -0.200 F 
ATOM    100  C   UNL A   1      49.468  26.738  24.806  1.00  0.00     0.200 A 
ATOM    101  F   UNL A   1      50.201  26.002  26.926  1.00  0.00    -0.200 F 
ATOM    102  F   UNL A   1      50.591  26.275  24.241  1.00  0.00    -0.200 F 
ENDBRANCH  69  92
ENDBRANCH  43  44
ENDBRANCH  36  38
ENDBRANCH  35  36
ENDBRANCH  34  35
ENDBRANCH  33  34
ENDBRANCH  32  33
ENDBRANCH   1  32
TORSDOF 18
ENDMDL
