MODEL 1
REMARK VINA RESULT:     -11.2      0.000      0.000
REMARK SMILES O=C(C[C@@H](NC(=O)C1CCC1)c1ccc(Cl)cc1)OCCOCCOC(=O)c1ccc(-c2c3nc(c(-c4c(F)c(F)c(F)c(F)c4F)c4ccc([nH]4)c(-c4c(F)c(F)c(F)c(F)c4F)c4nc(c(-c5c(F)c(F)c(F)c(F)c5F)c5ccc2[nH]5)C=C4)C=C3)cc1
REMARK SMILES IDX 21 1 20 2 19 3 2 4 1 5 3 6 4 7 5 8 6 9 7 11 8 12 9 13 11 14
REMARK SMILES IDX 10 15 12 16 13 17 18 18 14 19 17 20 15 21 16 22 22 23 23 24
REMARK SMILES IDX 24 25 25 26 26 27 27 28 28 29 29 30 90 31 30 32 89 33 31 34
REMARK SMILES IDX 32 35 33 36 83 37 34 38 88 39 82 40 84 41 35 42 87 43 81 44
REMARK SMILES IDX 80 45 36 47 68 48 48 49 67 50 49 51 52 52 66 53 85 54 50 55
REMARK SMILES IDX 51 56 65 58 86 59 53 60 37 61 38 62 46 63 39 64 40 65 44 66
REMARK SMILES IDX 47 67 41 68 42 69 45 70 43 71 69 72 70 73 78 74 71 75 72 76
REMARK SMILES IDX 76 77 79 78 73 79 74 80 77 81 75 82 54 83 55 84 63 85 56 86
REMARK SMILES IDX 57 87 61 88 64 89 58 90 59 91 62 92 60 93
REMARK H PARENT 5 10 84 46 52 57
REMARK Flexibility Score: inf
ROOT
ATOM      1  C   UNL A   1      35.359  23.317  24.215  1.00  0.00     0.202 C 
ENDROOT
BRANCH   1   2
ATOM      2  C   UNL A   1      34.333  23.027  23.120  1.00  0.00     0.261 C 
BRANCH   2   3
ATOM      3  O   UNL A   1      33.149  23.845  22.975  1.00  0.00    -0.463 OA
BRANCH   3   4
ATOM      4  C   UNL A   1      32.959  25.020  22.355  1.00  0.00     0.308 C 
ATOM      5  O   UNL A   1      33.928  25.650  21.931  1.00  0.00    -0.252 OA
BRANCH   4   6
ATOM      6  C   UNL A   1      31.592  25.612  22.264  1.00  0.00     0.152 C 
BRANCH   6   7
ATOM      7  C   UNL A   1      31.080  26.203  23.577  1.00  0.00     0.123 C 
BRANCH   7   8
ATOM      8  N   UNL A   1      32.089  26.169  24.663  1.00  0.00    -0.348 N 
ATOM      9  C   UNL A   1      32.981  26.847  25.442  1.00  0.00     0.223 C 
ATOM     10  H   UNL A   1      32.140  25.230  24.954  1.00  0.00     0.164 HD
ATOM     11  O   UNL A   1      33.815  26.061  25.947  1.00  0.00    -0.275 OA
BRANCH   9  12
ATOM     12  C   UNL A   1      33.088  28.311  25.822  1.00  0.00     0.078 C 
ATOM     13  C   UNL A   1      31.863  29.176  26.160  1.00  0.00     0.013 C 
ATOM     14  C   UNL A   1      33.834  28.886  27.025  1.00  0.00     0.013 C 
ATOM     15  C   UNL A   1      32.723  29.947  27.177  1.00  0.00     0.002 C 
ENDBRANCH   9  12
ENDBRANCH   7   8
BRANCH   7  16
ATOM     16  C   UNL A   1      30.295  27.448  23.231  1.00  0.00    -0.025 A 
ATOM     17  C   UNL A   1      28.903  27.454  23.459  1.00  0.00     0.007 A 
ATOM     18  C   UNL A   1      30.821  28.508  22.496  1.00  0.00     0.007 A 
ATOM     19  C   UNL A   1      28.107  28.536  23.076  1.00  0.00     0.021 A 
ATOM     20  C   UNL A   1      30.050  29.630  22.177  1.00  0.00     0.021 A 
ATOM     21  C   UNL A   1      28.694  29.644  22.479  1.00  0.00     0.041 A 
ATOM     22  Cl  UNL A   1      27.741  31.019  22.086  1.00  0.00    -0.084 Cl
ENDBRANCH   7  16
ENDBRANCH   6   7
ENDBRANCH   4   6
ENDBRANCH   3   4
ENDBRANCH   2   3
ENDBRANCH   1   2
BRANCH   1  23
ATOM     23  O   UNL A   1      35.607  22.379  25.255  1.00  0.00    -0.374 OA
BRANCH  23  24
ATOM     24  C   UNL A   1      35.678  20.990  24.969  1.00  0.00     0.202 C 
BRANCH  24  25
ATOM     25  C   UNL A   1      37.096  20.443  25.013  1.00  0.00     0.261 C 
BRANCH  25  26
ATOM     26  O   UNL A   1      38.016  21.516  25.246  1.00  0.00    -0.460 OA
BRANCH  26  27
ATOM     27  C   UNL A   1      39.075  21.212  26.023  1.00  0.00     0.338 C 
ATOM     28  O   UNL A   1      39.621  20.126  26.157  1.00  0.00    -0.246 OA
BRANCH  27  29
ATOM     29  C   UNL A   1      39.604  22.459  26.597  1.00  0.00     0.060 A 
ATOM     30  C   UNL A   1      39.082  23.674  26.134  1.00  0.00     0.016 A 
ATOM     31  C   UNL A   1      40.617  22.434  27.559  1.00  0.00     0.016 A 
ATOM     32  C   UNL A   1      39.611  24.873  26.597  1.00  0.00     0.010 A 
ATOM     33  C   UNL A   1      41.151  23.634  28.016  1.00  0.00     0.010 A 
ATOM     34  C   UNL A   1      40.676  24.853  27.505  1.00  0.00    -0.014 A 
BRANCH  34  35
ATOM     35  C   UNL A   1      41.423  26.095  27.784  1.00  0.00     0.031 A 
ATOM     36  C   UNL A   1      40.718  27.198  28.517  1.00  0.00     0.074 A 
ATOM     37  C   UNL A   1      42.699  26.227  27.388  1.00  0.00     0.049 A 
ATOM     38  N   UNL A   1      41.136  28.401  28.812  1.00  0.00    -0.248 NA
ATOM     39  C   UNL A   1      39.348  26.906  28.972  1.00  0.00     0.031 C 
ATOM     40  C   UNL A   1      43.480  25.201  26.701  1.00  0.00     0.029 A 
ATOM     41  N   UNL A   1      43.556  27.291  27.499  1.00  0.00    -0.354 N 
ATOM     42  C   UNL A   1      40.081  29.010  29.478  1.00  0.00     0.074 A 
ATOM     43  C   UNL A   1      38.992  28.060  29.516  1.00  0.00     0.031 C 
ATOM     44  C   UNL A   1      44.703  25.692  26.436  1.00  0.00     0.029 A 
ATOM     45  C   UNL A   1      44.774  27.075  26.906  1.00  0.00     0.049 A 
ATOM     46  H   UNL A   1      43.319  28.129  27.958  1.00  0.00     0.167 HD
ATOM     47  C   UNL A   1      40.035  30.250  30.018  1.00  0.00     0.037 A 
ATOM     48  C   UNL A   1      45.812  27.915  26.743  1.00  0.00     0.037 A 
ATOM     49  C   UNL A   1      41.127  31.184  29.970  1.00  0.00     0.049 A 
ATOM     50  C   UNL A   1      45.711  29.314  27.293  1.00  0.00     0.074 A 
ATOM     51  C   UNL A   1      41.199  32.459  30.500  1.00  0.00     0.029 A 
ATOM     52  N   UNL A   1      42.342  30.941  29.342  1.00  0.00    -0.354 N 
ATOM     53  N   UNL A   1      44.724  29.878  27.948  1.00  0.00    -0.248 NA
ATOM     54  C   UNL A   1      46.868  30.192  27.083  1.00  0.00     0.031 C 
ATOM     55  C   UNL A   1      42.437  33.007  30.146  1.00  0.00     0.029 A 
ATOM     56  C   UNL A   1      43.159  32.053  29.446  1.00  0.00     0.049 A 
ATOM     57  H   UNL A   1      42.585  30.101  28.889  1.00  0.00     0.167 HD
ATOM     58  C   UNL A   1      45.151  31.164  28.253  1.00  0.00     0.074 A 
ATOM     59  C   UNL A   1      46.492  31.291  27.722  1.00  0.00     0.031 C 
ATOM     60  C   UNL A   1      44.495  32.151  28.912  1.00  0.00     0.037 A 
BRANCH  47  61
ATOM     61  C   UNL A   1      38.753  30.671  30.676  1.00  0.00     0.064 A 
ATOM     62  C   UNL A   1      38.584  30.619  32.067  1.00  0.00     0.173 A 
ATOM     63  C   UNL A   1      37.683  31.147  29.903  1.00  0.00     0.173 A 
ATOM     64  F   UNL A   1      39.567  30.154  32.852  1.00  0.00    -0.203 F 
ATOM     65  C   UNL A   1      37.381  31.000  32.658  1.00  0.00     0.198 A 
ATOM     66  C   UNL A   1      36.494  31.557  30.499  1.00  0.00     0.198 A 
ATOM     67  F   UNL A   1      37.791  31.216  28.567  1.00  0.00    -0.203 F 
ATOM     68  F   UNL A   1      37.223  30.891  33.985  1.00  0.00    -0.200 F 
ATOM     69  C   UNL A   1      36.340  31.475  31.874  1.00  0.00     0.200 A 
ATOM     70  F   UNL A   1      35.492  32.025  29.741  1.00  0.00    -0.200 F 
ATOM     71  F   UNL A   1      35.185  31.846  32.445  1.00  0.00    -0.200 F 
ENDBRANCH  47  61
BRANCH  48  72
ATOM     72  C   UNL A   1      47.030  27.458  26.024  1.00  0.00     0.064 A 
ATOM     73  C   UNL A   1      48.097  26.868  26.714  1.00  0.00     0.173 A 
ATOM     74  C   UNL A   1      47.153  27.607  24.635  1.00  0.00     0.173 A 
ATOM     75  F   UNL A   1      48.036  26.726  28.046  1.00  0.00    -0.203 F 
ATOM     76  C   UNL A   1      49.249  26.461  26.045  1.00  0.00     0.198 A 
ATOM     77  C   UNL A   1      48.294  27.173  23.963  1.00  0.00     0.198 A 
ATOM     78  F   UNL A   1      46.161  28.166  23.928  1.00  0.00    -0.203 F 
ATOM     79  F   UNL A   1      50.275  25.943  26.735  1.00  0.00    -0.200 F 
ATOM     80  C   UNL A   1      49.345  26.608  24.669  1.00  0.00     0.200 A 
ATOM     81  F   UNL A   1      48.377  27.307  22.632  1.00  0.00    -0.200 F 
ATOM     82  F   UNL A   1      50.452  26.214  24.026  1.00  0.00    -0.200 F 
ENDBRANCH  48  72
BRANCH  60  83
ATOM     83  C   UNL A   1      45.233  33.441  29.126  1.00  0.00     0.064 A 
ATOM     84  C   UNL A   1      46.035  33.652  30.257  1.00  0.00     0.173 A 
ATOM     85  C   UNL A   1      45.173  34.461  28.164  1.00  0.00     0.173 A 
ATOM     86  F   UNL A   1      46.115  32.713  31.213  1.00  0.00    -0.203 F 
ATOM     87  C   UNL A   1      46.727  34.848  30.430  1.00  0.00     0.198 A 
ATOM     88  C   UNL A   1      45.891  35.640  28.324  1.00  0.00     0.198 A 
ATOM     89  F   UNL A   1      44.427  34.304  27.059  1.00  0.00    -0.203 F 
ATOM     90  F   UNL A   1      47.447  35.047  31.542  1.00  0.00    -0.200 F 
ATOM     91  C   UNL A   1      46.661  35.837  29.460  1.00  0.00     0.200 A 
ATOM     92  F   UNL A   1      45.840  36.588  27.377  1.00  0.00    -0.200 F 
ATOM     93  F   UNL A   1      47.336  36.983  29.623  1.00  0.00    -0.200 F 
ENDBRANCH  60  83
ENDBRANCH  34  35
ENDBRANCH  27  29
ENDBRANCH  26  27
ENDBRANCH  25  26
ENDBRANCH  24  25
ENDBRANCH  23  24
ENDBRANCH   1  23
TORSDOF 18
ENDMDL
MODEL 2
REMARK VINA RESULT:     -11.2      4.724      8.425
REMARK SMILES O=C(C[C@@H](NC(=O)C1CCC1)c1ccc(Cl)cc1)OCCOCCOC(=O)c1ccc(-c2c3nc(c(-c4c(F)c(F)c(F)c(F)c4F)c4ccc([nH]4)c(-c4c(F)c(F)c(F)c(F)c4F)c4nc(c(-c5c(F)c(F)c(F)c(F)c5F)c5ccc2[nH]5)C=C4)C=C3)cc1
REMARK SMILES IDX 21 1 20 2 19 3 2 4 1 5 3 6 4 7 5 8 6 9 7 11 8 12 9 13 11 14
REMARK SMILES IDX 10 15 12 16 13 17 18 18 14 19 17 20 15 21 16 22 22 23 23 24
REMARK SMILES IDX 24 25 25 26 26 27 27 28 28 29 29 30 90 31 30 32 89 33 31 34
REMARK SMILES IDX 32 35 33 36 83 37 34 38 88 39 82 40 84 41 35 42 87 43 81 44
REMARK SMILES IDX 80 45 36 47 68 48 48 49 67 50 49 51 52 52 66 53 85 54 50 55
REMARK SMILES IDX 51 56 65 58 86 59 53 60 37 61 38 62 46 63 39 64 40 65 44 66
REMARK SMILES IDX 47 67 41 68 42 69 45 70 43 71 69 72 70 73 78 74 71 75 72 76
REMARK SMILES IDX 76 77 79 78 73 79 74 80 77 81 75 82 54 83 55 84 63 85 56 86
REMARK SMILES IDX 57 87 61 88 64 89 58 90 59 91 62 92 60 93
REMARK H PARENT 5 10 84 46 52 57
REMARK Flexibility Score: inf
ROOT
ATOM      1  C   UNL A   1      45.370  20.833  24.351  1.00  0.00     0.202 C 
ENDROOT
BRANCH   1   2
ATOM      2  C   UNL A   1      45.675  21.597  25.639  1.00  0.00     0.261 C 
BRANCH   2   3
ATOM      3  O   UNL A   1      46.403  22.847  25.607  1.00  0.00    -0.463 OA
BRANCH   3   4
ATOM      4  C   UNL A   1      46.386  23.857  24.723  1.00  0.00     0.308 C 
ATOM      5  O   UNL A   1      46.933  23.719  23.630  1.00  0.00    -0.252 OA
BRANCH   4   6
ATOM      6  C   UNL A   1      45.793  25.174  25.096  1.00  0.00     0.152 C 
BRANCH   6   7
ATOM      7  C   UNL A   1      46.824  26.241  25.460  1.00  0.00     0.123 C 
BRANCH   7   8
ATOM      8  N   UNL A   1      47.986  26.267  24.538  1.00  0.00    -0.348 N 
ATOM      9  C   UNL A   1      49.329  26.431  24.366  1.00  0.00     0.223 C 
ATOM     10  H   UNL A   1      47.622  26.083  23.643  1.00  0.00     0.164 HD
ATOM     11  O   UNL A   1      49.593  26.692  23.171  1.00  0.00    -0.275 OA
BRANCH   9  12
ATOM     12  C   UNL A   1      50.498  26.301  25.324  1.00  0.00     0.078 C 
ATOM     13  C   UNL A   1      50.652  25.119  26.294  1.00  0.00     0.013 C 
ATOM     14  C   UNL A   1      51.974  26.192  24.946  1.00  0.00     0.013 C 
ATOM     15  C   UNL A   1      52.179  25.213  26.123  1.00  0.00     0.002 C 
ENDBRANCH   9  12
ENDBRANCH   7   8
BRANCH   7  16
ATOM     16  C   UNL A   1      46.061  27.489  25.845  1.00  0.00    -0.025 A 
ATOM     17  C   UNL A   1      46.790  28.636  26.222  1.00  0.00     0.007 A 
ATOM     18  C   UNL A   1      44.686  27.510  26.065  1.00  0.00     0.007 A 
ATOM     19  C   UNL A   1      46.146  29.791  26.676  1.00  0.00     0.021 A 
ATOM     20  C   UNL A   1      44.025  28.683  26.445  1.00  0.00     0.021 A 
ATOM     21  C   UNL A   1      44.759  29.825  26.739  1.00  0.00     0.041 A 
ATOM     22  Cl  UNL A   1      43.953  31.267  27.209  1.00  0.00    -0.084 Cl
ENDBRANCH   7  16
ENDBRANCH   6   7
ENDBRANCH   4   6
ENDBRANCH   3   4
ENDBRANCH   2   3
ENDBRANCH   1   2
BRANCH   1  23
ATOM     23  O   UNL A   1      44.368  19.826  24.316  1.00  0.00    -0.374 OA
BRANCH  23  24
ATOM     24  C   UNL A   1      44.320  18.822  25.321  1.00  0.00     0.202 C 
BRANCH  24  25
ATOM     25  C   UNL A   1      42.952  18.695  25.971  1.00  0.00     0.261 C 
BRANCH  25  26
ATOM     26  O   UNL A   1      42.037  19.601  25.345  1.00  0.00    -0.460 OA
BRANCH  26  27
ATOM     27  C   UNL A   1      41.193  20.241  26.180  1.00  0.00     0.338 C 
ATOM     28  O   UNL A   1      40.092  19.871  26.564  1.00  0.00    -0.246 OA
BRANCH  27  29
ATOM     29  C   UNL A   1      41.878  21.429  26.711  1.00  0.00     0.060 A 
ATOM     30  C   UNL A   1      42.123  21.492  28.089  1.00  0.00     0.016 A 
ATOM     31  C   UNL A   1      42.251  22.480  25.868  1.00  0.00     0.016 A 
ATOM     32  C   UNL A   1      42.697  22.632  28.636  1.00  0.00     0.010 A 
ATOM     33  C   UNL A   1      42.820  23.624  26.417  1.00  0.00     0.010 A 
ATOM     34  C   UNL A   1      43.006  23.717  27.807  1.00  0.00    -0.014 A 
BRANCH  34  35
ATOM     35  C   UNL A   1      43.349  25.022  28.404  1.00  0.00     0.031 A 
ATOM     36  C   UNL A   1      42.247  26.020  28.609  1.00  0.00     0.074 A 
ATOM     37  C   UNL A   1      44.614  25.302  28.753  1.00  0.00     0.049 A 
ATOM     38  N   UNL A   1      42.309  27.251  29.044  1.00  0.00    -0.248 NA
ATOM     39  C   UNL A   1      40.888  25.570  28.265  1.00  0.00     0.031 C 
ATOM     40  C   UNL A   1      45.747  24.387  28.626  1.00  0.00     0.029 A 
ATOM     41  N   UNL A   1      45.158  26.448  29.273  1.00  0.00    -0.354 N 
ATOM     42  C   UNL A   1      41.004  27.723  29.019  1.00  0.00     0.074 A 
ATOM     43  C   UNL A   1      40.174  26.661  28.495  1.00  0.00     0.031 C 
ATOM     44  C   UNL A   1      46.859  25.014  29.045  1.00  0.00     0.029 A 
ATOM     45  C   UNL A   1      46.518  26.381  29.435  1.00  0.00     0.049 A 
ATOM     46  H   UNL A   1      44.623  27.241  29.507  1.00  0.00     0.167 HD
ATOM     47  C   UNL A   1      40.542  28.933  29.410  1.00  0.00     0.037 A 
ATOM     48  C   UNL A   1      47.385  27.332  29.830  1.00  0.00     0.037 A 
ATOM     49  C   UNL A   1      41.382  29.979  29.928  1.00  0.00     0.049 A 
ATOM     50  C   UNL A   1      46.855  28.694  30.195  1.00  0.00     0.074 A 
ATOM     51  C   UNL A   1      41.021  31.238  30.373  1.00  0.00     0.029 A 
ATOM     52  N   UNL A   1      42.762  29.887  30.060  1.00  0.00    -0.354 N 
ATOM     53  N   UNL A   1      45.617  29.129  30.199  1.00  0.00    -0.248 NA
ATOM     54  C   UNL A   1      47.842  29.698  30.613  1.00  0.00     0.031 C 
ATOM     55  C   UNL A   1      42.187  31.925  30.724  1.00  0.00     0.029 A 
ATOM     56  C   UNL A   1      43.270  31.077  30.552  1.00  0.00     0.049 A 
ATOM     57  H   UNL A   1      43.298  29.092  29.835  1.00  0.00     0.167 HD
ATOM     58  C   UNL A   1      45.672  30.443  30.645  1.00  0.00     0.074 A 
ATOM     59  C   UNL A   1      47.067  30.729  30.915  1.00  0.00     0.031 C 
ATOM     60  C   UNL A   1      44.664  31.334  30.817  1.00  0.00     0.037 A 
BRANCH  47  61
ATOM     61  C   UNL A   1      39.072  29.194  29.262  1.00  0.00     0.064 A 
ATOM     62  C   UNL A   1      38.203  29.179  30.364  1.00  0.00     0.173 A 
ATOM     63  C   UNL A   1      38.526  29.476  28.001  1.00  0.00     0.173 A 
ATOM     64  F   UNL A   1      38.669  28.895  31.589  1.00  0.00    -0.203 F 
ATOM     65  C   UNL A   1      36.838  29.409  30.204  1.00  0.00     0.198 A 
ATOM     66  C   UNL A   1      37.167  29.737  27.849  1.00  0.00     0.198 A 
ATOM     67  F   UNL A   1      39.312  29.502  26.914  1.00  0.00    -0.203 F 
ATOM     68  F   UNL A   1      36.019  29.336  31.262  1.00  0.00    -0.200 F 
ATOM     69  C   UNL A   1      36.323  29.695  28.948  1.00  0.00     0.200 A 
ATOM     70  F   UNL A   1      36.672  30.022  26.636  1.00  0.00    -0.200 F 
ATOM     71  F   UNL A   1      35.010  29.920  28.797  1.00  0.00    -0.200 F 
ENDBRANCH  47  61
BRANCH  48  72
ATOM     72  C   UNL A   1      48.838  27.031  29.893  1.00  0.00     0.064 A 
ATOM     73  C   UNL A   1      49.726  27.560  28.948  1.00  0.00     0.173 A 
ATOM     74  C   UNL A   1      49.367  26.203  30.895  1.00  0.00     0.173 A 
ATOM     75  F   UNL A   1      49.265  28.337  27.957  1.00  0.00    -0.203 F 
ATOM     76  C   UNL A   1      51.086  27.259  28.991  1.00  0.00     0.198 A 
ATOM     77  C   UNL A   1      50.732  25.926  30.954  1.00  0.00     0.198 A 
ATOM     78  F   UNL A   1      48.560  25.670  31.823  1.00  0.00    -0.203 F 
ATOM     79  F   UNL A   1      51.907  27.741  28.047  1.00  0.00    -0.200 F 
ATOM     80  C   UNL A   1      51.589  26.448  29.997  1.00  0.00     0.200 A 
ATOM     81  F   UNL A   1      51.214  25.151  31.934  1.00  0.00    -0.200 F 
ATOM     82  F   UNL A   1      52.897  26.161  30.039  1.00  0.00    -0.200 F 
ENDBRANCH  48  72
BRANCH  60  83
ATOM     83  C   UNL A   1      45.028  32.688  31.354  1.00  0.00     0.064 A 
ATOM     84  C   UNL A   1      45.089  32.942  32.732  1.00  0.00     0.173 A 
ATOM     85  C   UNL A   1      45.365  33.731  30.478  1.00  0.00     0.173 A 
ATOM     86  F   UNL A   1      44.764  31.981  33.611  1.00  0.00    -0.203 F 
ATOM     87  C   UNL A   1      45.447  34.199  33.212  1.00  0.00     0.198 A 
ATOM     88  C   UNL A   1      45.754  34.975  30.961  1.00  0.00     0.198 A 
ATOM     89  F   UNL A   1      45.332  33.535  29.150  1.00  0.00    -0.203 F 
ATOM     90  F   UNL A   1      45.450  34.433  34.531  1.00  0.00    -0.200 F 
ATOM     91  C   UNL A   1      45.787  35.211  32.327  1.00  0.00     0.200 A 
ATOM     92  F   UNL A   1      46.099  35.947  30.105  1.00  0.00    -0.200 F 
ATOM     93  F   UNL A   1      46.141  36.417  32.791  1.00  0.00    -0.200 F 
ENDBRANCH  60  83
ENDBRANCH  34  35
ENDBRANCH  27  29
ENDBRANCH  26  27
ENDBRANCH  25  26
ENDBRANCH  24  25
ENDBRANCH  23  24
ENDBRANCH   1  23
TORSDOF 18
ENDMDL
MODEL 3
REMARK VINA RESULT:     -11.1      4.483      9.813
REMARK SMILES O=C(C[C@@H](NC(=O)C1CCC1)c1ccc(Cl)cc1)OCCOCCOC(=O)c1ccc(-c2c3nc(c(-c4c(F)c(F)c(F)c(F)c4F)c4ccc([nH]4)c(-c4c(F)c(F)c(F)c(F)c4F)c4nc(c(-c5c(F)c(F)c(F)c(F)c5F)c5ccc2[nH]5)C=C4)C=C3)cc1
REMARK SMILES IDX 21 1 20 2 19 3 2 4 1 5 3 6 4 7 5 8 6 9 7 11 8 12 9 13 11 14
REMARK SMILES IDX 10 15 12 16 13 17 18 18 14 19 17 20 15 21 16 22 22 23 23 24
REMARK SMILES IDX 24 25 25 26 26 27 27 28 28 29 29 30 90 31 30 32 89 33 31 34
REMARK SMILES IDX 32 35 33 36 83 37 34 38 88 39 82 40 84 41 35 42 87 43 81 44
REMARK SMILES IDX 80 45 36 47 68 48 48 49 67 50 49 51 52 52 66 53 85 54 50 55
REMARK SMILES IDX 51 56 65 58 86 59 53 60 37 61 38 62 46 63 39 64 40 65 44 66
REMARK SMILES IDX 47 67 41 68 42 69 45 70 43 71 69 72 70 73 78 74 71 75 72 76
REMARK SMILES IDX 76 77 79 78 73 79 74 80 77 81 75 82 54 83 55 84 63 85 56 86
REMARK SMILES IDX 57 87 61 88 64 89 58 90 59 91 62 92 60 93
REMARK H PARENT 5 10 84 46 52 57
REMARK Flexibility Score: inf
ROOT
ATOM      1  C   UNL A   1      30.848  28.746  23.436  1.00  0.00     0.202 C 
ENDROOT
BRANCH   1   2
ATOM      2  C   UNL A   1      31.004  27.464  22.619  1.00  0.00     0.261 C 
BRANCH   2   3
ATOM      3  O   UNL A   1      32.211  27.207  21.863  1.00  0.00    -0.463 OA
BRANCH   3   4
ATOM      4  C   UNL A   1      33.216  26.343  22.072  1.00  0.00     0.308 C 
ATOM      5  O   UNL A   1      33.510  25.527  21.199  1.00  0.00    -0.252 OA
BRANCH   4   6
ATOM      6  C   UNL A   1      33.914  26.303  23.390  1.00  0.00     0.152 C 
BRANCH   6   7
ATOM      7  C   UNL A   1      33.455  25.168  24.304  1.00  0.00     0.123 C 
BRANCH   7   8
ATOM      8  N   UNL A   1      32.097  24.671  23.978  1.00  0.00    -0.348 N 
ATOM      9  C   UNL A   1      31.296  23.624  23.626  1.00  0.00     0.223 C 
ATOM     10  H   UNL A   1      31.502  25.452  24.043  1.00  0.00     0.164 HD
ATOM     11  O   UNL A   1      30.223  24.035  23.128  1.00  0.00    -0.275 OA
BRANCH   9  12
ATOM     12  C   UNL A   1      31.460  22.124  23.781  1.00  0.00     0.078 C 
ATOM     13  C   UNL A   1      32.242  21.264  22.775  1.00  0.00     0.013 C 
ATOM     14  C   UNL A   1      32.141  21.399  24.940  1.00  0.00     0.013 C 
ATOM     15  C   UNL A   1      32.690  20.361  23.938  1.00  0.00     0.002 C 
ENDBRANCH   9  12
ENDBRANCH   7   8
BRANCH   7  16
ATOM     16  C   UNL A   1      34.637  24.244  24.498  1.00  0.00    -0.025 A 
ATOM     17  C   UNL A   1      35.352  24.309  25.712  1.00  0.00     0.007 A 
ATOM     18  C   UNL A   1      35.199  23.491  23.471  1.00  0.00     0.007 A 
ATOM     19  C   UNL A   1      36.507  23.551  25.918  1.00  0.00     0.021 A 
ATOM     20  C   UNL A   1      36.309  22.668  23.691  1.00  0.00     0.021 A 
ATOM     21  C   UNL A   1      36.954  22.694  24.921  1.00  0.00     0.041 A 
ATOM     22  Cl  UNL A   1      38.320  21.688  25.195  1.00  0.00    -0.084 Cl
ENDBRANCH   7  16
ENDBRANCH   6   7
ENDBRANCH   4   6
ENDBRANCH   3   4
ENDBRANCH   2   3
ENDBRANCH   1   2
BRANCH   1  23
ATOM     23  O   UNL A   1      31.254  28.801  24.797  1.00  0.00    -0.374 OA
BRANCH  23  24
ATOM     24  C   UNL A   1      31.480  30.052  25.431  1.00  0.00     0.202 C 
BRANCH  24  25
ATOM     25  C   UNL A   1      32.881  30.185  26.006  1.00  0.00     0.261 C 
BRANCH  25  26
ATOM     26  O   UNL A   1      32.810  30.759  27.316  1.00  0.00    -0.460 OA
BRANCH  26  27
ATOM     27  C   UNL A   1      33.570  31.856  27.509  1.00  0.00     0.338 C 
ATOM     28  O   UNL A   1      33.232  33.028  27.425  1.00  0.00    -0.246 OA
BRANCH  27  29
ATOM     29  C   UNL A   1      34.886  31.427  28.008  1.00  0.00     0.060 A 
ATOM     30  C   UNL A   1      35.045  30.087  28.386  1.00  0.00     0.016 A 
ATOM     31  C   UNL A   1      35.940  32.336  28.128  1.00  0.00     0.016 A 
ATOM     32  C   UNL A   1      36.249  29.664  28.935  1.00  0.00     0.010 A 
ATOM     33  C   UNL A   1      37.143  31.913  28.683  1.00  0.00     0.010 A 
ATOM     34  C   UNL A   1      37.285  30.587  29.124  1.00  0.00    -0.014 A 
BRANCH  34  35
ATOM     35  C   UNL A   1      38.450  30.221  29.953  1.00  0.00     0.031 A 
ATOM     36  C   UNL A   1      39.441  29.244  29.392  1.00  0.00     0.074 A 
ATOM     37  C   UNL A   1      38.611  30.751  31.175  1.00  0.00     0.049 A 
ATOM     38  N   UNL A   1      40.497  28.715  29.952  1.00  0.00    -0.248 NA
ATOM     39  C   UNL A   1      39.201  28.794  28.010  1.00  0.00     0.031 C 
ATOM     40  C   UNL A   1      37.723  31.733  31.794  1.00  0.00     0.029 A 
ATOM     41  N   UNL A   1      39.578  30.522  32.120  1.00  0.00    -0.354 N 
ATOM     42  C   UNL A   1      41.042  27.867  28.997  1.00  0.00     0.074 A 
ATOM     43  C   UNL A   1      40.184  27.924  27.834  1.00  0.00     0.031 C 
ATOM     44  C   UNL A   1      38.179  32.014  33.027  1.00  0.00     0.029 A 
ATOM     45  C   UNL A   1      39.368  31.206  33.291  1.00  0.00     0.049 A 
ATOM     46  H   UNL A   1      40.347  29.925  31.972  1.00  0.00     0.167 HD
ATOM     47  C   UNL A   1      42.165  27.117  29.085  1.00  0.00     0.037 A 
ATOM     48  C   UNL A   1      40.052  31.157  34.449  1.00  0.00     0.037 A 
ATOM     49  C   UNL A   1      43.006  27.071  30.250  1.00  0.00     0.049 A 
ATOM     50  C   UNL A   1      41.260  30.262  34.545  1.00  0.00     0.074 A 
ATOM     51  C   UNL A   1      44.177  26.363  30.444  1.00  0.00     0.029 A 
ATOM     52  N   UNL A   1      42.753  27.760  31.429  1.00  0.00    -0.354 N 
ATOM     53  N   UNL A   1      41.790  29.484  33.632  1.00  0.00    -0.248 NA
ATOM     54  C   UNL A   1      41.967  30.240  35.832  1.00  0.00     0.031 C 
ATOM     55  C   UNL A   1      44.604  26.581  31.758  1.00  0.00     0.029 A 
ATOM     56  C   UNL A   1      43.732  27.471  32.365  1.00  0.00     0.049 A 
ATOM     57  H   UNL A   1      41.990  28.365  31.578  1.00  0.00     0.167 HD
ATOM     58  C   UNL A   1      42.905  28.903  34.221  1.00  0.00     0.074 A 
ATOM     59  C   UNL A   1      42.982  29.431  35.568  1.00  0.00     0.031 C 
ATOM     60  C   UNL A   1      43.787  28.014  33.699  1.00  0.00     0.037 A 
BRANCH  47  61
ATOM     61  C   UNL A   1      42.524  26.269  27.900  1.00  0.00     0.064 A 
ATOM     62  C   UNL A   1      42.004  24.977  27.729  1.00  0.00     0.173 A 
ATOM     63  C   UNL A   1      43.392  26.762  26.914  1.00  0.00     0.173 A 
ATOM     64  F   UNL A   1      41.186  24.450  28.653  1.00  0.00    -0.203 F 
ATOM     65  C   UNL A   1      42.362  24.199  26.630  1.00  0.00     0.198 A 
ATOM     66  C   UNL A   1      43.722  25.994  25.800  1.00  0.00     0.198 A 
ATOM     67  F   UNL A   1      43.919  27.990  27.028  1.00  0.00    -0.203 F 
ATOM     68  F   UNL A   1      41.895  22.949  26.516  1.00  0.00    -0.200 F 
ATOM     69  C   UNL A   1      43.215  24.711  25.663  1.00  0.00     0.200 A 
ATOM     70  F   UNL A   1      44.539  26.494  24.862  1.00  0.00    -0.200 F 
ATOM     71  F   UNL A   1      43.554  23.964  24.604  1.00  0.00    -0.200 F 
ENDBRANCH  47  61
BRANCH  48  72
ATOM     72  C   UNL A   1      39.606  31.973  35.608  1.00  0.00     0.064 A 
ATOM     73  C   UNL A   1      38.635  31.494  36.497  1.00  0.00     0.173 A 
ATOM     74  C   UNL A   1      40.137  33.249  35.847  1.00  0.00     0.173 A 
ATOM     75  F   UNL A   1      38.080  30.289  36.296  1.00  0.00    -0.203 F 
ATOM     76  C   UNL A   1      38.197  32.266  37.570  1.00  0.00     0.198 A 
ATOM     77  C   UNL A   1      39.720  34.010  36.938  1.00  0.00     0.198 A 
ATOM     78  F   UNL A   1      41.068  33.755  35.026  1.00  0.00    -0.203 F 
ATOM     79  F   UNL A   1      37.233  31.804  38.378  1.00  0.00    -0.200 F 
ATOM     80  C   UNL A   1      38.744  33.521  37.794  1.00  0.00     0.200 A 
ATOM     81  F   UNL A   1      40.259  35.216  37.156  1.00  0.00    -0.200 F 
ATOM     82  F   UNL A   1      38.325  34.263  38.828  1.00  0.00    -0.200 F 
ENDBRANCH  48  72
BRANCH  60  83
ATOM     83  C   UNL A   1      44.929  27.586  34.574  1.00  0.00     0.064 A 
ATOM     84  C   UNL A   1      46.142  28.290  34.601  1.00  0.00     0.173 A 
ATOM     85  C   UNL A   1      44.791  26.483  35.431  1.00  0.00     0.173 A 
ATOM     86  F   UNL A   1      46.329  29.344  33.791  1.00  0.00    -0.203 F 
ATOM     87  C   UNL A   1      47.184  27.889  35.433  1.00  0.00     0.198 A 
ATOM     88  C   UNL A   1      45.822  26.105  36.284  1.00  0.00     0.198 A 
ATOM     89  F   UNL A   1      43.647  25.782  35.450  1.00  0.00    -0.203 F 
ATOM     90  F   UNL A   1      48.351  28.547  35.405  1.00  0.00    -0.200 F 
ATOM     91  C   UNL A   1      47.020  26.803  36.279  1.00  0.00     0.200 A 
ATOM     92  F   UNL A   1      45.656  25.065  37.113  1.00  0.00    -0.200 F 
ATOM     93  F   UNL A   1      48.020  26.424  37.086  1.00  0.00    -0.200 F 
ENDBRANCH  60  83
ENDBRANCH  34  35
ENDBRANCH  27  29
ENDBRANCH  26  27
ENDBRANCH  25  26
ENDBRANCH  24  25
ENDBRANCH  23  24
ENDBRANCH   1  23
TORSDOF 18
ENDMDL
