MODEL 1
REMARK VINA RESULT:     -12.1      0.000      0.000
REMARK SMILES CC(=O)N[C@@H](CS[C@@H]1CC(=O)N(c2cccc3ccccc23)C1=O)C(=O)OCCOCCOC(=O)c1ccc(-c2c3nc(c(-c4c(F)c(F)c(F)c(F)c4F)c4ccc([nH]4)c(-c4c(F)c(F)c(F)c(F)c4F)c4nc(c(-c5c(F)c(F)c(F)c(F)c5F)c5ccc2[nH]5)C=C4)C=C3)cc1
REMARK SMILES IDX 29 1 28 2 27 3 25 4 26 5 5 6 4 7 1 8 2 9 3 10 6 12 7 13 8 14
REMARK SMILES IDX 9 15 23 16 10 17 12 18 24 19 11 20 13 21 14 22 22 23 15 24
REMARK SMILES IDX 17 25 21 26 16 27 18 28 20 29 19 30 30 31 31 32 32 33 33 34
REMARK SMILES IDX 34 35 35 36 36 37 37 38 98 39 38 40 97 41 39 42 40 43 41 44
REMARK SMILES IDX 91 45 42 46 96 47 90 48 92 49 43 50 95 51 89 52 88 53 44 55
REMARK SMILES IDX 76 56 56 57 75 58 57 59 60 60 74 61 93 62 58 63 59 64 73 66
REMARK SMILES IDX 94 67 61 68 45 69 46 70 54 71 47 72 48 73 52 74 55 75 49 76
REMARK SMILES IDX 50 77 53 78 51 79 77 80 78 81 86 82 79 83 80 84 84 85 87 86
REMARK SMILES IDX 81 87 82 88 85 89 83 90 62 91 63 92 71 93 64 94 65 95 69 96
REMARK SMILES IDX 72 97 66 98 67 99 70 100 68 101
REMARK H PARENT 4 11 92 54 60 65
REMARK Flexibility Score: inf
ROOT
ATOM      1  C   UNL A   1      38.766  21.376  25.694  1.00  0.00     0.202 C 
ENDROOT
BRANCH   1   2
ATOM      2  C   UNL A   1      37.702  22.477  25.759  1.00  0.00     0.261 C 
BRANCH   2   3
ATOM      3  O   UNL A   1      36.388  21.908  25.677  1.00  0.00    -0.462 OA
BRANCH   3   4
ATOM      4  C   UNL A   1      35.659  22.235  24.578  1.00  0.00     0.329 C 
ATOM      5  O   UNL A   1      36.134  22.587  23.505  1.00  0.00    -0.250 OA
BRANCH   4   6
ATOM      6  C   UNL A   1      34.149  22.036  24.811  1.00  0.00     0.202 C 
BRANCH   6   7
ATOM      7  N   UNL A   1      33.789  20.785  25.481  1.00  0.00    -0.342 N 
ATOM      8  C   UNL A   1      32.525  19.782  23.629  1.00  0.00     0.114 C 
ATOM      9  C   UNL A   1      32.980  19.777  25.061  1.00  0.00     0.217 C 
ATOM     10  O   UNL A   1      32.655  18.886  25.842  1.00  0.00    -0.275 OA
ATOM     11  H   UNL A   1      34.194  20.654  26.370  1.00  0.00     0.164 HD
ENDBRANCH   6   7
BRANCH   6  12
ATOM     12  C   UNL A   1      33.536  23.262  25.510  1.00  0.00     0.107 C 
BRANCH  12  13
ATOM     13  S   UNL A   1      32.028  23.059  26.543  1.00  0.00    -0.145 SA
BRANCH  13  14
ATOM     14  C   UNL A   1      30.680  23.577  25.394  1.00  0.00     0.146 C 
ATOM     15  C   UNL A   1      31.091  23.426  23.936  1.00  0.00     0.125 C 
ATOM     16  C   UNL A   1      30.487  25.068  25.546  1.00  0.00     0.247 C 
ATOM     17  C   UNL A   1      31.392  24.820  23.477  1.00  0.00     0.235 C 
ATOM     18  N   UNL A   1      31.079  25.689  24.489  1.00  0.00    -0.249 N 
ATOM     19  O   UNL A   1      29.930  25.605  26.499  1.00  0.00    -0.273 OA
ATOM     20  O   UNL A   1      31.836  25.075  22.366  1.00  0.00    -0.274 OA
BRANCH  18  21
ATOM     21  C   UNL A   1      31.459  27.044  24.473  1.00  0.00     0.060 A 
ATOM     22  C   UNL A   1      32.613  27.404  25.185  1.00  0.00     0.027 A 
ATOM     23  C   UNL A   1      30.573  28.032  23.927  1.00  0.00     0.006 A 
ATOM     24  C   UNL A   1      32.900  28.737  25.407  1.00  0.00     0.003 A 
ATOM     25  C   UNL A   1      30.837  29.372  24.247  1.00  0.00    -0.016 A 
ATOM     26  C   UNL A   1      29.392  27.785  23.168  1.00  0.00     0.011 A 
ATOM     27  C   UNL A   1      32.000  29.697  24.969  1.00  0.00     0.009 A 
ATOM     28  C   UNL A   1      29.913  30.367  23.879  1.00  0.00     0.009 A 
ATOM     29  C   UNL A   1      28.524  28.797  22.751  1.00  0.00     0.001 A 
ATOM     30  C   UNL A   1      28.781  30.099  23.118  1.00  0.00     0.001 A 
ENDBRANCH  18  21
ENDBRANCH  13  14
ENDBRANCH  12  13
ENDBRANCH   6  12
ENDBRANCH   4   6
ENDBRANCH   3   4
ENDBRANCH   2   3
ENDBRANCH   1   2
BRANCH   1  31
ATOM     31  O   UNL A   1      39.759  21.388  26.721  1.00  0.00    -0.374 OA
BRANCH  31  32
ATOM     32  C   UNL A   1      40.734  20.345  26.708  1.00  0.00     0.202 C 
BRANCH  32  33
ATOM     33  C   UNL A   1      42.127  20.669  26.147  1.00  0.00     0.261 C 
BRANCH  33  34
ATOM     34  O   UNL A   1      42.253  21.991  25.591  1.00  0.00    -0.460 OA
BRANCH  34  35
ATOM     35  C   UNL A   1      43.315  22.699  26.051  1.00  0.00     0.338 C 
ATOM     36  O   UNL A   1      44.497  22.432  25.904  1.00  0.00    -0.246 OA
BRANCH  35  37
ATOM     37  C   UNL A   1      42.892  23.957  26.699  1.00  0.00     0.060 A 
ATOM     38  C   UNL A   1      43.709  25.088  26.555  1.00  0.00     0.016 A 
ATOM     39  C   UNL A   1      41.823  23.984  27.588  1.00  0.00     0.016 A 
ATOM     40  C   UNL A   1      43.506  26.227  27.347  1.00  0.00     0.010 A 
ATOM     41  C   UNL A   1      41.620  25.130  28.370  1.00  0.00     0.010 A 
ATOM     42  C   UNL A   1      42.480  26.255  28.295  1.00  0.00    -0.014 A 
BRANCH  42  43
ATOM     43  C   UNL A   1      42.310  27.345  29.312  1.00  0.00     0.031 A 
ATOM     44  C   UNL A   1      42.861  27.129  30.695  1.00  0.00     0.074 A 
ATOM     45  C   UNL A   1      41.650  28.504  29.102  1.00  0.00     0.049 A 
ATOM     46  N   UNL A   1      42.543  27.721  31.817  1.00  0.00    -0.248 NA
ATOM     47  C   UNL A   1      43.953  26.150  30.815  1.00  0.00     0.031 C 
ATOM     48  C   UNL A   1      41.233  29.065  27.823  1.00  0.00     0.029 A 
ATOM     49  N   UNL A   1      41.044  29.337  30.034  1.00  0.00    -0.354 N 
ATOM     50  C   UNL A   1      43.461  27.263  32.749  1.00  0.00     0.074 A 
ATOM     51  C   UNL A   1      44.240  26.226  32.106  1.00  0.00     0.031 C 
ATOM     52  C   UNL A   1      40.281  29.991  28.047  1.00  0.00     0.029 A 
ATOM     53  C   UNL A   1      39.990  30.027  29.468  1.00  0.00     0.049 A 
ATOM     54  H   UNL A   1      41.330  29.425  30.972  1.00  0.00     0.167 HD
ATOM     55  C   UNL A   1      43.697  27.743  33.994  1.00  0.00     0.037 A 
ATOM     56  C   UNL A   1      38.844  30.471  30.025  1.00  0.00     0.037 A 
ATOM     57  C   UNL A   1      42.922  28.779  34.621  1.00  0.00     0.049 A 
ATOM     58  C   UNL A   1      38.779  30.625  31.510  1.00  0.00     0.074 A 
ATOM     59  C   UNL A   1      43.134  29.420  35.830  1.00  0.00     0.029 A 
ATOM     60  N   UNL A   1      41.760  29.312  34.089  1.00  0.00    -0.354 N 
ATOM     61  N   UNL A   1      39.650  30.242  32.404  1.00  0.00    -0.248 NA
ATOM     62  C   UNL A   1      37.650  31.392  32.052  1.00  0.00     0.031 C 
ATOM     63  C   UNL A   1      42.070  30.303  36.052  1.00  0.00     0.029 A 
ATOM     64  C   UNL A   1      41.221  30.244  34.960  1.00  0.00     0.049 A 
ATOM     65  H   UNL A   1      41.373  29.064  33.219  1.00  0.00     0.167 HD
ATOM     66  C   UNL A   1      39.275  30.870  33.578  1.00  0.00     0.074 A 
ATOM     67  C   UNL A   1      38.021  31.545  33.316  1.00  0.00     0.031 C 
ATOM     68  C   UNL A   1      39.992  30.961  34.722  1.00  0.00     0.037 A 
BRANCH  55  69
ATOM     69  C   UNL A   1      44.888  27.197  34.718  1.00  0.00     0.064 A 
ATOM     70  C   UNL A   1      46.160  27.772  34.550  1.00  0.00     0.173 A 
ATOM     71  C   UNL A   1      44.765  26.120  35.603  1.00  0.00     0.173 A 
ATOM     72  F   UNL A   1      46.330  28.807  33.712  1.00  0.00    -0.203 F 
ATOM     73  C   UNL A   1      47.270  27.261  35.214  1.00  0.00     0.198 A 
ATOM     74  C   UNL A   1      45.874  25.628  36.286  1.00  0.00     0.198 A 
ATOM     75  F   UNL A   1      43.570  25.543  35.804  1.00  0.00    -0.203 F 
ATOM     76  F   UNL A   1      48.481  27.794  34.999  1.00  0.00    -0.200 F 
ATOM     77  C   UNL A   1      47.126  26.192  36.084  1.00  0.00     0.200 A 
ATOM     78  F   UNL A   1      45.733  24.603  37.137  1.00  0.00    -0.200 F 
ATOM     79  F   UNL A   1      48.195  25.701  36.724  1.00  0.00    -0.200 F 
ENDBRANCH  55  69
BRANCH  56  80
ATOM     80  C   UNL A   1      37.638  30.749  29.203  1.00  0.00     0.064 A 
ATOM     81  C   UNL A   1      37.323  32.031  28.750  1.00  0.00     0.173 A 
ATOM     82  C   UNL A   1      36.715  29.720  28.939  1.00  0.00     0.173 A 
ATOM     83  F   UNL A   1      38.139  33.056  29.034  1.00  0.00    -0.203 F 
ATOM     84  C   UNL A   1      36.136  32.275  28.056  1.00  0.00     0.198 A 
ATOM     85  C   UNL A   1      35.545  29.958  28.220  1.00  0.00     0.198 A 
ATOM     86  F   UNL A   1      36.923  28.493  29.432  1.00  0.00    -0.203 F 
ATOM     87  F   UNL A   1      35.833  33.525  27.678  1.00  0.00    -0.200 F 
ATOM     88  C   UNL A   1      35.254  31.239  27.784  1.00  0.00     0.200 A 
ATOM     89  F   UNL A   1      34.687  28.957  27.980  1.00  0.00    -0.200 F 
ATOM     90  F   UNL A   1      34.110  31.483  27.129  1.00  0.00    -0.200 F 
ENDBRANCH  56  80
BRANCH  68  91
ATOM     91  C   UNL A   1      39.552  31.970  35.734  1.00  0.00     0.064 A 
ATOM     92  C   UNL A   1      40.075  33.266  35.789  1.00  0.00     0.173 A 
ATOM     93  C   UNL A   1      38.551  31.621  36.657  1.00  0.00     0.173 A 
ATOM     94  F   UNL A   1      41.057  33.635  34.953  1.00  0.00    -0.203 F 
ATOM     95  C   UNL A   1      39.613  34.179  36.735  1.00  0.00     0.198 A 
ATOM     96  C   UNL A   1      38.072  32.544  37.579  1.00  0.00     0.198 A 
ATOM     97  F   UNL A   1      38.029  30.385  36.653  1.00  0.00    -0.203 F 
ATOM     98  F   UNL A   1      40.152  35.404  36.797  1.00  0.00    -0.200 F 
ATOM     99  C   UNL A   1      38.605  33.821  37.620  1.00  0.00     0.200 A 
ATOM    100  F   UNL A   1      37.094  32.196  38.427  1.00  0.00    -0.200 F 
ATOM    101  F   UNL A   1      38.152  34.708  38.517  1.00  0.00    -0.200 F 
ENDBRANCH  68  91
ENDBRANCH  42  43
ENDBRANCH  35  37
ENDBRANCH  34  35
ENDBRANCH  33  34
ENDBRANCH  32  33
ENDBRANCH  31  32
ENDBRANCH   1  31
TORSDOF 19
ENDMDL
MODEL 2
REMARK VINA RESULT:     -12.1      3.044      8.785
REMARK SMILES CC(=O)N[C@@H](CS[C@@H]1CC(=O)N(c2cccc3ccccc23)C1=O)C(=O)OCCOCCOC(=O)c1ccc(-c2c3nc(c(-c4c(F)c(F)c(F)c(F)c4F)c4ccc([nH]4)c(-c4c(F)c(F)c(F)c(F)c4F)c4nc(c(-c5c(F)c(F)c(F)c(F)c5F)c5ccc2[nH]5)C=C4)C=C3)cc1
REMARK SMILES IDX 29 1 28 2 27 3 25 4 26 5 5 6 4 7 1 8 2 9 3 10 6 12 7 13 8 14
REMARK SMILES IDX 9 15 23 16 10 17 12 18 24 19 11 20 13 21 14 22 22 23 15 24
REMARK SMILES IDX 17 25 21 26 16 27 18 28 20 29 19 30 30 31 31 32 32 33 33 34
REMARK SMILES IDX 34 35 35 36 36 37 37 38 98 39 38 40 97 41 39 42 40 43 41 44
REMARK SMILES IDX 91 45 42 46 96 47 90 48 92 49 43 50 95 51 89 52 88 53 44 55
REMARK SMILES IDX 76 56 56 57 75 58 57 59 60 60 74 61 93 62 58 63 59 64 73 66
REMARK SMILES IDX 94 67 61 68 45 69 46 70 54 71 47 72 48 73 52 74 55 75 49 76
REMARK SMILES IDX 50 77 53 78 51 79 77 80 78 81 86 82 79 83 80 84 84 85 87 86
REMARK SMILES IDX 81 87 82 88 85 89 83 90 62 91 63 92 71 93 64 94 65 95 69 96
REMARK SMILES IDX 72 97 66 98 67 99 70 100 68 101
REMARK H PARENT 4 11 92 54 60 65
REMARK Flexibility Score: inf
ROOT
ATOM      1  C   UNL A   1      33.946  29.872  26.948  1.00  0.00     0.202 C 
ENDROOT
BRANCH   1   2
ATOM      2  C   UNL A   1      33.726  28.864  25.816  1.00  0.00     0.261 C 
BRANCH   2   3
ATOM      3  O   UNL A   1      32.579  29.230  25.035  1.00  0.00    -0.462 OA
BRANCH   3   4
ATOM      4  C   UNL A   1      31.548  28.346  25.028  1.00  0.00     0.329 C 
ATOM      5  O   UNL A   1      31.345  27.505  25.895  1.00  0.00    -0.250 OA
BRANCH   4   6
ATOM      6  C   UNL A   1      30.606  28.572  23.830  1.00  0.00     0.202 C 
BRANCH   6   7
ATOM      7  N   UNL A   1      30.138  29.950  23.668  1.00  0.00    -0.342 N 
ATOM      8  C   UNL A   1      27.846  29.427  22.954  1.00  0.00     0.114 C 
ATOM      9  C   UNL A   1      28.956  30.413  23.180  1.00  0.00     0.217 C 
ATOM     10  O   UNL A   1      28.816  31.613  22.953  1.00  0.00    -0.275 OA
ATOM     11  H   UNL A   1      30.774  30.646  23.956  1.00  0.00     0.164 HD
ENDBRANCH   6   7
BRANCH   6  12
ATOM     12  C   UNL A   1      31.223  28.016  22.535  1.00  0.00     0.107 C 
BRANCH  12  13
ATOM     13  S   UNL A   1      32.593  26.793  22.633  1.00  0.00    -0.145 SA
BRANCH  13  14
ATOM     14  C   UNL A   1      31.718  25.187  22.391  1.00  0.00     0.146 C 
ATOM     15  C   UNL A   1      30.660  24.953  23.461  1.00  0.00     0.125 C 
ATOM     16  C   UNL A   1      32.711  24.075  22.637  1.00  0.00     0.247 C 
ATOM     17  C   UNL A   1      31.274  23.952  24.393  1.00  0.00     0.235 C 
ATOM     18  N   UNL A   1      32.479  23.556  23.874  1.00  0.00    -0.249 N 
ATOM     19  O   UNL A   1      33.599  23.749  21.856  1.00  0.00    -0.273 OA
ATOM     20  O   UNL A   1      30.735  23.587  25.428  1.00  0.00    -0.274 OA
BRANCH  18  21
ATOM     21  C   UNL A   1      33.413  22.805  24.610  1.00  0.00     0.060 A 
ATOM     22  C   UNL A   1      34.448  23.505  25.251  1.00  0.00     0.027 A 
ATOM     23  C   UNL A   1      33.418  21.373  24.519  1.00  0.00     0.006 A 
ATOM     24  C   UNL A   1      35.522  22.817  25.782  1.00  0.00     0.003 A 
ATOM     25  C   UNL A   1      34.563  20.708  24.982  1.00  0.00    -0.016 A 
ATOM     26  C   UNL A   1      32.415  20.559  23.918  1.00  0.00     0.011 A 
ATOM     27  C   UNL A   1      35.585  21.441  25.613  1.00  0.00     0.009 A 
ATOM     28  C   UNL A   1      34.694  19.323  24.768  1.00  0.00     0.009 A 
ATOM     29  C   UNL A   1      32.533  19.174  23.780  1.00  0.00     0.001 A 
ATOM     30  C   UNL A   1      33.687  18.551  24.200  1.00  0.00     0.001 A 
ENDBRANCH  18  21
ENDBRANCH  13  14
ENDBRANCH  12  13
ENDBRANCH   6  12
ENDBRANCH   4   6
ENDBRANCH   3   4
ENDBRANCH   2   3
ENDBRANCH   1   2
BRANCH   1  31
ATOM     31  O   UNL A   1      32.991  30.931  27.052  1.00  0.00    -0.374 OA
BRANCH  31  32
ATOM     32  C   UNL A   1      33.373  32.092  27.791  1.00  0.00     0.202 C 
BRANCH  32  33
ATOM     33  C   UNL A   1      32.664  33.415  27.466  1.00  0.00     0.261 C 
BRANCH  33  34
ATOM     34  O   UNL A   1      32.382  34.239  28.612  1.00  0.00    -0.460 OA
BRANCH  34  35
ATOM     35  C   UNL A   1      33.309  35.196  28.863  1.00  0.00     0.338 C 
ATOM     36  O   UNL A   1      33.289  36.356  28.486  1.00  0.00    -0.246 OA
BRANCH  35  37
ATOM     37  C   UNL A   1      34.362  34.708  29.778  1.00  0.00     0.060 A 
ATOM     38  C   UNL A   1      35.654  34.520  29.266  1.00  0.00     0.016 A 
ATOM     39  C   UNL A   1      34.051  34.260  31.057  1.00  0.00     0.016 A 
ATOM     40  C   UNL A   1      36.623  33.822  30.002  1.00  0.00     0.010 A 
ATOM     41  C   UNL A   1      35.028  33.573  31.790  1.00  0.00     0.010 A 
ATOM     42  C   UNL A   1      36.317  33.304  31.262  1.00  0.00    -0.014 A 
BRANCH  42  43
ATOM     43  C   UNL A   1      37.220  32.386  32.031  1.00  0.00     0.031 A 
ATOM     44  C   UNL A   1      37.980  32.943  33.204  1.00  0.00     0.074 A 
ATOM     45  C   UNL A   1      37.451  31.091  31.725  1.00  0.00     0.049 A 
ATOM     46  N   UNL A   1      39.059  32.487  33.786  1.00  0.00    -0.248 NA
ATOM     47  C   UNL A   1      37.414  34.146  33.834  1.00  0.00     0.031 C 
ATOM     48  C   UNL A   1      36.690  30.249  30.811  1.00  0.00     0.029 A 
ATOM     49  N   UNL A   1      38.554  30.309  32.043  1.00  0.00    -0.354 N 
ATOM     50  C   UNL A   1      39.240  33.284  34.905  1.00  0.00     0.074 A 
ATOM     51  C   UNL A   1      38.261  34.348  34.833  1.00  0.00     0.031 C 
ATOM     52  C   UNL A   1      37.443  29.185  30.474  1.00  0.00     0.029 A 
ATOM     53  C   UNL A   1      38.746  29.319  31.099  1.00  0.00     0.049 A 
ATOM     54  H   UNL A   1      39.122  30.442  32.836  1.00  0.00     0.167 HD
ATOM     55  C   UNL A   1      40.078  33.080  35.949  1.00  0.00     0.037 A 
ATOM     56  C   UNL A   1      39.885  28.730  30.678  1.00  0.00     0.037 A 
ATOM     57  C   UNL A   1      41.042  32.015  36.015  1.00  0.00     0.049 A 
ATOM     58  C   UNL A   1      41.099  28.811  31.544  1.00  0.00     0.074 A 
ATOM     59  C   UNL A   1      41.867  31.645  37.064  1.00  0.00     0.029 A 
ATOM     60  N   UNL A   1      41.328  31.158  34.966  1.00  0.00    -0.354 N 
ATOM     61  N   UNL A   1      41.277  29.520  32.627  1.00  0.00    -0.248 NA
ATOM     62  C   UNL A   1      42.214  27.913  31.216  1.00  0.00     0.031 C 
ATOM     63  C   UNL A   1      42.688  30.597  36.628  1.00  0.00     0.029 A 
ATOM     64  C   UNL A   1      42.342  30.285  35.325  1.00  0.00     0.049 A 
ATOM     65  H   UNL A   1      40.877  31.168  34.091  1.00  0.00     0.167 HD
ATOM     66  C   UNL A   1      42.433  29.026  33.205  1.00  0.00     0.074 A 
ATOM     67  C   UNL A   1      42.988  28.056  32.284  1.00  0.00     0.031 C 
ATOM     68  C   UNL A   1      42.900  29.286  34.449  1.00  0.00     0.037 A 
BRANCH  55  69
ATOM     69  C   UNL A   1      39.927  33.987  37.130  1.00  0.00     0.064 A 
ATOM     70  C   UNL A   1      40.660  35.183  37.219  1.00  0.00     0.173 A 
ATOM     71  C   UNL A   1      39.031  33.686  38.162  1.00  0.00     0.173 A 
ATOM     72  F   UNL A   1      41.533  35.515  36.255  1.00  0.00    -0.203 F 
ATOM     73  C   UNL A   1      40.529  36.023  38.320  1.00  0.00     0.198 A 
ATOM     74  C   UNL A   1      38.882  34.544  39.249  1.00  0.00     0.198 A 
ATOM     75  F   UNL A   1      38.301  32.562  38.119  1.00  0.00    -0.203 F 
ATOM     76  F   UNL A   1      41.277  37.132  38.406  1.00  0.00    -0.200 F 
ATOM     77  C   UNL A   1      39.638  35.705  39.332  1.00  0.00     0.200 A 
ATOM     78  F   UNL A   1      38.012  34.243  40.222  1.00  0.00    -0.200 F 
ATOM     79  F   UNL A   1      39.511  36.515  40.391  1.00  0.00    -0.200 F 
ENDBRANCH  55  69
BRANCH  56  80
ATOM     80  C   UNL A   1      39.969  28.061  29.354  1.00  0.00     0.064 A 
ATOM     81  C   UNL A   1      39.483  26.770  29.138  1.00  0.00     0.173 A 
ATOM     82  C   UNL A   1      40.641  28.689  28.290  1.00  0.00     0.173 A 
ATOM     83  F   UNL A   1      38.893  26.105  30.141  1.00  0.00    -0.203 F 
ATOM     84  C   UNL A   1      39.657  26.135  27.907  1.00  0.00     0.198 A 
ATOM     85  C   UNL A   1      40.789  28.067  27.052  1.00  0.00     0.198 A 
ATOM     86  F   UNL A   1      41.208  29.888  28.473  1.00  0.00    -0.203 F 
ATOM     87  F   UNL A   1      39.227  24.876  27.743  1.00  0.00    -0.200 F 
ATOM     88  C   UNL A   1      40.301  26.785  26.863  1.00  0.00     0.200 A 
ATOM     89  F   UNL A   1      41.431  28.693  26.056  1.00  0.00    -0.200 F 
ATOM     90  F   UNL A   1      40.476  26.164  25.689  1.00  0.00    -0.200 F 
ENDBRANCH  56  80
BRANCH  68  91
ATOM     91  C   UNL A   1      43.964  28.384  34.987  1.00  0.00     0.064 A 
ATOM     92  C   UNL A   1      45.329  28.648  34.839  1.00  0.00     0.173 A 
ATOM     93  C   UNL A   1      43.588  27.232  35.699  1.00  0.00     0.173 A 
ATOM     94  F   UNL A   1      45.738  29.716  34.137  1.00  0.00    -0.203 F 
ATOM     95  C   UNL A   1      46.283  27.789  35.382  1.00  0.00     0.198 A 
ATOM     96  C   UNL A   1      44.542  26.394  36.264  1.00  0.00     0.198 A 
ATOM     97  F   UNL A   1      42.290  26.926  35.855  1.00  0.00    -0.203 F 
ATOM     98  F   UNL A   1      47.587  28.039  35.197  1.00  0.00    -0.200 F 
ATOM     99  C   UNL A   1      45.888  26.671  36.103  1.00  0.00     0.200 A 
ATOM    100  F   UNL A   1      44.156  25.318  36.966  1.00  0.00    -0.200 F 
ATOM    101  F   UNL A   1      46.809  25.857  36.637  1.00  0.00    -0.200 F 
ENDBRANCH  68  91
ENDBRANCH  42  43
ENDBRANCH  35  37
ENDBRANCH  34  35
ENDBRANCH  33  34
ENDBRANCH  32  33
ENDBRANCH  31  32
ENDBRANCH   1  31
TORSDOF 19
ENDMDL
MODEL 3
REMARK VINA RESULT:     -11.7      2.972      8.994
REMARK SMILES CC(=O)N[C@@H](CS[C@@H]1CC(=O)N(c2cccc3ccccc23)C1=O)C(=O)OCCOCCOC(=O)c1ccc(-c2c3nc(c(-c4c(F)c(F)c(F)c(F)c4F)c4ccc([nH]4)c(-c4c(F)c(F)c(F)c(F)c4F)c4nc(c(-c5c(F)c(F)c(F)c(F)c5F)c5ccc2[nH]5)C=C4)C=C3)cc1
REMARK SMILES IDX 29 1 28 2 27 3 25 4 26 5 5 6 4 7 1 8 2 9 3 10 6 12 7 13 8 14
REMARK SMILES IDX 9 15 23 16 10 17 12 18 24 19 11 20 13 21 14 22 22 23 15 24
REMARK SMILES IDX 17 25 21 26 16 27 18 28 20 29 19 30 30 31 31 32 32 33 33 34
REMARK SMILES IDX 34 35 35 36 36 37 37 38 98 39 38 40 97 41 39 42 40 43 41 44
REMARK SMILES IDX 91 45 42 46 96 47 90 48 92 49 43 50 95 51 89 52 88 53 44 55
REMARK SMILES IDX 76 56 56 57 75 58 57 59 60 60 74 61 93 62 58 63 59 64 73 66
REMARK SMILES IDX 94 67 61 68 45 69 46 70 54 71 47 72 48 73 52 74 55 75 49 76
REMARK SMILES IDX 50 77 53 78 51 79 77 80 78 81 86 82 79 83 80 84 84 85 87 86
REMARK SMILES IDX 81 87 82 88 85 89 83 90 62 91 63 92 71 93 64 94 65 95 69 96
REMARK SMILES IDX 72 97 66 98 67 99 70 100 68 101
REMARK H PARENT 4 11 92 54 60 65
REMARK Flexibility Score: inf
ROOT
ATOM      1  C   UNL A   1      34.402  29.999  27.359  1.00  0.00     0.202 C 
ENDROOT
BRANCH   1   2
ATOM      2  C   UNL A   1      33.985  28.769  26.546  1.00  0.00     0.261 C 
BRANCH   2   3
ATOM      3  O   UNL A   1      32.913  29.100  25.651  1.00  0.00    -0.462 OA
BRANCH   3   4
ATOM      4  C   UNL A   1      31.813  28.306  25.710  1.00  0.00     0.329 C 
ATOM      5  O   UNL A   1      31.394  27.769  26.728  1.00  0.00    -0.250 OA
BRANCH   4   6
ATOM      6  C   UNL A   1      31.096  28.217  24.349  1.00  0.00     0.202 C 
BRANCH   6   7
ATOM      7  N   UNL A   1      30.659  29.501  23.799  1.00  0.00    -0.342 N 
ATOM      8  C   UNL A   1      28.481  28.757  22.940  1.00  0.00     0.114 C 
ATOM      9  C   UNL A   1      29.555  29.799  23.064  1.00  0.00     0.217 C 
ATOM     10  O   UNL A   1      29.451  30.904  22.537  1.00  0.00    -0.275 OA
ATOM     11  H   UNL A   1      31.254  30.263  23.990  1.00  0.00     0.164 HD
ENDBRANCH   6   7
BRANCH   6  12
ATOM     12  C   UNL A   1      31.934  27.411  23.340  1.00  0.00     0.107 C 
BRANCH  12  13
ATOM     13  S   UNL A   1      33.068  26.096  23.946  1.00  0.00    -0.145 SA
BRANCH  13  14
ATOM     14  C   UNL A   1      31.946  24.641  24.111  1.00  0.00     0.146 C 
ATOM     15  C   UNL A   1      31.498  24.434  25.552  1.00  0.00     0.125 C 
ATOM     16  C   UNL A   1      32.752  23.397  23.818  1.00  0.00     0.247 C 
ATOM     17  C   UNL A   1      32.316  23.279  26.045  1.00  0.00     0.235 C 
ATOM     18  N   UNL A   1      33.055  22.791  24.999  1.00  0.00    -0.249 N 
ATOM     19  O   UNL A   1      33.104  23.043  22.697  1.00  0.00    -0.273 OA
ATOM     20  O   UNL A   1      32.280  22.882  27.201  1.00  0.00    -0.274 OA
BRANCH  18  21
ATOM     21  C   UNL A   1      34.098  21.863  25.173  1.00  0.00     0.060 A 
ATOM     22  C   UNL A   1      35.393  22.370  25.364  1.00  0.00     0.027 A 
ATOM     23  C   UNL A   1      33.863  20.466  24.946  1.00  0.00     0.006 A 
ATOM     24  C   UNL A   1      36.483  21.523  25.300  1.00  0.00     0.003 A 
ATOM     25  C   UNL A   1      34.991  19.646  24.793  1.00  0.00    -0.016 A 
ATOM     26  C   UNL A   1      32.597  19.837  24.767  1.00  0.00     0.011 A 
ATOM     27  C   UNL A   1      36.275  20.188  24.983  1.00  0.00     0.009 A 
ATOM     28  C   UNL A   1      34.823  18.303  24.406  1.00  0.00     0.009 A 
ATOM     29  C   UNL A   1      32.450  18.484  24.452  1.00  0.00     0.001 A 
ATOM     30  C   UNL A   1      33.574  17.712  24.260  1.00  0.00     0.001 A 
ENDBRANCH  18  21
ENDBRANCH  13  14
ENDBRANCH  12  13
ENDBRANCH   6  12
ENDBRANCH   4   6
ENDBRANCH   3   4
ENDBRANCH   2   3
ENDBRANCH   1   2
BRANCH   1  31
ATOM     31  O   UNL A   1      33.385  30.970  27.612  1.00  0.00    -0.374 OA
BRANCH  31  32
ATOM     32  C   UNL A   1      33.790  32.334  27.728  1.00  0.00     0.202 C 
BRANCH  32  33
ATOM     33  C   UNL A   1      32.726  33.421  27.509  1.00  0.00     0.261 C 
BRANCH  33  34
ATOM     34  O   UNL A   1      32.362  34.148  28.697  1.00  0.00    -0.460 OA
BRANCH  34  35
ATOM     35  C   UNL A   1      33.220  35.140  29.038  1.00  0.00     0.338 C 
ATOM     36  O   UNL A   1      33.150  36.316  28.719  1.00  0.00    -0.246 OA
BRANCH  35  37
ATOM     37  C   UNL A   1      34.258  34.665  29.975  1.00  0.00     0.060 A 
ATOM     38  C   UNL A   1      35.576  34.555  29.509  1.00  0.00     0.016 A 
ATOM     39  C   UNL A   1      33.920  34.153  31.223  1.00  0.00     0.016 A 
ATOM     40  C   UNL A   1      36.548  33.873  30.256  1.00  0.00     0.010 A 
ATOM     41  C   UNL A   1      34.899  33.482  31.969  1.00  0.00     0.010 A 
ATOM     42  C   UNL A   1      36.218  33.292  31.483  1.00  0.00    -0.014 A 
BRANCH  42  43
ATOM     43  C   UNL A   1      37.133  32.386  32.252  1.00  0.00     0.031 A 
ATOM     44  C   UNL A   1      37.911  32.961  33.405  1.00  0.00     0.074 A 
ATOM     45  C   UNL A   1      37.358  31.086  31.963  1.00  0.00     0.049 A 
ATOM     46  N   UNL A   1      38.999  32.514  33.976  1.00  0.00    -0.248 NA
ATOM     47  C   UNL A   1      37.355  34.174  34.024  1.00  0.00     0.031 C 
ATOM     48  C   UNL A   1      36.583  30.230  31.075  1.00  0.00     0.029 A 
ATOM     49  N   UNL A   1      38.466  30.309  32.277  1.00  0.00    -0.354 N 
ATOM     50  C   UNL A   1      39.197  33.329  35.080  1.00  0.00     0.074 A 
ATOM     51  C   UNL A   1      38.217  34.392  35.006  1.00  0.00     0.031 C 
ATOM     52  C   UNL A   1      37.330  29.160  30.744  1.00  0.00     0.029 A 
ATOM     53  C   UNL A   1      38.643  29.304  31.346  1.00  0.00     0.049 A 
ATOM     54  H   UNL A   1      39.046  30.454  33.058  1.00  0.00     0.167 HD
ATOM     55  C   UNL A   1      40.052  33.140  36.115  1.00  0.00     0.037 A 
ATOM     56  C   UNL A   1      39.774  28.707  30.917  1.00  0.00     0.037 A 
ATOM     57  C   UNL A   1      41.016  32.076  36.182  1.00  0.00     0.049 A 
ATOM     58  C   UNL A   1      41.002  28.802  31.763  1.00  0.00     0.074 A 
ATOM     59  C   UNL A   1      41.857  31.723  37.224  1.00  0.00     0.029 A 
ATOM     60  N   UNL A   1      41.285  31.202  35.142  1.00  0.00    -0.354 N 
ATOM     61  N   UNL A   1      41.197  29.527  32.831  1.00  0.00    -0.248 NA
ATOM     62  C   UNL A   1      42.111  27.897  31.432  1.00  0.00     0.031 C 
ATOM     63  C   UNL A   1      42.670  30.667  36.793  1.00  0.00     0.029 A 
ATOM     64  C   UNL A   1      42.304  30.335  35.500  1.00  0.00     0.049 A 
ATOM     65  H   UNL A   1      40.820  31.198  34.275  1.00  0.00     0.167 HD
ATOM     66  C   UNL A   1      42.362  29.041  33.399  1.00  0.00     0.074 A 
ATOM     67  C   UNL A   1      42.902  28.057  32.486  1.00  0.00     0.031 C 
ATOM     68  C   UNL A   1      42.848  29.321  34.631  1.00  0.00     0.037 A 
BRANCH  55  69
ATOM     69  C   UNL A   1      39.919  34.067  37.282  1.00  0.00     0.064 A 
ATOM     70  C   UNL A   1      39.066  33.757  38.356  1.00  0.00     0.173 A 
ATOM     71  C   UNL A   1      40.661  35.251  37.353  1.00  0.00     0.173 A 
ATOM     72  F   UNL A   1      38.333  32.632  38.334  1.00  0.00    -0.203 F 
ATOM     73  C   UNL A   1      38.934  34.620  39.438  1.00  0.00     0.198 A 
ATOM     74  C   UNL A   1      40.546  36.100  38.451  1.00  0.00     0.198 A 
ATOM     75  F   UNL A   1      41.497  35.587  36.358  1.00  0.00    -0.203 F 
ATOM     76  F   UNL A   1      38.075  34.327  40.425  1.00  0.00    -0.200 F 
ATOM     77  C   UNL A   1      39.676  35.789  39.487  1.00  0.00     0.200 A 
ATOM     78  F   UNL A   1      41.273  37.224  38.505  1.00  0.00    -0.200 F 
ATOM     79  F   UNL A   1      39.549  36.620  40.530  1.00  0.00    -0.200 F 
ENDBRANCH  55  69
BRANCH  56  80
ATOM     80  C   UNL A   1      39.838  28.017  29.602  1.00  0.00     0.064 A 
ATOM     81  C   UNL A   1      39.337  26.727  29.412  1.00  0.00     0.173 A 
ATOM     82  C   UNL A   1      40.505  28.622  28.522  1.00  0.00     0.173 A 
ATOM     83  F   UNL A   1      38.752  26.085  30.431  1.00  0.00    -0.203 F 
ATOM     84  C   UNL A   1      39.492  26.072  28.190  1.00  0.00     0.198 A 
ATOM     85  C   UNL A   1      40.633  27.980  27.292  1.00  0.00     0.198 A 
ATOM     86  F   UNL A   1      41.085  29.818  28.680  1.00  0.00    -0.203 F 
ATOM     87  F   UNL A   1      39.048  24.815  28.049  1.00  0.00    -0.200 F 
ATOM     88  C   UNL A   1      40.131  26.699  27.129  1.00  0.00     0.200 A 
ATOM     89  F   UNL A   1      41.270  28.583  26.280  1.00  0.00    -0.200 F 
ATOM     90  F   UNL A   1      40.287  26.059  25.962  1.00  0.00    -0.200 F 
ENDBRANCH  56  80
BRANCH  68  91
ATOM     91  C   UNL A   1      43.920  28.427  35.168  1.00  0.00     0.064 A 
ATOM     92  C   UNL A   1      43.647  27.214  35.807  1.00  0.00     0.173 A 
ATOM     93  C   UNL A   1      45.266  28.800  35.004  1.00  0.00     0.173 A 
ATOM     94  F   UNL A   1      42.378  26.833  36.018  1.00  0.00    -0.203 F 
ATOM     95  C   UNL A   1      44.683  26.404  36.267  1.00  0.00     0.198 A 
ATOM     96  C   UNL A   1      46.297  27.975  35.438  1.00  0.00     0.198 A 
ATOM     97  F   UNL A   1      45.579  29.962  34.411  1.00  0.00    -0.203 F 
ATOM     98  F   UNL A   1      44.401  25.262  36.910  1.00  0.00    -0.200 F 
ATOM     99  C   UNL A   1      46.005  26.779  36.072  1.00  0.00     0.200 A 
ATOM    100  F   UNL A   1      47.572  28.338  35.241  1.00  0.00    -0.200 F 
ATOM    101  F   UNL A   1      46.998  25.988  36.501  1.00  0.00    -0.200 F 
ENDBRANCH  68  91
ENDBRANCH  42  43
ENDBRANCH  35  37
ENDBRANCH  34  35
ENDBRANCH  33  34
ENDBRANCH  32  33
ENDBRANCH  31  32
ENDBRANCH   1  31
TORSDOF 19
ENDMDL
