MODEL 1
REMARK VINA RESULT:     -10.1      0.000      0.000
REMARK SMILES CC(C)N(CCC#N)C(=O)c1ccncc1/C=C/C(=O)OCCOCCOC(=O)c1ccc(-c2c3nc(c(-c4c(F)c(F)c(F)c(F)c4F)c4ccc([nH]4)c(-c4c(F)c(F)c(F)c(F)c4F)c4nc(c(-c5c(F)c(F)c(F)c(F)c5F)c5ccc2[nH]5)C=C4)C=C3)cc1
REMARK SMILES IDX 22 1 21 2 19 3 20 4 18 5 17 6 16 7 11 8 12 9 13 10 15 11
REMARK SMILES IDX 14 12 9 13 10 14 4 15 2 16 1 17 3 18 5 19 6 20 7 21 8 22
REMARK SMILES IDX 23 23 24 24 25 25 26 26 27 27 28 28 29 29 30 30 31 31 92 32
REMARK SMILES IDX 32 33 91 34 33 35 34 36 35 37 85 38 36 39 90 40 84 41 86 42
REMARK SMILES IDX 37 43 89 44 83 45 82 46 38 48 70 49 50 50 69 51 51 52 54 53
REMARK SMILES IDX 68 54 87 55 52 56 53 57 67 59 88 60 55 61 39 62 40 63 48 64
REMARK SMILES IDX 41 65 42 66 46 67 49 68 43 69 44 70 47 71 45 72 71 73 72 74
REMARK SMILES IDX 80 75 73 76 74 77 78 78 81 79 75 80 76 81 79 82 77 83 56 84
REMARK SMILES IDX 57 85 65 86 58 87 59 88 63 89 66 90 60 91 61 92 64 93 62 94
REMARK H PARENT 86 47 54 58
REMARK Flexibility Score: inf
ROOT
ATOM      1  C   UNL A   1      34.959  22.278  25.646  1.00  0.00     0.261 C 
ENDROOT
BRANCH   1   2
ATOM      2  O   UNL A   1      34.488  23.605  25.924  1.00  0.00    -0.460 OA
BRANCH   2   3
ATOM      3  C   UNL A   1      34.571  24.492  24.902  1.00  0.00     0.330 C 
ATOM      4  O   UNL A   1      34.611  24.231  23.710  1.00  0.00    -0.247 OA
BRANCH   3   5
ATOM      5  C   UNL A   1      34.340  25.874  25.394  1.00  0.00     0.094 C 
ATOM      6  C   UNL A   1      33.290  26.232  26.159  1.00  0.00     0.018 C 
BRANCH   6   7
ATOM      7  C   UNL A   1      32.764  27.618  26.329  1.00  0.00     0.006 A 
ATOM      8  C   UNL A   1      31.794  28.239  25.488  1.00  0.00     0.050 A 
ATOM      9  C   UNL A   1      31.779  29.640  25.448  1.00  0.00     0.034 A 
ATOM     10  C   UNL A   1      32.488  30.366  26.393  1.00  0.00     0.112 A 
ATOM     11  C   UNL A   1      33.389  28.459  27.264  1.00  0.00     0.119 A 
ATOM     12  N   UNL A   1      33.262  29.804  27.326  1.00  0.00    -0.264 NA
BRANCH   8  13
ATOM     13  C   UNL A   1      30.777  27.442  24.689  1.00  0.00     0.254 C 
ATOM     14  O   UNL A   1      30.062  26.673  25.331  1.00  0.00    -0.269 OA
BRANCH  13  15
ATOM     15  N   UNL A   1      30.567  27.544  23.274  1.00  0.00    -0.335 N 
BRANCH  15  16
ATOM     16  C   UNL A   1      31.442  26.692  22.405  1.00  0.00     0.079 C 
ATOM     17  C   UNL A   1      32.903  27.163  22.297  1.00  0.00     0.031 C 
ATOM     18  C   UNL A   1      31.364  25.207  22.768  1.00  0.00     0.031 C 
ENDBRANCH  15  16
BRANCH  15  19
ATOM     19  C   UNL A   1      29.529  28.327  22.541  1.00  0.00     0.135 C 
BRANCH  19  20
ATOM     20  C   UNL A   1      29.567  29.865  22.604  1.00  0.00     0.141 C 
BRANCH  20  21
ATOM     21  C   UNL A   1      28.274  30.419  23.181  1.00  0.00     0.064 C 
ATOM     22  N   UNL A   1      27.201  30.878  23.659  1.00  0.00    -0.198 NA
ENDBRANCH  20  21
ENDBRANCH  19  20
ENDBRANCH  15  19
ENDBRANCH  13  15
ENDBRANCH   8  13
ENDBRANCH   6   7
ENDBRANCH   3   5
ENDBRANCH   2   3
ENDBRANCH   1   2
BRANCH   1  23
ATOM     23  C   UNL A   1      36.490  22.225  25.721  1.00  0.00     0.202 C 
BRANCH  23  24
ATOM     24  O   UNL A   1      37.148  21.498  24.684  1.00  0.00    -0.374 OA
BRANCH  24  25
ATOM     25  C   UNL A   1      37.979  20.408  25.090  1.00  0.00     0.202 C 
BRANCH  25  26
ATOM     26  C   UNL A   1      39.433  20.751  25.442  1.00  0.00     0.261 C 
BRANCH  26  27
ATOM     27  O   UNL A   1      39.997  19.812  26.376  1.00  0.00    -0.460 OA
BRANCH  27  28
ATOM     28  C   UNL A   1      41.324  19.583  26.222  1.00  0.00     0.338 C 
ATOM     29  O   UNL A   1      41.859  18.601  25.742  1.00  0.00    -0.246 OA
BRANCH  28  30
ATOM     30  C   UNL A   1      42.079  20.802  26.569  1.00  0.00     0.060 A 
ATOM     31  C   UNL A   1      42.085  21.198  27.912  1.00  0.00     0.016 A 
ATOM     32  C   UNL A   1      42.704  21.581  25.595  1.00  0.00     0.016 A 
ATOM     33  C   UNL A   1      42.678  22.402  28.282  1.00  0.00     0.010 A 
ATOM     34  C   UNL A   1      43.293  22.794  25.967  1.00  0.00     0.010 A 
ATOM     35  C   UNL A   1      43.252  23.225  27.305  1.00  0.00    -0.014 A 
BRANCH  35  36
ATOM     36  C   UNL A   1      43.692  24.596  27.666  1.00  0.00     0.031 A 
ATOM     37  C   UNL A   1      42.657  25.634  27.995  1.00  0.00     0.074 A 
ATOM     38  C   UNL A   1      44.999  24.903  27.722  1.00  0.00     0.049 A 
ATOM     39  N   UNL A   1      42.810  26.902  28.280  1.00  0.00    -0.248 NA
ATOM     40  C   UNL A   1      41.257  25.181  27.998  1.00  0.00     0.031 C 
ATOM     41  C   UNL A   1      46.095  23.974  27.459  1.00  0.00     0.029 A 
ATOM     42  N   UNL A   1      45.624  26.092  28.008  1.00  0.00    -0.354 N 
ATOM     43  C   UNL A   1      41.530  27.399  28.490  1.00  0.00     0.074 A 
ATOM     44  C   UNL A   1      40.610  26.306  28.259  1.00  0.00     0.031 C 
ATOM     45  C   UNL A   1      47.261  24.631  27.580  1.00  0.00     0.029 A 
ATOM     46  C   UNL A   1      46.989  26.033  27.891  1.00  0.00     0.049 A 
ATOM     47  H   UNL A   1      45.138  26.907  28.271  1.00  0.00     0.167 HD
ATOM     48  C   UNL A   1      41.159  28.650  28.856  1.00  0.00     0.037 A 
ATOM     49  C   UNL A   1      47.913  27.009  27.995  1.00  0.00     0.037 A 
ATOM     50  C   UNL A   1      42.080  29.734  29.077  1.00  0.00     0.049 A 
ATOM     51  C   UNL A   1      47.472  28.411  28.328  1.00  0.00     0.074 A 
ATOM     52  C   UNL A   1      41.806  31.037  29.458  1.00  0.00     0.029 A 
ATOM     53  N   UNL A   1      43.457  29.645  28.929  1.00  0.00    -0.354 N 
ATOM     54  N   UNL A   1      46.262  28.871  28.543  1.00  0.00    -0.248 NA
ATOM     55  C   UNL A   1      48.526  29.429  28.438  1.00  0.00     0.031 C 
ATOM     56  C   UNL A   1      43.010  31.749  29.480  1.00  0.00     0.029 A 
ATOM     57  C   UNL A   1      44.043  30.875  29.181  1.00  0.00     0.049 A 
ATOM     58  H   UNL A   1      43.946  28.826  28.680  1.00  0.00     0.167 HD
ATOM     59  C   UNL A   1      46.412  30.219  28.842  1.00  0.00     0.074 A 
ATOM     60  C   UNL A   1      47.831  30.500  28.794  1.00  0.00     0.031 C 
ATOM     61  C   UNL A   1      45.460  31.141  29.132  1.00  0.00     0.037 A 
BRANCH  48  62
ATOM     62  C   UNL A   1      39.688  28.917  29.012  1.00  0.00     0.064 A 
ATOM     63  C   UNL A   1      38.890  29.315  27.928  1.00  0.00     0.173 A 
ATOM     64  C   UNL A   1      39.064  28.755  30.258  1.00  0.00     0.173 A 
ATOM     65  F   UNL A   1      39.437  29.497  26.716  1.00  0.00    -0.203 F 
ATOM     66  C   UNL A   1      37.531  29.575  28.094  1.00  0.00     0.198 A 
ATOM     67  C   UNL A   1      37.698  28.983  30.413  1.00  0.00     0.198 A 
ATOM     68  F   UNL A   1      39.776  28.371  31.328  1.00  0.00    -0.203 F 
ATOM     69  F   UNL A   1      36.802  30.011  27.058  1.00  0.00    -0.200 F 
ATOM     70  C   UNL A   1      36.936  29.402  29.334  1.00  0.00     0.200 A 
ATOM     71  F   UNL A   1      37.122  28.801  31.610  1.00  0.00    -0.200 F 
ATOM     72  F   UNL A   1      35.628  29.650  29.493  1.00  0.00    -0.200 F 
ENDBRANCH  48  62
BRANCH  49  73
ATOM     73  C   UNL A   1      49.346  26.694  27.759  1.00  0.00     0.064 A 
ATOM     74  C   UNL A   1      50.215  26.413  28.823  1.00  0.00     0.173 A 
ATOM     75  C   UNL A   1      49.878  26.671  26.460  1.00  0.00     0.173 A 
ATOM     76  F   UNL A   1      49.761  26.449  30.084  1.00  0.00    -0.203 F 
ATOM     77  C   UNL A   1      51.562  26.139  28.598  1.00  0.00     0.198 A 
ATOM     78  C   UNL A   1      51.217  26.365  26.234  1.00  0.00     0.198 A 
ATOM     79  F   UNL A   1      49.090  26.935  25.408  1.00  0.00    -0.203 F 
ATOM     80  F   UNL A   1      52.381  25.923  29.636  1.00  0.00    -0.200 F 
ATOM     81  C   UNL A   1      52.060  26.107  27.304  1.00  0.00     0.200 A 
ATOM     82  F   UNL A   1      51.691  26.323  24.982  1.00  0.00    -0.200 F 
ATOM     83  F   UNL A   1      53.355  25.837  27.089  1.00  0.00    -0.200 F 
ENDBRANCH  49  73
BRANCH  61  84
ATOM     84  C   UNL A   1      45.921  32.534  29.455  1.00  0.00     0.064 A 
ATOM     85  C   UNL A   1      46.042  33.524  28.467  1.00  0.00     0.173 A 
ATOM     86  C   UNL A   1      46.207  32.897  30.781  1.00  0.00     0.173 A 
ATOM     87  F   UNL A   1      45.793  33.229  27.183  1.00  0.00    -0.203 F 
ATOM     88  C   UNL A   1      46.459  34.812  28.791  1.00  0.00     0.198 A 
ATOM     89  C   UNL A   1      46.591  34.195  31.105  1.00  0.00     0.198 A 
ATOM     90  F   UNL A   1      46.101  31.993  31.767  1.00  0.00    -0.203 F 
ATOM     91  F   UNL A   1      46.617  35.725  27.823  1.00  0.00    -0.200 F 
ATOM     92  C   UNL A   1      46.726  35.149  30.110  1.00  0.00     0.200 A 
ATOM     93  F   UNL A   1      46.832  34.521  32.383  1.00  0.00    -0.200 F 
ATOM     94  F   UNL A   1      47.119  36.392  30.420  1.00  0.00    -0.200 F 
ENDBRANCH  61  84
ENDBRANCH  35  36
ENDBRANCH  28  30
ENDBRANCH  27  28
ENDBRANCH  26  27
ENDBRANCH  25  26
ENDBRANCH  24  25
ENDBRANCH  23  24
ENDBRANCH   1  23
TORSDOF 21
ENDMDL
MODEL 2
REMARK VINA RESULT:      -9.9      4.669      9.912
REMARK SMILES CC(C)N(CCC#N)C(=O)c1ccncc1/C=C/C(=O)OCCOCCOC(=O)c1ccc(-c2c3nc(c(-c4c(F)c(F)c(F)c(F)c4F)c4ccc([nH]4)c(-c4c(F)c(F)c(F)c(F)c4F)c4nc(c(-c5c(F)c(F)c(F)c(F)c5F)c5ccc2[nH]5)C=C4)C=C3)cc1
REMARK SMILES IDX 22 1 21 2 19 3 20 4 18 5 17 6 16 7 11 8 12 9 13 10 15 11
REMARK SMILES IDX 14 12 9 13 10 14 4 15 2 16 1 17 3 18 5 19 6 20 7 21 8 22
REMARK SMILES IDX 23 23 24 24 25 25 26 26 27 27 28 28 29 29 30 30 31 31 92 32
REMARK SMILES IDX 32 33 91 34 33 35 34 36 35 37 85 38 36 39 90 40 84 41 86 42
REMARK SMILES IDX 37 43 89 44 83 45 82 46 38 48 70 49 50 50 69 51 51 52 54 53
REMARK SMILES IDX 68 54 87 55 52 56 53 57 67 59 88 60 55 61 39 62 40 63 48 64
REMARK SMILES IDX 41 65 42 66 46 67 49 68 43 69 44 70 47 71 45 72 71 73 72 74
REMARK SMILES IDX 80 75 73 76 74 77 78 78 81 79 75 80 76 81 79 82 77 83 56 84
REMARK SMILES IDX 57 85 65 86 58 87 59 88 63 89 66 90 60 91 61 92 64 93 62 94
REMARK H PARENT 86 47 54 58
REMARK Flexibility Score: inf
ROOT
ATOM      1  C   UNL A   1      30.555  27.775  22.415  1.00  0.00     0.261 C 
ENDROOT
BRANCH   1   2
ATOM      2  O   UNL A   1      31.324  26.863  21.616  1.00  0.00    -0.460 OA
BRANCH   2   3
ATOM      3  C   UNL A   1      32.582  26.606  22.050  1.00  0.00     0.330 C 
ATOM      4  O   UNL A   1      33.609  27.150  21.674  1.00  0.00    -0.247 OA
BRANCH   3   5
ATOM      5  C   UNL A   1      32.547  25.744  23.258  1.00  0.00     0.094 C 
ATOM      6  C   UNL A   1      31.614  24.798  23.478  1.00  0.00     0.018 C 
BRANCH   6   7
ATOM      7  C   UNL A   1      31.259  24.210  24.803  1.00  0.00     0.006 A 
ATOM      8  C   UNL A   1      31.563  22.880  25.221  1.00  0.00     0.050 A 
ATOM      9  C   UNL A   1      30.760  22.323  26.225  1.00  0.00     0.034 A 
ATOM     10  C   UNL A   1      29.902  23.131  26.954  1.00  0.00     0.112 A 
ATOM     11  C   UNL A   1      30.401  24.934  25.647  1.00  0.00     0.119 A 
ATOM     12  N   UNL A   1      29.735  24.436  26.712  1.00  0.00    -0.264 NA
BRANCH   8  13
ATOM     13  C   UNL A   1      32.730  22.092  24.651  1.00  0.00     0.254 C 
ATOM     14  O   UNL A   1      32.442  21.147  23.917  1.00  0.00    -0.269 OA
BRANCH  13  15
ATOM     15  N   UNL A   1      34.117  22.385  24.871  1.00  0.00    -0.335 N 
BRANCH  15  16
ATOM     16  C   UNL A   1      34.427  23.385  25.944  1.00  0.00     0.079 C 
ATOM     17  C   UNL A   1      34.433  22.818  27.375  1.00  0.00     0.031 C 
ATOM     18  C   UNL A   1      35.704  24.178  25.657  1.00  0.00     0.031 C 
ENDBRANCH  15  16
BRANCH  15  19
ATOM     19  C   UNL A   1      35.312  21.762  24.231  1.00  0.00     0.135 C 
BRANCH  19  20
ATOM     20  C   UNL A   1      36.049  20.627  24.966  1.00  0.00     0.141 C 
BRANCH  20  21
ATOM     21  C   UNL A   1      37.465  21.043  25.332  1.00  0.00     0.064 C 
ATOM     22  N   UNL A   1      38.639  21.388  25.635  1.00  0.00    -0.198 NA
ENDBRANCH  20  21
ENDBRANCH  19  20
ENDBRANCH  15  19
ENDBRANCH  13  15
ENDBRANCH   8  13
ENDBRANCH   6   7
ENDBRANCH   3   5
ENDBRANCH   2   3
ENDBRANCH   1   2
BRANCH   1  23
ATOM     23  C   UNL A   1      31.444  28.908  22.942  1.00  0.00     0.202 C 
BRANCH  23  24
ATOM     24  O   UNL A   1      30.975  29.587  24.107  1.00  0.00    -0.374 OA
BRANCH  24  25
ATOM     25  C   UNL A   1      31.451  29.107  25.367  1.00  0.00     0.202 C 
BRANCH  25  26
ATOM     26  C   UNL A   1      31.835  30.171  26.403  1.00  0.00     0.261 C 
BRANCH  26  27
ATOM     27  O   UNL A   1      33.221  30.548  26.302  1.00  0.00    -0.460 OA
BRANCH  27  28
ATOM     28  C   UNL A   1      33.618  31.501  27.180  1.00  0.00     0.338 C 
ATOM     29  O   UNL A   1      32.969  32.439  27.604  1.00  0.00    -0.246 OA
BRANCH  28  30
ATOM     30  C   UNL A   1      34.946  31.153  27.719  1.00  0.00     0.060 A 
ATOM     31  C   UNL A   1      35.179  29.811  28.049  1.00  0.00     0.016 A 
ATOM     32  C   UNL A   1      35.915  32.124  27.969  1.00  0.00     0.016 A 
ATOM     33  C   UNL A   1      36.367  29.442  28.672  1.00  0.00     0.010 A 
ATOM     34  C   UNL A   1      37.106  31.753  28.602  1.00  0.00     0.010 A 
ATOM     35  C   UNL A   1      37.322  30.417  28.986  1.00  0.00    -0.014 A 
BRANCH  35  36
ATOM     36  C   UNL A   1      38.486  30.059  29.834  1.00  0.00     0.031 A 
ATOM     37  C   UNL A   1      39.498  29.078  29.313  1.00  0.00     0.074 A 
ATOM     38  C   UNL A   1      38.649  30.620  31.045  1.00  0.00     0.049 A 
ATOM     39  N   UNL A   1      40.555  28.580  29.902  1.00  0.00    -0.248 NA
ATOM     40  C   UNL A   1      39.285  28.588  27.943  1.00  0.00     0.031 C 
ATOM     41  C   UNL A   1      37.756  31.608  31.643  1.00  0.00     0.029 A 
ATOM     42  N   UNL A   1      39.623  30.425  31.993  1.00  0.00    -0.354 N 
ATOM     43  C   UNL A   1      41.130  27.716  28.978  1.00  0.00     0.074 A 
ATOM     44  C   UNL A   1      40.281  27.727  27.806  1.00  0.00     0.031 C 
ATOM     45  C   UNL A   1      38.212  31.924  32.866  1.00  0.00     0.029 A 
ATOM     46  C   UNL A   1      39.408  31.131  33.149  1.00  0.00     0.049 A 
ATOM     47  H   UNL A   1      40.400  29.835  31.856  1.00  0.00     0.167 HD
ATOM     48  C   UNL A   1      42.269  26.993  29.093  1.00  0.00     0.037 A 
ATOM     49  C   UNL A   1      40.084  31.117  34.314  1.00  0.00     0.037 A 
ATOM     50  C   UNL A   1      43.105  26.981  30.265  1.00  0.00     0.049 A 
ATOM     51  C   UNL A   1      41.306  30.246  34.448  1.00  0.00     0.074 A 
ATOM     52  C   UNL A   1      44.285  26.289  30.480  1.00  0.00     0.029 A 
ATOM     53  N   UNL A   1      42.846  27.694  31.428  1.00  0.00    -0.354 N 
ATOM     54  N   UNL A   1      41.855  29.445  33.566  1.00  0.00    -0.248 NA
ATOM     55  C   UNL A   1      42.007  30.281  35.739  1.00  0.00     0.031 C 
ATOM     56  C   UNL A   1      44.704  26.534  31.792  1.00  0.00     0.029 A 
ATOM     57  C   UNL A   1      43.825  27.434  32.373  1.00  0.00     0.049 A 
ATOM     58  H   UNL A   1      42.077  28.295  31.562  1.00  0.00     0.167 HD
ATOM     59  C   UNL A   1      42.978  28.906  34.182  1.00  0.00     0.074 A 
ATOM     60  C   UNL A   1      43.039  29.481  35.509  1.00  0.00     0.031 C 
ATOM     61  C   UNL A   1      43.876  28.016  33.692  1.00  0.00     0.037 A 
BRANCH  48  62
ATOM     62  C   UNL A   1      42.661  26.129  27.927  1.00  0.00     0.064 A 
ATOM     63  C   UNL A   1      43.570  26.569  26.952  1.00  0.00     0.173 A 
ATOM     64  C   UNL A   1      42.132  24.836  27.791  1.00  0.00     0.173 A 
ATOM     65  F   UNL A   1      44.096  27.801  27.027  1.00  0.00    -0.203 F 
ATOM     66  C   UNL A   1      43.908  25.761  25.868  1.00  0.00     0.198 A 
ATOM     67  C   UNL A   1      42.499  24.018  26.725  1.00  0.00     0.198 A 
ATOM     68  F   UNL A   1      41.263  24.361  28.695  1.00  0.00    -0.203 F 
ATOM     69  F   UNL A   1      44.733  26.226  24.920  1.00  0.00    -0.200 F 
ATOM     70  C   UNL A   1      43.378  24.484  25.760  1.00  0.00     0.200 A 
ATOM     71  F   UNL A   1      41.996  22.779  26.629  1.00  0.00    -0.200 F 
ATOM     72  F   UNL A   1      43.705  23.707  24.718  1.00  0.00    -0.200 F 
ENDBRANCH  48  62
BRANCH  49  73
ATOM     73  C   UNL A   1      39.604  31.941  35.454  1.00  0.00     0.064 A 
ATOM     74  C   UNL A   1      40.083  33.241  35.667  1.00  0.00     0.173 A 
ATOM     75  C   UNL A   1      38.655  31.441  36.360  1.00  0.00     0.173 A 
ATOM     76  F   UNL A   1      41.011  33.754  34.845  1.00  0.00    -0.203 F 
ATOM     77  C   UNL A   1      39.645  34.002  36.749  1.00  0.00     0.198 A 
ATOM     78  C   UNL A   1      38.194  32.214  37.423  1.00  0.00     0.198 A 
ATOM     79  F   UNL A   1      38.166  30.201  36.204  1.00  0.00    -0.203 F 
ATOM     80  F   UNL A   1      40.156  35.222  36.956  1.00  0.00    -0.200 F 
ATOM     81  C   UNL A   1      38.696  33.491  37.621  1.00  0.00     0.200 A 
ATOM     82  F   UNL A   1      37.267  31.720  38.255  1.00  0.00    -0.200 F 
ATOM     83  F   UNL A   1      38.271  34.226  38.657  1.00  0.00    -0.200 F 
ENDBRANCH  49  73
BRANCH  61  84
ATOM     84  C   UNL A   1      45.027  27.634  34.580  1.00  0.00     0.064 A 
ATOM     85  C   UNL A   1      44.983  26.498  35.404  1.00  0.00     0.173 A 
ATOM     86  C   UNL A   1      46.208  28.393  34.578  1.00  0.00     0.173 A 
ATOM     87  F   UNL A   1      43.874  25.744  35.455  1.00  0.00    -0.203 F 
ATOM     88  C   UNL A   1      46.065  26.155  36.211  1.00  0.00     0.198 A 
ATOM     89  C   UNL A   1      47.300  28.028  35.360  1.00  0.00     0.198 A 
ATOM     90  F   UNL A   1      46.307  29.484  33.803  1.00  0.00    -0.203 F 
ATOM     91  F   UNL A   1      45.979  25.096  37.027  1.00  0.00    -0.200 F 
ATOM     92  C   UNL A   1      47.225  26.915  36.182  1.00  0.00     0.200 A 
ATOM     93  F   UNL A   1      48.426  28.755  35.317  1.00  0.00    -0.200 F 
ATOM     94  F   UNL A   1      48.268  26.578  36.952  1.00  0.00    -0.200 F 
ENDBRANCH  61  84
ENDBRANCH  35  36
ENDBRANCH  28  30
ENDBRANCH  27  28
ENDBRANCH  26  27
ENDBRANCH  25  26
ENDBRANCH  24  25
ENDBRANCH  23  24
ENDBRANCH   1  23
TORSDOF 21
ENDMDL
MODEL 3
REMARK VINA RESULT:      -9.8      4.844      9.958
REMARK SMILES CC(C)N(CCC#N)C(=O)c1ccncc1/C=C/C(=O)OCCOCCOC(=O)c1ccc(-c2c3nc(c(-c4c(F)c(F)c(F)c(F)c4F)c4ccc([nH]4)c(-c4c(F)c(F)c(F)c(F)c4F)c4nc(c(-c5c(F)c(F)c(F)c(F)c5F)c5ccc2[nH]5)C=C4)C=C3)cc1
REMARK SMILES IDX 22 1 21 2 19 3 20 4 18 5 17 6 16 7 11 8 12 9 13 10 15 11
REMARK SMILES IDX 14 12 9 13 10 14 4 15 2 16 1 17 3 18 5 19 6 20 7 21 8 22
REMARK SMILES IDX 23 23 24 24 25 25 26 26 27 27 28 28 29 29 30 30 31 31 92 32
REMARK SMILES IDX 32 33 91 34 33 35 34 36 35 37 85 38 36 39 90 40 84 41 86 42
REMARK SMILES IDX 37 43 89 44 83 45 82 46 38 48 70 49 50 50 69 51 51 52 54 53
REMARK SMILES IDX 68 54 87 55 52 56 53 57 67 59 88 60 55 61 39 62 40 63 48 64
REMARK SMILES IDX 41 65 42 66 46 67 49 68 43 69 44 70 47 71 45 72 71 73 72 74
REMARK SMILES IDX 80 75 73 76 74 77 78 78 81 79 75 80 76 81 79 82 77 83 56 84
REMARK SMILES IDX 57 85 65 86 58 87 59 88 63 89 66 90 60 91 61 92 64 93 62 94
REMARK H PARENT 86 47 54 58
REMARK Flexibility Score: inf
ROOT
ATOM      1  C   UNL A   1      30.641  27.852  22.469  1.00  0.00     0.261 C 
ENDROOT
BRANCH   1   2
ATOM      2  O   UNL A   1      31.482  26.958  21.723  1.00  0.00    -0.460 OA
BRANCH   2   3
ATOM      3  C   UNL A   1      32.749  26.812  22.182  1.00  0.00     0.330 C 
ATOM      4  O   UNL A   1      33.726  27.465  21.850  1.00  0.00    -0.247 OA
BRANCH   3   5
ATOM      5  C   UNL A   1      32.772  25.912  23.363  1.00  0.00     0.094 C 
ATOM      6  C   UNL A   1      32.041  24.785  23.462  1.00  0.00     0.018 C 
BRANCH   6   7
ATOM      7  C   UNL A   1      31.683  24.082  24.729  1.00  0.00     0.006 A 
ATOM      8  C   UNL A   1      31.671  22.667  24.910  1.00  0.00     0.050 A 
ATOM      9  C   UNL A   1      30.857  22.156  25.930  1.00  0.00     0.034 A 
ATOM     10  C   UNL A   1      30.319  23.011  26.879  1.00  0.00     0.112 A 
ATOM     11  C   UNL A   1      31.133  24.836  25.778  1.00  0.00     0.119 A 
ATOM     12  N   UNL A   1      30.472  24.338  26.847  1.00  0.00    -0.264 NA
BRANCH   8  13
ATOM     13  C   UNL A   1      32.529  21.731  24.076  1.00  0.00     0.254 C 
ATOM     14  O   UNL A   1      32.308  21.723  22.865  1.00  0.00    -0.269 OA
BRANCH  13  15
ATOM     15  N   UNL A   1      33.582  20.898  24.581  1.00  0.00    -0.335 N 
BRANCH  15  16
ATOM     16  C   UNL A   1      34.668  21.586  25.350  1.00  0.00     0.079 C 
ATOM     17  C   UNL A   1      35.106  22.946  24.777  1.00  0.00     0.031 C 
ATOM     18  C   UNL A   1      34.356  21.690  26.844  1.00  0.00     0.031 C 
ENDBRANCH  15  16
BRANCH  15  19
ATOM     19  C   UNL A   1      33.703  19.411  24.518  1.00  0.00     0.135 C 
BRANCH  19  20
ATOM     20  C   UNL A   1      32.431  18.550  24.624  1.00  0.00     0.141 C 
BRANCH  20  21
ATOM     21  C   UNL A   1      32.736  17.202  25.257  1.00  0.00     0.064 C 
ATOM     22  N   UNL A   1      32.988  16.083  25.780  1.00  0.00    -0.198 NA
ENDBRANCH  20  21
ENDBRANCH  19  20
ENDBRANCH  15  19
ENDBRANCH  13  15
ENDBRANCH   8  13
ENDBRANCH   6   7
ENDBRANCH   3   5
ENDBRANCH   2   3
ENDBRANCH   1   2
BRANCH   1  23
ATOM     23  C   UNL A   1      31.479  28.954  23.127  1.00  0.00     0.202 C 
BRANCH  23  24
ATOM     24  O   UNL A   1      30.975  29.481  24.355  1.00  0.00    -0.374 OA
BRANCH  24  25
ATOM     25  C   UNL A   1      31.510  28.928  25.560  1.00  0.00     0.202 C 
BRANCH  25  26
ATOM     26  C   UNL A   1      31.961  29.931  26.631  1.00  0.00     0.261 C 
BRANCH  26  27
ATOM     27  O   UNL A   1      33.282  30.439  26.372  1.00  0.00    -0.460 OA
BRANCH  27  28
ATOM     28  C   UNL A   1      33.692  31.419  27.215  1.00  0.00     0.338 C 
ATOM     29  O   UNL A   1      33.051  32.374  27.612  1.00  0.00    -0.246 OA
BRANCH  28  30
ATOM     30  C   UNL A   1      35.022  31.080  27.755  1.00  0.00     0.060 A 
ATOM     31  C   UNL A   1      35.255  29.746  28.111  1.00  0.00     0.016 A 
ATOM     32  C   UNL A   1      35.993  32.056  27.979  1.00  0.00     0.016 A 
ATOM     33  C   UNL A   1      36.446  29.388  28.736  1.00  0.00     0.010 A 
ATOM     34  C   UNL A   1      37.187  31.697  28.614  1.00  0.00     0.010 A 
ATOM     35  C   UNL A   1      37.404  30.369  29.025  1.00  0.00    -0.014 A 
BRANCH  35  36
ATOM     36  C   UNL A   1      38.571  30.028  29.875  1.00  0.00     0.031 A 
ATOM     37  C   UNL A   1      39.593  29.054  29.359  1.00  0.00     0.074 A 
ATOM     38  C   UNL A   1      38.729  30.598  31.082  1.00  0.00     0.049 A 
ATOM     39  N   UNL A   1      40.655  28.571  29.951  1.00  0.00    -0.248 NA
ATOM     40  C   UNL A   1      39.384  28.554  27.992  1.00  0.00     0.031 C 
ATOM     41  C   UNL A   1      37.826  31.580  31.674  1.00  0.00     0.029 A 
ATOM     42  N   UNL A   1      39.705  30.418  32.031  1.00  0.00    -0.354 N 
ATOM     43  C   UNL A   1      41.239  27.707  29.032  1.00  0.00     0.074 A 
ATOM     44  C   UNL A   1      40.389  27.702  27.860  1.00  0.00     0.031 C 
ATOM     45  C   UNL A   1      38.279  31.908  32.896  1.00  0.00     0.029 A 
ATOM     46  C   UNL A   1      39.483  31.129  33.183  1.00  0.00     0.049 A 
ATOM     47  H   UNL A   1      40.488  29.836  31.898  1.00  0.00     0.167 HD
ATOM     48  C   UNL A   1      42.385  26.996  29.151  1.00  0.00     0.037 A 
ATOM     49  C   UNL A   1      40.160  31.129  34.348  1.00  0.00     0.037 A 
ATOM     50  C   UNL A   1      43.222  27.000  30.323  1.00  0.00     0.049 A 
ATOM     51  C   UNL A   1      41.391  30.271  34.487  1.00  0.00     0.074 A 
ATOM     52  C   UNL A   1      44.408  26.321  30.541  1.00  0.00     0.029 A 
ATOM     53  N   UNL A   1      42.955  27.717  31.481  1.00  0.00    -0.354 N 
ATOM     54  N   UNL A   1      41.947  29.471  33.609  1.00  0.00    -0.248 NA
ATOM     55  C   UNL A   1      42.092  30.321  35.777  1.00  0.00     0.031 C 
ATOM     56  C   UNL A   1      44.825  26.578  31.851  1.00  0.00     0.029 A 
ATOM     57  C   UNL A   1      43.937  27.472  32.428  1.00  0.00     0.049 A 
ATOM     58  H   UNL A   1      42.180  28.311  31.612  1.00  0.00     0.167 HD
ATOM     59  C   UNL A   1      43.076  28.946  34.228  1.00  0.00     0.074 A 
ATOM     60  C   UNL A   1      43.132  29.530  35.551  1.00  0.00     0.031 C 
ATOM     61  C   UNL A   1      43.983  28.063  33.743  1.00  0.00     0.037 A 
BRANCH  48  62
ATOM     62  C   UNL A   1      42.785  26.129  27.990  1.00  0.00     0.064 A 
ATOM     63  C   UNL A   1      42.385  24.786  27.897  1.00  0.00     0.173 A 
ATOM     64  C   UNL A   1      43.564  26.653  26.947  1.00  0.00     0.173 A 
ATOM     65  F   UNL A   1      41.650  24.231  28.872  1.00  0.00    -0.203 F 
ATOM     66  C   UNL A   1      42.779  23.992  26.822  1.00  0.00     0.198 A 
ATOM     67  C   UNL A   1      43.927  25.866  25.856  1.00  0.00     0.198 A 
ATOM     68  F   UNL A   1      43.970  27.930  26.980  1.00  0.00    -0.203 F 
ATOM     69  F   UNL A   1      42.435  22.698  26.784  1.00  0.00    -0.200 F 
ATOM     70  C   UNL A   1      43.544  24.535  25.799  1.00  0.00     0.200 A 
ATOM     71  F   UNL A   1      44.654  26.395  24.862  1.00  0.00    -0.200 F 
ATOM     72  F   UNL A   1      43.921  23.771  24.765  1.00  0.00    -0.200 F 
ENDBRANCH  48  62
BRANCH  49  73
ATOM     73  C   UNL A   1      39.671  31.954  35.483  1.00  0.00     0.064 A 
ATOM     74  C   UNL A   1      38.691  31.475  36.363  1.00  0.00     0.173 A 
ATOM     75  C   UNL A   1      40.174  33.246  35.709  1.00  0.00     0.173 A 
ATOM     76  F   UNL A   1      38.159  30.259  36.174  1.00  0.00    -0.203 F 
ATOM     77  C   UNL A   1      38.221  32.261  37.414  1.00  0.00     0.198 A 
ATOM     78  C   UNL A   1      39.727  34.017  36.779  1.00  0.00     0.198 A 
ATOM     79  F   UNL A   1      41.111  33.752  34.895  1.00  0.00    -0.203 F 
ATOM     80  F   UNL A   1      37.249  31.797  38.210  1.00  0.00    -0.200 F 
ATOM     81  C   UNL A   1      38.745  33.527  37.626  1.00  0.00     0.200 A 
ATOM     82  F   UNL A   1      40.246  35.235  36.986  1.00  0.00    -0.200 F 
ATOM     83  F   UNL A   1      38.297  34.279  38.640  1.00  0.00    -0.200 F 
ENDBRANCH  49  73
BRANCH  61  84
ATOM     84  C   UNL A   1      45.138  27.697  34.633  1.00  0.00     0.064 A 
ATOM     85  C   UNL A   1      45.083  26.600  35.506  1.00  0.00     0.173 A 
ATOM     86  C   UNL A   1      46.333  28.433  34.583  1.00  0.00     0.173 A 
ATOM     87  F   UNL A   1      43.961  25.870  35.604  1.00  0.00    -0.203 F 
ATOM     88  C   UNL A   1      46.169  26.272  36.314  1.00  0.00     0.198 A 
ATOM     89  C   UNL A   1      47.428  28.081  35.367  1.00  0.00     0.198 A 
ATOM     90  F   UNL A   1      46.443  29.487  33.760  1.00  0.00    -0.203 F 
ATOM     91  F   UNL A   1      46.074  25.252  37.178  1.00  0.00    -0.200 F 
ATOM     92  C   UNL A   1      47.342  27.007  36.238  1.00  0.00     0.200 A 
ATOM     93  F   UNL A   1      48.566  28.783  35.278  1.00  0.00    -0.200 F 
ATOM     94  F   UNL A   1      48.389  26.684  37.009  1.00  0.00    -0.200 F 
ENDBRANCH  61  84
ENDBRANCH  35  36
ENDBRANCH  28  30
ENDBRANCH  27  28
ENDBRANCH  26  27
ENDBRANCH  25  26
ENDBRANCH  24  25
ENDBRANCH  23  24
ENDBRANCH   1  23
TORSDOF 21
ENDMDL
