MODEL 1
REMARK VINA RESULT:     -11.6      0.000      0.000
REMARK SMILES O=C(CC[NH2+]C[C@H](O)Cn1c2ccccc2c2ccccc21)OCCOCCOC(=O)c1ccc(-c2c3nc(c(-c4c(F)c(F)c(F)c(F)c4F)c4ccc([nH]4)c(-c4c(F)c(F)c(F)c(F)c4F)c4nc(c(-c5c(F)c(F)c(F)c(F)c5F)c5ccc2[nH]5)C=C4)C=C3)cc1
REMARK SMILES IDX 24 1 23 2 2 3 1 4 3 5 4 6 5 7 6 10 7 11 9 12 10 13 11 14
REMARK SMILES IDX 22 15 12 16 16 17 17 18 21 19 13 20 15 21 18 22 20 23 14 24
REMARK SMILES IDX 19 25 8 26 25 28 26 29 27 30 28 31 29 32 30 33 31 34 32 35
REMARK SMILES IDX 33 36 94 37 34 38 93 39 35 40 36 41 37 42 87 43 38 44 92 45
REMARK SMILES IDX 86 46 88 47 39 48 91 49 85 50 84 51 40 53 72 54 52 55 71 56
REMARK SMILES IDX 53 57 56 58 70 59 89 60 54 61 55 62 69 64 90 65 57 66 41 67
REMARK SMILES IDX 42 68 50 69 43 70 44 71 48 72 51 73 45 74 46 75 49 76 47 77
REMARK SMILES IDX 73 78 74 79 82 80 75 81 76 82 80 83 83 84 77 85 78 86 81 87
REMARK SMILES IDX 79 88 58 89 59 90 67 91 60 92 61 93 65 94 68 95 62 96 63 97
REMARK SMILES IDX 66 98 64 99
REMARK H PARENT 5 8 5 9 8 27 88 52 56 63
REMARK Flexibility Score: inf
ROOT
ATOM      1  C   UNL A   1      32.455  27.355  25.245  1.00  0.00     0.261 C 
ENDROOT
BRANCH   1   2
ATOM      2  O   UNL A   1      31.189  27.757  24.692  1.00  0.00    -0.463 OA
BRANCH   2   3
ATOM      3  C   UNL A   1      30.508  27.170  23.692  1.00  0.00     0.311 C 
ATOM      4  O   UNL A   1      29.422  26.640  23.908  1.00  0.00    -0.252 OA
BRANCH   3   5
ATOM      5  C   UNL A   1      31.027  27.356  22.296  1.00  0.00     0.184 C 
BRANCH   5   6
ATOM      6  C   UNL A   1      31.749  26.172  21.667  1.00  0.00     0.272 C 
BRANCH   6   7
ATOM      7  N   UNL A   1      31.531  24.847  22.221  1.00  0.00    -0.344 N 
ATOM      8  H   UNL A   1      31.294  24.238  21.438  1.00  0.00     0.346 HD
ATOM      9  H   UNL A   1      30.814  25.007  22.929  1.00  0.00     0.346 HD
BRANCH   7  10
ATOM     10  C   UNL A   1      32.594  24.177  22.968  1.00  0.00     0.294 C 
BRANCH  10  11
ATOM     11  C   UNL A   1      32.664  22.638  22.989  1.00  0.00     0.189 C 
BRANCH  11  12
ATOM     12  C   UNL A   1      32.726  22.130  24.431  1.00  0.00     0.160 C 
BRANCH  12  13
ATOM     13  N   UNL A   1      33.842  21.201  24.586  1.00  0.00    -0.338 N 
ATOM     14  C   UNL A   1      35.144  21.568  24.863  1.00  0.00     0.049 A 
ATOM     15  C   UNL A   1      33.750  19.840  24.368  1.00  0.00     0.049 A 
ATOM     16  C   UNL A   1      35.727  22.827  25.090  1.00  0.00     0.027 A 
ATOM     17  C   UNL A   1      35.902  20.394  24.853  1.00  0.00     0.007 A 
ATOM     18  C   UNL A   1      35.010  19.302  24.611  1.00  0.00     0.007 A 
ATOM     19  C   UNL A   1      32.658  19.040  23.988  1.00  0.00     0.027 A 
ATOM     20  C   UNL A   1      37.113  22.891  25.266  1.00  0.00     0.002 A 
ATOM     21  C   UNL A   1      37.296  20.486  25.050  1.00  0.00     0.011 A 
ATOM     22  C   UNL A   1      35.166  17.902  24.547  1.00  0.00     0.011 A 
ATOM     23  C   UNL A   1      32.829  17.658  23.957  1.00  0.00     0.002 A 
ATOM     24  C   UNL A   1      37.890  21.738  25.238  1.00  0.00     0.001 A 
ATOM     25  C   UNL A   1      34.064  17.092  24.245  1.00  0.00     0.001 A 
ENDBRANCH  12  13
ENDBRANCH  11  12
BRANCH  11  26
ATOM     26  O   UNL A   1      31.523  22.100  22.314  1.00  0.00    -0.385 OA
ATOM     27  H   UNL A   1      31.183  21.339  22.811  1.00  0.00     0.211 HD
ENDBRANCH  11  26
ENDBRANCH  10  11
ENDBRANCH   7  10
ENDBRANCH   6   7
ENDBRANCH   5   6
ENDBRANCH   3   5
ENDBRANCH   2   3
ENDBRANCH   1   2
BRANCH   1  28
ATOM     28  C   UNL A   1      33.549  28.377  25.547  1.00  0.00     0.202 C 
BRANCH  28  29
ATOM     29  O   UNL A   1      33.195  29.750  25.615  1.00  0.00    -0.374 OA
BRANCH  29  30
ATOM     30  C   UNL A   1      32.621  30.238  26.825  1.00  0.00     0.202 C 
BRANCH  30  31
ATOM     31  C   UNL A   1      33.211  31.558  27.329  1.00  0.00     0.261 C 
BRANCH  31  32
ATOM     32  O   UNL A   1      34.614  31.394  27.588  1.00  0.00    -0.460 OA
BRANCH  32  33
ATOM     33  C   UNL A   1      35.086  31.951  28.731  1.00  0.00     0.338 C 
ATOM     34  O   UNL A   1      34.495  32.702  29.490  1.00  0.00    -0.246 OA
BRANCH  33  35
ATOM     35  C   UNL A   1      36.302  31.186  29.088  1.00  0.00     0.060 A 
ATOM     36  C   UNL A   1      37.441  31.829  29.579  1.00  0.00     0.016 A 
ATOM     37  C   UNL A   1      36.368  29.858  28.634  1.00  0.00     0.016 A 
ATOM     38  C   UNL A   1      38.664  31.169  29.520  1.00  0.00     0.010 A 
ATOM     39  C   UNL A   1      37.598  29.213  28.547  1.00  0.00     0.010 A 
ATOM     40  C   UNL A   1      38.753  29.879  28.962  1.00  0.00    -0.014 A 
BRANCH  40  41
ATOM     41  C   UNL A   1      40.034  29.175  29.087  1.00  0.00     0.031 A 
ATOM     42  C   UNL A   1      40.384  28.911  30.512  1.00  0.00     0.074 A 
ATOM     43  C   UNL A   1      40.797  28.680  28.086  1.00  0.00     0.049 A 
ATOM     44  N   UNL A   1      41.423  29.314  31.163  1.00  0.00    -0.248 NA
ATOM     45  C   UNL A   1      39.379  28.226  31.344  1.00  0.00     0.031 C 
ATOM     46  C   UNL A   1      40.454  28.562  26.669  1.00  0.00     0.029 A 
ATOM     47  N   UNL A   1      42.030  28.081  28.148  1.00  0.00    -0.354 N 
ATOM     48  C   UNL A   1      41.278  28.817  32.456  1.00  0.00     0.074 A 
ATOM     49  C   UNL A   1      39.951  28.271  32.547  1.00  0.00     0.031 C 
ATOM     50  C   UNL A   1      41.358  27.763  26.052  1.00  0.00     0.029 A 
ATOM     51  C   UNL A   1      42.388  27.373  27.003  1.00  0.00     0.049 A 
ATOM     52  H   UNL A   1      42.615  28.147  28.937  1.00  0.00     0.167 HD
ATOM     53  C   UNL A   1      42.335  28.720  33.305  1.00  0.00     0.037 A 
ATOM     54  C   UNL A   1      43.397  26.468  26.863  1.00  0.00     0.037 A 
ATOM     55  C   UNL A   1      43.425  29.550  32.881  1.00  0.00     0.049 A 
ATOM     56  C   UNL A   1      44.339  26.618  28.005  1.00  0.00     0.074 A 
ATOM     57  C   UNL A   1      43.588  30.909  32.706  1.00  0.00     0.029 A 
ATOM     58  N   UNL A   1      44.472  28.954  32.226  1.00  0.00    -0.354 N 
ATOM     59  N   UNL A   1      45.178  27.601  28.145  1.00  0.00    -0.248 NA
ATOM     60  C   UNL A   1      44.028  25.894  29.228  1.00  0.00     0.031 C 
ATOM     61  C   UNL A   1      44.413  31.029  31.555  1.00  0.00     0.029 A 
ATOM     62  C   UNL A   1      44.773  29.744  31.150  1.00  0.00     0.049 A 
ATOM     63  H   UNL A   1      44.923  28.118  32.483  1.00  0.00     0.167 HD
ATOM     64  C   UNL A   1      45.096  27.938  29.487  1.00  0.00     0.074 A 
ATOM     65  C   UNL A   1      44.455  26.789  30.123  1.00  0.00     0.031 C 
ATOM     66  C   UNL A   1      45.291  29.224  29.909  1.00  0.00     0.037 A 
BRANCH  53  67
ATOM     67  C   UNL A   1      42.517  27.624  34.317  1.00  0.00     0.064 A 
ATOM     68  C   UNL A   1      43.041  26.385  33.898  1.00  0.00     0.173 A 
ATOM     69  C   UNL A   1      41.901  27.633  35.585  1.00  0.00     0.173 A 
ATOM     70  F   UNL A   1      43.629  26.261  32.698  1.00  0.00    -0.203 F 
ATOM     71  C   UNL A   1      42.881  25.224  34.657  1.00  0.00     0.198 A 
ATOM     72  C   UNL A   1      41.792  26.484  36.365  1.00  0.00     0.198 A 
ATOM     73  F   UNL A   1      41.279  28.716  36.066  1.00  0.00    -0.203 F 
ATOM     74  F   UNL A   1      43.273  24.045  34.159  1.00  0.00    -0.200 F 
ATOM     75  C   UNL A   1      42.250  25.275  35.887  1.00  0.00     0.200 A 
ATOM     76  F   UNL A   1      41.158  26.547  37.544  1.00  0.00    -0.200 F 
ATOM     77  F   UNL A   1      42.036  24.153  36.587  1.00  0.00    -0.200 F 
ENDBRANCH  53  67
BRANCH  54  78
ATOM     78  C   UNL A   1      43.454  25.270  25.982  1.00  0.00     0.064 A 
ATOM     79  C   UNL A   1      44.574  24.989  25.180  1.00  0.00     0.173 A 
ATOM     80  C   UNL A   1      42.523  24.225  26.135  1.00  0.00     0.173 A 
ATOM     81  F   UNL A   1      45.533  25.912  25.010  1.00  0.00    -0.203 F 
ATOM     82  C   UNL A   1      44.762  23.730  24.592  1.00  0.00     0.198 A 
ATOM     83  C   UNL A   1      42.708  22.972  25.545  1.00  0.00     0.198 A 
ATOM     84  F   UNL A   1      41.462  24.366  26.943  1.00  0.00    -0.203 F 
ATOM     85  F   UNL A   1      45.872  23.478  23.883  1.00  0.00    -0.200 F 
ATOM     86  C   UNL A   1      43.835  22.720  24.787  1.00  0.00     0.200 A 
ATOM     87  F   UNL A   1      41.820  21.995  25.774  1.00  0.00    -0.200 F 
ATOM     88  F   UNL A   1      44.047  21.494  24.285  1.00  0.00    -0.200 F 
ENDBRANCH  54  78
BRANCH  66  89
ATOM     89  C   UNL A   1      45.876  30.224  28.948  1.00  0.00     0.064 A 
ATOM     90  C   UNL A   1      47.245  30.487  28.818  1.00  0.00     0.173 A 
ATOM     91  C   UNL A   1      45.020  30.885  28.048  1.00  0.00     0.173 A 
ATOM     92  F   UNL A   1      48.172  29.775  29.476  1.00  0.00    -0.203 F 
ATOM     93  C   UNL A   1      47.705  31.475  27.958  1.00  0.00     0.198 A 
ATOM     94  C   UNL A   1      45.507  31.761  27.082  1.00  0.00     0.198 A 
ATOM     95  F   UNL A   1      43.696  30.659  28.083  1.00  0.00    -0.203 F 
ATOM     96  F   UNL A   1      48.987  31.840  28.037  1.00  0.00    -0.200 F 
ATOM     97  C   UNL A   1      46.849  32.085  27.060  1.00  0.00     0.200 A 
ATOM     98  F   UNL A   1      44.668  32.302  26.188  1.00  0.00    -0.200 F 
ATOM     99  F   UNL A   1      47.305  32.988  26.185  1.00  0.00    -0.200 F 
ENDBRANCH  66  89
ENDBRANCH  40  41
ENDBRANCH  33  35
ENDBRANCH  32  33
ENDBRANCH  31  32
ENDBRANCH  30  31
ENDBRANCH  29  30
ENDBRANCH  28  29
ENDBRANCH   1  28
TORSDOF 21
ENDMDL
MODEL 2
REMARK VINA RESULT:     -11.4      4.558      9.915
REMARK SMILES O=C(CC[NH2+]C[C@H](O)Cn1c2ccccc2c2ccccc21)OCCOCCOC(=O)c1ccc(-c2c3nc(c(-c4c(F)c(F)c(F)c(F)c4F)c4ccc([nH]4)c(-c4c(F)c(F)c(F)c(F)c4F)c4nc(c(-c5c(F)c(F)c(F)c(F)c5F)c5ccc2[nH]5)C=C4)C=C3)cc1
REMARK SMILES IDX 24 1 23 2 2 3 1 4 3 5 4 6 5 7 6 10 7 11 9 12 10 13 11 14
REMARK SMILES IDX 22 15 12 16 16 17 17 18 21 19 13 20 15 21 18 22 20 23 14 24
REMARK SMILES IDX 19 25 8 26 25 28 26 29 27 30 28 31 29 32 30 33 31 34 32 35
REMARK SMILES IDX 33 36 94 37 34 38 93 39 35 40 36 41 37 42 87 43 38 44 92 45
REMARK SMILES IDX 86 46 88 47 39 48 91 49 85 50 84 51 40 53 72 54 52 55 71 56
REMARK SMILES IDX 53 57 56 58 70 59 89 60 54 61 55 62 69 64 90 65 57 66 41 67
REMARK SMILES IDX 42 68 50 69 43 70 44 71 48 72 51 73 45 74 46 75 49 76 47 77
REMARK SMILES IDX 73 78 74 79 82 80 75 81 76 82 80 83 83 84 77 85 78 86 81 87
REMARK SMILES IDX 79 88 58 89 59 90 67 91 60 92 61 93 65 94 68 95 62 96 63 97
REMARK SMILES IDX 66 98 64 99
REMARK H PARENT 5 8 5 9 8 27 88 52 56 63
REMARK Flexibility Score: inf
ROOT
ATOM      1  C   UNL A   1      44.201  20.424  25.328  1.00  0.00     0.261 C 
ENDROOT
BRANCH   1   2
ATOM      2  O   UNL A   1      42.909  19.841  25.083  1.00  0.00    -0.463 OA
BRANCH   2   3
ATOM      3  C   UNL A   1      42.142  19.155  25.950  1.00  0.00     0.311 C 
ATOM      4  O   UNL A   1      42.639  18.298  26.675  1.00  0.00    -0.252 OA
BRANCH   3   5
ATOM      5  C   UNL A   1      40.722  19.607  26.127  1.00  0.00     0.184 C 
BRANCH   5   6
ATOM      6  C   UNL A   1      40.510  21.024  26.643  1.00  0.00     0.272 C 
BRANCH   6   7
ATOM      7  N   UNL A   1      39.587  21.894  25.936  1.00  0.00    -0.344 N 
ATOM      8  H   UNL A   1      40.103  22.290  25.150  1.00  0.00     0.346 HD
ATOM      9  H   UNL A   1      39.269  22.535  26.663  1.00  0.00     0.346 HD
BRANCH   7  10
ATOM     10  C   UNL A   1      38.339  21.359  25.394  1.00  0.00     0.294 C 
BRANCH  10  11
ATOM     11  C   UNL A   1      37.246  22.322  24.893  1.00  0.00     0.189 C 
BRANCH  11  12
ATOM     12  C   UNL A   1      36.035  22.281  25.826  1.00  0.00     0.160 C 
BRANCH  12  13
ATOM     13  N   UNL A   1      34.802  22.240  25.045  1.00  0.00    -0.338 N 
ATOM     14  C   UNL A   1      34.156  21.085  24.647  1.00  0.00     0.049 A 
ATOM     15  C   UNL A   1      34.186  23.355  24.513  1.00  0.00     0.049 A 
ATOM     16  C   UNL A   1      34.446  19.729  24.882  1.00  0.00     0.027 A 
ATOM     17  C   UNL A   1      33.071  21.483  23.862  1.00  0.00     0.007 A 
ATOM     18  C   UNL A   1      33.052  22.913  23.838  1.00  0.00     0.007 A 
ATOM     19  C   UNL A   1      34.528  24.717  24.582  1.00  0.00     0.027 A 
ATOM     20  C   UNL A   1      33.640  18.766  24.268  1.00  0.00     0.002 A 
ATOM     21  C   UNL A   1      32.264  20.489  23.269  1.00  0.00     0.011 A 
ATOM     22  C   UNL A   1      32.187  23.875  23.277  1.00  0.00     0.011 A 
ATOM     23  C   UNL A   1      33.646  25.651  24.044  1.00  0.00     0.002 A 
ATOM     24  C   UNL A   1      32.568  19.139  23.464  1.00  0.00     0.001 A 
ATOM     25  C   UNL A   1      32.482  25.238  23.409  1.00  0.00     0.001 A 
ENDBRANCH  12  13
ENDBRANCH  11  12
BRANCH  11  26
ATOM     26  O   UNL A   1      37.778  23.648  24.815  1.00  0.00    -0.385 OA
ATOM     27  H   UNL A   1      37.799  24.040  25.703  1.00  0.00     0.211 HD
ENDBRANCH  11  26
ENDBRANCH  10  11
ENDBRANCH   7  10
ENDBRANCH   6   7
ENDBRANCH   5   6
ENDBRANCH   3   5
ENDBRANCH   2   3
ENDBRANCH   1   2
BRANCH   1  28
ATOM     28  C   UNL A   1      44.564  21.804  24.782  1.00  0.00     0.202 C 
BRANCH  28  29
ATOM     29  O   UNL A   1      43.533  22.609  24.232  1.00  0.00    -0.374 OA
BRANCH  29  30
ATOM     30  C   UNL A   1      43.292  23.887  24.817  1.00  0.00     0.202 C 
BRANCH  30  31
ATOM     31  C   UNL A   1      43.340  23.912  26.347  1.00  0.00     0.261 C 
BRANCH  31  32
ATOM     32  O   UNL A   1      42.011  23.778  26.875  1.00  0.00    -0.460 OA
BRANCH  32  33
ATOM     33  C   UNL A   1      41.860  24.026  28.200  1.00  0.00     0.338 C 
ATOM     34  O   UNL A   1      42.047  23.253  29.126  1.00  0.00    -0.246 OA
BRANCH  33  35
ATOM     35  C   UNL A   1      41.801  25.498  28.337  1.00  0.00     0.060 A 
ATOM     36  C   UNL A   1      42.622  26.172  29.245  1.00  0.00     0.016 A 
ATOM     37  C   UNL A   1      40.698  26.143  27.754  1.00  0.00     0.016 A 
ATOM     38  C   UNL A   1      42.273  27.459  29.641  1.00  0.00     0.010 A 
ATOM     39  C   UNL A   1      40.335  27.419  28.174  1.00  0.00     0.010 A 
ATOM     40  C   UNL A   1      41.105  28.068  29.141  1.00  0.00    -0.014 A 
BRANCH  40  41
ATOM     41  C   UNL A   1      40.889  29.483  29.463  1.00  0.00     0.031 A 
ATOM     42  C   UNL A   1      42.005  30.339  28.970  1.00  0.00     0.074 A 
ATOM     43  C   UNL A   1      39.787  30.037  30.016  1.00  0.00     0.049 A 
ATOM     44  N   UNL A   1      42.788  31.099  29.660  1.00  0.00    -0.248 NA
ATOM     45  C   UNL A   1      42.378  30.223  27.549  1.00  0.00     0.031 C 
ATOM     46  C   UNL A   1      38.490  29.407  30.259  1.00  0.00     0.029 A 
ATOM     47  N   UNL A   1      39.567  31.336  30.399  1.00  0.00    -0.354 N 
ATOM     48  C   UNL A   1      43.667  31.672  28.744  1.00  0.00     0.074 A 
ATOM     49  C   UNL A   1      43.456  31.002  27.489  1.00  0.00     0.031 C 
ATOM     50  C   UNL A   1      37.574  30.361  30.558  1.00  0.00     0.029 A 
ATOM     51  C   UNL A   1      38.228  31.660  30.605  1.00  0.00     0.049 A 
ATOM     52  H   UNL A   1      40.296  31.986  30.520  1.00  0.00     0.167 HD
ATOM     53  C   UNL A   1      44.377  32.792  29.041  1.00  0.00     0.037 A 
ATOM     54  C   UNL A   1      37.678  32.902  30.719  1.00  0.00     0.037 A 
ATOM     55  C   UNL A   1      44.433  33.016  30.457  1.00  0.00     0.049 A 
ATOM     56  C   UNL A   1      38.761  33.884  30.992  1.00  0.00     0.074 A 
ATOM     57  C   UNL A   1      44.951  32.309  31.522  1.00  0.00     0.029 A 
ATOM     58  N   UNL A   1      43.587  33.951  30.996  1.00  0.00    -0.354 N 
ATOM     59  N   UNL A   1      39.380  34.003  32.129  1.00  0.00    -0.248 NA
ATOM     60  C   UNL A   1      39.466  34.439  29.846  1.00  0.00     0.031 C 
ATOM     61  C   UNL A   1      44.021  32.513  32.578  1.00  0.00     0.029 A 
ATOM     62  C   UNL A   1      43.043  33.396  32.123  1.00  0.00     0.049 A 
ATOM     63  H   UNL A   1      43.407  34.851  30.641  1.00  0.00     0.167 HD
ATOM     64  C   UNL A   1      40.713  34.162  31.783  1.00  0.00     0.074 A 
ATOM     65  C   UNL A   1      40.691  34.528  30.369  1.00  0.00     0.031 C 
ATOM     66  C   UNL A   1      41.716  33.705  32.594  1.00  0.00     0.037 A 
BRANCH  53  67
ATOM     67  C   UNL A   1      44.721  33.870  28.052  1.00  0.00     0.064 A 
ATOM     68  C   UNL A   1      46.073  34.213  27.856  1.00  0.00     0.173 A 
ATOM     69  C   UNL A   1      43.776  34.785  27.546  1.00  0.00     0.173 A 
ATOM     70  F   UNL A   1      47.054  33.422  28.317  1.00  0.00    -0.203 F 
ATOM     71  C   UNL A   1      46.447  35.426  27.274  1.00  0.00     0.198 A 
ATOM     72  C   UNL A   1      44.152  35.969  26.915  1.00  0.00     0.198 A 
ATOM     73  F   UNL A   1      42.461  34.631  27.744  1.00  0.00    -0.203 F 
ATOM     74  F   UNL A   1      47.740  35.773  27.231  1.00  0.00    -0.200 F 
ATOM     75  C   UNL A   1      45.485  36.305  26.811  1.00  0.00     0.200 A 
ATOM     76  F   UNL A   1      43.206  36.819  26.493  1.00  0.00    -0.200 F 
ATOM     77  F   UNL A   1      45.837  37.497  26.313  1.00  0.00    -0.200 F 
ENDBRANCH  53  67
BRANCH  54  78
ATOM     78  C   UNL A   1      36.323  33.358  30.307  1.00  0.00     0.064 A 
ATOM     79  C   UNL A   1      35.380  33.829  31.239  1.00  0.00     0.173 A 
ATOM     80  C   UNL A   1      36.035  33.612  28.952  1.00  0.00     0.173 A 
ATOM     81  F   UNL A   1      35.591  33.668  32.554  1.00  0.00    -0.203 F 
ATOM     82  C   UNL A   1      34.237  34.535  30.838  1.00  0.00     0.198 A 
ATOM     83  C   UNL A   1      34.893  34.310  28.553  1.00  0.00     0.198 A 
ATOM     84  F   UNL A   1      36.907  33.273  27.993  1.00  0.00    -0.203 F 
ATOM     85  F   UNL A   1      33.392  35.023  31.757  1.00  0.00    -0.200 F 
ATOM     86  C   UNL A   1      34.003  34.785  29.496  1.00  0.00     0.200 A 
ATOM     87  F   UNL A   1      34.700  34.576  27.254  1.00  0.00    -0.200 F 
ATOM     88  F   UNL A   1      32.948  35.521  29.115  1.00  0.00    -0.200 F 
ENDBRANCH  54  78
BRANCH  66  89
ATOM     89  C   UNL A   1      41.380  33.282  33.998  1.00  0.00     0.064 A 
ATOM     90  C   UNL A   1      40.738  32.083  34.330  1.00  0.00     0.173 A 
ATOM     91  C   UNL A   1      41.807  34.085  35.071  1.00  0.00     0.173 A 
ATOM     92  F   UNL A   1      40.464  31.145  33.411  1.00  0.00    -0.203 F 
ATOM     93  C   UNL A   1      40.398  31.794  35.644  1.00  0.00     0.198 A 
ATOM     94  C   UNL A   1      41.598  33.711  36.395  1.00  0.00     0.198 A 
ATOM     95  F   UNL A   1      42.463  35.235  34.839  1.00  0.00    -0.203 F 
ATOM     96  F   UNL A   1      39.593  30.754  35.878  1.00  0.00    -0.200 F 
ATOM     97  C   UNL A   1      40.859  32.581  36.683  1.00  0.00     0.200 A 
ATOM     98  F   UNL A   1      42.098  34.460  37.388  1.00  0.00    -0.200 F 
ATOM     99  F   UNL A   1      40.588  32.264  37.954  1.00  0.00    -0.200 F 
ENDBRANCH  66  89
ENDBRANCH  40  41
ENDBRANCH  33  35
ENDBRANCH  32  33
ENDBRANCH  31  32
ENDBRANCH  30  31
ENDBRANCH  29  30
ENDBRANCH  28  29
ENDBRANCH   1  28
TORSDOF 21
ENDMDL
MODEL 3
REMARK VINA RESULT:     -11.4      3.291      8.944
REMARK SMILES O=C(CC[NH2+]C[C@H](O)Cn1c2ccccc2c2ccccc21)OCCOCCOC(=O)c1ccc(-c2c3nc(c(-c4c(F)c(F)c(F)c(F)c4F)c4ccc([nH]4)c(-c4c(F)c(F)c(F)c(F)c4F)c4nc(c(-c5c(F)c(F)c(F)c(F)c5F)c5ccc2[nH]5)C=C4)C=C3)cc1
REMARK SMILES IDX 24 1 23 2 2 3 1 4 3 5 4 6 5 7 6 10 7 11 9 12 10 13 11 14
REMARK SMILES IDX 22 15 12 16 16 17 17 18 21 19 13 20 15 21 18 22 20 23 14 24
REMARK SMILES IDX 19 25 8 26 25 28 26 29 27 30 28 31 29 32 30 33 31 34 32 35
REMARK SMILES IDX 33 36 94 37 34 38 93 39 35 40 36 41 37 42 87 43 38 44 92 45
REMARK SMILES IDX 86 46 88 47 39 48 91 49 85 50 84 51 40 53 72 54 52 55 71 56
REMARK SMILES IDX 53 57 56 58 70 59 89 60 54 61 55 62 69 64 90 65 57 66 41 67
REMARK SMILES IDX 42 68 50 69 43 70 44 71 48 72 51 73 45 74 46 75 49 76 47 77
REMARK SMILES IDX 73 78 74 79 82 80 75 81 76 82 80 83 83 84 77 85 78 86 81 87
REMARK SMILES IDX 79 88 58 89 59 90 67 91 60 92 61 93 65 94 68 95 62 96 63 97
REMARK SMILES IDX 66 98 64 99
REMARK H PARENT 5 8 5 9 8 27 88 52 56 63
REMARK Flexibility Score: inf
ROOT
ATOM      1  C   UNL A   1      36.680  21.250  25.303  1.00  0.00     0.261 C 
ENDROOT
BRANCH   1   2
ATOM      2  O   UNL A   1      35.818  21.731  24.256  1.00  0.00    -0.463 OA
BRANCH   2   3
ATOM      3  C   UNL A   1      35.864  22.924  23.638  1.00  0.00     0.311 C 
ATOM      4  O   UNL A   1      36.666  23.122  22.729  1.00  0.00    -0.252 OA
BRANCH   3   5
ATOM      5  C   UNL A   1      34.789  23.919  23.968  1.00  0.00     0.184 C 
BRANCH   5   6
ATOM      6  C   UNL A   1      33.908  23.605  25.170  1.00  0.00     0.272 C 
BRANCH   6   7
ATOM      7  N   UNL A   1      32.904  22.564  25.047  1.00  0.00    -0.344 N 
ATOM      8  H   UNL A   1      33.191  21.807  25.669  1.00  0.00     0.346 HD
ATOM      9  H   UNL A   1      32.889  22.372  24.045  1.00  0.00     0.346 HD
BRANCH   7  10
ATOM     10  C   UNL A   1      31.503  22.851  25.353  1.00  0.00     0.294 C 
BRANCH  10  11
ATOM     11  C   UNL A   1      31.147  24.032  26.275  1.00  0.00     0.189 C 
BRANCH  11  12
ATOM     12  C   UNL A   1      30.410  25.116  25.485  1.00  0.00     0.160 C 
BRANCH  12  13
ATOM     13  N   UNL A   1      31.357  26.127  25.021  1.00  0.00    -0.338 N 
ATOM     14  C   UNL A   1      31.784  27.211  25.765  1.00  0.00     0.049 A 
ATOM     15  C   UNL A   1      31.860  26.183  23.737  1.00  0.00     0.049 A 
ATOM     16  C   UNL A   1      31.490  27.609  27.081  1.00  0.00     0.027 A 
ATOM     17  C   UNL A   1      32.616  27.964  24.933  1.00  0.00     0.007 A 
ATOM     18  C   UNL A   1      32.717  27.278  23.682  1.00  0.00     0.007 A 
ATOM     19  C   UNL A   1      31.639  25.352  22.625  1.00  0.00     0.027 A 
ATOM     20  C   UNL A   1      32.019  28.820  27.537  1.00  0.00     0.002 A 
ATOM     21  C   UNL A   1      33.150  29.173  25.425  1.00  0.00     0.011 A 
ATOM     22  C   UNL A   1      33.440  27.505  22.492  1.00  0.00     0.011 A 
ATOM     23  C   UNL A   1      32.383  25.580  21.469  1.00  0.00     0.002 A 
ATOM     24  C   UNL A   1      32.831  29.598  26.719  1.00  0.00     0.001 A 
ATOM     25  C   UNL A   1      33.283  26.636  21.406  1.00  0.00     0.001 A 
ENDBRANCH  12  13
ENDBRANCH  11  12
BRANCH  11  26
ATOM     26  O   UNL A   1      30.341  23.564  27.361  1.00  0.00    -0.385 OA
ATOM     27  H   UNL A   1      29.850  22.775  27.082  1.00  0.00     0.211 HD
ENDBRANCH  11  26
ENDBRANCH  10  11
ENDBRANCH   7  10
ENDBRANCH   6   7
ENDBRANCH   5   6
ENDBRANCH   3   5
ENDBRANCH   2   3
ENDBRANCH   1   2
BRANCH   1  28
ATOM     28  C   UNL A   1      38.127  20.853  25.020  1.00  0.00     0.202 C 
BRANCH  28  29
ATOM     29  O   UNL A   1      39.144  21.326  25.890  1.00  0.00    -0.374 OA
BRANCH  29  30
ATOM     30  C   UNL A   1      40.216  20.445  26.213  1.00  0.00     0.202 C 
BRANCH  30  31
ATOM     31  C   UNL A   1      41.190  20.979  27.267  1.00  0.00     0.261 C 
BRANCH  31  32
ATOM     32  O   UNL A   1      42.500  21.113  26.691  1.00  0.00    -0.460 OA
BRANCH  32  33
ATOM     33  C   UNL A   1      42.702  22.195  25.898  1.00  0.00     0.338 C 
ATOM     34  O   UNL A   1      42.868  22.209  24.689  1.00  0.00    -0.246 OA
BRANCH  33  35
ATOM     35  C   UNL A   1      42.305  23.372  26.703  1.00  0.00     0.060 A 
ATOM     36  C   UNL A   1      41.335  24.267  26.244  1.00  0.00     0.016 A 
ATOM     37  C   UNL A   1      43.142  23.713  27.778  1.00  0.00     0.016 A 
ATOM     38  C   UNL A   1      41.276  25.540  26.801  1.00  0.00     0.010 A 
ATOM     39  C   UNL A   1      43.101  24.998  28.313  1.00  0.00     0.010 A 
ATOM     40  C   UNL A   1      42.188  25.924  27.804  1.00  0.00    -0.014 A 
BRANCH  40  41
ATOM     41  C   UNL A   1      41.963  27.213  28.467  1.00  0.00     0.031 A 
ATOM     42  C   UNL A   1      43.049  28.188  28.163  1.00  0.00     0.074 A 
ATOM     43  C   UNL A   1      40.874  27.591  29.173  1.00  0.00     0.049 A 
ATOM     44  N   UNL A   1      43.845  28.776  28.992  1.00  0.00    -0.248 NA
ATOM     45  C   UNL A   1      43.372  28.428  26.745  1.00  0.00     0.031 C 
ATOM     46  C   UNL A   1      39.595  26.892  29.295  1.00  0.00     0.029 A 
ATOM     47  N   UNL A   1      40.649  28.753  29.867  1.00  0.00    -0.354 N 
ATOM     48  C   UNL A   1      44.682  29.573  28.216  1.00  0.00     0.074 A 
ATOM     49  C   UNL A   1      44.436  29.224  26.843  1.00  0.00     0.031 C 
ATOM     50  C   UNL A   1      38.677  27.723  29.845  1.00  0.00     0.029 A 
ATOM     51  C   UNL A   1      39.314  28.987  30.187  1.00  0.00     0.049 A 
ATOM     52  H   UNL A   1      41.373  29.370  30.120  1.00  0.00     0.167 HD
ATOM     53  C   UNL A   1      45.386  30.603  28.755  1.00  0.00     0.037 A 
ATOM     54  C   UNL A   1      38.750  30.151  30.617  1.00  0.00     0.037 A 
ATOM     55  C   UNL A   1      45.489  30.478  30.180  1.00  0.00     0.049 A 
ATOM     56  C   UNL A   1      39.828  31.062  31.087  1.00  0.00     0.074 A 
ATOM     57  C   UNL A   1      46.055  29.546  31.024  1.00  0.00     0.029 A 
ATOM     58  N   UNL A   1      44.650  31.235  30.957  1.00  0.00    -0.354 N 
ATOM     59  N   UNL A   1      40.486  30.915  32.199  1.00  0.00    -0.248 NA
ATOM     60  C   UNL A   1      40.484  31.894  30.089  1.00  0.00     0.031 C 
ATOM     61  C   UNL A   1      45.161  29.466  32.127  1.00  0.00     0.029 A 
ATOM     62  C   UNL A   1      44.154  30.411  31.931  1.00  0.00     0.049 A 
ATOM     63  H   UNL A   1      44.444  32.190  30.837  1.00  0.00     0.167 HD
ATOM     64  C   UNL A   1      41.803  31.184  31.861  1.00  0.00     0.074 A 
ATOM     65  C   UNL A   1      41.726  31.881  30.579  1.00  0.00     0.031 C 
ATOM     66  C   UNL A   1      42.841  30.566  32.504  1.00  0.00     0.037 A 
BRANCH  53  67
ATOM     67  C   UNL A   1      45.679  31.897  28.047  1.00  0.00     0.064 A 
ATOM     68  C   UNL A   1      44.608  32.667  27.554  1.00  0.00     0.173 A 
ATOM     69  C   UNL A   1      46.956  32.234  27.553  1.00  0.00     0.173 A 
ATOM     70  F   UNL A   1      43.348  32.415  27.943  1.00  0.00    -0.203 F 
ATOM     71  C   UNL A   1      44.794  33.644  26.574  1.00  0.00     0.198 A 
ATOM     72  C   UNL A   1      47.146  33.248  26.617  1.00  0.00     0.198 A 
ATOM     73  F   UNL A   1      48.049  31.525  27.863  1.00  0.00    -0.203 F 
ATOM     74  F   UNL A   1      43.732  34.257  26.036  1.00  0.00    -0.200 F 
ATOM     75  C   UNL A   1      46.063  33.928  26.102  1.00  0.00     0.200 A 
ATOM     76  F   UNL A   1      48.379  33.493  26.154  1.00  0.00    -0.200 F 
ATOM     77  F   UNL A   1      46.237  34.816  25.116  1.00  0.00    -0.200 F 
ENDBRANCH  53  67
BRANCH  54  78
ATOM     78  C   UNL A   1      37.375  30.663  30.371  1.00  0.00     0.064 A 
ATOM     79  C   UNL A   1      36.570  31.164  31.410  1.00  0.00     0.173 A 
ATOM     80  C   UNL A   1      36.938  30.937  29.061  1.00  0.00     0.173 A 
ATOM     81  F   UNL A   1      36.929  30.984  32.690  1.00  0.00    -0.203 F 
ATOM     82  C   UNL A   1      35.415  31.916  31.150  1.00  0.00     0.198 A 
ATOM     83  C   UNL A   1      35.785  31.683  28.803  1.00  0.00     0.198 A 
ATOM     84  F   UNL A   1      37.676  30.572  28.003  1.00  0.00    -0.203 F 
ATOM     85  F   UNL A   1      34.706  32.430  32.165  1.00  0.00    -0.200 F 
ATOM     86  C   UNL A   1      35.033  32.186  29.847  1.00  0.00     0.200 A 
ATOM     87  F   UNL A   1      35.450  31.966  27.537  1.00  0.00    -0.200 F 
ATOM     88  F   UNL A   1      33.971  32.965  29.596  1.00  0.00    -0.200 F 
ENDBRANCH  54  78
BRANCH  66  89
ATOM     89  C   UNL A   1      42.561  29.808  33.773  1.00  0.00     0.064 A 
ATOM     90  C   UNL A   1      42.604  30.370  35.054  1.00  0.00     0.173 A 
ATOM     91  C   UNL A   1      42.140  28.468  33.687  1.00  0.00     0.173 A 
ATOM     92  F   UNL A   1      42.794  31.683  35.250  1.00  0.00    -0.203 F 
ATOM     93  C   UNL A   1      42.403  29.589  36.185  1.00  0.00     0.198 A 
ATOM     94  C   UNL A   1      41.791  27.736  34.817  1.00  0.00     0.198 A 
ATOM     95  F   UNL A   1      42.037  27.866  32.490  1.00  0.00    -0.203 F 
ATOM     96  F   UNL A   1      42.677  30.119  37.380  1.00  0.00    -0.200 F 
ATOM     97  C   UNL A   1      41.957  28.285  36.073  1.00  0.00     0.200 A 
ATOM     98  F   UNL A   1      41.311  26.492  34.685  1.00  0.00    -0.200 F 
ATOM     99  F   UNL A   1      41.698  27.555  37.163  1.00  0.00    -0.200 F 
ENDBRANCH  66  89
ENDBRANCH  40  41
ENDBRANCH  33  35
ENDBRANCH  32  33
ENDBRANCH  31  32
ENDBRANCH  30  31
ENDBRANCH  29  30
ENDBRANCH  28  29
ENDBRANCH   1  28
TORSDOF 21
ENDMDL
