MODEL 1
REMARK VINA RESULT:     -13.8      0.000      0.000
REMARK SMILES COc1cc([C@H]2c3c(-c4ccccc4)n[nH]c3C(=O)N2c2ccc(C(=O)OCCOCCOC(=O)c3ccc(-c4c5nc(c(-c6c(F)c(F)c(F)c(F)c6F)c6ccc([nH]6)c(-c6c(F)c(F)c(F)c(F)c6F)c6nc(c(-c7c(F)c(F)c(F)c(F)c7F)c7ccc4[nH]7)C=C6)C=C5)cc3)cc2)ccc1O
REMARK SMILES IDX 29 1 28 2 27 3 25 4 26 5 24 6 21 7 22 8 100 9 23 10 99 11
REMARK SMILES IDX 20 12 6 13 7 14 8 15 17 16 18 17 15 18 16 19 19 20 5 22 3 23
REMARK SMILES IDX 4 24 103 25 102 26 101 27 2 28 1 29 104 30 9 32 10 33 14 34
REMARK SMILES IDX 11 35 13 36 12 37 30 38 31 39 32 40 33 41 34 42 35 43 36 44
REMARK SMILES IDX 37 45 98 46 38 47 97 48 39 49 40 50 41 51 91 52 42 53 96 54
REMARK SMILES IDX 90 55 92 56 43 57 95 58 89 59 88 60 44 62 76 63 56 64 75 65
REMARK SMILES IDX 57 66 60 67 74 68 93 69 58 70 59 71 73 73 94 74 61 75 45 76
REMARK SMILES IDX 46 77 54 78 47 79 48 80 52 81 55 82 49 83 50 84 53 85 51 86
REMARK SMILES IDX 77 87 78 88 86 89 79 90 80 91 84 92 87 93 81 94 82 95 85 96
REMARK SMILES IDX 83 97 62 98 63 99 71 100 64 101 65 102 69 103 72 104 66 105
REMARK SMILES IDX 67 106 70 107 68 108
REMARK H PARENT 16 21 104 31 92 61 60 72
REMARK Flexibility Score: inf
ROOT
ATOM      1  C   UNL A   1      41.896  18.980  26.078  1.00  0.00     0.202 C 
ENDROOT
BRANCH   1   2
ATOM      2  C   UNL A   1      41.026  19.986  26.836  1.00  0.00     0.261 C 
BRANCH   2   3
ATOM      3  O   UNL A   1      39.894  20.450  26.082  1.00  0.00    -0.460 OA
BRANCH   3   4
ATOM      4  C   UNL A   1      39.765  21.800  26.065  1.00  0.00     0.338 C 
ATOM      5  O   UNL A   1      40.665  22.622  26.037  1.00  0.00    -0.246 OA
BRANCH   4   6
ATOM      6  C   UNL A   1      38.349  22.191  25.920  1.00  0.00     0.060 A 
ATOM      7  C   UNL A   1      35.670  22.984  26.017  1.00  0.00     0.045 A 
ATOM      8  C   UNL A   1      36.683  23.932  26.178  1.00  0.00     0.027 A 
ATOM      9  C   UNL A   1      36.010  21.654  25.721  1.00  0.00     0.027 A 
ATOM     10  C   UNL A   1      38.018  23.529  26.168  1.00  0.00     0.018 A 
ATOM     11  C   UNL A   1      37.350  21.261  25.637  1.00  0.00     0.018 A 
BRANCH   7  12
ATOM     12  N   UNL A   1      34.327  23.351  26.225  1.00  0.00    -0.295 N 
ATOM     13  C   UNL A   1      33.735  24.558  25.576  1.00  0.00     0.156 C 
ATOM     14  C   UNL A   1      32.348  24.471  26.089  1.00  0.00     0.038 A 
ATOM     15  C   UNL A   1      31.080  25.075  26.058  1.00  0.00     0.099 A 
ATOM     16  C   UNL A   1      32.215  23.383  26.902  1.00  0.00     0.129 A 
ATOM     17  C   UNL A   1      33.401  22.618  26.990  1.00  0.00     0.277 C 
ATOM     18  N   UNL A   1      30.244  24.427  26.901  1.00  0.00    -0.174 NA
ATOM     19  N   UNL A   1      30.963  23.384  27.385  1.00  0.00    -0.272 N 
ATOM     20  O   UNL A   1      33.557  21.580  27.625  1.00  0.00    -0.267 OA
ATOM     21  H   UNL A   1      30.611  22.713  28.014  1.00  0.00     0.190 HD
BRANCH  13  22
ATOM     22  C   UNL A   1      33.655  24.492  24.063  1.00  0.00    -0.016 A 
ATOM     23  C   UNL A   1      33.487  25.729  21.936  1.00  0.00     0.160 A 
ATOM     24  C   UNL A   1      33.674  25.693  23.329  1.00  0.00     0.056 A 
ATOM     25  C   UNL A   1      33.285  24.523  21.266  1.00  0.00     0.157 A 
ATOM     26  C   UNL A   1      33.317  23.313  21.964  1.00  0.00     0.050 A 
ATOM     27  C   UNL A   1      33.503  23.293  23.349  1.00  0.00     0.010 A 
BRANCH  23  28
ATOM     28  O   UNL A   1      33.500  27.004  21.447  1.00  0.00    -0.493 OA
ATOM     29  C   UNL A   1      33.852  28.091  22.286  1.00  0.00     0.278 C 
ENDBRANCH  23  28
BRANCH  25  30
ATOM     30  O   UNL A   1      33.004  24.410  19.935  1.00  0.00    -0.504 OA
ATOM     31  H   UNL A   1      32.778  25.172  19.438  1.00  0.00     0.293 HD
ENDBRANCH  25  30
ENDBRANCH  13  22
BRANCH  15  32
ATOM     32  C   UNL A   1      30.631  26.207  25.261  1.00  0.00     0.002 A 
ATOM     33  C   UNL A   1      31.257  27.451  25.372  1.00  0.00     0.010 A 
ATOM     34  C   UNL A   1      29.542  26.066  24.392  1.00  0.00     0.010 A 
ATOM     35  C   UNL A   1      30.821  28.529  24.596  1.00  0.00     0.001 A 
ATOM     36  C   UNL A   1      29.113  27.138  23.608  1.00  0.00     0.001 A 
ATOM     37  C   UNL A   1      29.754  28.369  23.709  1.00  0.00     0.000 A 
ENDBRANCH  15  32
ENDBRANCH   7  12
ENDBRANCH   4   6
ENDBRANCH   3   4
ENDBRANCH   2   3
ENDBRANCH   1   2
BRANCH   1  38
ATOM     38  O   UNL A   1      42.812  19.450  25.092  1.00  0.00    -0.374 OA
BRANCH  38  39
ATOM     39  C   UNL A   1      44.106  18.871  24.971  1.00  0.00     0.202 C 
BRANCH  39  40
ATOM     40  C   UNL A   1      45.174  19.620  24.190  1.00  0.00     0.261 C 
BRANCH  40  41
ATOM     41  O   UNL A   1      44.695  20.852  23.680  1.00  0.00    -0.460 OA
BRANCH  41  42
ATOM     42  C   UNL A   1      45.311  21.934  24.205  1.00  0.00     0.338 C 
ATOM     43  O   UNL A   1      46.477  22.265  24.072  1.00  0.00    -0.246 OA
BRANCH  42  44
ATOM     44  C   UNL A   1      44.384  22.578  25.138  1.00  0.00     0.060 A 
ATOM     45  C   UNL A   1      43.501  23.493  24.565  1.00  0.00     0.016 A 
ATOM     46  C   UNL A   1      44.693  22.581  26.505  1.00  0.00     0.016 A 
ATOM     47  C   UNL A   1      43.171  24.604  25.302  1.00  0.00     0.010 A 
ATOM     48  C   UNL A   1      44.381  23.699  27.231  1.00  0.00     0.010 A 
ATOM     49  C   UNL A   1      43.720  24.737  26.581  1.00  0.00    -0.014 A 
BRANCH  49  50
ATOM     50  C   UNL A   1      43.468  25.958  27.306  1.00  0.00     0.031 A 
ATOM     51  C   UNL A   1      44.476  26.983  26.978  1.00  0.00     0.074 A 
ATOM     52  C   UNL A   1      42.388  26.121  28.091  1.00  0.00     0.049 A 
ATOM     53  N   UNL A   1      45.411  27.427  27.748  1.00  0.00    -0.248 NA
ATOM     54  C   UNL A   1      44.618  27.381  25.566  1.00  0.00     0.031 C 
ATOM     55  C   UNL A   1      41.245  25.226  28.279  1.00  0.00     0.029 A 
ATOM     56  N   UNL A   1      42.051  27.207  28.840  1.00  0.00    -0.354 N 
ATOM     57  C   UNL A   1      46.118  28.335  26.973  1.00  0.00     0.074 A 
ATOM     58  C   UNL A   1      45.748  28.085  25.609  1.00  0.00     0.031 C 
ATOM     59  C   UNL A   1      40.246  25.899  28.897  1.00  0.00     0.029 A 
ATOM     60  C   UNL A   1      40.722  27.222  29.258  1.00  0.00     0.049 A 
ATOM     61  H   UNL A   1      42.691  27.919  29.067  1.00  0.00     0.167 HD
ATOM     62  C   UNL A   1      46.693  29.421  27.555  1.00  0.00     0.037 A 
ATOM     63  C   UNL A   1      40.081  28.304  29.773  1.00  0.00     0.037 A 
ATOM     64  C   UNL A   1      46.868  29.210  28.971  1.00  0.00     0.049 A 
ATOM     65  C   UNL A   1      41.132  29.242  30.260  1.00  0.00     0.074 A 
ATOM     66  C   UNL A   1      47.561  28.284  29.729  1.00  0.00     0.029 A 
ATOM     67  N   UNL A   1      45.948  29.774  29.821  1.00  0.00    -0.354 N 
ATOM     68  N   UNL A   1      41.904  28.981  31.280  1.00  0.00    -0.248 NA
ATOM     69  C   UNL A   1      41.664  30.203  29.303  1.00  0.00     0.031 C 
ATOM     70  C   UNL A   1      46.712  28.002  30.839  1.00  0.00     0.029 A 
ATOM     71  C   UNL A   1      45.591  28.827  30.746  1.00  0.00     0.049 A 
ATOM     72  H   UNL A   1      45.605  30.696  29.773  1.00  0.00     0.167 HD
ATOM     73  C   UNL A   1      43.170  29.383  30.874  1.00  0.00     0.074 A 
ATOM     74  C   UNL A   1      42.951  30.178  29.667  1.00  0.00     0.031 C 
ATOM     75  C   UNL A   1      44.290  28.781  31.371  1.00  0.00     0.037 A 
BRANCH  62  76
ATOM     76  C   UNL A   1      46.670  30.795  26.931  1.00  0.00     0.064 A 
ATOM     77  C   UNL A   1      47.860  31.544  26.921  1.00  0.00     0.173 A 
ATOM     78  C   UNL A   1      45.493  31.522  26.631  1.00  0.00     0.173 A 
ATOM     79  F   UNL A   1      49.036  30.961  27.201  1.00  0.00    -0.203 F 
ATOM     80  C   UNL A   1      47.859  32.927  26.724  1.00  0.00     0.198 A 
ATOM     81  C   UNL A   1      45.503  32.890  26.382  1.00  0.00     0.198 A 
ATOM     82  F   UNL A   1      44.274  30.978  26.677  1.00  0.00    -0.203 F 
ATOM     83  F   UNL A   1      48.998  33.618  26.860  1.00  0.00    -0.200 F 
ATOM     84  C   UNL A   1      46.679  33.600  26.464  1.00  0.00     0.200 A 
ATOM     85  F   UNL A   1      44.344  33.522  26.149  1.00  0.00    -0.200 F 
ATOM     86  F   UNL A   1      46.665  34.933  26.342  1.00  0.00    -0.200 F 
ENDBRANCH  62  76
BRANCH  63  87
ATOM     87  C   UNL A   1      38.680  28.737  29.543  1.00  0.00     0.064 A 
ATOM     88  C   UNL A   1      37.834  29.077  30.614  1.00  0.00     0.173 A 
ATOM     89  C   UNL A   1      38.230  29.103  28.258  1.00  0.00     0.173 A 
ATOM     90  F   UNL A   1      38.206  28.816  31.875  1.00  0.00    -0.203 F 
ATOM     91  C   UNL A   1      36.626  29.756  30.411  1.00  0.00     0.198 A 
ATOM     92  C   UNL A   1      37.024  29.776  28.058  1.00  0.00     0.198 A 
ATOM     93  F   UNL A   1      38.998  28.903  27.178  1.00  0.00    -0.203 F 
ATOM     94  F   UNL A   1      35.875  30.117  31.463  1.00  0.00    -0.200 F 
ATOM     95  C   UNL A   1      36.227  30.114  29.134  1.00  0.00     0.200 A 
ATOM     96  F   UNL A   1      36.672  30.152  26.819  1.00  0.00    -0.200 F 
ATOM     97  F   UNL A   1      35.103  30.819  28.945  1.00  0.00    -0.200 F 
ENDBRANCH  63  87
BRANCH  75  98
ATOM     98  C   UNL A   1      44.122  27.838  32.531  1.00  0.00     0.064 A 
ATOM     99  C   UNL A   1      44.042  26.439  32.408  1.00  0.00     0.173 A 
ATOM    100  C   UNL A   1      44.181  28.366  33.827  1.00  0.00     0.173 A 
ATOM    101  F   UNL A   1      44.089  25.850  31.207  1.00  0.00    -0.203 F 
ATOM    102  C   UNL A   1      43.970  25.616  33.532  1.00  0.00     0.198 A 
ATOM    103  C   UNL A   1      44.148  27.540  34.946  1.00  0.00     0.198 A 
ATOM    104  F   UNL A   1      44.318  29.689  34.007  1.00  0.00    -0.203 F 
ATOM    105  F   UNL A   1      43.877  24.285  33.386  1.00  0.00    -0.200 F 
ATOM    106  C   UNL A   1      44.029  26.167  34.800  1.00  0.00     0.200 A 
ATOM    107  F   UNL A   1      44.259  28.076  36.170  1.00  0.00    -0.200 F 
ATOM    108  F   UNL A   1      43.998  25.376  35.881  1.00  0.00    -0.200 F 
ENDBRANCH  75  98
ENDBRANCH  49  50
ENDBRANCH  42  44
ENDBRANCH  41  42
ENDBRANCH  40  41
ENDBRANCH  39  40
ENDBRANCH  38  39
ENDBRANCH   1  38
TORSDOF 19
ENDMDL
MODEL 2
REMARK VINA RESULT:     -13.1      2.048      2.660
REMARK SMILES COc1cc([C@H]2c3c(-c4ccccc4)n[nH]c3C(=O)N2c2ccc(C(=O)OCCOCCOC(=O)c3ccc(-c4c5nc(c(-c6c(F)c(F)c(F)c(F)c6F)c6ccc([nH]6)c(-c6c(F)c(F)c(F)c(F)c6F)c6nc(c(-c7c(F)c(F)c(F)c(F)c7F)c7ccc4[nH]7)C=C6)C=C5)cc3)cc2)ccc1O
REMARK SMILES IDX 29 1 28 2 27 3 25 4 26 5 24 6 21 7 22 8 100 9 23 10 99 11
REMARK SMILES IDX 20 12 6 13 7 14 8 15 17 16 18 17 15 18 16 19 19 20 5 22 3 23
REMARK SMILES IDX 4 24 103 25 102 26 101 27 2 28 1 29 104 30 9 32 10 33 14 34
REMARK SMILES IDX 11 35 13 36 12 37 30 38 31 39 32 40 33 41 34 42 35 43 36 44
REMARK SMILES IDX 37 45 98 46 38 47 97 48 39 49 40 50 41 51 91 52 42 53 96 54
REMARK SMILES IDX 90 55 92 56 43 57 95 58 89 59 88 60 44 62 76 63 56 64 75 65
REMARK SMILES IDX 57 66 60 67 74 68 93 69 58 70 59 71 73 73 94 74 61 75 45 76
REMARK SMILES IDX 46 77 54 78 47 79 48 80 52 81 55 82 49 83 50 84 53 85 51 86
REMARK SMILES IDX 77 87 78 88 86 89 79 90 80 91 84 92 87 93 81 94 82 95 85 96
REMARK SMILES IDX 83 97 62 98 63 99 71 100 64 101 65 102 69 103 72 104 66 105
REMARK SMILES IDX 67 106 70 107 68 108
REMARK H PARENT 16 21 104 31 92 61 60 72
REMARK Flexibility Score: inf
ROOT
ATOM      1  C   UNL A   1      41.928  21.076  26.593  1.00  0.00     0.202 C 
ENDROOT
BRANCH   1   2
ATOM      2  C   UNL A   1      40.492  20.570  26.756  1.00  0.00     0.261 C 
BRANCH   2   3
ATOM      3  O   UNL A   1      39.520  21.366  26.059  1.00  0.00    -0.460 OA
BRANCH   3   4
ATOM      4  C   UNL A   1      38.578  20.635  25.413  1.00  0.00     0.338 C 
ATOM      5  O   UNL A   1      38.672  19.474  25.049  1.00  0.00    -0.246 OA
BRANCH   4   6
ATOM      6  C   UNL A   1      37.304  21.377  25.326  1.00  0.00     0.060 A 
ATOM      7  C   UNL A   1      34.903  22.791  25.537  1.00  0.00     0.045 A 
ATOM      8  C   UNL A   1      36.115  23.437  25.788  1.00  0.00     0.027 A 
ATOM      9  C   UNL A   1      34.909  21.458  25.096  1.00  0.00     0.027 A 
ATOM     10  C   UNL A   1      37.309  22.721  25.720  1.00  0.00     0.018 A 
ATOM     11  C   UNL A   1      36.112  20.757  24.956  1.00  0.00     0.018 A 
BRANCH   7  12
ATOM     12  N   UNL A   1      33.688  23.453  25.798  1.00  0.00    -0.295 N 
ATOM     13  C   UNL A   1      33.444  24.852  25.336  1.00  0.00     0.156 C 
ATOM     14  C   UNL A   1      32.062  25.048  25.830  1.00  0.00     0.038 A 
ATOM     15  C   UNL A   1      30.988  25.952  25.890  1.00  0.00     0.099 A 
ATOM     16  C   UNL A   1      31.628  23.923  26.471  1.00  0.00     0.129 A 
ATOM     17  C   UNL A   1      32.579  22.878  26.444  1.00  0.00     0.277 C 
ATOM     18  N   UNL A   1      29.984  25.423  26.627  1.00  0.00    -0.174 NA
ATOM     19  N   UNL A   1      30.399  24.173  26.950  1.00  0.00    -0.272 N 
ATOM     20  O   UNL A   1      32.444  21.753  26.916  1.00  0.00    -0.267 OA
ATOM     21  H   UNL A   1      29.866  23.530  27.471  1.00  0.00     0.190 HD
BRANCH  13  22
ATOM     22  C   UNL A   1      33.408  25.028  23.830  1.00  0.00    -0.016 A 
ATOM     23  C   UNL A   1      33.584  26.572  21.915  1.00  0.00     0.160 A 
ATOM     24  C   UNL A   1      33.708  26.292  23.287  1.00  0.00     0.056 A 
ATOM     25  C   UNL A   1      33.156  25.549  21.069  1.00  0.00     0.157 A 
ATOM     26  C   UNL A   1      32.904  24.271  21.575  1.00  0.00     0.050 A 
ATOM     27  C   UNL A   1      33.031  24.008  22.942  1.00  0.00     0.010 A 
BRANCH  23  28
ATOM     28  O   UNL A   1      33.885  27.871  21.625  1.00  0.00    -0.493 OA
ATOM     29  C   UNL A   1      34.026  28.824  22.664  1.00  0.00     0.278 C 
ENDBRANCH  23  28
BRANCH  25  30
ATOM     30  O   UNL A   1      32.906  25.696  19.735  1.00  0.00    -0.504 OA
ATOM     31  H   UNL A   1      32.069  25.456  19.386  1.00  0.00     0.293 HD
ENDBRANCH  25  30
ENDBRANCH  13  22
BRANCH  15  32
ATOM     32  C   UNL A   1      30.868  27.264  25.272  1.00  0.00     0.002 A 
ATOM     33  C   UNL A   1      31.487  28.380  25.841  1.00  0.00     0.010 A 
ATOM     34  C   UNL A   1      30.104  27.426  24.109  1.00  0.00     0.010 A 
ATOM     35  C   UNL A   1      31.370  29.634  25.234  1.00  0.00     0.001 A 
ATOM     36  C   UNL A   1      29.997  28.675  23.495  1.00  0.00     0.001 A 
ATOM     37  C   UNL A   1      30.633  29.779  24.058  1.00  0.00     0.000 A 
ENDBRANCH  15  32
ENDBRANCH   7  12
ENDBRANCH   4   6
ENDBRANCH   3   4
ENDBRANCH   2   3
ENDBRANCH   1   2
BRANCH   1  38
ATOM     38  O   UNL A   1      42.682  20.685  25.448  1.00  0.00    -0.374 OA
BRANCH  38  39
ATOM     39  C   UNL A   1      44.034  21.100  25.295  1.00  0.00     0.202 C 
BRANCH  39  40
ATOM     40  C   UNL A   1      44.321  22.414  24.586  1.00  0.00     0.261 C 
BRANCH  40  41
ATOM     41  O   UNL A   1      43.287  23.362  24.781  1.00  0.00    -0.460 OA
BRANCH  41  42
ATOM     42  C   UNL A   1      43.736  24.602  25.075  1.00  0.00     0.338 C 
ATOM     43  O   UNL A   1      44.760  25.136  24.686  1.00  0.00    -0.246 OA
BRANCH  42  44
ATOM     44  C   UNL A   1      42.867  25.168  26.110  1.00  0.00     0.060 A 
ATOM     45  C   UNL A   1      41.856  26.011  25.645  1.00  0.00     0.016 A 
ATOM     46  C   UNL A   1      43.321  25.193  27.435  1.00  0.00     0.016 A 
ATOM     47  C   UNL A   1      41.521  27.089  26.425  1.00  0.00     0.010 A 
ATOM     48  C   UNL A   1      43.001  26.281  28.203  1.00  0.00     0.010 A 
ATOM     49  C   UNL A   1      42.193  27.263  27.639  1.00  0.00    -0.014 A 
BRANCH  49  50
ATOM     50  C   UNL A   1      41.925  28.458  28.400  1.00  0.00     0.031 A 
ATOM     51  C   UNL A   1      42.984  29.464  28.193  1.00  0.00     0.074 A 
ATOM     52  C   UNL A   1      40.796  28.622  29.113  1.00  0.00     0.049 A 
ATOM     53  N   UNL A   1      43.872  29.843  29.048  1.00  0.00    -0.248 NA
ATOM     54  C   UNL A   1      43.240  29.919  26.815  1.00  0.00     0.031 C 
ATOM     55  C   UNL A   1      39.616  27.757  29.176  1.00  0.00     0.029 A 
ATOM     56  N   UNL A   1      40.437  29.684  29.886  1.00  0.00    -0.354 N 
ATOM     57  C   UNL A   1      44.661  30.760  28.369  1.00  0.00     0.074 A 
ATOM     58  C   UNL A   1      44.384  30.584  26.972  1.00  0.00     0.031 C 
ATOM     59  C   UNL A   1      38.594  28.435  29.752  1.00  0.00     0.029 A 
ATOM     60  C   UNL A   1      39.082  29.724  30.207  1.00  0.00     0.049 A 
ATOM     61  H   UNL A   1      41.079  30.365  30.191  1.00  0.00     0.167 HD
ATOM     62  C   UNL A   1      45.223  31.800  29.040  1.00  0.00     0.037 A 
ATOM     63  C   UNL A   1      38.437  30.802  30.725  1.00  0.00     0.037 A 
ATOM     64  C   UNL A   1      45.288  31.521  30.454  1.00  0.00     0.049 A 
ATOM     65  C   UNL A   1      39.476  31.683  31.329  1.00  0.00     0.074 A 
ATOM     66  C   UNL A   1      45.896  30.540  31.216  1.00  0.00     0.029 A 
ATOM     67  N   UNL A   1      44.325  32.077  31.262  1.00  0.00    -0.354 N 
ATOM     68  N   UNL A   1      40.163  31.352  32.388  1.00  0.00    -0.248 NA
ATOM     69  C   UNL A   1      40.105  32.668  30.459  1.00  0.00     0.031 C 
ATOM     70  C   UNL A   1      44.960  30.237  32.248  1.00  0.00     0.029 A 
ATOM     71  C   UNL A   1      43.874  31.102  32.114  1.00  0.00     0.049 A 
ATOM     72  H   UNL A   1      44.013  33.011  31.232  1.00  0.00     0.167 HD
ATOM     73  C   UNL A   1      41.467  31.730  32.093  1.00  0.00     0.074 A 
ATOM     74  C   UNL A   1      41.360  32.585  30.912  1.00  0.00     0.031 C 
ATOM     75  C   UNL A   1      42.530  31.071  32.641  1.00  0.00     0.037 A 
BRANCH  62  76
ATOM     76  C   UNL A   1      45.286  33.201  28.482  1.00  0.00     0.064 A 
ATOM     77  C   UNL A   1      46.535  33.845  28.431  1.00  0.00     0.173 A 
ATOM     78  C   UNL A   1      44.163  34.040  28.287  1.00  0.00     0.173 A 
ATOM     79  F   UNL A   1      47.669  33.150  28.613  1.00  0.00    -0.203 F 
ATOM     80  C   UNL A   1      46.645  35.231  28.297  1.00  0.00     0.198 A 
ATOM     81  C   UNL A   1      44.279  35.413  28.099  1.00  0.00     0.198 A 
ATOM     82  F   UNL A   1      42.904  33.600  28.383  1.00  0.00    -0.203 F 
ATOM     83  F   UNL A   1      47.847  35.814  28.394  1.00  0.00    -0.200 F 
ATOM     84  C   UNL A   1      45.516  36.014  28.141  1.00  0.00     0.200 A 
ATOM     85  F   UNL A   1      43.169  36.152  27.966  1.00  0.00    -0.200 F 
ATOM     86  F   UNL A   1      45.613  37.348  28.080  1.00  0.00    -0.200 F 
ENDBRANCH  62  76
BRANCH  63  87
ATOM     87  C   UNL A   1      37.069  31.291  30.415  1.00  0.00     0.064 A 
ATOM     88  C   UNL A   1      36.167  31.636  31.437  1.00  0.00     0.173 A 
ATOM     89  C   UNL A   1      36.718  31.701  29.113  1.00  0.00     0.173 A 
ATOM     90  F   UNL A   1      36.447  31.333  32.713  1.00  0.00    -0.203 F 
ATOM     91  C   UNL A   1      34.999  32.363  31.174  1.00  0.00     0.198 A 
ATOM     92  C   UNL A   1      35.551  32.422  28.852  1.00  0.00     0.198 A 
ATOM     93  F   UNL A   1      37.548  31.499  28.081  1.00  0.00    -0.203 F 
ATOM     94  F   UNL A   1      34.194  32.726  32.184  1.00  0.00    -0.200 F 
ATOM     95  C   UNL A   1      34.697  32.764  29.883  1.00  0.00     0.200 A 
ATOM     96  F   UNL A   1      35.294  32.839  27.603  1.00  0.00    -0.200 F 
ATOM     97  F   UNL A   1      33.614  33.513  29.639  1.00  0.00    -0.200 F 
ENDBRANCH  63  87
BRANCH  75  98
ATOM     98  C   UNL A   1      42.250  30.083  33.740  1.00  0.00     0.064 A 
ATOM     99  C   UNL A   1      41.893  28.740  33.525  1.00  0.00     0.173 A 
ATOM    100  C   UNL A   1      42.486  30.480  35.063  1.00  0.00     0.173 A 
ATOM    101  F   UNL A   1      41.755  28.254  32.286  1.00  0.00    -0.203 F 
ATOM    102  C   UNL A   1      41.729  27.854  34.591  1.00  0.00     0.198 A 
ATOM    103  C   UNL A   1      42.358  29.586  36.120  1.00  0.00     0.198 A 
ATOM    104  F   UNL A   1      42.887  31.734  35.325  1.00  0.00    -0.203 F 
ATOM    105  F   UNL A   1      41.371  26.582  34.359  1.00  0.00    -0.200 F 
ATOM    106  C   UNL A   1      41.967  28.277  35.887  1.00  0.00     0.200 A 
ATOM    107  F   UNL A   1      42.642  29.987  37.368  1.00  0.00    -0.200 F 
ATOM    108  F   UNL A   1      41.846  27.419  36.909  1.00  0.00    -0.200 F 
ENDBRANCH  75  98
ENDBRANCH  49  50
ENDBRANCH  42  44
ENDBRANCH  41  42
ENDBRANCH  40  41
ENDBRANCH  39  40
ENDBRANCH  38  39
ENDBRANCH   1  38
TORSDOF 19
ENDMDL
MODEL 3
REMARK VINA RESULT:     -12.8      4.352      9.930
REMARK SMILES COc1cc([C@H]2c3c(-c4ccccc4)n[nH]c3C(=O)N2c2ccc(C(=O)OCCOCCOC(=O)c3ccc(-c4c5nc(c(-c6c(F)c(F)c(F)c(F)c6F)c6ccc([nH]6)c(-c6c(F)c(F)c(F)c(F)c6F)c6nc(c(-c7c(F)c(F)c(F)c(F)c7F)c7ccc4[nH]7)C=C6)C=C5)cc3)cc2)ccc1O
REMARK SMILES IDX 29 1 28 2 27 3 25 4 26 5 24 6 21 7 22 8 100 9 23 10 99 11
REMARK SMILES IDX 20 12 6 13 7 14 8 15 17 16 18 17 15 18 16 19 19 20 5 22 3 23
REMARK SMILES IDX 4 24 103 25 102 26 101 27 2 28 1 29 104 30 9 32 10 33 14 34
REMARK SMILES IDX 11 35 13 36 12 37 30 38 31 39 32 40 33 41 34 42 35 43 36 44
REMARK SMILES IDX 37 45 98 46 38 47 97 48 39 49 40 50 41 51 91 52 42 53 96 54
REMARK SMILES IDX 90 55 92 56 43 57 95 58 89 59 88 60 44 62 76 63 56 64 75 65
REMARK SMILES IDX 57 66 60 67 74 68 93 69 58 70 59 71 73 73 94 74 61 75 45 76
REMARK SMILES IDX 46 77 54 78 47 79 48 80 52 81 55 82 49 83 50 84 53 85 51 86
REMARK SMILES IDX 77 87 78 88 86 89 79 90 80 91 84 92 87 93 81 94 82 95 85 96
REMARK SMILES IDX 83 97 62 98 63 99 71 100 64 101 65 102 69 103 72 104 66 105
REMARK SMILES IDX 67 106 70 107 68 108
REMARK H PARENT 16 21 104 31 92 61 60 72
REMARK Flexibility Score: inf
ROOT
ATOM      1  C   UNL A   1      33.710  35.205  29.179  1.00  0.00     0.202 C 
ENDROOT
BRANCH   1   2
ATOM      2  C   UNL A   1      33.110  34.050  28.371  1.00  0.00     0.261 C 
BRANCH   2   3
ATOM      3  O   UNL A   1      34.097  33.177  27.796  1.00  0.00    -0.460 OA
BRANCH   3   4
ATOM      4  C   UNL A   1      34.229  31.996  28.450  1.00  0.00     0.338 C 
ATOM      5  O   UNL A   1      34.429  31.836  29.643  1.00  0.00    -0.246 OA
BRANCH   4   6
ATOM      6  C   UNL A   1      33.937  30.862  27.551  1.00  0.00     0.060 A 
ATOM      7  C   UNL A   1      33.660  28.850  25.631  1.00  0.00     0.045 A 
ATOM      8  C   UNL A   1      34.757  28.841  26.495  1.00  0.00     0.027 A 
ATOM      9  C   UNL A   1      32.661  29.823  25.794  1.00  0.00     0.027 A 
ATOM     10  C   UNL A   1      34.914  29.866  27.426  1.00  0.00     0.018 A 
ATOM     11  C   UNL A   1      32.779  30.811  26.777  1.00  0.00     0.018 A 
BRANCH   7  12
ATOM     12  N   UNL A   1      33.601  27.934  24.563  1.00  0.00    -0.295 N 
ATOM     13  C   UNL A   1      33.620  26.459  24.794  1.00  0.00     0.156 C 
ATOM     14  C   UNL A   1      33.515  25.980  23.397  1.00  0.00     0.038 A 
ATOM     15  C   UNL A   1      33.436  24.835  22.586  1.00  0.00     0.099 A 
ATOM     16  C   UNL A   1      33.457  27.040  22.538  1.00  0.00     0.129 A 
ATOM     17  C   UNL A   1      33.459  28.285  23.208  1.00  0.00     0.277 C 
ATOM     18  N   UNL A   1      33.431  25.197  21.282  1.00  0.00    -0.174 NA
ATOM     19  N   UNL A   1      33.423  26.553  21.288  1.00  0.00    -0.272 N 
ATOM     20  O   UNL A   1      33.388  29.395  22.690  1.00  0.00    -0.267 OA
ATOM     21  H   UNL A   1      33.398  27.111  20.478  1.00  0.00     0.190 HD
BRANCH  13  22
ATOM     22  C   UNL A   1      32.418  25.917  25.543  1.00  0.00    -0.016 A 
ATOM     23  C   UNL A   1      31.467  24.089  26.899  1.00  0.00     0.160 A 
ATOM     24  C   UNL A   1      32.556  24.722  26.275  1.00  0.00     0.056 A 
ATOM     25  C   UNL A   1      30.209  24.681  26.790  1.00  0.00     0.157 A 
ATOM     26  C   UNL A   1      30.055  25.895  26.115  1.00  0.00     0.050 A 
ATOM     27  C   UNL A   1      31.147  26.513  25.499  1.00  0.00     0.010 A 
BRANCH  23  28
ATOM     28  O   UNL A   1      31.829  22.924  27.511  1.00  0.00    -0.493 OA
ATOM     29  C   UNL A   1      33.197  22.625  27.731  1.00  0.00     0.278 C 
ENDBRANCH  23  28
BRANCH  25  30
ATOM     30  O   UNL A   1      29.050  24.140  27.266  1.00  0.00    -0.504 OA
ATOM     31  H   UNL A   1      28.517  24.627  27.864  1.00  0.00     0.293 HD
ENDBRANCH  25  30
ENDBRANCH  13  22
BRANCH  15  32
ATOM     32  C   UNL A   1      33.346  23.440  22.988  1.00  0.00     0.002 A 
ATOM     33  C   UNL A   1      34.364  22.847  23.741  1.00  0.00     0.010 A 
ATOM     34  C   UNL A   1      32.246  22.665  22.599  1.00  0.00     0.010 A 
ATOM     35  C   UNL A   1      34.263  21.507  24.127  1.00  0.00     0.001 A 
ATOM     36  C   UNL A   1      32.138  21.331  22.994  1.00  0.00     0.001 A 
ATOM     37  C   UNL A   1      33.147  20.753  23.761  1.00  0.00     0.000 A 
ENDBRANCH  15  32
ENDBRANCH   7  12
ENDBRANCH   4   6
ENDBRANCH   3   4
ENDBRANCH   2   3
ENDBRANCH   1   2
BRANCH   1  38
ATOM     38  O   UNL A   1      32.851  36.224  29.685  1.00  0.00    -0.374 OA
BRANCH  38  39
ATOM     39  C   UNL A   1      33.172  36.908  30.890  1.00  0.00     0.202 C 
BRANCH  39  40
ATOM     40  C   UNL A   1      32.699  36.324  32.212  1.00  0.00     0.261 C 
BRANCH  40  41
ATOM     41  O   UNL A   1      33.780  35.905  33.027  1.00  0.00    -0.460 OA
BRANCH  41  42
ATOM     42  C   UNL A   1      33.925  34.563  33.091  1.00  0.00     0.338 C 
ATOM     43  O   UNL A   1      33.054  33.715  32.997  1.00  0.00    -0.246 OA
BRANCH  42  44
ATOM     44  C   UNL A   1      35.306  34.272  33.483  1.00  0.00     0.060 A 
ATOM     45  C   UNL A   1      36.285  35.002  32.807  1.00  0.00     0.016 A 
ATOM     46  C   UNL A   1      35.582  33.065  34.140  1.00  0.00     0.016 A 
ATOM     47  C   UNL A   1      37.467  34.365  32.524  1.00  0.00     0.010 A 
ATOM     48  C   UNL A   1      36.754  32.424  33.838  1.00  0.00     0.010 A 
ATOM     49  C   UNL A   1      37.626  33.042  32.947  1.00  0.00    -0.014 A 
BRANCH  49  50
ATOM     50  C   UNL A   1      38.819  32.338  32.547  1.00  0.00     0.031 A 
ATOM     51  C   UNL A   1      39.719  32.131  33.697  1.00  0.00     0.074 A 
ATOM     52  C   UNL A   1      38.996  31.870  31.298  1.00  0.00     0.049 A 
ATOM     53  N   UNL A   1      40.855  32.706  33.907  1.00  0.00    -0.248 NA
ATOM     54  C   UNL A   1      39.193  31.392  34.858  1.00  0.00     0.031 C 
ATOM     55  C   UNL A   1      38.049  31.850  30.182  1.00  0.00     0.029 A 
ATOM     56  N   UNL A   1      40.077  31.215  30.793  1.00  0.00    -0.354 N 
ATOM     57  C   UNL A   1      41.287  32.219  35.132  1.00  0.00     0.074 A 
ATOM     58  C   UNL A   1      40.142  31.625  35.764  1.00  0.00     0.031 C 
ATOM     59  C   UNL A   1      38.510  31.017  29.218  1.00  0.00     0.029 A 
ATOM     60  C   UNL A   1      39.832  30.549  29.593  1.00  0.00     0.049 A 
ATOM     61  H   UNL A   1      40.956  31.212  31.236  1.00  0.00     0.167 HD
ATOM     62  C   UNL A   1      42.616  32.059  35.369  1.00  0.00     0.037 A 
ATOM     63  C   UNL A   1      40.651  29.618  29.039  1.00  0.00     0.037 A 
ATOM     64  C   UNL A   1      43.397  32.868  34.464  1.00  0.00     0.049 A 
ATOM     65  C   UNL A   1      42.003  29.817  29.635  1.00  0.00     0.074 A 
ATOM     66  C   UNL A   1      43.478  34.224  34.210  1.00  0.00     0.029 A 
ATOM     67  N   UNL A   1      43.953  32.249  33.370  1.00  0.00    -0.354 N 
ATOM     68  N   UNL A   1      42.737  30.871  29.404  1.00  0.00    -0.248 NA
ATOM     69  C   UNL A   1      42.295  29.113  30.878  1.00  0.00     0.031 C 
ATOM     70  C   UNL A   1      43.631  34.330  32.796  1.00  0.00     0.029 A 
ATOM     71  C   UNL A   1      43.720  33.039  32.275  1.00  0.00     0.049 A 
ATOM     72  H   UNL A   1      44.433  31.390  33.374  1.00  0.00     0.167 HD
ATOM     73  C   UNL A   1      43.255  31.218  30.645  1.00  0.00     0.074 A 
ATOM     74  C   UNL A   1      42.991  30.066  31.506  1.00  0.00     0.031 C 
ATOM     75  C   UNL A   1      43.568  32.514  30.938  1.00  0.00     0.037 A 
BRANCH  62  76
ATOM     76  C   UNL A   1      43.184  30.863  36.091  1.00  0.00     0.064 A 
ATOM     77  C   UNL A   1      44.104  31.085  37.132  1.00  0.00     0.173 A 
ATOM     78  C   UNL A   1      43.113  29.531  35.619  1.00  0.00     0.173 A 
ATOM     79  F   UNL A   1      44.264  32.312  37.651  1.00  0.00    -0.203 F 
ATOM     80  C   UNL A   1      44.953  30.076  37.592  1.00  0.00     0.198 A 
ATOM     81  C   UNL A   1      43.922  28.516  36.119  1.00  0.00     0.198 A 
ATOM     82  F   UNL A   1      42.350  29.168  34.583  1.00  0.00    -0.203 F 
ATOM     83  F   UNL A   1      45.907  30.368  38.487  1.00  0.00    -0.200 F 
ATOM     84  C   UNL A   1      44.868  28.795  37.079  1.00  0.00     0.200 A 
ATOM     85  F   UNL A   1      43.832  27.286  35.592  1.00  0.00    -0.200 F 
ATOM     86  F   UNL A   1      45.725  27.843  37.469  1.00  0.00    -0.200 F 
ENDBRANCH  62  76
BRANCH  63  87
ATOM     87  C   UNL A   1      40.276  28.368  28.331  1.00  0.00     0.064 A 
ATOM     88  C   UNL A   1      40.786  28.069  27.055  1.00  0.00     0.173 A 
ATOM     89  C   UNL A   1      39.639  27.309  29.008  1.00  0.00     0.173 A 
ATOM     90  F   UNL A   1      41.454  29.001  26.361  1.00  0.00    -0.203 F 
ATOM     91  C   UNL A   1      40.681  26.786  26.502  1.00  0.00     0.198 A 
ATOM     92  C   UNL A   1      39.532  26.032  28.454  1.00  0.00     0.198 A 
ATOM     93  F   UNL A   1      39.195  27.463  30.264  1.00  0.00    -0.203 F 
ATOM     94  F   UNL A   1      41.233  26.524  25.308  1.00  0.00    -0.200 F 
ATOM     95  C   UNL A   1      40.063  25.766  27.206  1.00  0.00     0.200 A 
ATOM     96  F   UNL A   1      38.968  25.045  29.166  1.00  0.00    -0.200 F 
ATOM     97  F   UNL A   1      40.019  24.524  26.707  1.00  0.00    -0.200 F 
ENDBRANCH  63  87
BRANCH  75  98
ATOM     98  C   UNL A   1      43.552  33.510  29.810  1.00  0.00     0.064 A 
ATOM     99  C   UNL A   1      44.608  33.688  28.898  1.00  0.00     0.173 A 
ATOM    100  C   UNL A   1      42.367  34.214  29.566  1.00  0.00     0.173 A 
ATOM    101  F   UNL A   1      45.734  32.972  29.000  1.00  0.00    -0.203 F 
ATOM    102  C   UNL A   1      44.495  34.571  27.824  1.00  0.00     0.198 A 
ATOM    103  C   UNL A   1      42.244  35.065  28.472  1.00  0.00     0.198 A 
ATOM    104  F   UNL A   1      41.305  34.040  30.368  1.00  0.00    -0.203 F 
ATOM    105  F   UNL A   1      45.524  34.735  26.977  1.00  0.00    -0.200 F 
ATOM    106  C   UNL A   1      43.311  35.255  27.609  1.00  0.00     0.200 A 
ATOM    107  F   UNL A   1      41.077  35.683  28.239  1.00  0.00    -0.200 F 
ATOM    108  F   UNL A   1      43.188  36.075  26.556  1.00  0.00    -0.200 F 
ENDBRANCH  75  98
ENDBRANCH  49  50
ENDBRANCH  42  44
ENDBRANCH  41  42
ENDBRANCH  40  41
ENDBRANCH  39  40
ENDBRANCH  38  39
ENDBRANCH   1  38
TORSDOF 19
ENDMDL
