MODEL 1
REMARK VINA RESULT:     -12.3      0.000      0.000
REMARK SMILES CCC(=O)N1CCC[C@](C[C@H]2CC(c3ccc(C)cc3)=NO2)(C(=O)OCCOCCOC(=O)c2ccc(-c3c4nc(c(-c5c(F)c(F)c(F)c(F)c5F)c5ccc([nH]5)c(-c5c(F)c(F)c(F)c(F)c5F)c5nc(c(-c6c(F)c(F)c(F)c(F)c6F)c6ccc3[nH]6)C=C5)C=C4)cc2)C1
REMARK SMILES IDX 27 1 26 2 25 3 23 4 24 5 9 6 5 7 6 8 97 9 7 10 8 11 3 12
REMARK SMILES IDX 4 13 2 14 1 15 10 16 11 17 12 18 22 19 13 20 21 21 14 22
REMARK SMILES IDX 15 23 20 24 16 25 19 26 17 27 18 28 28 29 29 30 30 31 31 32
REMARK SMILES IDX 32 33 33 34 34 35 35 36 96 37 36 38 95 39 37 40 38 41 39 42
REMARK SMILES IDX 89 43 40 44 94 45 88 46 90 47 41 48 93 49 87 50 86 51 42 53
REMARK SMILES IDX 74 54 54 55 73 56 55 57 58 58 72 59 91 60 56 61 57 62 71 64
REMARK SMILES IDX 92 65 59 66 43 67 44 68 52 69 45 70 46 71 50 72 53 73 47 74
REMARK SMILES IDX 48 75 51 76 49 77 75 78 76 79 84 80 77 81 78 82 82 83 85 84
REMARK SMILES IDX 79 85 80 86 83 87 81 88 60 89 61 90 69 91 62 92 63 93 67 94
REMARK SMILES IDX 70 95 64 96 65 97 68 98 66 99
REMARK H PARENT 90 52 58 63
REMARK Flexibility Score: inf
ROOT
ATOM      1  C   UNL A   1      37.387  21.342  25.662  1.00  0.00     0.202 C 
ENDROOT
BRANCH   1   2
ATOM      2  C   UNL A   1      36.500  21.441  24.466  1.00  0.00     0.261 C 
BRANCH   2   3
ATOM      3  O   UNL A   1      35.199  21.909  24.810  1.00  0.00    -0.463 OA
BRANCH   3   4
ATOM      4  C   UNL A   1      34.450  22.560  23.865  1.00  0.00     0.314 C 
ATOM      5  O   UNL A   1      34.865  23.016  22.811  1.00  0.00    -0.252 OA
BRANCH   4   6
ATOM      6  C   UNL A   1      32.978  22.525  24.300  1.00  0.00     0.089 C 
ATOM      7  N   UNL A   1      32.754  20.019  24.346  1.00  0.00    -0.342 N 
ATOM      8  C   UNL A   1      31.964  20.018  23.112  1.00  0.00     0.119 C 
ATOM      9  C   UNL A   1      32.705  21.252  25.123  1.00  0.00     0.138 C 
ATOM     10  C   UNL A   1      32.242  21.226  22.232  1.00  0.00     0.023 C 
ATOM     11  C   UNL A   1      32.089  22.508  23.039  1.00  0.00     0.022 C 
BRANCH   7  12
ATOM     12  C   UNL A   1      33.136  18.787  24.859  1.00  0.00     0.222 C 
ATOM     13  O   UNL A   1      32.621  18.369  25.904  1.00  0.00    -0.275 OA
BRANCH  12  14
ATOM     14  C   UNL A   1      34.297  17.996  24.256  1.00  0.00     0.097 C 
ATOM     15  C   UNL A   1      34.075  17.024  23.113  1.00  0.00     0.014 C 
ENDBRANCH  12  14
ENDBRANCH   7  12
BRANCH   6  16
ATOM     16  C   UNL A   1      32.828  23.801  25.181  1.00  0.00     0.069 C 
BRANCH  16  17
ATOM     17  C   UNL A   1      32.201  25.081  24.612  1.00  0.00     0.212 C 
ATOM     18  C   UNL A   1      31.866  26.156  25.619  1.00  0.00     0.108 C 
ATOM     19  O   UNL A   1      33.029  25.689  23.619  1.00  0.00    -0.392 OA
ATOM     20  C   UNL A   1      32.858  27.179  25.207  1.00  0.00     0.091 C 
ATOM     21  N   UNL A   1      33.477  26.941  24.096  1.00  0.00    -0.090 NA
BRANCH  20  22
ATOM     22  C   UNL A   1      33.067  28.400  25.997  1.00  0.00    -0.001 A 
ATOM     23  C   UNL A   1      32.071  29.370  26.146  1.00  0.00     0.010 A 
ATOM     24  C   UNL A   1      34.319  28.575  26.580  1.00  0.00     0.010 A 
ATOM     25  C   UNL A   1      32.352  30.543  26.851  1.00  0.00     0.004 A 
ATOM     26  C   UNL A   1      34.605  29.758  27.255  1.00  0.00     0.004 A 
ATOM     27  C   UNL A   1      33.630  30.756  27.385  1.00  0.00    -0.051 A 
ATOM     28  C   UNL A   1      33.990  32.051  28.050  1.00  0.00     0.044 C 
ENDBRANCH  20  22
ENDBRANCH  16  17
ENDBRANCH   6  16
ENDBRANCH   4   6
ENDBRANCH   3   4
ENDBRANCH   2   3
ENDBRANCH   1   2
BRANCH   1  29
ATOM     29  O   UNL A   1      38.586  20.734  25.214  1.00  0.00    -0.374 OA
BRANCH  29  30
ATOM     30  C   UNL A   1      39.758  21.254  25.814  1.00  0.00     0.202 C 
BRANCH  30  31
ATOM     31  C   UNL A   1      39.462  22.220  26.969  1.00  0.00     0.261 C 
BRANCH  31  32
ATOM     32  O   UNL A   1      39.702  23.576  26.534  1.00  0.00    -0.460 OA
BRANCH  32  33
ATOM     33  C   UNL A   1      40.675  24.256  27.199  1.00  0.00     0.338 C 
ATOM     34  O   UNL A   1      41.653  23.749  27.738  1.00  0.00    -0.246 OA
BRANCH  33  35
ATOM     35  C   UNL A   1      40.209  25.644  27.484  1.00  0.00     0.060 A 
ATOM     36  C   UNL A   1      40.545  26.688  26.600  1.00  0.00     0.016 A 
ATOM     37  C   UNL A   1      39.802  25.944  28.778  1.00  0.00     0.016 A 
ATOM     38  C   UNL A   1      40.679  28.002  27.075  1.00  0.00     0.010 A 
ATOM     39  C   UNL A   1      40.035  27.211  29.262  1.00  0.00     0.010 A 
ATOM     40  C   UNL A   1      40.536  28.236  28.438  1.00  0.00    -0.014 A 
BRANCH  40  41
ATOM     41  C   UNL A   1      40.871  29.466  29.178  1.00  0.00     0.031 A 
ATOM     42  C   UNL A   1      39.720  30.367  29.412  1.00  0.00     0.074 A 
ATOM     43  C   UNL A   1      42.045  29.666  29.821  1.00  0.00     0.049 A 
ATOM     44  N   UNL A   1      39.526  31.106  30.445  1.00  0.00    -0.248 NA
ATOM     45  C   UNL A   1      38.609  30.393  28.455  1.00  0.00     0.031 C 
ATOM     46  C   UNL A   1      42.374  30.697  30.804  1.00  0.00     0.029 A 
ATOM     47  N   UNL A   1      43.265  28.987  29.666  1.00  0.00    -0.354 N 
ATOM     48  C   UNL A   1      38.325  31.748  30.268  1.00  0.00     0.074 A 
ATOM     49  C   UNL A   1      37.739  31.192  29.072  1.00  0.00     0.031 C 
ATOM     50  C   UNL A   1      43.709  30.801  30.913  1.00  0.00     0.029 A 
ATOM     51  C   UNL A   1      44.283  29.920  29.921  1.00  0.00     0.049 A 
ATOM     52  H   UNL A   1      43.385  28.040  29.426  1.00  0.00     0.167 HD
ATOM     53  C   UNL A   1      38.118  32.984  30.798  1.00  0.00     0.037 A 
ATOM     54  C   UNL A   1      45.121  30.280  28.918  1.00  0.00     0.037 A 
ATOM     55  C   UNL A   1      39.419  33.640  31.001  1.00  0.00     0.049 A 
ATOM     56  C   UNL A   1      44.779  31.722  28.637  1.00  0.00     0.074 A 
ATOM     57  C   UNL A   1      40.152  34.091  32.080  1.00  0.00     0.029 A 
ATOM     58  N   UNL A   1      40.308  33.702  29.902  1.00  0.00    -0.354 N 
ATOM     59  N   UNL A   1      43.555  32.218  28.611  1.00  0.00    -0.248 NA
ATOM     60  C   UNL A   1      45.821  32.726  28.836  1.00  0.00     0.031 C 
ATOM     61  C   UNL A   1      41.514  34.224  31.664  1.00  0.00     0.029 A 
ATOM     62  C   UNL A   1      41.598  34.019  30.290  1.00  0.00     0.049 A 
ATOM     63  H   UNL A   1      40.040  33.538  28.969  1.00  0.00     0.167 HD
ATOM     64  C   UNL A   1      43.640  33.552  28.963  1.00  0.00     0.074 A 
ATOM     65  C   UNL A   1      45.075  33.808  29.089  1.00  0.00     0.031 C 
ATOM     66  C   UNL A   1      42.641  34.416  29.342  1.00  0.00     0.037 A 
BRANCH  53  67
ATOM     67  C   UNL A   1      36.737  33.365  31.335  1.00  0.00     0.064 A 
ATOM     68  C   UNL A   1      35.782  34.004  30.516  1.00  0.00     0.173 A 
ATOM     69  C   UNL A   1      36.319  33.231  32.685  1.00  0.00     0.173 A 
ATOM     70  F   UNL A   1      36.020  34.233  29.219  1.00  0.00    -0.203 F 
ATOM     71  C   UNL A   1      34.548  34.474  31.004  1.00  0.00     0.198 A 
ATOM     72  C   UNL A   1      35.083  33.682  33.166  1.00  0.00     0.198 A 
ATOM     73  F   UNL A   1      37.086  32.673  33.624  1.00  0.00    -0.203 F 
ATOM     74  F   UNL A   1      33.701  35.105  30.178  1.00  0.00    -0.200 F 
ATOM     75  C   UNL A   1      34.198  34.312  32.329  1.00  0.00     0.200 A 
ATOM     76  F   UNL A   1      34.774  33.506  34.461  1.00  0.00    -0.200 F 
ATOM     77  F   UNL A   1      33.027  34.763  32.795  1.00  0.00    -0.200 F 
ENDBRANCH  53  67
BRANCH  54  78
ATOM     78  C   UNL A   1      45.517  29.077  28.116  1.00  0.00     0.064 A 
ATOM     79  C   UNL A   1      46.461  28.239  28.772  1.00  0.00     0.173 A 
ATOM     80  C   UNL A   1      44.684  28.454  27.180  1.00  0.00     0.173 A 
ATOM     81  F   UNL A   1      47.318  28.772  29.659  1.00  0.00    -0.203 F 
ATOM     82  C   UNL A   1      46.390  26.847  28.697  1.00  0.00     0.198 A 
ATOM     83  C   UNL A   1      44.653  27.051  27.070  1.00  0.00     0.198 A 
ATOM     84  F   UNL A   1      43.794  29.170  26.480  1.00  0.00    -0.203 F 
ATOM     85  F   UNL A   1      47.132  26.093  29.523  1.00  0.00    -0.200 F 
ATOM     86  C   UNL A   1      45.449  26.253  27.881  1.00  0.00     0.200 A 
ATOM     87  F   UNL A   1      43.764  26.463  26.256  1.00  0.00    -0.200 F 
ATOM     88  F   UNL A   1      45.259  24.925  27.935  1.00  0.00    -0.200 F 
ENDBRANCH  54  78
BRANCH  66  89
ATOM     89  C   UNL A   1      42.749  35.897  29.020  1.00  0.00     0.064 A 
ATOM     90  C   UNL A   1      42.040  36.502  27.966  1.00  0.00     0.173 A 
ATOM     91  C   UNL A   1      43.443  36.794  29.869  1.00  0.00     0.173 A 
ATOM     92  F   UNL A   1      41.202  35.805  27.186  1.00  0.00    -0.203 F 
ATOM     93  C   UNL A   1      42.121  37.866  27.707  1.00  0.00     0.198 A 
ATOM     94  C   UNL A   1      43.486  38.164  29.632  1.00  0.00     0.198 A 
ATOM     95  F   UNL A   1      44.048  36.400  30.996  1.00  0.00    -0.203 F 
ATOM     96  F   UNL A   1      41.462  38.374  26.656  1.00  0.00    -0.200 F 
ATOM     97  C   UNL A   1      42.842  38.698  28.538  1.00  0.00     0.200 A 
ATOM     98  F   UNL A   1      44.127  38.965  30.495  1.00  0.00    -0.200 F 
ATOM     99  F   UNL A   1      42.880  40.015  28.310  1.00  0.00    -0.200 F 
ENDBRANCH  66  89
ENDBRANCH  40  41
ENDBRANCH  33  35
ENDBRANCH  32  33
ENDBRANCH  31  32
ENDBRANCH  30  31
ENDBRANCH  29  30
ENDBRANCH   1  29
TORSDOF 19
ENDMDL
MODEL 2
REMARK VINA RESULT:     -12.0      3.869     10.181
REMARK SMILES CCC(=O)N1CCC[C@](C[C@H]2CC(c3ccc(C)cc3)=NO2)(C(=O)OCCOCCOC(=O)c2ccc(-c3c4nc(c(-c5c(F)c(F)c(F)c(F)c5F)c5ccc([nH]5)c(-c5c(F)c(F)c(F)c(F)c5F)c5nc(c(-c6c(F)c(F)c(F)c(F)c6F)c6ccc3[nH]6)C=C5)C=C4)cc2)C1
REMARK SMILES IDX 27 1 26 2 25 3 23 4 24 5 9 6 5 7 6 8 97 9 7 10 8 11 3 12
REMARK SMILES IDX 4 13 2 14 1 15 10 16 11 17 12 18 22 19 13 20 21 21 14 22
REMARK SMILES IDX 15 23 20 24 16 25 19 26 17 27 18 28 28 29 29 30 30 31 31 32
REMARK SMILES IDX 32 33 33 34 34 35 35 36 96 37 36 38 95 39 37 40 38 41 39 42
REMARK SMILES IDX 89 43 40 44 94 45 88 46 90 47 41 48 93 49 87 50 86 51 42 53
REMARK SMILES IDX 74 54 54 55 73 56 55 57 58 58 72 59 91 60 56 61 57 62 71 64
REMARK SMILES IDX 92 65 59 66 43 67 44 68 52 69 45 70 46 71 50 72 53 73 47 74
REMARK SMILES IDX 48 75 51 76 49 77 75 78 76 79 84 80 77 81 78 82 82 83 85 84
REMARK SMILES IDX 79 85 80 86 83 87 81 88 60 89 61 90 69 91 62 92 63 93 67 94
REMARK SMILES IDX 70 95 64 96 65 97 68 98 66 99
REMARK H PARENT 90 52 58 63
REMARK Flexibility Score: inf
ROOT
ATOM      1  C   UNL A   1      34.066  28.775  26.735  1.00  0.00     0.202 C 
ENDROOT
BRANCH   1   2
ATOM      2  C   UNL A   1      32.864  28.031  27.211  1.00  0.00     0.261 C 
BRANCH   2   3
ATOM      3  O   UNL A   1      32.012  27.656  26.132  1.00  0.00    -0.463 OA
BRANCH   3   4
ATOM      4  C   UNL A   1      32.270  26.499  25.445  1.00  0.00     0.314 C 
ATOM      5  O   UNL A   1      33.333  25.899  25.426  1.00  0.00    -0.252 OA
BRANCH   4   6
ATOM      6  C   UNL A   1      30.968  26.020  24.789  1.00  0.00     0.089 C 
ATOM      7  N   UNL A   1      31.941  25.571  22.513  1.00  0.00    -0.342 N 
ATOM      8  C   UNL A   1      31.304  26.765  21.950  1.00  0.00     0.119 C 
ATOM      9  C   UNL A   1      31.284  24.998  23.681  1.00  0.00     0.138 C 
ATOM     10  C   UNL A   1      31.026  27.833  22.996  1.00  0.00     0.023 C 
ATOM     11  C   UNL A   1      30.252  27.235  24.163  1.00  0.00     0.022 C 
BRANCH   7  12
ATOM     12  C   UNL A   1      32.831  24.881  21.701  1.00  0.00     0.222 C 
ATOM     13  O   UNL A   1      33.098  25.314  20.572  1.00  0.00    -0.275 OA
BRANCH  12  14
ATOM     14  C   UNL A   1      33.374  23.507  22.098  1.00  0.00     0.097 C 
ATOM     15  C   UNL A   1      34.755  23.356  22.708  1.00  0.00     0.014 C 
ENDBRANCH  12  14
ENDBRANCH   7  12
BRANCH   6  16
ATOM     16  C   UNL A   1      30.195  25.348  25.964  1.00  0.00     0.069 C 
BRANCH  16  17
ATOM     17  C   UNL A   1      30.301  23.838  26.213  1.00  0.00     0.212 C 
ATOM     18  C   UNL A   1      31.233  23.081  25.296  1.00  0.00     0.108 C 
ATOM     19  O   UNL A   1      30.708  23.542  27.551  1.00  0.00    -0.392 OA
ATOM     20  C   UNL A   1      32.278  22.707  26.281  1.00  0.00     0.091 C 
ATOM     21  N   UNL A   1      31.982  22.932  27.521  1.00  0.00    -0.090 NA
BRANCH  20  22
ATOM     22  C   UNL A   1      33.535  22.076  25.857  1.00  0.00    -0.001 A 
ATOM     23  C   UNL A   1      33.560  20.875  25.141  1.00  0.00     0.010 A 
ATOM     24  C   UNL A   1      34.720  22.709  26.221  1.00  0.00     0.010 A 
ATOM     25  C   UNL A   1      34.787  20.285  24.827  1.00  0.00     0.004 A 
ATOM     26  C   UNL A   1      35.940  22.104  25.932  1.00  0.00     0.004 A 
ATOM     27  C   UNL A   1      35.984  20.883  25.246  1.00  0.00    -0.051 A 
ATOM     28  C   UNL A   1      37.307  20.217  25.017  1.00  0.00     0.044 C 
ENDBRANCH  20  22
ENDBRANCH  16  17
ENDBRANCH   6  16
ENDBRANCH   4   6
ENDBRANCH   3   4
ENDBRANCH   2   3
ENDBRANCH   1   2
BRANCH   1  29
ATOM     29  O   UNL A   1      33.642  30.110  26.516  1.00  0.00    -0.374 OA
BRANCH  29  30
ATOM     30  C   UNL A   1      33.718  30.937  27.662  1.00  0.00     0.202 C 
BRANCH  30  31
ATOM     31  C   UNL A   1      34.925  31.885  27.639  1.00  0.00     0.261 C 
BRANCH  31  32
ATOM     32  O   UNL A   1      36.143  31.112  27.670  1.00  0.00    -0.460 OA
BRANCH  32  33
ATOM     33  C   UNL A   1      36.690  30.904  28.898  1.00  0.00     0.338 C 
ATOM     34  O   UNL A   1      36.673  31.704  29.826  1.00  0.00    -0.246 OA
BRANCH  33  35
ATOM     35  C   UNL A   1      37.608  29.729  28.845  1.00  0.00     0.060 A 
ATOM     36  C   UNL A   1      37.597  28.786  29.890  1.00  0.00     0.016 A 
ATOM     37  C   UNL A   1      38.701  29.793  27.988  1.00  0.00     0.016 A 
ATOM     38  C   UNL A   1      38.760  28.065  30.205  1.00  0.00     0.010 A 
ATOM     39  C   UNL A   1      39.867  29.164  28.364  1.00  0.00     0.010 A 
ATOM     40  C   UNL A   1      39.930  28.347  29.509  1.00  0.00    -0.014 A 
BRANCH  40  41
ATOM     41  C   UNL A   1      41.297  27.901  29.831  1.00  0.00     0.031 A 
ATOM     42  C   UNL A   1      41.708  26.657  29.143  1.00  0.00     0.074 A 
ATOM     43  C   UNL A   1      42.206  28.662  30.482  1.00  0.00     0.049 A 
ATOM     44  N   UNL A   1      42.888  26.369  28.724  1.00  0.00    -0.248 NA
ATOM     45  C   UNL A   1      40.698  25.655  28.784  1.00  0.00     0.031 C 
ATOM     46  C   UNL A   1      43.648  28.445  30.601  1.00  0.00     0.029 A 
ATOM     47  N   UNL A   1      42.002  29.812  31.263  1.00  0.00    -0.354 N 
ATOM     48  C   UNL A   1      42.818  25.140  28.116  1.00  0.00     0.074 A 
ATOM     49  C   UNL A   1      41.419  24.784  28.079  1.00  0.00     0.031 C 
ATOM     50  C   UNL A   1      44.128  29.179  31.618  1.00  0.00     0.029 A 
ATOM     51  C   UNL A   1      42.993  29.806  32.258  1.00  0.00     0.049 A 
ATOM     52  H   UNL A   1      41.301  30.490  31.137  1.00  0.00     0.167 HD
ATOM     53  C   UNL A   1      43.889  24.301  28.128  1.00  0.00     0.037 A 
ATOM     54  C   UNL A   1      42.629  29.670  33.557  1.00  0.00     0.037 A 
ATOM     55  C   UNL A   1      44.751  24.645  29.270  1.00  0.00     0.049 A 
ATOM     56  C   UNL A   1      43.153  28.314  33.958  1.00  0.00     0.074 A 
ATOM     57  C   UNL A   1      46.035  25.121  29.444  1.00  0.00     0.029 A 
ATOM     58  N   UNL A   1      44.154  24.723  30.550  1.00  0.00    -0.354 N 
ATOM     59  N   UNL A   1      43.111  27.232  33.201  1.00  0.00    -0.248 NA
ATOM     60  C   UNL A   1      44.147  28.250  35.026  1.00  0.00     0.031 C 
ATOM     61  C   UNL A   1      46.129  25.663  30.764  1.00  0.00     0.029 A 
ATOM     62  C   UNL A   1      44.962  25.374  31.466  1.00  0.00     0.049 A 
ATOM     63  H   UNL A   1      43.266  24.356  30.765  1.00  0.00     0.167 HD
ATOM     64  C   UNL A   1      44.173  26.427  33.567  1.00  0.00     0.074 A 
ATOM     65  C   UNL A   1      44.779  27.114  34.709  1.00  0.00     0.031 C 
ATOM     66  C   UNL A   1      44.714  25.350  32.908  1.00  0.00     0.037 A 
BRANCH  53  67
ATOM     67  C   UNL A   1      44.180  23.413  26.917  1.00  0.00     0.064 A 
ATOM     68  C   UNL A   1      45.076  23.821  25.906  1.00  0.00     0.173 A 
ATOM     69  C   UNL A   1      43.525  22.188  26.626  1.00  0.00     0.173 A 
ATOM     70  F   UNL A   1      45.763  24.965  26.006  1.00  0.00    -0.203 F 
ATOM     71  C   UNL A   1      45.280  23.086  24.722  1.00  0.00     0.198 A 
ATOM     72  C   UNL A   1      43.742  21.447  25.456  1.00  0.00     0.198 A 
ATOM     73  F   UNL A   1      42.624  21.641  27.443  1.00  0.00    -0.203 F 
ATOM     74  F   UNL A   1      46.121  23.550  23.787  1.00  0.00    -0.200 F 
ATOM     75  C   UNL A   1      44.614  21.899  24.498  1.00  0.00     0.200 A 
ATOM     76  F   UNL A   1      43.078  20.295  25.270  1.00  0.00    -0.200 F 
ATOM     77  F   UNL A   1      44.803  21.202  23.370  1.00  0.00    -0.200 F 
ENDBRANCH  53  67
BRANCH  54  78
ATOM     78  C   UNL A   1      41.412  30.497  33.844  1.00  0.00     0.064 A 
ATOM     79  C   UNL A   1      41.674  31.894  33.912  1.00  0.00     0.173 A 
ATOM     80  C   UNL A   1      40.113  30.130  33.475  1.00  0.00     0.173 A 
ATOM     81  F   UNL A   1      42.889  32.324  34.291  1.00  0.00    -0.203 F 
ATOM     82  C   UNL A   1      40.789  32.837  33.386  1.00  0.00     0.198 A 
ATOM     83  C   UNL A   1      39.205  31.093  32.995  1.00  0.00     0.198 A 
ATOM     84  F   UNL A   1      39.760  28.838  33.427  1.00  0.00    -0.203 F 
ATOM     85  F   UNL A   1      41.180  34.113  33.240  1.00  0.00    -0.200 F 
ATOM     86  C   UNL A   1      39.572  32.427  32.882  1.00  0.00     0.200 A 
ATOM     87  F   UNL A   1      38.007  30.710  32.531  1.00  0.00    -0.200 F 
ATOM     88  F   UNL A   1      38.794  33.299  32.221  1.00  0.00    -0.200 F 
ENDBRANCH  54  78
BRANCH  66  89
ATOM     89  C   UNL A   1      45.341  24.210  33.693  1.00  0.00     0.064 A 
ATOM     90  C   UNL A   1      44.693  22.979  33.900  1.00  0.00     0.173 A 
ATOM     91  C   UNL A   1      46.690  24.258  34.124  1.00  0.00     0.173 A 
ATOM     92  F   UNL A   1      43.478  22.725  33.396  1.00  0.00    -0.203 F 
ATOM     93  C   UNL A   1      45.296  21.932  34.590  1.00  0.00     0.198 A 
ATOM     94  C   UNL A   1      47.304  23.193  34.775  1.00  0.00     0.198 A 
ATOM     95  F   UNL A   1      47.491  25.301  33.876  1.00  0.00    -0.203 F 
ATOM     96  F   UNL A   1      44.606  20.802  34.800  1.00  0.00    -0.200 F 
ATOM     97  C   UNL A   1      46.600  22.037  35.028  1.00  0.00     0.200 A 
ATOM     98  F   UNL A   1      48.596  23.286  35.122  1.00  0.00    -0.200 F 
ATOM     99  F   UNL A   1      47.190  21.012  35.652  1.00  0.00    -0.200 F 
ENDBRANCH  66  89
ENDBRANCH  40  41
ENDBRANCH  33  35
ENDBRANCH  32  33
ENDBRANCH  31  32
ENDBRANCH  30  31
ENDBRANCH  29  30
ENDBRANCH   1  29
TORSDOF 19
ENDMDL
MODEL 3
REMARK VINA RESULT:     -11.9      1.444      4.949
REMARK SMILES CCC(=O)N1CCC[C@](C[C@H]2CC(c3ccc(C)cc3)=NO2)(C(=O)OCCOCCOC(=O)c2ccc(-c3c4nc(c(-c5c(F)c(F)c(F)c(F)c5F)c5ccc([nH]5)c(-c5c(F)c(F)c(F)c(F)c5F)c5nc(c(-c6c(F)c(F)c(F)c(F)c6F)c6ccc3[nH]6)C=C5)C=C4)cc2)C1
REMARK SMILES IDX 27 1 26 2 25 3 23 4 24 5 9 6 5 7 6 8 97 9 7 10 8 11 3 12
REMARK SMILES IDX 4 13 2 14 1 15 10 16 11 17 12 18 22 19 13 20 21 21 14 22
REMARK SMILES IDX 15 23 20 24 16 25 19 26 17 27 18 28 28 29 29 30 30 31 31 32
REMARK SMILES IDX 32 33 33 34 34 35 35 36 96 37 36 38 95 39 37 40 38 41 39 42
REMARK SMILES IDX 89 43 40 44 94 45 88 46 90 47 41 48 93 49 87 50 86 51 42 53
REMARK SMILES IDX 74 54 54 55 73 56 55 57 58 58 72 59 91 60 56 61 57 62 71 64
REMARK SMILES IDX 92 65 59 66 43 67 44 68 52 69 45 70 46 71 50 72 53 73 47 74
REMARK SMILES IDX 48 75 51 76 49 77 75 78 76 79 84 80 77 81 78 82 82 83 85 84
REMARK SMILES IDX 79 85 80 86 83 87 81 88 60 89 61 90 69 91 62 92 63 93 67 94
REMARK SMILES IDX 70 95 64 96 65 97 68 98 66 99
REMARK H PARENT 90 52 58 63
REMARK Flexibility Score: inf
ROOT
ATOM      1  C   UNL A   1      36.287  23.713  26.088  1.00  0.00     0.202 C 
ENDROOT
BRANCH   1   2
ATOM      2  C   UNL A   1      35.697  24.102  24.774  1.00  0.00     0.261 C 
BRANCH   2   3
ATOM      3  O   UNL A   1      34.582  24.975  24.933  1.00  0.00    -0.463 OA
BRANCH   3   4
ATOM      4  C   UNL A   1      33.562  24.933  24.019  1.00  0.00     0.314 C 
ATOM      5  O   UNL A   1      33.684  25.004  22.806  1.00  0.00    -0.252 OA
BRANCH   4   6
ATOM      6  C   UNL A   1      32.247  24.669  24.766  1.00  0.00     0.089 C 
ATOM      7  N   UNL A   1      31.007  26.669  23.874  1.00  0.00    -0.342 N 
ATOM      8  C   UNL A   1      31.117  27.371  25.155  1.00  0.00     0.119 C 
ATOM      9  C   UNL A   1      31.061  25.214  23.947  1.00  0.00     0.138 C 
ATOM     10  C   UNL A   1      32.311  26.913  25.978  1.00  0.00     0.023 C 
ATOM     11  C   UNL A   1      32.295  25.398  26.125  1.00  0.00     0.022 C 
BRANCH   7  12
ATOM     12  C   UNL A   1      30.480  27.377  22.802  1.00  0.00     0.222 C 
ATOM     13  O   UNL A   1      30.967  27.236  21.673  1.00  0.00    -0.275 OA
BRANCH  12  14
ATOM     14  C   UNL A   1      29.413  28.454  23.004  1.00  0.00     0.097 C 
ATOM     15  C   UNL A   1      29.612  29.863  22.478  1.00  0.00     0.014 C 
ENDBRANCH  12  14
ENDBRANCH   7  12
BRANCH   6  16
ATOM     16  C   UNL A   1      32.190  23.116  24.865  1.00  0.00     0.069 C 
BRANCH  16  17
ATOM     17  C   UNL A   1      32.969  22.235  23.879  1.00  0.00     0.212 C 
ATOM     18  C   UNL A   1      33.664  21.032  24.475  1.00  0.00     0.108 C 
ATOM     19  O   UNL A   1      32.140  21.752  22.821  1.00  0.00    -0.392 OA
ATOM     20  C   UNL A   1      32.847  19.961  23.852  1.00  0.00     0.091 C 
ATOM     21  N   UNL A   1      32.032  20.347  22.925  1.00  0.00    -0.090 NA
BRANCH  20  22
ATOM     22  C   UNL A   1      33.011  18.554  24.243  1.00  0.00    -0.001 A 
ATOM     23  C   UNL A   1      33.649  17.622  23.419  1.00  0.00     0.010 A 
ATOM     24  C   UNL A   1      32.478  18.167  25.469  1.00  0.00     0.010 A 
ATOM     25  C   UNL A   1      33.713  16.283  23.813  1.00  0.00     0.004 A 
ATOM     26  C   UNL A   1      32.517  16.827  25.845  1.00  0.00     0.004 A 
ATOM     27  C   UNL A   1      33.121  15.873  25.015  1.00  0.00    -0.051 A 
ATOM     28  C   UNL A   1      33.080  14.427  25.409  1.00  0.00     0.044 C 
ENDBRANCH  20  22
ENDBRANCH  16  17
ENDBRANCH   6  16
ENDBRANCH   4   6
ENDBRANCH   3   4
ENDBRANCH   2   3
ENDBRANCH   1   2
BRANCH   1  29
ATOM     29  O   UNL A   1      36.551  22.323  26.004  1.00  0.00    -0.374 OA
BRANCH  29  30
ATOM     30  C   UNL A   1      37.713  21.997  25.265  1.00  0.00     0.202 C 
BRANCH  30  31
ATOM     31  C   UNL A   1      38.992  22.031  26.113  1.00  0.00     0.261 C 
BRANCH  31  32
ATOM     32  O   UNL A   1      39.565  23.355  26.064  1.00  0.00    -0.460 OA
BRANCH  32  33
ATOM     33  C   UNL A   1      40.154  23.796  27.208  1.00  0.00     0.338 C 
ATOM     34  O   UNL A   1      40.641  23.080  28.076  1.00  0.00    -0.246 OA
BRANCH  33  35
ATOM     35  C   UNL A   1      39.815  25.233  27.424  1.00  0.00     0.060 A 
ATOM     36  C   UNL A   1      40.388  26.218  26.597  1.00  0.00     0.016 A 
ATOM     37  C   UNL A   1      39.266  25.597  28.648  1.00  0.00     0.016 A 
ATOM     38  C   UNL A   1      40.603  27.516  27.087  1.00  0.00     0.010 A 
ATOM     39  C   UNL A   1      39.571  26.838  29.161  1.00  0.00     0.010 A 
ATOM     40  C   UNL A   1      40.298  27.786  28.416  1.00  0.00    -0.014 A 
BRANCH  40  41
ATOM     41  C   UNL A   1      40.663  28.982  29.197  1.00  0.00     0.031 A 
ATOM     42  C   UNL A   1      39.559  29.951  29.376  1.00  0.00     0.074 A 
ATOM     43  C   UNL A   1      41.806  29.098  29.912  1.00  0.00     0.049 A 
ATOM     44  N   UNL A   1      39.348  30.686  30.409  1.00  0.00    -0.248 NA
ATOM     45  C   UNL A   1      38.512  30.060  28.355  1.00  0.00     0.031 C 
ATOM     46  C   UNL A   1      42.138  30.092  30.931  1.00  0.00     0.029 A 
ATOM     47  N   UNL A   1      42.988  28.345  29.819  1.00  0.00    -0.354 N 
ATOM     48  C   UNL A   1      38.203  31.406  30.171  1.00  0.00     0.074 A 
ATOM     49  C   UNL A   1      37.657  30.905  28.932  1.00  0.00     0.031 C 
ATOM     50  C   UNL A   1      43.467  30.110  31.123  1.00  0.00     0.029 A 
ATOM     51  C   UNL A   1      44.044  29.207  30.151  1.00  0.00     0.049 A 
ATOM     52  H   UNL A   1      43.062  27.396  29.570  1.00  0.00     0.167 HD
ATOM     53  C   UNL A   1      38.042  32.645  30.709  1.00  0.00     0.037 A 
ATOM     54  C   UNL A   1      44.963  29.528  29.207  1.00  0.00     0.037 A 
ATOM     55  C   UNL A   1      39.366  33.214  31.002  1.00  0.00     0.049 A 
ATOM     56  C   UNL A   1      44.730  30.992  28.931  1.00  0.00     0.074 A 
ATOM     57  C   UNL A   1      40.059  33.603  32.131  1.00  0.00     0.029 A 
ATOM     58  N   UNL A   1      40.323  33.235  29.960  1.00  0.00    -0.354 N 
ATOM     59  N   UNL A   1      43.543  31.565  28.841  1.00  0.00    -0.248 NA
ATOM     60  C   UNL A   1      45.819  31.925  29.210  1.00  0.00     0.031 C 
ATOM     61  C   UNL A   1      41.449  33.655  31.800  1.00  0.00     0.029 A 
ATOM     62  C   UNL A   1      41.604  33.463  30.430  1.00  0.00     0.049 A 
ATOM     63  H   UNL A   1      40.102  33.101  29.010  1.00  0.00     0.167 HD
ATOM     64  C   UNL A   1      43.690  32.886  29.221  1.00  0.00     0.074 A 
ATOM     65  C   UNL A   1      45.128  33.049  29.437  1.00  0.00     0.031 C 
ATOM     66  C   UNL A   1      42.725  33.806  29.554  1.00  0.00     0.037 A 
BRANCH  53  67
ATOM     67  C   UNL A   1      36.657  33.106  31.169  1.00  0.00     0.064 A 
ATOM     68  C   UNL A   1      35.820  33.869  30.327  1.00  0.00     0.173 A 
ATOM     69  C   UNL A   1      36.127  32.927  32.474  1.00  0.00     0.173 A 
ATOM     70  F   UNL A   1      36.175  34.154  29.068  1.00  0.00    -0.203 F 
ATOM     71  C   UNL A   1      34.592  34.408  30.754  1.00  0.00     0.198 A 
ATOM     72  C   UNL A   1      34.896  33.448  32.893  1.00  0.00     0.198 A 
ATOM     73  F   UNL A   1      36.773  32.253  33.427  1.00  0.00    -0.203 F 
ATOM     74  F   UNL A   1      33.863  35.154  29.911  1.00  0.00    -0.200 F 
ATOM     75  C   UNL A   1      34.130  34.198  32.036  1.00  0.00     0.200 A 
ATOM     76  F   UNL A   1      34.475  33.223  34.148  1.00  0.00    -0.200 F 
ATOM     77  F   UNL A   1      32.964  34.715  32.446  1.00  0.00    -0.200 F 
ENDBRANCH  53  67
BRANCH  54  78
ATOM     78  C   UNL A   1      45.332  28.313  28.409  1.00  0.00     0.064 A 
ATOM     79  C   UNL A   1      44.884  28.358  27.059  1.00  0.00     0.173 A 
ATOM     80  C   UNL A   1      46.465  27.531  28.657  1.00  0.00     0.173 A 
ATOM     81  F   UNL A   1      43.782  29.061  26.749  1.00  0.00    -0.203 F 
ATOM     82  C   UNL A   1      45.666  27.883  26.005  1.00  0.00     0.198 A 
ATOM     83  C   UNL A   1      47.223  27.009  27.591  1.00  0.00     0.198 A 
ATOM     84  F   UNL A   1      46.936  27.393  29.904  1.00  0.00    -0.203 F 
ATOM     85  F   UNL A   1      45.327  28.169  24.739  1.00  0.00    -0.200 F 
ATOM     86  C   UNL A   1      46.863  27.251  26.273  1.00  0.00     0.200 A 
ATOM     87  F   UNL A   1      48.373  26.365  27.840  1.00  0.00    -0.200 F 
ATOM     88  F   UNL A   1      47.699  26.948  25.267  1.00  0.00    -0.200 F 
ENDBRANCH  54  78
BRANCH  66  89
ATOM     89  C   UNL A   1      42.945  35.282  29.265  1.00  0.00     0.064 A 
ATOM     90  C   UNL A   1      42.325  35.950  28.194  1.00  0.00     0.173 A 
ATOM     91  C   UNL A   1      43.660  36.117  30.160  1.00  0.00     0.173 A 
ATOM     92  F   UNL A   1      41.478  35.324  27.365  1.00  0.00    -0.203 F 
ATOM     93  C   UNL A   1      42.508  37.310  27.964  1.00  0.00     0.198 A 
ATOM     94  C   UNL A   1      43.804  37.484  29.951  1.00  0.00     0.198 A 
ATOM     95  F   UNL A   1      44.188  35.665  31.303  1.00  0.00    -0.203 F 
ATOM     96  F   UNL A   1      41.931  37.878  26.896  1.00  0.00    -0.200 F 
ATOM     97  C   UNL A   1      43.246  38.078  28.841  1.00  0.00     0.200 A 
ATOM     98  F   UNL A   1      44.458  38.226  30.855  1.00  0.00    -0.200 F 
ATOM     99  F   UNL A   1      43.381  39.393  28.640  1.00  0.00    -0.200 F 
ENDBRANCH  66  89
ENDBRANCH  40  41
ENDBRANCH  33  35
ENDBRANCH  32  33
ENDBRANCH  31  32
ENDBRANCH  30  31
ENDBRANCH  29  30
ENDBRANCH   1  29
TORSDOF 19
ENDMDL
