MODEL 1
REMARK VINA RESULT:     -10.6      0.000      0.000
REMARK SMILES N#Cc1c(C(F)(F)F)cc(-c2cccs2)nc1SCC(=O)OCCOCCOC(=O)c1ccc(-c2c3nc(c(-c4c(F)c(F)c(F)c(F)c4F)c4ccc([nH]4)c(-c4c(F)c(F)c(F)c(F)c4F)c4nc(c(-c5c(F)c(F)c(F)c(F)c5F)c5ccc2[nH]5)C=C4)C=C3)cc1
REMARK SMILES IDX 24 1 23 2 22 3 20 4 21 5 19 6 18 7 17 8 3 9 4 10 9 11 16 12
REMARK SMILES IDX 10 13 2 14 1 15 5 16 6 17 7 18 8 19 11 20 12 21 15 22 13 23
REMARK SMILES IDX 14 24 25 25 26 26 27 27 28 28 29 29 30 30 31 31 32 32 93 33
REMARK SMILES IDX 33 34 92 35 34 36 35 37 36 38 86 39 37 40 91 41 85 42 87 43
REMARK SMILES IDX 38 44 90 45 84 46 83 47 39 49 71 50 51 51 70 52 52 53 55 54
REMARK SMILES IDX 69 55 88 56 53 57 54 58 68 60 89 61 56 62 40 63 41 64 49 65
REMARK SMILES IDX 42 66 43 67 47 68 50 69 44 70 45 71 48 72 46 73 72 74 73 75
REMARK SMILES IDX 81 76 74 77 75 78 79 79 82 80 76 81 77 82 80 83 78 84 57 85
REMARK SMILES IDX 58 86 66 87 59 88 60 89 64 90 67 91 61 92 62 93 65 94 63 95
REMARK H PARENT 87 48 55 59
REMARK Flexibility Score: inf
ROOT
ATOM      1  C   UNL A   1      31.575  29.067  24.589  1.00  0.00     0.202 C 
ENDROOT
BRANCH   1   2
ATOM      2  C   UNL A   1      31.396  27.651  25.154  1.00  0.00     0.261 C 
BRANCH   2   3
ATOM      3  O   UNL A   1      31.666  26.581  24.217  1.00  0.00    -0.463 OA
BRANCH   3   4
ATOM      4  C   UNL A   1      31.085  25.385  24.521  1.00  0.00     0.316 C 
ATOM      5  O   UNL A   1      30.251  24.836  23.806  1.00  0.00    -0.251 OA
BRANCH   4   6
ATOM      6  C   UNL A   1      31.436  24.809  25.875  1.00  0.00     0.199 C 
BRANCH   6   7
ATOM      7  S   UNL A   1      31.602  23.013  26.048  1.00  0.00    -0.093 SA
BRANCH   7   8
ATOM      8  C   UNL A   1      33.184  22.439  25.445  1.00  0.00     0.116 A 
ATOM      9  C   UNL A   1      34.410  23.099  25.313  1.00  0.00     0.097 A 
ATOM     10  C   UNL A   1      35.580  22.313  25.161  1.00  0.00     0.078 A 
ATOM     11  C   UNL A   1      35.457  20.934  24.946  1.00  0.00     0.044 A 
ATOM     12  N   UNL A   1      33.095  21.095  25.218  1.00  0.00    -0.239 NA
ATOM     13  C   UNL A   1      34.199  20.373  24.937  1.00  0.00     0.082 A 
BRANCH   9  14
ATOM     14  C   UNL A   1      34.523  24.517  25.325  1.00  0.00     0.103 C 
ATOM     15  N   UNL A   1      34.654  25.674  25.347  1.00  0.00    -0.192 NA
ENDBRANCH   9  14
BRANCH  10  16
ATOM     16  C   UNL A   1      36.983  22.839  25.357  1.00  0.00     0.417 C 
ATOM     17  F   UNL A   1      37.879  21.808  25.369  1.00  0.00    -0.166 F 
ATOM     18  F   UNL A   1      37.378  23.667  24.360  1.00  0.00    -0.166 F 
ATOM     19  F   UNL A   1      37.190  23.493  26.524  1.00  0.00    -0.166 F 
ENDBRANCH  10  16
BRANCH  13  20
ATOM     20  C   UNL A   1      34.020  18.943  24.711  1.00  0.00     0.053 A 
ATOM     21  C   UNL A   1      34.950  18.008  24.292  1.00  0.00     0.022 A 
ATOM     22  S   UNL A   1      32.463  18.246  24.867  1.00  0.00    -0.142 S 
ATOM     23  C   UNL A   1      34.369  16.728  24.059  1.00  0.00     0.012 A 
ATOM     24  C   UNL A   1      33.017  16.723  24.319  1.00  0.00     0.065 A 
ENDBRANCH  13  20
ENDBRANCH   7   8
ENDBRANCH   6   7
ENDBRANCH   4   6
ENDBRANCH   3   4
ENDBRANCH   2   3
ENDBRANCH   1   2
BRANCH   1  25
ATOM     25  O   UNL A   1      31.124  30.174  25.367  1.00  0.00    -0.374 OA
BRANCH  25  26
ATOM     26  C   UNL A   1      31.921  30.573  26.469  1.00  0.00     0.202 C 
BRANCH  26  27
ATOM     27  C   UNL A   1      31.871  32.046  26.885  1.00  0.00     0.261 C 
BRANCH  27  28
ATOM     28  O   UNL A   1      33.110  32.733  26.772  1.00  0.00    -0.460 OA
BRANCH  28  29
ATOM     29  C   UNL A   1      33.484  33.375  27.899  1.00  0.00     0.338 C 
ATOM     30  O   UNL A   1      32.884  34.233  28.521  1.00  0.00    -0.246 OA
BRANCH  29  31
ATOM     31  C   UNL A   1      34.735  32.773  28.356  1.00  0.00     0.060 A 
ATOM     32  C   UNL A   1      34.682  31.488  28.904  1.00  0.00     0.016 A 
ATOM     33  C   UNL A   1      35.926  33.495  28.280  1.00  0.00     0.016 A 
ATOM     34  C   UNL A   1      35.838  30.925  29.429  1.00  0.00     0.010 A 
ATOM     35  C   UNL A   1      37.080  32.934  28.814  1.00  0.00     0.010 A 
ATOM     36  C   UNL A   1      37.026  31.666  29.421  1.00  0.00    -0.014 A 
BRANCH  36  37
ATOM     37  C   UNL A   1      38.179  31.209  30.217  1.00  0.00     0.031 A 
ATOM     38  C   UNL A   1      39.091  30.186  29.608  1.00  0.00     0.074 A 
ATOM     39  C   UNL A   1      38.386  31.692  31.452  1.00  0.00     0.049 A 
ATOM     40  N   UNL A   1      40.088  29.536  30.145  1.00  0.00    -0.248 NA
ATOM     41  C   UNL A   1      38.834  29.840  28.199  1.00  0.00     0.031 C 
ATOM     42  C   UNL A   1      37.579  32.724  32.100  1.00  0.00     0.029 A 
ATOM     43  N   UNL A   1      39.330  31.360  32.387  1.00  0.00    -0.354 N 
ATOM     44  C   UNL A   1      40.567  28.698  29.148  1.00  0.00     0.074 A 
ATOM     45  C   UNL A   1      39.737  28.896  27.982  1.00  0.00     0.031 C 
ATOM     46  C   UNL A   1      38.052  32.929  33.341  1.00  0.00     0.029 A 
ATOM     47  C   UNL A   1      39.163  32.011  33.584  1.00  0.00     0.049 A 
ATOM     48  H   UNL A   1      40.058  30.719  32.217  1.00  0.00     0.167 HD
ATOM     49  C   UNL A   1      41.615  27.844  29.208  1.00  0.00     0.037 A 
ATOM     50  C   UNL A   1      39.817  31.846  34.749  1.00  0.00     0.037 A 
ATOM     51  C   UNL A   1      42.420  27.662  30.384  1.00  0.00     0.049 A 
ATOM     52  C   UNL A   1      40.928  30.828  34.814  1.00  0.00     0.074 A 
ATOM     53  C   UNL A   1      43.505  26.825  30.568  1.00  0.00     0.029 A 
ATOM     54  N   UNL A   1      42.217  28.331  31.583  1.00  0.00    -0.354 N 
ATOM     55  N   UNL A   1      41.386  30.043  33.869  1.00  0.00    -0.248 NA
ATOM     56  C   UNL A   1      41.611  30.673  36.104  1.00  0.00     0.031 C 
ATOM     57  C   UNL A   1      43.926  26.948  31.895  1.00  0.00     0.029 A 
ATOM     58  C   UNL A   1      43.146  27.912  32.519  1.00  0.00     0.049 A 
ATOM     59  H   UNL A   1      41.516  29.003  31.744  1.00  0.00     0.167 HD
ATOM     60  C   UNL A   1      42.438  29.335  34.435  1.00  0.00     0.074 A 
ATOM     61  C   UNL A   1      42.546  29.781  35.809  1.00  0.00     0.031 C 
ATOM     62  C   UNL A   1      43.247  28.405  33.869  1.00  0.00     0.037 A 
BRANCH  49  63
ATOM     63  C   UNL A   1      41.921  27.030  27.985  1.00  0.00     0.064 A 
ATOM     64  C   UNL A   1      41.243  25.834  27.705  1.00  0.00     0.173 A 
ATOM     65  C   UNL A   1      42.891  27.463  27.068  1.00  0.00     0.173 A 
ATOM     66  F   UNL A   1      40.319  25.365  28.557  1.00  0.00    -0.203 F 
ATOM     67  C   UNL A   1      41.543  25.089  26.567  1.00  0.00     0.198 A 
ATOM     68  C   UNL A   1      43.166  26.733  25.915  1.00  0.00     0.198 A 
ATOM     69  F   UNL A   1      43.569  28.599  27.287  1.00  0.00    -0.203 F 
ATOM     70  F   UNL A   1      40.919  23.923  26.347  1.00  0.00    -0.200 F 
ATOM     71  C   UNL A   1      42.498  25.542  25.670  1.00  0.00     0.200 A 
ATOM     72  F   UNL A   1      44.081  27.179  25.044  1.00  0.00    -0.200 F 
ATOM     73  F   UNL A   1      42.781  24.829  24.571  1.00  0.00    -0.200 F 
ENDBRANCH  49  63
BRANCH  50  74
ATOM     74  C   UNL A   1      39.436  32.651  35.938  1.00  0.00     0.064 A 
ATOM     75  C   UNL A   1      40.064  33.873  36.213  1.00  0.00     0.173 A 
ATOM     76  C   UNL A   1      38.444  32.214  36.829  1.00  0.00     0.173 A 
ATOM     77  F   UNL A   1      41.032  34.326  35.402  1.00  0.00    -0.203 F 
ATOM     78  C   UNL A   1      39.730  34.617  37.343  1.00  0.00     0.198 A 
ATOM     79  C   UNL A   1      38.088  32.974  37.942  1.00  0.00     0.198 A 
ATOM     80  F   UNL A   1      37.808  31.054  36.611  1.00  0.00    -0.203 F 
ATOM     81  F   UNL A   1      40.380  35.758  37.607  1.00  0.00    -0.200 F 
ATOM     82  C   UNL A   1      38.738  34.170  38.204  1.00  0.00     0.200 A 
ATOM     83  F   UNL A   1      37.118  32.545  38.761  1.00  0.00    -0.200 F 
ATOM     84  F   UNL A   1      38.415  34.887  39.289  1.00  0.00    -0.200 F 
ENDBRANCH  50  74
BRANCH  62  85
ATOM     85  C   UNL A   1      44.369  27.860  34.703  1.00  0.00     0.064 A 
ATOM     86  C   UNL A   1      45.612  28.501  34.779  1.00  0.00     0.173 A 
ATOM     87  C   UNL A   1      44.156  26.732  35.509  1.00  0.00     0.173 A 
ATOM     88  F   UNL A   1      45.867  29.575  34.018  1.00  0.00    -0.203 F 
ATOM     89  C   UNL A   1      46.607  28.024  35.629  1.00  0.00     0.198 A 
ATOM     90  C   UNL A   1      45.140  26.277  36.379  1.00  0.00     0.198 A 
ATOM     91  F   UNL A   1      42.977  26.089  35.476  1.00  0.00    -0.203 F 
ATOM     92  F   UNL A   1      47.800  28.634  35.668  1.00  0.00    -0.200 F 
ATOM     93  C   UNL A   1      46.366  26.923  36.437  1.00  0.00     0.200 A 
ATOM     94  F   UNL A   1      44.897  25.225  37.173  1.00  0.00    -0.200 F 
ATOM     95  F   UNL A   1      47.316  26.482  37.272  1.00  0.00    -0.200 F 
ENDBRANCH  62  85
ENDBRANCH  36  37
ENDBRANCH  29  31
ENDBRANCH  28  29
ENDBRANCH  27  28
ENDBRANCH  26  27
ENDBRANCH  25  26
ENDBRANCH   1  25
TORSDOF 19
ENDMDL
MODEL 2
REMARK VINA RESULT:     -10.5      5.109      9.549
REMARK SMILES N#Cc1c(C(F)(F)F)cc(-c2cccs2)nc1SCC(=O)OCCOCCOC(=O)c1ccc(-c2c3nc(c(-c4c(F)c(F)c(F)c(F)c4F)c4ccc([nH]4)c(-c4c(F)c(F)c(F)c(F)c4F)c4nc(c(-c5c(F)c(F)c(F)c(F)c5F)c5ccc2[nH]5)C=C4)C=C3)cc1
REMARK SMILES IDX 24 1 23 2 22 3 20 4 21 5 19 6 18 7 17 8 3 9 4 10 9 11 16 12
REMARK SMILES IDX 10 13 2 14 1 15 5 16 6 17 7 18 8 19 11 20 12 21 15 22 13 23
REMARK SMILES IDX 14 24 25 25 26 26 27 27 28 28 29 29 30 30 31 31 32 32 93 33
REMARK SMILES IDX 33 34 92 35 34 36 35 37 36 38 86 39 37 40 91 41 85 42 87 43
REMARK SMILES IDX 38 44 90 45 84 46 83 47 39 49 71 50 51 51 70 52 52 53 55 54
REMARK SMILES IDX 69 55 88 56 53 57 54 58 68 60 89 61 56 62 40 63 41 64 49 65
REMARK SMILES IDX 42 66 43 67 47 68 50 69 44 70 45 71 48 72 46 73 72 74 73 75
REMARK SMILES IDX 81 76 74 77 75 78 79 79 82 80 76 81 77 82 80 83 78 84 57 85
REMARK SMILES IDX 58 86 66 87 59 88 60 89 64 90 67 91 61 92 62 93 65 94 63 95
REMARK H PARENT 87 48 55 59
REMARK Flexibility Score: inf
ROOT
ATOM      1  C   UNL A   1      34.046  34.817  28.962  1.00  0.00     0.202 C 
ENDROOT
BRANCH   1   2
ATOM      2  C   UNL A   1      34.293  33.601  28.057  1.00  0.00     0.261 C 
BRANCH   2   3
ATOM      3  O   UNL A   1      33.430  32.466  28.309  1.00  0.00    -0.463 OA
BRANCH   3   4
ATOM      4  C   UNL A   1      33.885  31.275  27.826  1.00  0.00     0.316 C 
ATOM      5  O   UNL A   1      35.038  30.880  27.977  1.00  0.00    -0.251 OA
BRANCH   4   6
ATOM      6  C   UNL A   1      32.911  30.497  26.969  1.00  0.00     0.199 C 
BRANCH   6   7
ATOM      7  S   UNL A   1      33.555  29.271  25.800  1.00  0.00    -0.093 SA
BRANCH   7   8
ATOM      8  C   UNL A   1      32.248  28.558  24.811  1.00  0.00     0.116 A 
ATOM      9  C   UNL A   1      31.879  27.226  24.600  1.00  0.00     0.097 A 
ATOM     10  C   UNL A   1      30.588  26.964  24.076  1.00  0.00     0.078 A 
ATOM     11  C   UNL A   1      29.811  28.029  23.601  1.00  0.00     0.044 A 
ATOM     12  N   UNL A   1      31.473  29.574  24.326  1.00  0.00    -0.239 NA
ATOM     13  C   UNL A   1      30.307  29.309  23.702  1.00  0.00     0.082 A 
BRANCH   9  14
ATOM     14  C   UNL A   1      32.745  26.135  24.891  1.00  0.00     0.103 C 
ATOM     15  N   UNL A   1      33.447  25.228  25.091  1.00  0.00    -0.192 NA
ENDBRANCH   9  14
BRANCH  10  16
ATOM     16  C   UNL A   1      29.916  25.611  24.120  1.00  0.00     0.417 C 
ATOM     17  F   UNL A   1      28.601  25.722  23.768  1.00  0.00    -0.166 F 
ATOM     18  F   UNL A   1      30.462  24.725  23.252  1.00  0.00    -0.166 F 
ATOM     19  F   UNL A   1      29.901  25.019  25.337  1.00  0.00    -0.166 F 
ENDBRANCH  10  16
BRANCH  13  20
ATOM     20  C   UNL A   1      29.538  30.449  23.217  1.00  0.00     0.053 A 
ATOM     21  C   UNL A   1      29.148  31.587  23.900  1.00  0.00     0.022 A 
ATOM     22  S   UNL A   1      28.902  30.430  21.626  1.00  0.00    -0.142 S 
ATOM     23  C   UNL A   1      28.291  32.422  23.125  1.00  0.00     0.012 A 
ATOM     24  C   UNL A   1      28.063  31.901  21.871  1.00  0.00     0.065 A 
ENDBRANCH  13  20
ENDBRANCH   7   8
ENDBRANCH   6   7
ENDBRANCH   4   6
ENDBRANCH   3   4
ENDBRANCH   2   3
ENDBRANCH   1   2
BRANCH   1  25
ATOM     25  O   UNL A   1      33.232  34.651  30.120  1.00  0.00    -0.374 OA
BRANCH  25  26
ATOM     26  C   UNL A   1      33.652  35.285  31.317  1.00  0.00     0.202 C 
BRANCH  26  27
ATOM     27  C   UNL A   1      34.302  34.411  32.394  1.00  0.00     0.261 C 
BRANCH  27  28
ATOM     28  O   UNL A   1      35.601  33.938  32.065  1.00  0.00    -0.460 OA
BRANCH  28  29
ATOM     29  C   UNL A   1      35.622  32.660  31.631  1.00  0.00     0.338 C 
ATOM     30  O   UNL A   1      34.689  31.894  31.474  1.00  0.00    -0.246 OA
BRANCH  29  31
ATOM     31  C   UNL A   1      36.997  32.349  31.242  1.00  0.00     0.060 A 
ATOM     32  C   UNL A   1      37.398  32.666  29.941  1.00  0.00     0.016 A 
ATOM     33  C   UNL A   1      37.851  31.713  32.144  1.00  0.00     0.016 A 
ATOM     34  C   UNL A   1      38.668  32.302  29.514  1.00  0.00     0.010 A 
ATOM     35  C   UNL A   1      39.117  31.341  31.712  1.00  0.00     0.010 A 
ATOM     36  C   UNL A   1      39.511  31.602  30.387  1.00  0.00    -0.014 A 
BRANCH  36  37
ATOM     37  C   UNL A   1      40.735  30.965  29.869  1.00  0.00     0.031 A 
ATOM     38  C   UNL A   1      41.967  31.810  29.744  1.00  0.00     0.074 A 
ATOM     39  C   UNL A   1      40.728  29.671  29.512  1.00  0.00     0.049 A 
ATOM     40  N   UNL A   1      43.120  31.524  29.203  1.00  0.00    -0.248 NA
ATOM     41  C   UNL A   1      41.882  33.174  30.297  1.00  0.00     0.031 C 
ATOM     42  C   UNL A   1      39.589  28.765  29.647  1.00  0.00     0.029 A 
ATOM     43  N   UNL A   1      41.708  28.903  28.942  1.00  0.00    -0.354 N 
ATOM     44  C   UNL A   1      43.890  32.670  29.338  1.00  0.00     0.074 A 
ATOM     45  C   UNL A   1      43.069  33.669  29.983  1.00  0.00     0.031 C 
ATOM     46  C   UNL A   1      39.930  27.562  29.154  1.00  0.00     0.029 A 
ATOM     47  C   UNL A   1      41.293  27.633  28.630  1.00  0.00     0.049 A 
ATOM     48  H   UNL A   1      42.622  29.230  28.775  1.00  0.00     0.167 HD
ATOM     49  C   UNL A   1      45.174  32.863  28.958  1.00  0.00     0.037 A 
ATOM     50  C   UNL A   1      41.939  26.659  27.962  1.00  0.00     0.037 A 
ATOM     51  C   UNL A   1      45.967  31.854  28.311  1.00  0.00     0.049 A 
ATOM     52  C   UNL A   1      43.341  26.926  27.476  1.00  0.00     0.074 A 
ATOM     53  C   UNL A   1      47.277  31.930  27.877  1.00  0.00     0.029 A 
ATOM     54  N   UNL A   1      45.511  30.579  28.001  1.00  0.00    -0.354 N 
ATOM     55  N   UNL A   1      44.071  28.007  27.611  1.00  0.00    -0.248 NA
ATOM     56  C   UNL A   1      44.007  25.841  26.744  1.00  0.00     0.031 C 
ATOM     57  C   UNL A   1      47.598  30.719  27.256  1.00  0.00     0.029 A 
ATOM     58  C   UNL A   1      46.510  29.865  27.364  1.00  0.00     0.049 A 
ATOM     59  H   UNL A   1      44.611  30.236  28.204  1.00  0.00     0.167 HD
ATOM     60  C   UNL A   1      45.296  27.718  27.025  1.00  0.00     0.074 A 
ATOM     61  C   UNL A   1      45.207  26.360  26.527  1.00  0.00     0.031 C 
ATOM     62  C   UNL A   1      46.398  28.501  26.913  1.00  0.00     0.037 A 
BRANCH  49  63
ATOM     63  C   UNL A   1      45.779  34.214  29.204  1.00  0.00     0.064 A 
ATOM     64  C   UNL A   1      45.771  35.217  28.222  1.00  0.00     0.173 A 
ATOM     65  C   UNL A   1      46.355  34.519  30.447  1.00  0.00     0.173 A 
ATOM     66  F   UNL A   1      45.250  34.972  27.010  1.00  0.00    -0.203 F 
ATOM     67  C   UNL A   1      46.341  36.464  28.467  1.00  0.00     0.198 A 
ATOM     68  C   UNL A   1      46.895  35.777  30.699  1.00  0.00     0.198 A 
ATOM     69  F   UNL A   1      46.390  33.597  31.420  1.00  0.00    -0.203 F 
ATOM     70  F   UNL A   1      46.368  37.388  27.497  1.00  0.00    -0.200 F 
ATOM     71  C   UNL A   1      46.895  36.746  29.706  1.00  0.00     0.200 A 
ATOM     72  F   UNL A   1      47.419  36.050  31.901  1.00  0.00    -0.200 F 
ATOM     73  F   UNL A   1      47.436  37.949  29.943  1.00  0.00    -0.200 F 
ENDBRANCH  49  63
BRANCH  50  74
ATOM     74  C   UNL A   1      41.269  25.357  27.710  1.00  0.00     0.064 A 
ATOM     75  C   UNL A   1      41.679  24.194  28.375  1.00  0.00     0.173 A 
ATOM     76  C   UNL A   1      40.210  25.245  26.796  1.00  0.00     0.173 A 
ATOM     77  F   UNL A   1      42.699  24.244  29.245  1.00  0.00    -0.203 F 
ATOM     78  C   UNL A   1      41.072  22.965  28.119  1.00  0.00     0.198 A 
ATOM     79  C   UNL A   1      39.583  24.022  26.565  1.00  0.00     0.198 A 
ATOM     80  F   UNL A   1      39.774  26.327  26.136  1.00  0.00    -0.203 F 
ATOM     81  F   UNL A   1      41.517  21.861  28.734  1.00  0.00    -0.200 F 
ATOM     82  C   UNL A   1      40.020  22.881  27.219  1.00  0.00     0.200 A 
ATOM     83  F   UNL A   1      38.556  23.950  25.706  1.00  0.00    -0.200 F 
ATOM     84  F   UNL A   1      39.435  21.701  26.976  1.00  0.00    -0.200 F 
ENDBRANCH  50  74
BRANCH  62  85
ATOM     85  C   UNL A   1      47.624  27.892  26.299  1.00  0.00     0.064 A 
ATOM     86  C   UNL A   1      48.635  27.316  27.080  1.00  0.00     0.173 A 
ATOM     87  C   UNL A   1      47.734  27.801  24.903  1.00  0.00     0.173 A 
ATOM     88  F   UNL A   1      48.580  27.389  28.418  1.00  0.00    -0.203 F 
ATOM     89  C   UNL A   1      49.719  26.679  26.483  1.00  0.00     0.198 A 
ATOM     90  C   UNL A   1      48.802  27.137  24.311  1.00  0.00     0.198 A 
ATOM     91  F   UNL A   1      46.786  28.330  24.114  1.00  0.00    -0.203 F 
ATOM     92  F   UNL A   1      50.691  26.159  27.246  1.00  0.00    -0.200 F 
ATOM     93  C   UNL A   1      49.795  26.578  25.102  1.00  0.00     0.200 A 
ATOM     94  F   UNL A   1      48.863  27.024  22.977  1.00  0.00    -0.200 F 
ATOM     95  F   UNL A   1      50.827  25.942  24.531  1.00  0.00    -0.200 F 
ENDBRANCH  62  85
ENDBRANCH  36  37
ENDBRANCH  29  31
ENDBRANCH  28  29
ENDBRANCH  27  28
ENDBRANCH  26  27
ENDBRANCH  25  26
ENDBRANCH   1  25
TORSDOF 19
ENDMDL
MODEL 3
REMARK VINA RESULT:     -10.3      5.145      9.222
REMARK SMILES N#Cc1c(C(F)(F)F)cc(-c2cccs2)nc1SCC(=O)OCCOCCOC(=O)c1ccc(-c2c3nc(c(-c4c(F)c(F)c(F)c(F)c4F)c4ccc([nH]4)c(-c4c(F)c(F)c(F)c(F)c4F)c4nc(c(-c5c(F)c(F)c(F)c(F)c5F)c5ccc2[nH]5)C=C4)C=C3)cc1
REMARK SMILES IDX 24 1 23 2 22 3 20 4 21 5 19 6 18 7 17 8 3 9 4 10 9 11 16 12
REMARK SMILES IDX 10 13 2 14 1 15 5 16 6 17 7 18 8 19 11 20 12 21 15 22 13 23
REMARK SMILES IDX 14 24 25 25 26 26 27 27 28 28 29 29 30 30 31 31 32 32 93 33
REMARK SMILES IDX 33 34 92 35 34 36 35 37 36 38 86 39 37 40 91 41 85 42 87 43
REMARK SMILES IDX 38 44 90 45 84 46 83 47 39 49 71 50 51 51 70 52 52 53 55 54
REMARK SMILES IDX 69 55 88 56 53 57 54 58 68 60 89 61 56 62 40 63 41 64 49 65
REMARK SMILES IDX 42 66 43 67 47 68 50 69 44 70 45 71 48 72 46 73 72 74 73 75
REMARK SMILES IDX 81 76 74 77 75 78 79 79 82 80 76 81 77 82 80 83 78 84 57 85
REMARK SMILES IDX 58 86 66 87 59 88 60 89 64 90 67 91 61 92 62 93 65 94 63 95
REMARK H PARENT 87 48 55 59
REMARK Flexibility Score: inf
ROOT
ATOM      1  C   UNL A   1      34.029  36.398  33.534  1.00  0.00     0.202 C 
ENDROOT
BRANCH   1   2
ATOM      2  C   UNL A   1      33.071  36.680  32.369  1.00  0.00     0.261 C 
BRANCH   2   3
ATOM      3  O   UNL A   1      32.649  35.510  31.627  1.00  0.00    -0.463 OA
BRANCH   3   4
ATOM      4  C   UNL A   1      32.988  35.511  30.305  1.00  0.00     0.316 C 
ATOM      5  O   UNL A   1      32.398  36.175  29.457  1.00  0.00    -0.251 OA
BRANCH   4   6
ATOM      6  C   UNL A   1      34.075  34.538  29.904  1.00  0.00     0.199 C 
BRANCH   6   7
ATOM      7  S   UNL A   1      34.147  33.964  28.187  1.00  0.00    -0.093 SA
BRANCH   7   8
ATOM      8  C   UNL A   1      35.070  32.440  28.044  1.00  0.00     0.116 A 
ATOM      9  C   UNL A   1      36.362  32.106  28.464  1.00  0.00     0.097 A 
ATOM     10  C   UNL A   1      36.701  30.733  28.557  1.00  0.00     0.078 A 
ATOM     11  C   UNL A   1      35.821  29.772  28.041  1.00  0.00     0.044 A 
ATOM     12  N   UNL A   1      34.240  31.481  27.536  1.00  0.00    -0.239 NA
ATOM     13  C   UNL A   1      34.625  30.189  27.500  1.00  0.00     0.082 A 
BRANCH   9  14
ATOM     14  C   UNL A   1      37.337  33.087  28.797  1.00  0.00     0.103 C 
ATOM     15  N   UNL A   1      38.132  33.878  29.109  1.00  0.00    -0.192 NA
ENDBRANCH   9  14
BRANCH  10  16
ATOM     16  C   UNL A   1      37.901  30.207  29.311  1.00  0.00     0.417 C 
ATOM     17  F   UNL A   1      37.702  28.905  29.671  1.00  0.00    -0.166 F 
ATOM     18  F   UNL A   1      39.035  30.223  28.570  1.00  0.00    -0.166 F 
ATOM     19  F   UNL A   1      38.173  30.850  30.471  1.00  0.00    -0.166 F 
ENDBRANCH  10  16
BRANCH  13  20
ATOM     20  C   UNL A   1      33.680  29.227  26.947  1.00  0.00     0.053 A 
ATOM     21  C   UNL A   1      33.908  27.927  26.531  1.00  0.00     0.022 A 
ATOM     22  S   UNL A   1      32.063  29.704  26.640  1.00  0.00    -0.142 S 
ATOM     23  C   UNL A   1      32.761  27.340  25.922  1.00  0.00     0.012 A 
ATOM     24  C   UNL A   1      31.691  28.205  25.902  1.00  0.00     0.065 A 
ENDBRANCH  13  20
ENDBRANCH   7   8
ENDBRANCH   6   7
ENDBRANCH   4   6
ENDBRANCH   3   4
ENDBRANCH   2   3
ENDBRANCH   1   2
BRANCH   1  25
ATOM     25  O   UNL A   1      35.193  35.613  33.286  1.00  0.00    -0.374 OA
BRANCH  25  26
ATOM     26  C   UNL A   1      35.321  34.385  33.984  1.00  0.00     0.202 C 
BRANCH  26  27
ATOM     27  C   UNL A   1      36.726  33.792  34.126  1.00  0.00     0.261 C 
BRANCH  27  28
ATOM     28  O   UNL A   1      36.754  32.386  34.331  1.00  0.00    -0.460 OA
BRANCH  28  29
ATOM     29  C   UNL A   1      37.529  32.000  35.366  1.00  0.00     0.338 C 
ATOM     30  O   UNL A   1      37.314  32.111  36.560  1.00  0.00    -0.246 OA
BRANCH  29  31
ATOM     31  C   UNL A   1      38.678  31.284  34.815  1.00  0.00     0.060 A 
ATOM     32  C   UNL A   1      39.943  31.576  35.334  1.00  0.00     0.016 A 
ATOM     33  C   UNL A   1      38.499  30.374  33.772  1.00  0.00     0.016 A 
ATOM     34  C   UNL A   1      41.063  30.979  34.771  1.00  0.00     0.010 A 
ATOM     35  C   UNL A   1      39.622  29.786  33.203  1.00  0.00     0.010 A 
ATOM     36  C   UNL A   1      40.904  30.117  33.678  1.00  0.00    -0.014 A 
BRANCH  36  37
ATOM     37  C   UNL A   1      42.082  29.703  32.896  1.00  0.00     0.031 A 
ATOM     38  C   UNL A   1      42.824  28.478  33.339  1.00  0.00     0.074 A 
ATOM     39  C   UNL A   1      42.474  30.417  31.829  1.00  0.00     0.049 A 
ATOM     40  N   UNL A   1      43.952  27.985  32.903  1.00  0.00    -0.248 NA
ATOM     41  C   UNL A   1      42.214  27.708  34.438  1.00  0.00     0.031 C 
ATOM     42  C   UNL A   1      41.782  31.591  31.299  1.00  0.00     0.029 A 
ATOM     43  N   UNL A   1      43.565  30.268  31.014  1.00  0.00    -0.354 N 
ATOM     44  C   UNL A   1      44.192  26.860  33.678  1.00  0.00     0.074 A 
ATOM     45  C   UNL A   1      43.112  26.755  34.634  1.00  0.00     0.031 C 
ATOM     46  C   UNL A   1      42.478  32.070  30.254  1.00  0.00     0.029 A 
ATOM     47  C   UNL A   1      43.683  31.262  30.076  1.00  0.00     0.049 A 
ATOM     48  H   UNL A   1      44.200  29.520  31.093  1.00  0.00     0.167 HD
ATOM     49  C   UNL A   1      45.225  25.990  33.590  1.00  0.00     0.037 A 
ATOM     50  C   UNL A   1      44.678  31.502  29.201  1.00  0.00     0.037 A 
ATOM     51  C   UNL A   1      46.290  26.122  32.635  1.00  0.00     0.049 A 
ATOM     52  C   UNL A   1      45.860  30.565  29.178  1.00  0.00     0.074 A 
ATOM     53  C   UNL A   1      47.391  25.308  32.450  1.00  0.00     0.029 A 
ATOM     54  N   UNL A   1      46.383  27.147  31.703  1.00  0.00    -0.354 N 
ATOM     55  N   UNL A   1      46.081  29.497  29.905  1.00  0.00    -0.248 NA
ATOM     56  C   UNL A   1      46.927  30.867  28.216  1.00  0.00     0.031 C 
ATOM     57  C   UNL A   1      48.180  25.870  31.442  1.00  0.00     0.029 A 
ATOM     58  C   UNL A   1      47.535  26.997  30.952  1.00  0.00     0.049 A 
ATOM     59  H   UNL A   1      45.728  27.874  31.594  1.00  0.00     0.167 HD
ATOM     60  C   UNL A   1      47.287  28.973  29.459  1.00  0.00     0.074 A 
ATOM     61  C   UNL A   1      47.752  29.846  28.401  1.00  0.00     0.031 C 
ATOM     62  C   UNL A   1      47.949  27.867  29.880  1.00  0.00     0.037 A 
BRANCH  49  63
ATOM     63  C   UNL A   1      45.263  24.851  34.567  1.00  0.00     0.064 A 
ATOM     64  C   UNL A   1      44.782  23.576  34.233  1.00  0.00     0.173 A 
ATOM     65  C   UNL A   1      45.807  25.032  35.848  1.00  0.00     0.173 A 
ATOM     66  F   UNL A   1      44.234  23.353  33.029  1.00  0.00    -0.203 F 
ATOM     67  C   UNL A   1      44.821  22.531  35.154  1.00  0.00     0.198 A 
ATOM     68  C   UNL A   1      45.875  23.977  36.755  1.00  0.00     0.198 A 
ATOM     69  F   UNL A   1      46.280  26.231  36.218  1.00  0.00    -0.203 F 
ATOM     70  F   UNL A   1      44.308  21.336  34.832  1.00  0.00    -0.200 F 
ATOM     71  C   UNL A   1      45.374  22.731  36.410  1.00  0.00     0.200 A 
ATOM     72  F   UNL A   1      46.420  24.170  37.963  1.00  0.00    -0.200 F 
ATOM     73  F   UNL A   1      45.418  21.723  37.293  1.00  0.00    -0.200 F 
ENDBRANCH  49  63
BRANCH  50  74
ATOM     74  C   UNL A   1      44.604  32.674  28.290  1.00  0.00     0.064 A 
ATOM     75  C   UNL A   1      45.006  33.946  28.718  1.00  0.00     0.173 A 
ATOM     76  C   UNL A   1      44.124  32.551  26.978  1.00  0.00     0.173 A 
ATOM     77  F   UNL A   1      45.455  34.120  29.970  1.00  0.00    -0.203 F 
ATOM     78  C   UNL A   1      44.910  35.053  27.877  1.00  0.00     0.198 A 
ATOM     79  C   UNL A   1      44.059  33.652  26.127  1.00  0.00     0.198 A 
ATOM     80  F   UNL A   1      43.730  31.355  26.515  1.00  0.00    -0.203 F 
ATOM     81  F   UNL A   1      45.257  36.266  28.329  1.00  0.00    -0.200 F 
ATOM     82  C   UNL A   1      44.442  34.905  26.580  1.00  0.00     0.200 A 
ATOM     83  F   UNL A   1      43.621  33.500  24.869  1.00  0.00    -0.200 F 
ATOM     84  F   UNL A   1      44.354  35.969  25.770  1.00  0.00    -0.200 F 
ENDBRANCH  50  74
BRANCH  62  85
ATOM     85  C   UNL A   1      49.204  27.487  29.151  1.00  0.00     0.064 A 
ATOM     86  C   UNL A   1      50.468  27.910  29.583  1.00  0.00     0.173 A 
ATOM     87  C   UNL A   1      49.138  26.606  28.061  1.00  0.00     0.173 A 
ATOM     88  F   UNL A   1      50.581  28.762  30.612  1.00  0.00    -0.203 F 
ATOM     89  C   UNL A   1      51.623  27.470  28.941  1.00  0.00     0.198 A 
ATOM     90  C   UNL A   1      50.294  26.144  27.443  1.00  0.00     0.198 A 
ATOM     91  F   UNL A   1      47.949  26.166  27.617  1.00  0.00    -0.203 F 
ATOM     92  F   UNL A   1      52.821  27.908  29.350  1.00  0.00    -0.200 F 
ATOM     93  C   UNL A   1      51.535  26.579  27.881  1.00  0.00     0.200 A 
ATOM     94  F   UNL A   1      50.208  25.268  26.432  1.00  0.00    -0.200 F 
ATOM     95  F   UNL A   1      52.650  26.137  27.283  1.00  0.00    -0.200 F 
ENDBRANCH  62  85
ENDBRANCH  36  37
ENDBRANCH  29  31
ENDBRANCH  28  29
ENDBRANCH  27  28
ENDBRANCH  26  27
ENDBRANCH  25  26
ENDBRANCH   1  25
TORSDOF 19
ENDMDL
