MODEL 1
REMARK VINA RESULT:     -10.6      0.000      0.000
REMARK SMILES C[C@@H]1c2ccccc2-c2ccc(C(=O)OCCOCCOC(=O)c3ccc(-c4c5nc(c(-c6c(F)c(F)c(F)c(F)c6F)c6ccc([nH]6)c(-c6c(F)c(F)c(F)c(F)c6F)c6nc(c(-c7c(F)c(F)c(F)c(F)c7F)c7ccc4[nH]7)C=C6)C=C5)cc3)cc21
REMARK SMILES IDX 19 1 18 2 17 3 16 4 15 5 13 6 14 7 12 8 1 9 2 10 3 11 88 12
REMARK SMILES IDX 4 13 8 14 9 15 87 16 5 17 7 18 10 19 6 20 11 21 20 22 21 23
REMARK SMILES IDX 22 24 23 25 24 26 25 27 86 28 26 29 85 30 27 31 28 32 29 33
REMARK SMILES IDX 79 34 30 35 84 36 78 37 80 38 31 39 83 40 77 41 76 42 32 44
REMARK SMILES IDX 64 45 44 46 63 47 45 48 48 49 62 50 81 51 46 52 47 53 61 55
REMARK SMILES IDX 82 56 49 57 33 58 34 59 42 60 35 61 36 62 40 63 43 64 37 65
REMARK SMILES IDX 38 66 41 67 39 68 65 69 66 70 74 71 67 72 68 73 72 74 75 75
REMARK SMILES IDX 69 76 70 77 73 78 71 79 50 80 51 81 59 82 52 83 53 84 57 85
REMARK SMILES IDX 60 86 54 87 55 88 58 89 56 90
REMARK H PARENT 80 43 48 54
REMARK Flexibility Score: inf
ROOT
ATOM      1  C   UNL A   1      33.441  34.050  28.083  1.00  0.00     0.202 C 
ENDROOT
BRANCH   1   2
ATOM      2  O   UNL A   1      32.830  34.432  29.316  1.00  0.00    -0.374 OA
BRANCH   2   3
ATOM      3  C   UNL A   1      33.214  35.691  29.869  1.00  0.00     0.202 C 
BRANCH   3   4
ATOM      4  C   UNL A   1      32.555  36.070  31.198  1.00  0.00     0.261 C 
BRANCH   4   5
ATOM      5  O   UNL A   1      32.949  35.169  32.247  1.00  0.00    -0.460 OA
BRANCH   5   6
ATOM      6  C   UNL A   1      34.069  35.540  32.913  1.00  0.00     0.338 C 
ATOM      7  O   UNL A   1      34.210  36.539  33.603  1.00  0.00    -0.246 OA
BRANCH   6   8
ATOM      8  C   UNL A   1      35.102  34.481  32.835  1.00  0.00     0.060 A 
ATOM      9  C   UNL A   1      39.698  34.273  32.960  1.00  0.00     0.018 C 
ATOM     10  C   UNL A   1      38.701  33.456  33.772  1.00  0.00     0.047 C 
ATOM     11  C   UNL A   1      38.957  31.957  33.649  1.00  0.00    -0.033 A 
ATOM     12  C   UNL A   1      37.271  33.571  33.250  1.00  0.00    -0.032 A 
ATOM     13  C   UNL A   1      40.053  31.229  34.084  1.00  0.00     0.005 A 
ATOM     14  C   UNL A   1      37.847  31.320  33.059  1.00  0.00    -0.014 A 
ATOM     15  C   UNL A   1      36.818  32.305  32.809  1.00  0.00    -0.014 A 
ATOM     16  C   UNL A   1      36.423  34.675  33.262  1.00  0.00     0.020 A 
ATOM     17  C   UNL A   1      40.031  29.841  33.916  1.00  0.00     0.000 A 
ATOM     18  C   UNL A   1      37.830  29.946  32.880  1.00  0.00     0.009 A 
ATOM     19  C   UNL A   1      35.536  32.135  32.317  1.00  0.00     0.010 A 
ATOM     20  C   UNL A   1      38.932  29.206  33.316  1.00  0.00     0.001 A 
ATOM     21  C   UNL A   1      34.675  33.230  32.341  1.00  0.00     0.016 A 
ENDBRANCH   6   8
ENDBRANCH   5   6
ENDBRANCH   4   5
ENDBRANCH   3   4
ENDBRANCH   2   3
ENDBRANCH   1   2
BRANCH   1  22
ATOM     22  C   UNL A   1      34.759  33.275  28.198  1.00  0.00     0.261 C 
BRANCH  22  23
ATOM     23  O   UNL A   1      34.605  32.078  28.984  1.00  0.00    -0.460 OA
BRANCH  23  24
ATOM     24  C   UNL A   1      34.561  30.931  28.269  1.00  0.00     0.338 C 
ATOM     25  O   UNL A   1      33.657  30.539  27.543  1.00  0.00    -0.246 OA
BRANCH  24  26
ATOM     26  C   UNL A   1      35.865  30.247  28.333  1.00  0.00     0.060 A 
ATOM     27  C   UNL A   1      36.225  29.657  29.552  1.00  0.00     0.016 A 
ATOM     28  C   UNL A   1      36.752  30.240  27.254  1.00  0.00     0.016 A 
ATOM     29  C   UNL A   1      37.495  29.111  29.717  1.00  0.00     0.010 A 
ATOM     30  C   UNL A   1      38.031  29.699  27.422  1.00  0.00     0.010 A 
ATOM     31  C   UNL A   1      38.421  29.170  28.667  1.00  0.00    -0.014 A 
BRANCH  31  32
ATOM     32  C   UNL A   1      39.840  28.830  28.930  1.00  0.00     0.031 A 
ATOM     33  C   UNL A   1      40.693  29.810  29.684  1.00  0.00     0.074 A 
ATOM     34  C   UNL A   1      40.350  27.649  28.540  1.00  0.00     0.049 A 
ATOM     35  N   UNL A   1      41.955  29.729  30.022  1.00  0.00    -0.248 NA
ATOM     36  C   UNL A   1      40.034  31.053  30.114  1.00  0.00     0.031 C 
ATOM     37  C   UNL A   1      39.614  26.602  27.837  1.00  0.00     0.029 A 
ATOM     38  N   UNL A   1      41.615  27.137  28.682  1.00  0.00    -0.354 N 
ATOM     39  C   UNL A   1      42.241  30.907  30.699  1.00  0.00     0.074 A 
ATOM     40  C   UNL A   1      41.032  31.702  30.695  1.00  0.00     0.031 C 
ATOM     41  C   UNL A   1      40.443  25.570  27.603  1.00  0.00     0.029 A 
ATOM     42  C   UNL A   1      41.773  25.897  28.116  1.00  0.00     0.049 A 
ATOM     43  H   UNL A   1      42.342  27.614  29.146  1.00  0.00     0.167 HD
ATOM     44  C   UNL A   1      43.403  31.288  31.281  1.00  0.00     0.037 A 
ATOM     45  C   UNL A   1      42.870  25.123  28.014  1.00  0.00     0.037 A 
ATOM     46  C   UNL A   1      44.605  30.495  31.286  1.00  0.00     0.049 A 
ATOM     47  C   UNL A   1      44.169  25.596  28.612  1.00  0.00     0.074 A 
ATOM     48  C   UNL A   1      45.827  30.784  31.866  1.00  0.00     0.029 A 
ATOM     49  N   UNL A   1      44.735  29.259  30.671  1.00  0.00    -0.354 N 
ATOM     50  N   UNL A   1      44.424  26.698  29.274  1.00  0.00    -0.248 NA
ATOM     51  C   UNL A   1      45.334  24.712  28.451  1.00  0.00     0.031 C 
ATOM     52  C   UNL A   1      46.712  29.743  31.561  1.00  0.00     0.029 A 
ATOM     53  C   UNL A   1      46.026  28.783  30.836  1.00  0.00     0.049 A 
ATOM     54  H   UNL A   1      44.017  28.788  30.190  1.00  0.00     0.167 HD
ATOM     55  C   UNL A   1      45.764  26.629  29.634  1.00  0.00     0.074 A 
ATOM     56  C   UNL A   1      46.267  25.370  29.124  1.00  0.00     0.031 C 
ATOM     57  C   UNL A   1      46.510  27.524  30.327  1.00  0.00     0.037 A 
BRANCH  44  58
ATOM     58  C   UNL A   1      43.434  32.636  31.939  1.00  0.00     0.064 A 
ATOM     59  C   UNL A   1      43.572  33.818  31.195  1.00  0.00     0.173 A 
ATOM     60  C   UNL A   1      43.307  32.748  33.332  1.00  0.00     0.173 A 
ATOM     61  F   UNL A   1      43.712  33.764  29.863  1.00  0.00    -0.203 F 
ATOM     62  C   UNL A   1      43.613  35.059  31.825  1.00  0.00     0.198 A 
ATOM     63  C   UNL A   1      43.320  33.992  33.955  1.00  0.00     0.198 A 
ATOM     64  F   UNL A   1      43.169  31.649  34.089  1.00  0.00    -0.203 F 
ATOM     65  F   UNL A   1      43.799  36.171  31.099  1.00  0.00    -0.200 F 
ATOM     66  C   UNL A   1      43.481  35.146  33.203  1.00  0.00     0.200 A 
ATOM     67  F   UNL A   1      43.181  34.075  35.286  1.00  0.00    -0.200 F 
ATOM     68  F   UNL A   1      43.519  36.342  33.808  1.00  0.00    -0.200 F 
ENDBRANCH  44  58
BRANCH  45  69
ATOM     69  C   UNL A   1      42.788  23.814  27.316  1.00  0.00     0.064 A 
ATOM     70  C   UNL A   1      42.327  22.669  27.979  1.00  0.00     0.173 A 
ATOM     71  C   UNL A   1      43.177  23.681  25.975  1.00  0.00     0.173 A 
ATOM     72  F   UNL A   1      41.968  22.741  29.269  1.00  0.00    -0.203 F 
ATOM     73  C   UNL A   1      42.270  21.437  27.330  1.00  0.00     0.198 A 
ATOM     74  C   UNL A   1      43.095  22.454  25.320  1.00  0.00     0.198 A 
ATOM     75  F   UNL A   1      43.629  24.747  25.297  1.00  0.00    -0.203 F 
ATOM     76  F   UNL A   1      41.864  20.349  27.999  1.00  0.00    -0.200 F 
ATOM     77  C   UNL A   1      42.647  21.331  26.001  1.00  0.00     0.200 A 
ATOM     78  F   UNL A   1      43.451  22.359  24.032  1.00  0.00    -0.200 F 
ATOM     79  F   UNL A   1      42.588  20.147  25.376  1.00  0.00    -0.200 F 
ENDBRANCH  45  69
BRANCH  57  80
ATOM     80  C   UNL A   1      47.940  27.162  30.607  1.00  0.00     0.064 A 
ATOM     81  C   UNL A   1      48.302  26.406  31.732  1.00  0.00     0.173 A 
ATOM     82  C   UNL A   1      48.955  27.539  29.715  1.00  0.00     0.173 A 
ATOM     83  F   UNL A   1      47.371  26.032  32.623  1.00  0.00    -0.203 F 
ATOM     84  C   UNL A   1      49.632  26.064  31.966  1.00  0.00     0.198 A 
ATOM     85  C   UNL A   1      50.279  27.171  29.937  1.00  0.00     0.198 A 
ATOM     86  F   UNL A   1      48.661  28.257  28.620  1.00  0.00    -0.203 F 
ATOM     87  F   UNL A   1      49.962  25.380  33.071  1.00  0.00    -0.200 F 
ATOM     88  C   UNL A   1      50.617  26.440  31.065  1.00  0.00     0.200 A 
ATOM     89  F   UNL A   1      51.227  27.524  29.058  1.00  0.00    -0.200 F 
ATOM     90  F   UNL A   1      51.895  26.104  31.289  1.00  0.00    -0.200 F 
ENDBRANCH  57  80
ENDBRANCH  31  32
ENDBRANCH  24  26
ENDBRANCH  23  24
ENDBRANCH  22  23
ENDBRANCH   1  22
TORSDOF 14
ENDMDL
MODEL 2
REMARK VINA RESULT:     -10.2      1.893      3.096
REMARK SMILES C[C@@H]1c2ccccc2-c2ccc(C(=O)OCCOCCOC(=O)c3ccc(-c4c5nc(c(-c6c(F)c(F)c(F)c(F)c6F)c6ccc([nH]6)c(-c6c(F)c(F)c(F)c(F)c6F)c6nc(c(-c7c(F)c(F)c(F)c(F)c7F)c7ccc4[nH]7)C=C6)C=C5)cc3)cc21
REMARK SMILES IDX 19 1 18 2 17 3 16 4 15 5 13 6 14 7 12 8 1 9 2 10 3 11 88 12
REMARK SMILES IDX 4 13 8 14 9 15 87 16 5 17 7 18 10 19 6 20 11 21 20 22 21 23
REMARK SMILES IDX 22 24 23 25 24 26 25 27 86 28 26 29 85 30 27 31 28 32 29 33
REMARK SMILES IDX 79 34 30 35 84 36 78 37 80 38 31 39 83 40 77 41 76 42 32 44
REMARK SMILES IDX 64 45 44 46 63 47 45 48 48 49 62 50 81 51 46 52 47 53 61 55
REMARK SMILES IDX 82 56 49 57 33 58 34 59 42 60 35 61 36 62 40 63 43 64 37 65
REMARK SMILES IDX 38 66 41 67 39 68 65 69 66 70 74 71 67 72 68 73 72 74 75 75
REMARK SMILES IDX 69 76 70 77 73 78 71 79 50 80 51 81 59 82 52 83 53 84 57 85
REMARK SMILES IDX 60 86 54 87 55 88 58 89 56 90
REMARK H PARENT 80 43 48 54
REMARK Flexibility Score: inf
ROOT
ATOM      1  C   UNL A   1      33.802  34.467  29.319  1.00  0.00     0.202 C 
ENDROOT
BRANCH   1   2
ATOM      2  O   UNL A   1      33.039  34.850  30.464  1.00  0.00    -0.374 OA
BRANCH   2   3
ATOM      3  C   UNL A   1      33.658  35.747  31.387  1.00  0.00     0.202 C 
BRANCH   3   4
ATOM      4  C   UNL A   1      33.619  35.329  32.858  1.00  0.00     0.261 C 
BRANCH   4   5
ATOM      5  O   UNL A   1      34.853  35.656  33.522  1.00  0.00    -0.460 OA
BRANCH   5   6
ATOM      6  C   UNL A   1      35.535  34.586  33.996  1.00  0.00     0.338 C 
ATOM      7  O   UNL A   1      35.122  33.749  34.786  1.00  0.00    -0.246 OA
BRANCH   6   8
ATOM      8  C   UNL A   1      36.840  34.449  33.310  1.00  0.00     0.060 A 
ATOM      9  C   UNL A   1      38.305  33.283  29.105  1.00  0.00     0.018 C 
ATOM     10  C   UNL A   1      38.689  34.509  29.924  1.00  0.00     0.047 C 
ATOM     11  C   UNL A   1      40.201  34.653  30.060  1.00  0.00    -0.033 A 
ATOM     12  C   UNL A   1      38.253  34.411  31.384  1.00  0.00    -0.032 A 
ATOM     13  C   UNL A   1      41.139  34.902  29.071  1.00  0.00     0.005 A 
ATOM     14  C   UNL A   1      40.579  34.566  31.416  1.00  0.00    -0.014 A 
ATOM     15  C   UNL A   1      39.391  34.412  32.225  1.00  0.00    -0.014 A 
ATOM     16  C   UNL A   1      36.966  34.422  31.913  1.00  0.00     0.020 A 
ATOM     17  C   UNL A   1      42.474  35.060  29.452  1.00  0.00     0.000 A 
ATOM     18  C   UNL A   1      41.905  34.709  31.793  1.00  0.00     0.009 A 
ATOM     19  C   UNL A   1      39.263  34.363  33.602  1.00  0.00     0.010 A 
ATOM     20  C   UNL A   1      42.854  34.960  30.800  1.00  0.00     0.001 A 
ATOM     21  C   UNL A   1      37.979  34.391  34.142  1.00  0.00     0.016 A 
ENDBRANCH   6   8
ENDBRANCH   5   6
ENDBRANCH   4   5
ENDBRANCH   3   4
ENDBRANCH   2   3
ENDBRANCH   1   2
BRANCH   1  22
ATOM     22  C   UNL A   1      34.530  33.121  29.416  1.00  0.00     0.261 C 
BRANCH  22  23
ATOM     23  O   UNL A   1      34.874  32.607  28.116  1.00  0.00    -0.460 OA
BRANCH  23  24
ATOM     24  C   UNL A   1      34.619  31.291  27.940  1.00  0.00     0.338 C 
ATOM     25  O   UNL A   1      33.614  30.784  27.458  1.00  0.00    -0.246 OA
BRANCH  24  26
ATOM     26  C   UNL A   1      35.821  30.498  28.255  1.00  0.00     0.060 A 
ATOM     27  C   UNL A   1      35.835  29.803  29.472  1.00  0.00     0.016 A 
ATOM     28  C   UNL A   1      36.941  30.487  27.420  1.00  0.00     0.016 A 
ATOM     29  C   UNL A   1      36.989  29.144  29.888  1.00  0.00     0.010 A 
ATOM     30  C   UNL A   1      38.103  29.832  27.843  1.00  0.00     0.010 A 
ATOM     31  C   UNL A   1      38.143  29.193  29.096  1.00  0.00    -0.014 A 
BRANCH  31  32
ATOM     32  C   UNL A   1      39.430  28.720  29.660  1.00  0.00     0.031 A 
ATOM     33  C   UNL A   1      39.992  29.413  30.870  1.00  0.00     0.074 A 
ATOM     34  C   UNL A   1      40.070  27.663  29.129  1.00  0.00     0.049 A 
ATOM     35  N   UNL A   1      41.099  29.178  31.527  1.00  0.00    -0.248 NA
ATOM     36  C   UNL A   1      39.197  30.527  31.410  1.00  0.00     0.031 C 
ATOM     37  C   UNL A   1      39.607  26.886  27.982  1.00  0.00     0.029 A 
ATOM     38  N   UNL A   1      41.251  27.066  29.490  1.00  0.00    -0.354 N 
ATOM     39  C   UNL A   1      41.135  30.112  32.552  1.00  0.00     0.074 A 
ATOM     40  C   UNL A   1      39.957  30.941  32.413  1.00  0.00     0.031 C 
ATOM     41  C   UNL A   1      40.499  25.913  27.729  1.00  0.00     0.029 A 
ATOM     42  C   UNL A   1      41.607  26.018  28.678  1.00  0.00     0.049 A 
ATOM     43  H   UNL A   1      41.792  27.360  30.258  1.00  0.00     0.167 HD
ATOM     44  C   UNL A   1      42.061  30.259  33.530  1.00  0.00     0.037 A 
ATOM     45  C   UNL A   1      42.709  25.244  28.694  1.00  0.00     0.037 A 
ATOM     46  C   UNL A   1      43.230  29.432  33.670  1.00  0.00     0.049 A 
ATOM     47  C   UNL A   1      43.757  25.468  29.752  1.00  0.00     0.074 A 
ATOM     48  C   UNL A   1      44.217  29.489  34.638  1.00  0.00     0.029 A 
ATOM     49  N   UNL A   1      43.575  28.403  32.807  1.00  0.00    -0.354 N 
ATOM     50  N   UNL A   1      43.770  26.335  30.735  1.00  0.00    -0.248 NA
ATOM     51  C   UNL A   1      44.944  24.601  29.703  1.00  0.00     0.031 C 
ATOM     52  C   UNL A   1      45.184  28.524  34.333  1.00  0.00     0.029 A 
ATOM     53  C   UNL A   1      44.773  27.832  33.205  1.00  0.00     0.049 A 
ATOM     54  H   UNL A   1      43.046  28.118  32.027  1.00  0.00     0.167 HD
ATOM     55  C   UNL A   1      44.945  26.100  31.438  1.00  0.00     0.074 A 
ATOM     56  C   UNL A   1      45.615  25.001  30.774  1.00  0.00     0.031 C 
ATOM     57  C   UNL A   1      45.425  26.735  32.537  1.00  0.00     0.037 A 
BRANCH  44  58
ATOM     58  C   UNL A   1      41.854  31.375  34.511  1.00  0.00     0.064 A 
ATOM     59  C   UNL A   1      40.914  31.282  35.549  1.00  0.00     0.173 A 
ATOM     60  C   UNL A   1      42.618  32.549  34.421  1.00  0.00     0.173 A 
ATOM     61  F   UNL A   1      40.147  30.189  35.669  1.00  0.00    -0.203 F 
ATOM     62  C   UNL A   1      40.726  32.335  36.441  1.00  0.00     0.198 A 
ATOM     63  C   UNL A   1      42.448  33.587  35.332  1.00  0.00     0.198 A 
ATOM     64  F   UNL A   1      43.534  32.687  33.450  1.00  0.00    -0.203 F 
ATOM     65  F   UNL A   1      39.786  32.245  37.392  1.00  0.00    -0.200 F 
ATOM     66  C   UNL A   1      41.496  33.483  36.336  1.00  0.00     0.200 A 
ATOM     67  F   UNL A   1      43.201  34.692  35.236  1.00  0.00    -0.200 F 
ATOM     68  F   UNL A   1      41.316  34.496  37.196  1.00  0.00    -0.200 F 
ENDBRANCH  44  58
BRANCH  45  69
ATOM     69  C   UNL A   1      42.877  24.178  27.672  1.00  0.00     0.064 A 
ATOM     70  C   UNL A   1      42.472  22.862  27.927  1.00  0.00     0.173 A 
ATOM     71  C   UNL A   1      43.455  24.455  26.424  1.00  0.00     0.173 A 
ATOM     72  F   UNL A   1      41.939  22.543  29.116  1.00  0.00    -0.203 F 
ATOM     73  C   UNL A   1      42.650  21.858  26.977  1.00  0.00     0.198 A 
ATOM     74  C   UNL A   1      43.608  23.456  25.465  1.00  0.00     0.198 A 
ATOM     75  F   UNL A   1      43.862  25.699  26.132  1.00  0.00    -0.203 F 
ATOM     76  F   UNL A   1      42.291  20.599  27.261  1.00  0.00    -0.200 F 
ATOM     77  C   UNL A   1      43.211  22.157  25.745  1.00  0.00     0.200 A 
ATOM     78  F   UNL A   1      44.141  23.752  24.272  1.00  0.00    -0.200 F 
ATOM     79  F   UNL A   1      43.377  21.192  24.829  1.00  0.00    -0.200 F 
ENDBRANCH  45  69
BRANCH  57  80
ATOM     80  C   UNL A   1      46.718  26.234  33.113  1.00  0.00     0.064 A 
ATOM     81  C   UNL A   1      46.754  25.192  34.050  1.00  0.00     0.173 A 
ATOM     82  C   UNL A   1      47.941  26.778  32.689  1.00  0.00     0.173 A 
ATOM     83  F   UNL A   1      45.612  24.648  34.499  1.00  0.00    -0.203 F 
ATOM     84  C   UNL A   1      47.964  24.730  34.560  1.00  0.00     0.198 A 
ATOM     85  C   UNL A   1      49.149  26.294  33.179  1.00  0.00     0.198 A 
ATOM     86  F   UNL A   1      47.962  27.773  31.789  1.00  0.00    -0.203 F 
ATOM     87  F   UNL A   1      47.972  23.763  35.489  1.00  0.00    -0.200 F 
ATOM     88  C   UNL A   1      49.160  25.275  34.119  1.00  0.00     0.200 A 
ATOM     89  F   UNL A   1      50.305  26.814  32.742  1.00  0.00    -0.200 F 
ATOM     90  F   UNL A   1      50.324  24.823  34.606  1.00  0.00    -0.200 F 
ENDBRANCH  57  80
ENDBRANCH  31  32
ENDBRANCH  24  26
ENDBRANCH  23  24
ENDBRANCH  22  23
ENDBRANCH   1  22
TORSDOF 14
ENDMDL
MODEL 3
REMARK VINA RESULT:     -10.1      4.412     11.082
REMARK SMILES C[C@@H]1c2ccccc2-c2ccc(C(=O)OCCOCCOC(=O)c3ccc(-c4c5nc(c(-c6c(F)c(F)c(F)c(F)c6F)c6ccc([nH]6)c(-c6c(F)c(F)c(F)c(F)c6F)c6nc(c(-c7c(F)c(F)c(F)c(F)c7F)c7ccc4[nH]7)C=C6)C=C5)cc3)cc21
REMARK SMILES IDX 19 1 18 2 17 3 16 4 15 5 13 6 14 7 12 8 1 9 2 10 3 11 88 12
REMARK SMILES IDX 4 13 8 14 9 15 87 16 5 17 7 18 10 19 6 20 11 21 20 22 21 23
REMARK SMILES IDX 22 24 23 25 24 26 25 27 86 28 26 29 85 30 27 31 28 32 29 33
REMARK SMILES IDX 79 34 30 35 84 36 78 37 80 38 31 39 83 40 77 41 76 42 32 44
REMARK SMILES IDX 64 45 44 46 63 47 45 48 48 49 62 50 81 51 46 52 47 53 61 55
REMARK SMILES IDX 82 56 49 57 33 58 34 59 42 60 35 61 36 62 40 63 43 64 37 65
REMARK SMILES IDX 38 66 41 67 39 68 65 69 66 70 74 71 67 72 68 73 72 74 75 75
REMARK SMILES IDX 69 76 70 77 73 78 71 79 50 80 51 81 59 82 52 83 53 84 57 85
REMARK SMILES IDX 60 86 54 87 55 88 58 89 56 90
REMARK H PARENT 80 43 48 54
REMARK Flexibility Score: inf
ROOT
ATOM      1  C   UNL A   1      41.851  19.835  26.612  1.00  0.00     0.202 C 
ENDROOT
BRANCH   1   2
ATOM      2  O   UNL A   1      42.394  19.372  25.374  1.00  0.00    -0.374 OA
BRANCH   2   3
ATOM      3  C   UNL A   1      43.760  18.959  25.377  1.00  0.00     0.202 C 
BRANCH   3   4
ATOM      4  C   UNL A   1      44.624  19.486  24.228  1.00  0.00     0.261 C 
BRANCH   4   5
ATOM      5  O   UNL A   1      45.495  20.539  24.677  1.00  0.00    -0.460 OA
BRANCH   5   6
ATOM      6  C   UNL A   1      45.045  21.789  24.414  1.00  0.00     0.338 C 
ATOM      7  O   UNL A   1      44.528  22.175  23.376  1.00  0.00    -0.246 OA
BRANCH   6   8
ATOM      8  C   UNL A   1      45.114  22.638  25.626  1.00  0.00     0.060 A 
ATOM      9  C   UNL A   1      42.298  23.761  29.090  1.00  0.00     0.018 C 
ATOM     10  C   UNL A   1      43.732  23.253  29.176  1.00  0.00     0.047 C 
ATOM     11  C   UNL A   1      44.613  24.169  30.020  1.00  0.00    -0.033 A 
ATOM     12  C   UNL A   1      44.455  23.279  27.831  1.00  0.00    -0.032 A 
ATOM     13  C   UNL A   1      44.527  24.441  31.376  1.00  0.00     0.005 A 
ATOM     14  C   UNL A   1      45.651  24.707  29.233  1.00  0.00    -0.014 A 
ATOM     15  C   UNL A   1      45.553  24.170  27.895  1.00  0.00    -0.014 A 
ATOM     16  C   UNL A   1      44.217  22.509  26.697  1.00  0.00     0.020 A 
ATOM     17  C   UNL A   1      45.498  25.271  31.944  1.00  0.00     0.000 A 
ATOM     18  C   UNL A   1      46.606  25.540  29.794  1.00  0.00     0.009 A 
ATOM     19  C   UNL A   1      46.392  24.350  26.809  1.00  0.00     0.010 A 
ATOM     20  C   UNL A   1      46.526  25.818  31.160  1.00  0.00     0.001 A 
ATOM     21  C   UNL A   1      46.172  23.571  25.675  1.00  0.00     0.016 A 
ENDBRANCH   6   8
ENDBRANCH   5   6
ENDBRANCH   4   5
ENDBRANCH   3   4
ENDBRANCH   2   3
ENDBRANCH   1   2
BRANCH   1  22
ATOM     22  C   UNL A   1      40.437  20.423  26.547  1.00  0.00     0.261 C 
BRANCH  22  23
ATOM     23  O   UNL A   1      40.418  21.808  26.941  1.00  0.00    -0.460 OA
BRANCH  23  24
ATOM     24  C   UNL A   1      39.368  22.518  26.472  1.00  0.00     0.338 C 
ATOM     25  O   UNL A   1      38.360  22.087  25.927  1.00  0.00    -0.246 OA
BRANCH  24  26
ATOM     26  C   UNL A   1      39.502  23.934  26.861  1.00  0.00     0.060 A 
ATOM     27  C   UNL A   1      40.200  24.779  25.988  1.00  0.00     0.016 A 
ATOM     28  C   UNL A   1      39.023  24.415  28.082  1.00  0.00     0.016 A 
ATOM     29  C   UNL A   1      40.474  26.093  26.359  1.00  0.00     0.010 A 
ATOM     30  C   UNL A   1      39.307  25.733  28.457  1.00  0.00     0.010 A 
ATOM     31  C   UNL A   1      40.068  26.563  27.614  1.00  0.00    -0.014 A 
BRANCH  31  32
ATOM     32  C   UNL A   1      40.587  27.863  28.105  1.00  0.00     0.031 A 
ATOM     33  C   UNL A   1      42.066  28.125  28.041  1.00  0.00     0.074 A 
ATOM     34  C   UNL A   1      39.751  28.811  28.561  1.00  0.00     0.049 A 
ATOM     35  N   UNL A   1      42.742  29.181  28.417  1.00  0.00    -0.248 NA
ATOM     36  C   UNL A   1      42.896  27.048  27.480  1.00  0.00     0.031 C 
ATOM     37  C   UNL A   1      38.297  28.690  28.636  1.00  0.00     0.029 A 
ATOM     38  N   UNL A   1      40.013  30.066  29.051  1.00  0.00    -0.354 N 
ATOM     39  C   UNL A   1      44.072  28.896  28.141  1.00  0.00     0.074 A 
ATOM     40  C   UNL A   1      44.114  27.555  27.598  1.00  0.00     0.031 C 
ATOM     41  C   UNL A   1      37.793  29.827  29.148  1.00  0.00     0.029 A 
ATOM     42  C   UNL A   1      38.890  30.741  29.462  1.00  0.00     0.049 A 
ATOM     43  H   UNL A   1      40.920  30.446  29.104  1.00  0.00     0.167 HD
ATOM     44  C   UNL A   1      45.159  29.684  28.314  1.00  0.00     0.037 A 
ATOM     45  C   UNL A   1      38.768  31.952  30.037  1.00  0.00     0.037 A 
ATOM     46  C   UNL A   1      45.116  31.017  28.852  1.00  0.00     0.049 A 
ATOM     47  C   UNL A   1      40.000  32.785  30.280  1.00  0.00     0.074 A 
ATOM     48  C   UNL A   1      46.161  31.904  29.048  1.00  0.00     0.029 A 
ATOM     49  N   UNL A   1      43.964  31.653  29.289  1.00  0.00    -0.354 N 
ATOM     50  N   UNL A   1      41.250  32.519  29.991  1.00  0.00    -0.248 NA
ATOM     51  C   UNL A   1      39.800  34.091  30.927  1.00  0.00     0.031 C 
ATOM     52  C   UNL A   1      45.647  33.059  29.649  1.00  0.00     0.029 A 
ATOM     53  C   UNL A   1      44.275  32.912  29.779  1.00  0.00     0.049 A 
ATOM     54  H   UNL A   1      43.059  31.269  29.256  1.00  0.00     0.167 HD
ATOM     55  C   UNL A   1      41.981  33.630  30.391  1.00  0.00     0.074 A 
ATOM     56  C   UNL A   1      41.032  34.579  30.935  1.00  0.00     0.031 C 
ATOM     57  C   UNL A   1      43.318  33.848  30.312  1.00  0.00     0.037 A 
BRANCH  44  58
ATOM     58  C   UNL A   1      46.493  29.107  27.939  1.00  0.00     0.064 A 
ATOM     59  C   UNL A   1      46.878  28.946  26.600  1.00  0.00     0.173 A 
ATOM     60  C   UNL A   1      47.406  28.725  28.935  1.00  0.00     0.173 A 
ATOM     61  F   UNL A   1      46.037  29.282  25.611  1.00  0.00    -0.203 F 
ATOM     62  C   UNL A   1      48.115  28.396  26.272  1.00  0.00     0.198 A 
ATOM     63  C   UNL A   1      48.651  28.202  28.603  1.00  0.00     0.198 A 
ATOM     64  F   UNL A   1      47.088  28.862  30.232  1.00  0.00    -0.203 F 
ATOM     65  F   UNL A   1      48.440  28.203  24.986  1.00  0.00    -0.200 F 
ATOM     66  C   UNL A   1      49.003  28.030  27.272  1.00  0.00     0.200 A 
ATOM     67  F   UNL A   1      49.513  27.859  29.572  1.00  0.00    -0.200 F 
ATOM     68  F   UNL A   1      50.193  27.502  26.955  1.00  0.00    -0.200 F 
ENDBRANCH  44  58
BRANCH  45  69
ATOM     69  C   UNL A   1      37.424  32.454  30.422  1.00  0.00     0.064 A 
ATOM     70  C   UNL A   1      36.892  32.192  31.691  1.00  0.00     0.173 A 
ATOM     71  C   UNL A   1      36.642  33.196  29.526  1.00  0.00     0.173 A 
ATOM     72  F   UNL A   1      37.591  31.464  32.574  1.00  0.00    -0.203 F 
ATOM     73  C   UNL A   1      35.622  32.644  32.046  1.00  0.00     0.198 A 
ATOM     74  C   UNL A   1      35.383  33.670  29.890  1.00  0.00     0.198 A 
ATOM     75  F   UNL A   1      37.105  33.471  28.297  1.00  0.00    -0.203 F 
ATOM     76  F   UNL A   1      35.119  32.346  33.252  1.00  0.00    -0.200 F 
ATOM     77  C   UNL A   1      34.872  33.388  31.148  1.00  0.00     0.200 A 
ATOM     78  F   UNL A   1      34.666  34.398  29.022  1.00  0.00    -0.200 F 
ATOM     79  F   UNL A   1      33.653  33.827  31.490  1.00  0.00    -0.200 F 
ENDBRANCH  45  69
BRANCH  57  80
ATOM     80  C   UNL A   1      43.831  35.176  30.791  1.00  0.00     0.064 A 
ATOM     81  C   UNL A   1      44.316  35.351  32.095  1.00  0.00     0.173 A 
ATOM     82  C   UNL A   1      43.878  36.274  29.920  1.00  0.00     0.173 A 
ATOM     83  F   UNL A   1      44.279  34.336  32.972  1.00  0.00    -0.203 F 
ATOM     84  C   UNL A   1      44.803  36.585  32.516  1.00  0.00     0.198 A 
ATOM     85  C   UNL A   1      44.393  37.498  30.335  1.00  0.00     0.198 A 
ATOM     86  F   UNL A   1      43.433  36.157  28.659  1.00  0.00    -0.203 F 
ATOM     87  F   UNL A   1      45.219  36.743  33.781  1.00  0.00    -0.200 F 
ATOM     88  C   UNL A   1      44.850  37.655  31.634  1.00  0.00     0.200 A 
ATOM     89  F   UNL A   1      44.448  38.526  29.477  1.00  0.00    -0.200 F 
ATOM     90  F   UNL A   1      45.326  38.839  32.040  1.00  0.00    -0.200 F 
ENDBRANCH  57  80
ENDBRANCH  31  32
ENDBRANCH  24  26
ENDBRANCH  23  24
ENDBRANCH  22  23
ENDBRANCH   1  22
TORSDOF 14
ENDMDL
