MODEL 1
REMARK VINA RESULT:     -12.4      0.000      0.000
REMARK SMILES O=C(CCCCCN1C(=O)/C(=C2\C(=O)Nc3ccccc32)SC1=S)OCCOCCOC(=O)c1ccc(-c2c3nc(c(-c4c(F)c(F)c(F)c(F)c4F)c4ccc([nH]4)c(-c4c(F)c(F)c(F)c(F)c4F)c4nc(c(-c5c(F)c(F)c(F)c(F)c5F)c5ccc2[nH]5)C=C4)C=C3)cc1
REMARK SMILES IDX 26 1 25 2 2 3 1 4 3 5 4 6 5 7 6 8 7 9 8 10 9 11 23 12 10 13
REMARK SMILES IDX 11 14 22 15 24 16 12 17 13 18 21 19 14 20 15 21 16 22 20 23
REMARK SMILES IDX 17 25 19 26 18 27 27 28 28 29 29 30 30 31 31 32 32 33 33 34
REMARK SMILES IDX 34 35 35 36 96 37 36 38 95 39 37 40 38 41 39 42 89 43 40 44
REMARK SMILES IDX 94 45 88 46 90 47 41 48 93 49 87 50 86 51 42 53 74 54 54 55
REMARK SMILES IDX 73 56 55 57 58 58 72 59 91 60 56 61 57 62 71 64 92 65 59 66
REMARK SMILES IDX 43 67 44 68 52 69 45 70 46 71 50 72 53 73 47 74 48 75 51 76
REMARK SMILES IDX 49 77 75 78 76 79 84 80 77 81 78 82 82 83 85 84 79 85 80 86
REMARK SMILES IDX 83 87 81 88 60 89 61 90 69 91 62 92 63 93 67 94 70 95 64 96
REMARK SMILES IDX 65 97 68 98 66 99
REMARK H PARENT 15 24 90 52 58 63
REMARK Flexibility Score: inf
ROOT
ATOM      1  C   UNL A   1      39.812  20.876  25.954  1.00  0.00     0.261 C 
ENDROOT
BRANCH   1   2
ATOM      2  O   UNL A   1      38.653  21.513  25.402  1.00  0.00    -0.463 OA
BRANCH   2   3
ATOM      3  C   UNL A   1      37.548  20.822  25.039  1.00  0.00     0.305 C 
ATOM      4  O   UNL A   1      37.572  19.592  25.035  1.00  0.00    -0.252 OA
BRANCH   3   5
ATOM      5  C   UNL A   1      36.343  21.569  24.506  1.00  0.00     0.123 C 
BRANCH   5   6
ATOM      6  C   UNL A   1      36.520  23.055  24.211  1.00  0.00     0.012 C 
BRANCH   6   7
ATOM      7  C   UNL A   1      36.051  24.070  25.261  1.00  0.00     0.002 C 
BRANCH   7   8
ATOM      8  C   UNL A   1      34.586  23.984  25.749  1.00  0.00     0.022 C 
BRANCH   8   9
ATOM      9  C   UNL A   1      33.773  25.287  25.757  1.00  0.00     0.127 C 
BRANCH   9  10
ATOM     10  N   UNL A   1      32.623  25.265  24.866  1.00  0.00    -0.293 N 
ATOM     11  C   UNL A   1      32.724  25.805  23.592  1.00  0.00     0.267 C 
ATOM     12  C   UNL A   1      31.407  24.690  25.160  1.00  0.00     0.148 C 
ATOM     13  O   UNL A   1      33.726  25.851  22.900  1.00  0.00    -0.268 OA
ATOM     14  C   UNL A   1      31.361  26.251  23.203  1.00  0.00     0.093 C 
ATOM     15  S   UNL A   1      30.265  25.098  23.883  1.00  0.00    -0.053 SA
ATOM     16  S   UNL A   1      30.971  23.787  26.489  1.00  0.00    -0.052 S 
ATOM     17  C   UNL A   1      31.073  27.492  22.783  1.00  0.00     0.069 C 
ATOM     18  C   UNL A   1      32.108  28.530  22.395  1.00  0.00     0.257 C 
ATOM     19  C   UNL A   1      29.768  28.190  22.767  1.00  0.00     0.012 A 
ATOM     20  O   UNL A   1      33.317  28.441  22.365  1.00  0.00    -0.269 OA
ATOM     21  N   UNL A   1      31.390  29.682  22.133  1.00  0.00    -0.321 N 
ATOM     22  C   UNL A   1      30.034  29.506  22.373  1.00  0.00     0.049 A 
ATOM     23  C   UNL A   1      28.480  27.848  23.147  1.00  0.00     0.011 A 
ATOM     24  H   UNL A   1      31.791  30.524  21.816  1.00  0.00     0.170 HD
ATOM     25  C   UNL A   1      29.067  30.490  22.315  1.00  0.00     0.027 A 
ATOM     26  C   UNL A   1      27.484  28.831  23.119  1.00  0.00     0.001 A 
ATOM     27  C   UNL A   1      27.773  30.140  22.702  1.00  0.00     0.002 A 
ENDBRANCH   9  10
ENDBRANCH   8   9
ENDBRANCH   7   8
ENDBRANCH   6   7
ENDBRANCH   5   6
ENDBRANCH   3   5
ENDBRANCH   2   3
ENDBRANCH   1   2
BRANCH   1  28
ATOM     28  C   UNL A   1      40.371  21.629  27.151  1.00  0.00     0.202 C 
BRANCH  28  29
ATOM     29  O   UNL A   1      41.794  21.550  27.238  1.00  0.00    -0.374 OA
BRANCH  29  30
ATOM     30  C   UNL A   1      42.425  21.034  26.062  1.00  0.00     0.202 C 
BRANCH  30  31
ATOM     31  C   UNL A   1      43.289  22.096  25.377  1.00  0.00     0.261 C 
BRANCH  31  32
ATOM     32  O   UNL A   1      42.611  23.362  25.407  1.00  0.00    -0.460 OA
BRANCH  32  33
ATOM     33  C   UNL A   1      43.413  24.454  25.485  1.00  0.00     0.338 C 
ATOM     34  O   UNL A   1      44.348  24.733  24.753  1.00  0.00    -0.246 OA
BRANCH  33  35
ATOM     35  C   UNL A   1      42.849  25.390  26.491  1.00  0.00     0.060 A 
ATOM     36  C   UNL A   1      41.781  25.024  27.317  1.00  0.00     0.016 A 
ATOM     37  C   UNL A   1      43.351  26.700  26.537  1.00  0.00     0.016 A 
ATOM     38  C   UNL A   1      41.233  25.959  28.195  1.00  0.00     0.010 A 
ATOM     39  C   UNL A   1      42.811  27.632  27.425  1.00  0.00     0.010 A 
ATOM     40  C   UNL A   1      41.761  27.259  28.274  1.00  0.00    -0.014 A 
BRANCH  40  41
ATOM     41  C   UNL A   1      41.342  28.129  29.395  1.00  0.00     0.031 A 
ATOM     42  C   UNL A   1      40.145  29.020  29.319  1.00  0.00     0.074 A 
ATOM     43  C   UNL A   1      42.071  28.061  30.525  1.00  0.00     0.049 A 
ATOM     44  N   UNL A   1      39.562  29.687  30.282  1.00  0.00    -0.248 NA
ATOM     45  C   UNL A   1      39.525  29.195  27.999  1.00  0.00     0.031 C 
ATOM     46  C   UNL A   1      43.282  27.255  30.685  1.00  0.00     0.029 A 
ATOM     47  N   UNL A   1      41.891  28.648  31.749  1.00  0.00    -0.354 N 
ATOM     48  C   UNL A   1      38.488  30.341  29.696  1.00  0.00     0.074 A 
ATOM     49  C   UNL A   1      38.531  30.029  28.281  1.00  0.00     0.031 C 
ATOM     50  C   UNL A   1      43.712  27.359  31.949  1.00  0.00     0.029 A 
ATOM     51  C   UNL A   1      42.818  28.251  32.681  1.00  0.00     0.049 A 
ATOM     52  H   UNL A   1      41.170  29.289  31.942  1.00  0.00     0.167 HD
ATOM     53  C   UNL A   1      37.550  31.113  30.297  1.00  0.00     0.037 A 
ATOM     54  C   UNL A   1      42.925  28.554  33.987  1.00  0.00     0.037 A 
ATOM     55  C   UNL A   1      37.539  31.432  31.703  1.00  0.00     0.049 A 
ATOM     56  C   UNL A   1      41.891  29.438  34.618  1.00  0.00     0.074 A 
ATOM     57  C   UNL A   1      36.598  32.155  32.417  1.00  0.00     0.029 A 
ATOM     58  N   UNL A   1      38.528  31.068  32.607  1.00  0.00    -0.354 N 
ATOM     59  N   UNL A   1      40.817  29.963  34.081  1.00  0.00    -0.248 NA
ATOM     60  C   UNL A   1      42.079  29.768  36.037  1.00  0.00     0.031 C 
ATOM     61  C   UNL A   1      37.045  32.275  33.738  1.00  0.00     0.029 A 
ATOM     62  C   UNL A   1      38.241  31.586  33.861  1.00  0.00     0.049 A 
ATOM     63  H   UNL A   1      39.318  30.521  32.390  1.00  0.00     0.167 HD
ATOM     64  C   UNL A   1      40.198  30.680  35.092  1.00  0.00     0.074 A 
ATOM     65  C   UNL A   1      41.003  30.503  36.283  1.00  0.00     0.031 C 
ATOM     66  C   UNL A   1      39.064  31.421  35.034  1.00  0.00     0.037 A 
BRANCH  53  67
ATOM     67  C   UNL A   1      36.445  31.663  29.443  1.00  0.00     0.064 A 
ATOM     68  C   UNL A   1      35.423  30.836  28.953  1.00  0.00     0.173 A 
ATOM     69  C   UNL A   1      36.359  33.038  29.180  1.00  0.00     0.173 A 
ATOM     70  F   UNL A   1      35.459  29.513  29.179  1.00  0.00    -0.203 F 
ATOM     71  C   UNL A   1      34.365  31.362  28.216  1.00  0.00     0.198 A 
ATOM     72  C   UNL A   1      35.287  33.564  28.462  1.00  0.00     0.198 A 
ATOM     73  F   UNL A   1      37.301  33.876  29.637  1.00  0.00    -0.203 F 
ATOM     74  F   UNL A   1      33.416  30.548  27.735  1.00  0.00    -0.200 F 
ATOM     75  C   UNL A   1      34.294  32.726  27.977  1.00  0.00     0.200 A 
ATOM     76  F   UNL A   1      35.210  34.885  28.246  1.00  0.00    -0.200 F 
ATOM     77  F   UNL A   1      33.269  33.233  27.279  1.00  0.00    -0.200 F 
ENDBRANCH  53  67
BRANCH  54  78
ATOM     78  C   UNL A   1      44.029  27.956  34.775  1.00  0.00     0.064 A 
ATOM     79  C   UNL A   1      45.226  28.657  34.975  1.00  0.00     0.173 A 
ATOM     80  C   UNL A   1      43.883  26.712  35.405  1.00  0.00     0.173 A 
ATOM     81  F   UNL A   1      45.412  29.846  34.385  1.00  0.00    -0.203 F 
ATOM     82  C   UNL A   1      46.235  28.135  35.779  1.00  0.00     0.198 A 
ATOM     83  C   UNL A   1      44.883  26.202  36.227  1.00  0.00     0.198 A 
ATOM     84  F   UNL A   1      42.749  26.012  35.252  1.00  0.00    -0.203 F 
ATOM     85  F   UNL A   1      47.377  28.816  35.945  1.00  0.00    -0.200 F 
ATOM     86  C   UNL A   1      46.059  26.913  36.413  1.00  0.00     0.200 A 
ATOM     87  F   UNL A   1      44.702  25.032  36.853  1.00  0.00    -0.200 F 
ATOM     88  F   UNL A   1      47.023  26.422  37.204  1.00  0.00    -0.200 F 
ENDBRANCH  54  78
BRANCH  66  89
ATOM     89  C   UNL A   1      38.632  32.117  36.291  1.00  0.00     0.064 A 
ATOM     90  C   UNL A   1      37.881  31.450  37.269  1.00  0.00     0.173 A 
ATOM     91  C   UNL A   1      39.027  33.438  36.551  1.00  0.00     0.173 A 
ATOM     92  F   UNL A   1      37.465  30.191  37.059  1.00  0.00    -0.203 F 
ATOM     93  C   UNL A   1      37.534  32.083  38.459  1.00  0.00     0.198 A 
ATOM     94  C   UNL A   1      38.699  34.058  37.753  1.00  0.00     0.198 A 
ATOM     95  F   UNL A   1      39.749  34.118  35.649  1.00  0.00    -0.203 F 
ATOM     96  F   UNL A   1      36.790  31.436  39.368  1.00  0.00    -0.200 F 
ATOM     97  C   UNL A   1      37.951  33.382  38.704  1.00  0.00     0.200 A 
ATOM     98  F   UNL A   1      39.114  35.310  37.993  1.00  0.00    -0.200 F 
ATOM     99  F   UNL A   1      37.630  33.983  39.859  1.00  0.00    -0.200 F 
ENDBRANCH  66  89
ENDBRANCH  40  41
ENDBRANCH  33  35
ENDBRANCH  32  33
ENDBRANCH  31  32
ENDBRANCH  30  31
ENDBRANCH  29  30
ENDBRANCH  28  29
ENDBRANCH   1  28
TORSDOF 19
ENDMDL
MODEL 2
REMARK VINA RESULT:     -12.0      3.373      8.559
REMARK SMILES O=C(CCCCCN1C(=O)/C(=C2\C(=O)Nc3ccccc32)SC1=S)OCCOCCOC(=O)c1ccc(-c2c3nc(c(-c4c(F)c(F)c(F)c(F)c4F)c4ccc([nH]4)c(-c4c(F)c(F)c(F)c(F)c4F)c4nc(c(-c5c(F)c(F)c(F)c(F)c5F)c5ccc2[nH]5)C=C4)C=C3)cc1
REMARK SMILES IDX 26 1 25 2 2 3 1 4 3 5 4 6 5 7 6 8 7 9 8 10 9 11 23 12 10 13
REMARK SMILES IDX 11 14 22 15 24 16 12 17 13 18 21 19 14 20 15 21 16 22 20 23
REMARK SMILES IDX 17 25 19 26 18 27 27 28 28 29 29 30 30 31 31 32 32 33 33 34
REMARK SMILES IDX 34 35 35 36 96 37 36 38 95 39 37 40 38 41 39 42 89 43 40 44
REMARK SMILES IDX 94 45 88 46 90 47 41 48 93 49 87 50 86 51 42 53 74 54 54 55
REMARK SMILES IDX 73 56 55 57 58 58 72 59 91 60 56 61 57 62 71 64 92 65 59 66
REMARK SMILES IDX 43 67 44 68 52 69 45 70 46 71 50 72 53 73 47 74 48 75 51 76
REMARK SMILES IDX 49 77 75 78 76 79 84 80 77 81 78 82 82 83 85 84 79 85 80 86
REMARK SMILES IDX 83 87 81 88 60 89 61 90 69 91 62 92 63 93 67 94 70 95 64 96
REMARK SMILES IDX 65 97 68 98 66 99
REMARK H PARENT 15 24 90 52 58 63
REMARK Flexibility Score: inf
ROOT
ATOM      1  C   UNL A   1      34.109  32.589  28.897  1.00  0.00     0.261 C 
ENDROOT
BRANCH   1   2
ATOM      2  O   UNL A   1      34.264  31.769  27.733  1.00  0.00    -0.463 OA
BRANCH   2   3
ATOM      3  C   UNL A   1      35.106  30.710  27.696  1.00  0.00     0.305 C 
ATOM      4  O   UNL A   1      36.318  30.899  27.596  1.00  0.00    -0.252 OA
BRANCH   3   5
ATOM      5  C   UNL A   1      34.539  29.307  27.634  1.00  0.00     0.123 C 
BRANCH   5   6
ATOM      6  C   UNL A   1      33.202  29.129  26.922  1.00  0.00     0.012 C 
BRANCH   6   7
ATOM      7  C   UNL A   1      32.972  27.848  26.110  1.00  0.00     0.002 C 
BRANCH   7   8
ATOM      8  C   UNL A   1      34.086  26.775  26.115  1.00  0.00     0.022 C 
BRANCH   8   9
ATOM      9  C   UNL A   1      33.720  25.383  25.583  1.00  0.00     0.127 C 
BRANCH   9  10
ATOM     10  N   UNL A   1      32.552  25.376  24.713  1.00  0.00    -0.293 N 
ATOM     11  C   UNL A   1      32.632  25.929  23.443  1.00  0.00     0.267 C 
ATOM     12  C   UNL A   1      31.339  24.805  25.025  1.00  0.00     0.148 C 
ATOM     13  O   UNL A   1      33.620  25.976  22.733  1.00  0.00    -0.268 OA
ATOM     14  C   UNL A   1      31.264  26.387  23.086  1.00  0.00     0.093 C 
ATOM     15  S   UNL A   1      30.174  25.232  23.775  1.00  0.00    -0.053 SA
ATOM     16  S   UNL A   1      30.924  23.891  26.354  1.00  0.00    -0.052 S 
ATOM     17  C   UNL A   1      30.975  27.634  22.684  1.00  0.00     0.069 C 
ATOM     18  C   UNL A   1      32.008  28.669  22.287  1.00  0.00     0.257 C 
ATOM     19  C   UNL A   1      29.674  28.339  22.700  1.00  0.00     0.012 A 
ATOM     20  O   UNL A   1      33.216  28.573  22.232  1.00  0.00    -0.269 OA
ATOM     21  N   UNL A   1      31.292  29.828  22.050  1.00  0.00    -0.321 N 
ATOM     22  C   UNL A   1      29.940  29.657  22.315  1.00  0.00     0.049 A 
ATOM     23  C   UNL A   1      28.391  28.000  23.102  1.00  0.00     0.011 A 
ATOM     24  H   UNL A   1      31.691  30.670  21.733  1.00  0.00     0.170 HD
ATOM     25  C   UNL A   1      28.977  30.647  22.286  1.00  0.00     0.027 A 
ATOM     26  C   UNL A   1      27.401  28.989  23.103  1.00  0.00     0.001 A 
ATOM     27  C   UNL A   1      27.690  30.300  22.694  1.00  0.00     0.002 A 
ENDBRANCH   9  10
ENDBRANCH   8   9
ENDBRANCH   7   8
ENDBRANCH   6   7
ENDBRANCH   5   6
ENDBRANCH   3   5
ENDBRANCH   2   3
ENDBRANCH   1   2
BRANCH   1  28
ATOM     28  C   UNL A   1      35.184  33.659  28.999  1.00  0.00     0.202 C 
BRANCH  28  29
ATOM     29  O   UNL A   1      34.669  34.979  28.824  1.00  0.00    -0.374 OA
BRANCH  29  30
ATOM     30  C   UNL A   1      33.243  35.068  28.915  1.00  0.00     0.202 C 
BRANCH  30  31
ATOM     31  C   UNL A   1      32.811  36.212  29.838  1.00  0.00     0.261 C 
BRANCH  31  32
ATOM     32  O   UNL A   1      32.101  35.677  30.966  1.00  0.00    -0.460 OA
BRANCH  32  33
ATOM     33  C   UNL A   1      32.610  35.997  32.183  1.00  0.00     0.338 C 
ATOM     34  O   UNL A   1      32.107  36.728  33.021  1.00  0.00    -0.246 OA
BRANCH  33  35
ATOM     35  C   UNL A   1      33.801  35.148  32.441  1.00  0.00     0.060 A 
ATOM     36  C   UNL A   1      35.101  35.641  32.287  1.00  0.00     0.016 A 
ATOM     37  C   UNL A   1      33.599  33.796  32.756  1.00  0.00     0.016 A 
ATOM     38  C   UNL A   1      36.190  34.788  32.465  1.00  0.00     0.010 A 
ATOM     39  C   UNL A   1      34.690  32.946  32.949  1.00  0.00     0.010 A 
ATOM     40  C   UNL A   1      35.993  33.444  32.823  1.00  0.00    -0.014 A 
BRANCH  40  41
ATOM     41  C   UNL A   1      37.158  32.648  33.269  1.00  0.00     0.031 A 
ATOM     42  C   UNL A   1      37.789  31.597  32.415  1.00  0.00     0.074 A 
ATOM     43  C   UNL A   1      37.666  32.937  34.482  1.00  0.00     0.049 A 
ATOM     44  N   UNL A   1      38.918  30.962  32.603  1.00  0.00    -0.248 NA
ATOM     45  C   UNL A   1      37.065  31.198  31.201  1.00  0.00     0.031 C 
ATOM     46  C   UNL A   1      37.097  33.916  35.409  1.00  0.00     0.029 A 
ATOM     47  N   UNL A   1      38.777  32.465  35.128  1.00  0.00    -0.354 N 
ATOM     48  C   UNL A   1      39.057  30.107  31.520  1.00  0.00     0.074 A 
ATOM     49  C   UNL A   1      37.871  30.269  30.703  1.00  0.00     0.031 C 
ATOM     50  C   UNL A   1      37.888  34.008  36.486  1.00  0.00     0.029 A 
ATOM     51  C   UNL A   1      39.006  33.083  36.333  1.00  0.00     0.049 A 
ATOM     52  H   UNL A   1      39.353  31.754  34.767  1.00  0.00     0.167 HD
ATOM     53  C   UNL A   1      40.094  29.280  31.236  1.00  0.00     0.037 A 
ATOM     54  C   UNL A   1      40.018  32.939  37.207  1.00  0.00     0.037 A 
ATOM     55  C   UNL A   1      41.255  29.114  32.074  1.00  0.00     0.049 A 
ATOM     56  C   UNL A   1      41.135  31.992  36.882  1.00  0.00     0.074 A 
ATOM     57  C   UNL A   1      42.385  28.348  31.843  1.00  0.00     0.029 A 
ATOM     58  N   UNL A   1      41.426  29.707  33.318  1.00  0.00    -0.354 N 
ATOM     59  N   UNL A   1      41.313  31.269  35.804  1.00  0.00    -0.248 NA
ATOM     60  C   UNL A   1      42.192  31.845  37.890  1.00  0.00     0.031 C 
ATOM     61  C   UNL A   1      43.212  28.432  32.969  1.00  0.00     0.029 A 
ATOM     62  C   UNL A   1      42.622  29.290  33.883  1.00  0.00     0.049 A 
ATOM     63  H   UNL A   1      40.791  30.331  33.739  1.00  0.00     0.167 HD
ATOM     64  C   UNL A   1      42.503  30.585  35.999  1.00  0.00     0.074 A 
ATOM     65  C   UNL A   1      43.016  30.998  37.289  1.00  0.00     0.031 C 
ATOM     66  C   UNL A   1      43.111  29.692  35.180  1.00  0.00     0.037 A 
BRANCH  53  67
ATOM     67  C   UNL A   1      40.032  28.494  29.959  1.00  0.00     0.064 A 
ATOM     68  C   UNL A   1      40.633  28.968  28.782  1.00  0.00     0.173 A 
ATOM     69  C   UNL A   1      39.441  27.222  29.927  1.00  0.00     0.173 A 
ATOM     70  F   UNL A   1      41.212  30.178  28.761  1.00  0.00    -0.203 F 
ATOM     71  C   UNL A   1      40.628  28.206  27.617  1.00  0.00     0.198 A 
ATOM     72  C   UNL A   1      39.459  26.453  28.765  1.00  0.00     0.198 A 
ATOM     73  F   UNL A   1      38.866  26.714  31.027  1.00  0.00    -0.203 F 
ATOM     74  F   UNL A   1      41.184  28.692  26.498  1.00  0.00    -0.200 F 
ATOM     75  C   UNL A   1      40.048  26.946  27.611  1.00  0.00     0.200 A 
ATOM     76  F   UNL A   1      38.913  25.228  28.766  1.00  0.00    -0.200 F 
ATOM     77  F   UNL A   1      40.057  26.208  26.493  1.00  0.00    -0.200 F 
ENDBRANCH  53  67
BRANCH  54  78
ATOM     78  C   UNL A   1      40.026  33.765  38.439  1.00  0.00     0.064 A 
ATOM     79  C   UNL A   1      40.733  34.973  38.484  1.00  0.00     0.173 A 
ATOM     80  C   UNL A   1      39.269  33.404  39.562  1.00  0.00     0.173 A 
ATOM     81  F   UNL A   1      41.477  35.354  37.437  1.00  0.00    -0.203 F 
ATOM     82  C   UNL A   1      40.680  35.792  39.610  1.00  0.00     0.198 A 
ATOM     83  C   UNL A   1      39.198  34.233  40.677  1.00  0.00     0.198 A 
ATOM     84  F   UNL A   1      38.566  32.261  39.558  1.00  0.00    -0.203 F 
ATOM     85  F   UNL A   1      41.376  36.937  39.636  1.00  0.00    -0.200 F 
ATOM     86  C   UNL A   1      39.904  35.426  40.701  1.00  0.00     0.200 A 
ATOM     87  F   UNL A   1      38.433  33.887  41.720  1.00  0.00    -0.200 F 
ATOM     88  F   UNL A   1      39.837  36.226  41.774  1.00  0.00    -0.200 F 
ENDBRANCH  54  78
BRANCH  66  89
ATOM     89  C   UNL A   1      44.393  29.080  35.661  1.00  0.00     0.064 A 
ATOM     90  C   UNL A   1      44.398  27.875  36.380  1.00  0.00     0.173 A 
ATOM     91  C   UNL A   1      45.630  29.663  35.345  1.00  0.00     0.173 A 
ATOM     92  F   UNL A   1      43.240  27.288  36.719  1.00  0.00    -0.203 F 
ATOM     93  C   UNL A   1      45.594  27.281  36.772  1.00  0.00     0.198 A 
ATOM     94  C   UNL A   1      46.824  29.052  35.718  1.00  0.00     0.198 A 
ATOM     95  F   UNL A   1      45.679  30.813  34.657  1.00  0.00    -0.203 F 
ATOM     96  F   UNL A   1      45.574  26.146  37.484  1.00  0.00    -0.200 F 
ATOM     97  C   UNL A   1      46.805  27.865  36.432  1.00  0.00     0.200 A 
ATOM     98  F   UNL A   1      47.994  29.611  35.379  1.00  0.00    -0.200 F 
ATOM     99  F   UNL A   1      47.956  27.282  36.797  1.00  0.00    -0.200 F 
ENDBRANCH  66  89
ENDBRANCH  40  41
ENDBRANCH  33  35
ENDBRANCH  32  33
ENDBRANCH  31  32
ENDBRANCH  30  31
ENDBRANCH  29  30
ENDBRANCH  28  29
ENDBRANCH   1  28
TORSDOF 19
ENDMDL
MODEL 3
REMARK VINA RESULT:     -12.0      5.248      7.945
REMARK SMILES O=C(CCCCCN1C(=O)/C(=C2\C(=O)Nc3ccccc32)SC1=S)OCCOCCOC(=O)c1ccc(-c2c3nc(c(-c4c(F)c(F)c(F)c(F)c4F)c4ccc([nH]4)c(-c4c(F)c(F)c(F)c(F)c4F)c4nc(c(-c5c(F)c(F)c(F)c(F)c5F)c5ccc2[nH]5)C=C4)C=C3)cc1
REMARK SMILES IDX 26 1 25 2 2 3 1 4 3 5 4 6 5 7 6 8 7 9 8 10 9 11 23 12 10 13
REMARK SMILES IDX 11 14 22 15 24 16 12 17 13 18 21 19 14 20 15 21 16 22 20 23
REMARK SMILES IDX 17 25 19 26 18 27 27 28 28 29 29 30 30 31 31 32 32 33 33 34
REMARK SMILES IDX 34 35 35 36 96 37 36 38 95 39 37 40 38 41 39 42 89 43 40 44
REMARK SMILES IDX 94 45 88 46 90 47 41 48 93 49 87 50 86 51 42 53 74 54 54 55
REMARK SMILES IDX 73 56 55 57 58 58 72 59 91 60 56 61 57 62 71 64 92 65 59 66
REMARK SMILES IDX 43 67 44 68 52 69 45 70 46 71 50 72 53 73 47 74 48 75 51 76
REMARK SMILES IDX 49 77 75 78 76 79 84 80 77 81 78 82 82 83 85 84 79 85 80 86
REMARK SMILES IDX 83 87 81 88 60 89 61 90 69 91 62 92 63 93 67 94 70 95 64 96
REMARK SMILES IDX 65 97 68 98 66 99
REMARK H PARENT 15 24 90 52 58 63
REMARK Flexibility Score: inf
ROOT
ATOM      1  C   UNL A   1      40.340  21.909  26.991  1.00  0.00     0.261 C 
ENDROOT
BRANCH   1   2
ATOM      2  O   UNL A   1      39.268  22.221  26.093  1.00  0.00    -0.463 OA
BRANCH   2   3
ATOM      3  C   UNL A   1      38.486  23.314  26.248  1.00  0.00     0.305 C 
ATOM      4  O   UNL A   1      38.896  24.269  26.907  1.00  0.00    -0.252 OA
BRANCH   3   5
ATOM      5  C   UNL A   1      37.062  23.293  25.729  1.00  0.00     0.123 C 
BRANCH   5   6
ATOM      6  C   UNL A   1      36.772  22.392  24.534  1.00  0.00     0.012 C 
BRANCH   6   7
ATOM      7  C   UNL A   1      36.199  23.028  23.261  1.00  0.00     0.002 C 
BRANCH   7   8
ATOM      8  C   UNL A   1      34.663  23.033  23.080  1.00  0.00     0.022 C 
BRANCH   8   9
ATOM      9  C   UNL A   1      33.846  22.126  24.011  1.00  0.00     0.127 C 
BRANCH   9  10
ATOM     10  N   UNL A   1      32.881  22.845  24.830  1.00  0.00    -0.293 N 
ATOM     11  C   UNL A   1      31.833  23.526  24.228  1.00  0.00     0.267 C 
ATOM     12  C   UNL A   1      32.881  22.873  26.207  1.00  0.00     0.148 C 
ATOM     13  O   UNL A   1      31.283  23.232  23.182  1.00  0.00    -0.268 OA
ATOM     14  C   UNL A   1      31.463  24.640  25.139  1.00  0.00     0.093 C 
ATOM     15  S   UNL A   1      31.674  24.036  26.748  1.00  0.00    -0.053 SA
ATOM     16  S   UNL A   1      33.845  22.031  27.271  1.00  0.00    -0.052 S 
ATOM     17  C   UNL A   1      31.394  25.925  24.759  1.00  0.00     0.069 C 
ATOM     18  C   UNL A   1      31.422  26.397  23.319  1.00  0.00     0.257 C 
ATOM     19  C   UNL A   1      31.457  27.147  25.592  1.00  0.00     0.012 A 
ATOM     20  O   UNL A   1      31.482  25.749  22.295  1.00  0.00    -0.269 OA
ATOM     21  N   UNL A   1      31.437  27.778  23.387  1.00  0.00    -0.321 N 
ATOM     22  C   UNL A   1      31.487  28.224  24.701  1.00  0.00     0.049 A 
ATOM     23  C   UNL A   1      31.598  27.390  26.949  1.00  0.00     0.011 A 
ATOM     24  H   UNL A   1      31.416  28.371  22.602  1.00  0.00     0.170 HD
ATOM     25  C   UNL A   1      31.625  29.538  25.105  1.00  0.00     0.027 A 
ATOM     26  C   UNL A   1      31.762  28.710  27.384  1.00  0.00     0.001 A 
ATOM     27  C   UNL A   1      31.770  29.775  26.471  1.00  0.00     0.002 A 
ENDBRANCH   9  10
ENDBRANCH   8   9
ENDBRANCH   7   8
ENDBRANCH   6   7
ENDBRANCH   5   6
ENDBRANCH   3   5
ENDBRANCH   2   3
ENDBRANCH   1   2
BRANCH   1  28
ATOM     28  C   UNL A   1      41.632  21.583  26.260  1.00  0.00     0.202 C 
BRANCH  28  29
ATOM     29  O   UNL A   1      42.282  20.422  26.776  1.00  0.00    -0.374 OA
BRANCH  29  30
ATOM     30  C   UNL A   1      42.073  19.239  25.998  1.00  0.00     0.202 C 
BRANCH  30  31
ATOM     31  C   UNL A   1      43.401  18.590  25.596  1.00  0.00     0.261 C 
BRANCH  31  32
ATOM     32  O   UNL A   1      43.803  19.076  24.306  1.00  0.00    -0.460 OA
BRANCH  32  33
ATOM     33  C   UNL A   1      45.068  19.562  24.232  1.00  0.00     0.338 C 
ATOM     34  O   UNL A   1      46.034  19.022  23.719  1.00  0.00    -0.246 OA
BRANCH  33  35
ATOM     35  C   UNL A   1      45.066  20.973  24.697  1.00  0.00     0.060 A 
ATOM     36  C   UNL A   1      45.479  21.322  25.987  1.00  0.00     0.016 A 
ATOM     37  C   UNL A   1      44.547  21.955  23.840  1.00  0.00     0.016 A 
ATOM     38  C   UNL A   1      45.389  22.648  26.408  1.00  0.00     0.010 A 
ATOM     39  C   UNL A   1      44.470  23.286  24.256  1.00  0.00     0.010 A 
ATOM     40  C   UNL A   1      44.910  23.642  25.537  1.00  0.00    -0.014 A 
BRANCH  40  41
ATOM     41  C   UNL A   1      45.084  25.062  25.915  1.00  0.00     0.031 A 
ATOM     42  C   UNL A   1      43.979  25.881  26.501  1.00  0.00     0.074 A 
ATOM     43  C   UNL A   1      46.309  25.593  25.745  1.00  0.00     0.049 A 
ATOM     44  N   UNL A   1      44.045  27.069  27.045  1.00  0.00    -0.248 NA
ATOM     45  C   UNL A   1      42.630  25.303  26.467  1.00  0.00     0.031 C 
ATOM     46  C   UNL A   1      47.442  24.890  25.142  1.00  0.00     0.029 A 
ATOM     47  N   UNL A   1      46.814  26.820  26.083  1.00  0.00    -0.354 N 
ATOM     48  C   UNL A   1      42.753  27.374  27.446  1.00  0.00     0.074 A 
ATOM     49  C   UNL A   1      41.914  26.266  27.036  1.00  0.00     0.031 C 
ATOM     50  C   UNL A   1      48.524  25.678  25.195  1.00  0.00     0.029 A 
ATOM     51  C   UNL A   1      48.155  26.946  25.817  1.00  0.00     0.049 A 
ATOM     52  H   UNL A   1      46.271  27.540  26.476  1.00  0.00     0.167 HD
ATOM     53  C   UNL A   1      42.322  28.475  28.111  1.00  0.00     0.037 A 
ATOM     54  C   UNL A   1      49.002  27.961  26.068  1.00  0.00     0.037 A 
ATOM     55  C   UNL A   1      43.168  29.580  28.488  1.00  0.00     0.049 A 
ATOM     56  C   UNL A   1      48.490  29.180  26.775  1.00  0.00     0.074 A 
ATOM     57  C   UNL A   1      42.838  30.711  29.216  1.00  0.00     0.029 A 
ATOM     58  N   UNL A   1      44.508  29.705  28.148  1.00  0.00    -0.354 N 
ATOM     59  N   UNL A   1      47.291  29.415  27.249  1.00  0.00    -0.248 NA
ATOM     60  C   UNL A   1      49.447  30.273  26.987  1.00  0.00     0.031 C 
ATOM     61  C   UNL A   1      43.962  31.544  29.268  1.00  0.00     0.029 A 
ATOM     62  C   UNL A   1      45.007  30.912  28.615  1.00  0.00     0.049 A 
ATOM     63  H   UNL A   1      45.029  29.035  27.648  1.00  0.00     0.167 HD
ATOM     64  C   UNL A   1      47.348  30.677  27.820  1.00  0.00     0.074 A 
ATOM     65  C   UNL A   1      48.708  31.149  27.654  1.00  0.00     0.031 C 
ATOM     66  C   UNL A   1      46.359  31.380  28.423  1.00  0.00     0.037 A 
BRANCH  53  67
ATOM     67  C   UNL A   1      40.871  28.542  28.487  1.00  0.00     0.064 A 
ATOM     68  C   UNL A   1      40.432  28.171  29.767  1.00  0.00     0.173 A 
ATOM     69  C   UNL A   1      39.920  29.057  27.592  1.00  0.00     0.173 A 
ATOM     70  F   UNL A   1      41.302  27.673  30.660  1.00  0.00    -0.203 F 
ATOM     71  C   UNL A   1      39.094  28.295  30.131  1.00  0.00     0.198 A 
ATOM     72  C   UNL A   1      38.587  29.202  27.968  1.00  0.00     0.198 A 
ATOM     73  F   UNL A   1      40.288  29.441  26.360  1.00  0.00    -0.203 F 
ATOM     74  F   UNL A   1      38.694  27.908  31.351  1.00  0.00    -0.200 F 
ATOM     75  C   UNL A   1      38.174  28.818  29.235  1.00  0.00     0.200 A 
ATOM     76  F   UNL A   1      37.702  29.723  27.106  1.00  0.00    -0.200 F 
ATOM     77  F   UNL A   1      36.889  28.950  29.591  1.00  0.00    -0.200 F 
ENDBRANCH  53  67
BRANCH  54  78
ATOM     78  C   UNL A   1      50.428  27.817  25.690  1.00  0.00     0.064 A 
ATOM     79  C   UNL A   1      51.386  27.445  26.642  1.00  0.00     0.173 A 
ATOM     80  C   UNL A   1      50.847  27.971  24.361  1.00  0.00     0.173 A 
ATOM     81  F   UNL A   1      51.032  27.295  27.926  1.00  0.00    -0.203 F 
ATOM     82  C   UNL A   1      52.713  27.231  26.276  1.00  0.00     0.198 A 
ATOM     83  C   UNL A   1      52.168  27.735  23.993  1.00  0.00     0.198 A 
ATOM     84  F   UNL A   1      49.961  28.314  23.413  1.00  0.00    -0.203 F 
ATOM     85  F   UNL A   1      53.615  26.890  27.206  1.00  0.00    -0.200 F 
ATOM     86  C   UNL A   1      53.100  27.366  24.951  1.00  0.00     0.200 A 
ATOM     87  F   UNL A   1      52.534  27.847  22.709  1.00  0.00    -0.200 F 
ATOM     88  F   UNL A   1      54.373  27.138  24.597  1.00  0.00    -0.200 F 
ENDBRANCH  54  78
BRANCH  66  89
ATOM     89  C   UNL A   1      46.700  32.748  28.935  1.00  0.00     0.064 A 
ATOM     90  C   UNL A   1      47.226  32.931  30.223  1.00  0.00     0.173 A 
ATOM     91  C   UNL A   1      46.566  33.876  28.112  1.00  0.00     0.173 A 
ATOM     92  F   UNL A   1      47.358  31.885  31.053  1.00  0.00    -0.203 F 
ATOM     93  C   UNL A   1      47.596  34.196  30.670  1.00  0.00     0.198 A 
ATOM     94  C   UNL A   1      46.961  35.135  28.555  1.00  0.00     0.198 A 
ATOM     95  F   UNL A   1      46.071  33.753  26.872  1.00  0.00    -0.203 F 
ATOM     96  F   UNL A   1      48.069  34.352  31.915  1.00  0.00    -0.200 F 
ATOM     97  C   UNL A   1      47.473  35.294  29.833  1.00  0.00     0.200 A 
ATOM     98  F   UNL A   1      46.852  36.194  27.741  1.00  0.00    -0.200 F 
ATOM     99  F   UNL A   1      47.847  36.509  30.261  1.00  0.00    -0.200 F 
ENDBRANCH  66  89
ENDBRANCH  40  41
ENDBRANCH  33  35
ENDBRANCH  32  33
ENDBRANCH  31  32
ENDBRANCH  30  31
ENDBRANCH  29  30
ENDBRANCH  28  29
ENDBRANCH   1  28
TORSDOF 19
ENDMDL
