MODEL 1
REMARK VINA RESULT:     -11.1      0.000      0.000
REMARK SMILES C[C@H](c1ccncc1)N1C[C@H](C(=O)OCCOCCOC(=O)c2ccc(-c3c4nc(c(-c5c(F)c(F)c(F)c(F)c5F)c5ccc([nH]5)c(-c5c(F)c(F)c(F)c(F)c5F)c5nc(c(-c6c(F)c(F)c(F)c(F)c6F)c6ccc3[nH]6)C=C5)C=C4)cc2)CC1=O
REMARK SMILES IDX 17 1 16 2 15 3 14 4 12 5 13 6 11 7 9 8 10 9 87 10 86 11
REMARK SMILES IDX 88 12 2 13 1 14 3 15 4 16 8 17 5 18 7 19 6 20 18 21 19 22
REMARK SMILES IDX 20 23 21 24 22 25 23 26 24 27 85 28 25 29 84 30 26 31 27 32
REMARK SMILES IDX 28 33 78 34 29 35 83 36 77 37 79 38 30 39 82 40 76 41 75 42
REMARK SMILES IDX 31 44 63 45 43 46 62 47 44 48 47 49 61 50 80 51 45 52 46 53
REMARK SMILES IDX 60 55 81 56 48 57 32 58 33 59 41 60 34 61 35 62 39 63 42 64
REMARK SMILES IDX 36 65 37 66 40 67 38 68 64 69 65 70 73 71 66 72 67 73 71 74
REMARK SMILES IDX 74 75 68 76 69 77 72 78 70 79 49 80 50 81 58 82 51 83 52 84
REMARK SMILES IDX 56 85 59 86 53 87 54 88 57 89 55 90
REMARK H PARENT 79 43 47 54
REMARK Flexibility Score: inf
ROOT
ATOM      1  O   UNL A   1      37.566  21.430  24.658  1.00  0.00    -0.374 OA
ENDROOT
BRANCH   1   2
ATOM      2  C   UNL A   1      36.980  22.251  25.665  1.00  0.00     0.202 C 
BRANCH   2   3
ATOM      3  C   UNL A   1      36.508  23.645  25.239  1.00  0.00     0.261 C 
BRANCH   3   4
ATOM      4  O   UNL A   1      35.776  23.624  23.997  1.00  0.00    -0.463 OA
BRANCH   4   5
ATOM      5  C   UNL A   1      34.620  24.340  23.992  1.00  0.00     0.311 C 
ATOM      6  O   UNL A   1      34.419  25.324  24.696  1.00  0.00    -0.252 OA
BRANCH   5   7
ATOM      7  C   UNL A   1      33.553  23.750  23.083  1.00  0.00     0.128 C 
ATOM      8  N   UNL A   1      32.603  21.923  24.203  1.00  0.00    -0.335 N 
ATOM      9  C   UNL A   1      33.594  22.232  23.196  1.00  0.00     0.136 C 
ATOM     10  C   UNL A   1      31.711  22.966  24.376  1.00  0.00     0.224 C 
ATOM     11  C   UNL A   1      32.102  24.079  23.432  1.00  0.00     0.117 C 
ATOM     12  O   UNL A   1      30.771  23.005  25.154  1.00  0.00    -0.275 OA
BRANCH   8  13
ATOM     13  C   UNL A   1      32.608  20.713  25.034  1.00  0.00     0.112 C 
ATOM     14  C   UNL A   1      33.510  20.898  26.261  1.00  0.00     0.036 C 
BRANCH  13  15
ATOM     15  C   UNL A   1      32.928  19.449  24.255  1.00  0.00    -0.023 A 
ATOM     16  C   UNL A   1      33.998  18.607  24.586  1.00  0.00     0.026 A 
ATOM     17  C   UNL A   1      32.143  19.097  23.151  1.00  0.00     0.026 A 
ATOM     18  C   UNL A   1      34.253  17.497  23.796  1.00  0.00     0.111 A 
ATOM     19  C   UNL A   1      32.463  17.952  22.436  1.00  0.00     0.111 A 
ATOM     20  N   UNL A   1      33.509  17.151  22.727  1.00  0.00    -0.265 NA
ENDBRANCH  13  15
ENDBRANCH   8  13
ENDBRANCH   5   7
ENDBRANCH   4   5
ENDBRANCH   3   4
ENDBRANCH   2   3
ENDBRANCH   1   2
BRANCH   1  21
ATOM     21  C   UNL A   1      37.739  20.045  24.960  1.00  0.00     0.202 C 
BRANCH  21  22
ATOM     22  C   UNL A   1      39.153  19.582  25.339  1.00  0.00     0.261 C 
BRANCH  22  23
ATOM     23  O   UNL A   1      39.578  20.101  26.615  1.00  0.00    -0.460 OA
BRANCH  23  24
ATOM     24  C   UNL A   1      40.889  20.422  26.685  1.00  0.00     0.338 C 
ATOM     25  O   UNL A   1      41.840  19.771  26.263  1.00  0.00    -0.246 OA
BRANCH  24  26
ATOM     26  C   UNL A   1      41.058  21.795  27.191  1.00  0.00     0.060 A 
ATOM     27  C   UNL A   1      40.457  22.827  26.460  1.00  0.00     0.016 A 
ATOM     28  C   UNL A   1      41.858  22.082  28.300  1.00  0.00     0.016 A 
ATOM     29  C   UNL A   1      40.699  24.156  26.797  1.00  0.00     0.010 A 
ATOM     30  C   UNL A   1      42.108  23.419  28.631  1.00  0.00     0.010 A 
ATOM     31  C   UNL A   1      41.563  24.460  27.857  1.00  0.00    -0.014 A 
BRANCH  31  32
ATOM     32  C   UNL A   1      42.018  25.860  28.037  1.00  0.00     0.031 A 
ATOM     33  C   UNL A   1      43.349  26.270  27.468  1.00  0.00     0.074 A 
ATOM     34  C   UNL A   1      41.237  26.767  28.649  1.00  0.00     0.049 A 
ATOM     35  N   UNL A   1      43.945  27.435  27.501  1.00  0.00    -0.248 NA
ATOM     36  C   UNL A   1      44.110  25.224  26.767  1.00  0.00     0.031 C 
ATOM     37  C   UNL A   1      39.911  26.502  29.202  1.00  0.00     0.029 A 
ATOM     38  N   UNL A   1      41.451  28.099  28.905  1.00  0.00    -0.354 N 
ATOM     39  C   UNL A   1      45.147  27.262  26.828  1.00  0.00     0.074 A 
ATOM     40  C   UNL A   1      45.211  25.874  26.423  1.00  0.00     0.031 C 
ATOM     41  C   UNL A   1      39.431  27.636  29.742  1.00  0.00     0.029 A 
ATOM     42  C   UNL A   1      40.426  28.697  29.593  1.00  0.00     0.049 A 
ATOM     43  H   UNL A   1      42.263  28.578  28.621  1.00  0.00     0.167 HD
ATOM     44  C   UNL A   1      46.106  28.180  26.561  1.00  0.00     0.037 A 
ATOM     45  C   UNL A   1      40.313  29.955  30.063  1.00  0.00     0.037 A 
ATOM     46  C   UNL A   1      46.040  29.562  26.960  1.00  0.00     0.049 A 
ATOM     47  C   UNL A   1      41.424  30.942  29.811  1.00  0.00     0.074 A 
ATOM     48  C   UNL A   1      46.953  30.574  26.721  1.00  0.00     0.029 A 
ATOM     49  N   UNL A   1      45.002  30.122  27.688  1.00  0.00    -0.354 N 
ATOM     50  N   UNL A   1      42.546  30.776  29.152  1.00  0.00    -0.248 NA
ATOM     51  C   UNL A   1      41.250  32.292  30.366  1.00  0.00     0.031 C 
ATOM     52  C   UNL A   1      46.489  31.737  27.345  1.00  0.00     0.029 A 
ATOM     53  C   UNL A   1      45.263  31.461  27.931  1.00  0.00     0.049 A 
ATOM     54  H   UNL A   1      44.197  29.640  27.988  1.00  0.00     0.167 HD
ATOM     55  C   UNL A   1      43.196  32.003  29.190  1.00  0.00     0.074 A 
ATOM     56  C   UNL A   1      42.339  32.907  29.927  1.00  0.00     0.031 C 
ATOM     57  C   UNL A   1      44.396  32.348  28.661  1.00  0.00     0.037 A 
BRANCH  44  58
ATOM     58  C   UNL A   1      47.322  27.713  25.819  1.00  0.00     0.064 A 
ATOM     59  C   UNL A   1      48.464  27.252  26.491  1.00  0.00     0.173 A 
ATOM     60  C   UNL A   1      47.334  27.696  24.416  1.00  0.00     0.173 A 
ATOM     61  F   UNL A   1      48.507  27.262  27.831  1.00  0.00    -0.203 F 
ATOM     62  C   UNL A   1      49.581  26.813  25.785  1.00  0.00     0.198 A 
ATOM     63  C   UNL A   1      48.442  27.232  23.714  1.00  0.00     0.198 A 
ATOM     64  F   UNL A   1      46.266  28.124  23.726  1.00  0.00    -0.203 F 
ATOM     65  F   UNL A   1      50.677  26.415  26.447  1.00  0.00    -0.200 F 
ATOM     66  C   UNL A   1      49.567  26.797  24.398  1.00  0.00     0.200 A 
ATOM     67  F   UNL A   1      48.423  27.208  22.373  1.00  0.00    -0.200 F 
ATOM     68  F   UNL A   1      50.641  26.368  23.721  1.00  0.00    -0.200 F 
ENDBRANCH  44  58
BRANCH  45  69
ATOM     69  C   UNL A   1      39.105  30.354  30.831  1.00  0.00     0.064 A 
ATOM     70  C   UNL A   1      37.995  30.922  30.192  1.00  0.00     0.173 A 
ATOM     71  C   UNL A   1      39.045  30.189  32.222  1.00  0.00     0.173 A 
ATOM     72  F   UNL A   1      38.016  31.123  28.866  1.00  0.00    -0.203 F 
ATOM     73  C   UNL A   1      36.876  31.324  30.918  1.00  0.00     0.198 A 
ATOM     74  C   UNL A   1      37.915  30.567  32.943  1.00  0.00     0.198 A 
ATOM     75  F   UNL A   1      40.083  29.653  32.881  1.00  0.00    -0.203 F 
ATOM     76  F   UNL A   1      35.844  31.904  30.288  1.00  0.00    -0.200 F 
ATOM     77  C   UNL A   1      36.834  31.141  32.292  1.00  0.00     0.200 A 
ATOM     78  F   UNL A   1      37.875  30.379  34.269  1.00  0.00    -0.200 F 
ATOM     79  F   UNL A   1      35.756  31.524  32.989  1.00  0.00    -0.200 F 
ENDBRANCH  45  69
BRANCH  57  80
ATOM     80  C   UNL A   1      44.840  33.773  28.831  1.00  0.00     0.064 A 
ATOM     81  C   UNL A   1      45.651  34.166  29.906  1.00  0.00     0.173 A 
ATOM     82  C   UNL A   1      44.486  34.745  27.883  1.00  0.00     0.173 A 
ATOM     83  F   UNL A   1      46.005  33.276  30.846  1.00  0.00    -0.203 F 
ATOM     84  C   UNL A   1      46.073  35.486  30.037  1.00  0.00     0.198 A 
ATOM     85  C   UNL A   1      44.932  36.058  28.003  1.00  0.00     0.198 A 
ATOM     86  F   UNL A   1      43.717  34.417  26.834  1.00  0.00    -0.203 F 
ATOM     87  F   UNL A   1      46.811  35.850  31.094  1.00  0.00    -0.200 F 
ATOM     88  C   UNL A   1      45.718  36.429  29.083  1.00  0.00     0.200 A 
ATOM     89  F   UNL A   1      44.599  36.964  27.073  1.00  0.00    -0.200 F 
ATOM     90  F   UNL A   1      46.131  37.698  29.207  1.00  0.00    -0.200 F 
ENDBRANCH  57  80
ENDBRANCH  31  32
ENDBRANCH  24  26
ENDBRANCH  23  24
ENDBRANCH  22  23
ENDBRANCH  21  22
ENDBRANCH   1  21
TORSDOF 16
ENDMDL
MODEL 2
REMARK VINA RESULT:     -11.1      4.350      7.037
REMARK SMILES C[C@H](c1ccncc1)N1C[C@H](C(=O)OCCOCCOC(=O)c2ccc(-c3c4nc(c(-c5c(F)c(F)c(F)c(F)c5F)c5ccc([nH]5)c(-c5c(F)c(F)c(F)c(F)c5F)c5nc(c(-c6c(F)c(F)c(F)c(F)c6F)c6ccc3[nH]6)C=C5)C=C4)cc2)CC1=O
REMARK SMILES IDX 17 1 16 2 15 3 14 4 12 5 13 6 11 7 9 8 10 9 87 10 86 11
REMARK SMILES IDX 88 12 2 13 1 14 3 15 4 16 8 17 5 18 7 19 6 20 18 21 19 22
REMARK SMILES IDX 20 23 21 24 22 25 23 26 24 27 85 28 25 29 84 30 26 31 27 32
REMARK SMILES IDX 28 33 78 34 29 35 83 36 77 37 79 38 30 39 82 40 76 41 75 42
REMARK SMILES IDX 31 44 63 45 43 46 62 47 44 48 47 49 61 50 80 51 45 52 46 53
REMARK SMILES IDX 60 55 81 56 48 57 32 58 33 59 41 60 34 61 35 62 39 63 42 64
REMARK SMILES IDX 36 65 37 66 40 67 38 68 64 69 65 70 73 71 66 72 67 73 71 74
REMARK SMILES IDX 74 75 68 76 69 77 72 78 70 79 49 80 50 81 58 82 51 83 52 84
REMARK SMILES IDX 56 85 59 86 53 87 54 88 57 89 55 90
REMARK H PARENT 79 43 47 54
REMARK Flexibility Score: inf
ROOT
ATOM      1  O   UNL A   1      33.244  28.202  24.957  1.00  0.00    -0.374 OA
ENDROOT
BRANCH   1   2
ATOM      2  C   UNL A   1      33.628  27.153  25.842  1.00  0.00     0.202 C 
BRANCH   2   3
ATOM      3  C   UNL A   1      33.702  25.740  25.254  1.00  0.00     0.261 C 
BRANCH   3   4
ATOM      4  O   UNL A   1      32.825  25.564  24.125  1.00  0.00    -0.463 OA
BRANCH   4   5
ATOM      5  C   UNL A   1      33.269  24.701  23.173  1.00  0.00     0.311 C 
ATOM      6  O   UNL A   1      34.362  24.788  22.624  1.00  0.00    -0.252 OA
BRANCH   5   7
ATOM      7  C   UNL A   1      32.237  23.655  22.782  1.00  0.00     0.128 C 
ATOM      8  N   UNL A   1      32.546  21.800  24.183  1.00  0.00    -0.335 N 
ATOM      9  C   UNL A   1      32.880  22.275  22.859  1.00  0.00     0.136 C 
ATOM     10  C   UNL A   1      31.471  22.490  24.716  1.00  0.00     0.224 C 
ATOM     11  C   UNL A   1      31.024  23.516  23.701  1.00  0.00     0.117 C 
ATOM     12  O   UNL A   1      30.964  22.321  25.812  1.00  0.00    -0.275 OA
BRANCH   8  13
ATOM     13  C   UNL A   1      33.321  20.802  24.931  1.00  0.00     0.112 C 
ATOM     14  C   UNL A   1      34.716  21.340  25.272  1.00  0.00     0.036 C 
BRANCH  13  15
ATOM     15  C   UNL A   1      33.365  19.444  24.252  1.00  0.00    -0.023 A 
ATOM     16  C   UNL A   1      34.370  18.503  24.509  1.00  0.00     0.026 A 
ATOM     17  C   UNL A   1      32.377  19.100  23.322  1.00  0.00     0.026 A 
ATOM     18  C   UNL A   1      34.366  17.304  23.813  1.00  0.00     0.111 A 
ATOM     19  C   UNL A   1      32.445  17.865  22.695  1.00  0.00     0.111 A 
ATOM     20  N   UNL A   1      33.425  16.964  22.911  1.00  0.00    -0.265 NA
ENDBRANCH  13  15
ENDBRANCH   8  13
ENDBRANCH   5   7
ENDBRANCH   4   5
ENDBRANCH   3   4
ENDBRANCH   2   3
ENDBRANCH   1   2
BRANCH   1  21
ATOM     21  C   UNL A   1      31.955  28.786  25.152  1.00  0.00     0.202 C 
BRANCH  21  22
ATOM     22  C   UNL A   1      31.911  30.227  25.677  1.00  0.00     0.261 C 
BRANCH  22  23
ATOM     23  O   UNL A   1      32.447  30.343  27.009  1.00  0.00    -0.460 OA
BRANCH  23  24
ATOM     24  C   UNL A   1      33.156  31.471  27.236  1.00  0.00     0.338 C 
ATOM     25  O   UNL A   1      32.747  32.628  27.215  1.00  0.00    -0.246 OA
BRANCH  24  26
ATOM     26  C   UNL A   1      34.511  31.142  27.714  1.00  0.00     0.060 A 
ATOM     27  C   UNL A   1      34.774  29.800  28.021  1.00  0.00     0.016 A 
ATOM     28  C   UNL A   1      35.475  32.125  27.943  1.00  0.00     0.016 A 
ATOM     29  C   UNL A   1      35.981  29.443  28.615  1.00  0.00     0.010 A 
ATOM     30  C   UNL A   1      36.684  31.766  28.550  1.00  0.00     0.010 A 
ATOM     31  C   UNL A   1      36.925  30.431  28.925  1.00  0.00    -0.014 A 
BRANCH  31  32
ATOM     32  C   UNL A   1      38.079  30.079  29.787  1.00  0.00     0.031 A 
ATOM     33  C   UNL A   1      39.122  29.135  29.255  1.00  0.00     0.074 A 
ATOM     34  C   UNL A   1      38.227  30.633  31.003  1.00  0.00     0.049 A 
ATOM     35  N   UNL A   1      40.213  28.692  29.826  1.00  0.00    -0.248 NA
ATOM     36  C   UNL A   1      38.906  28.623  27.892  1.00  0.00     0.031 C 
ATOM     37  C   UNL A   1      37.309  31.593  31.610  1.00  0.00     0.029 A 
ATOM     38  N   UNL A   1      39.212  30.463  31.945  1.00  0.00    -0.354 N 
ATOM     39  C   UNL A   1      40.811  27.850  28.897  1.00  0.00     0.074 A 
ATOM     40  C   UNL A   1      39.948  27.820  27.735  1.00  0.00     0.031 C 
ATOM     41  C   UNL A   1      37.769  31.923  32.830  1.00  0.00     0.029 A 
ATOM     42  C   UNL A   1      38.999  31.178  33.096  1.00  0.00     0.049 A 
ATOM     43  H   UNL A   1      39.996  29.884  31.807  1.00  0.00     0.167 HD
ATOM     44  C   UNL A   1      41.978  27.172  28.998  1.00  0.00     0.037 A 
ATOM     45  C   UNL A   1      39.709  31.214  34.241  1.00  0.00     0.037 A 
ATOM     46  C   UNL A   1      42.838  27.206  30.152  1.00  0.00     0.049 A 
ATOM     47  C   UNL A   1      40.972  30.398  34.354  1.00  0.00     0.074 A 
ATOM     48  C   UNL A   1      44.051  26.567  30.342  1.00  0.00     0.029 A 
ATOM     49  N   UNL A   1      42.570  27.913  31.313  1.00  0.00    -0.354 N 
ATOM     50  N   UNL A   1      41.542  29.625  33.461  1.00  0.00    -0.248 NA
ATOM     51  C   UNL A   1      41.691  30.464  35.634  1.00  0.00     0.031 C 
ATOM     52  C   UNL A   1      44.495  26.852  31.639  1.00  0.00     0.029 A 
ATOM     53  C   UNL A   1      43.582  27.707  32.237  1.00  0.00     0.049 A 
ATOM     54  H   UNL A   1      41.778  28.479  31.461  1.00  0.00     0.167 HD
ATOM     55  C   UNL A   1      42.696  29.136  34.059  1.00  0.00     0.074 A 
ATOM     56  C   UNL A   1      42.752  29.708  35.388  1.00  0.00     0.031 C 
ATOM     57  C   UNL A   1      43.626  28.289  33.553  1.00  0.00     0.037 A 
BRANCH  44  58
ATOM     58  C   UNL A   1      42.384  26.317  27.835  1.00  0.00     0.064 A 
ATOM     59  C   UNL A   1      41.867  25.026  27.653  1.00  0.00     0.173 A 
ATOM     60  C   UNL A   1      43.276  26.809  26.871  1.00  0.00     0.173 A 
ATOM     61  F   UNL A   1      41.021  24.506  28.555  1.00  0.00    -0.203 F 
ATOM     62  C   UNL A   1      42.248  24.250  26.562  1.00  0.00     0.198 A 
ATOM     63  C   UNL A   1      43.635  26.041  25.767  1.00  0.00     0.198 A 
ATOM     64  F   UNL A   1      43.797  28.039  26.996  1.00  0.00    -0.203 F 
ATOM     65  F   UNL A   1      41.773  23.003  26.430  1.00  0.00    -0.200 F 
ATOM     66  C   UNL A   1      43.125  24.759  25.616  1.00  0.00     0.200 A 
ATOM     67  F   UNL A   1      44.475  26.539  24.849  1.00  0.00    -0.200 F 
ATOM     68  F   UNL A   1      43.485  24.014  24.563  1.00  0.00    -0.200 F 
ENDBRANCH  44  58
BRANCH  45  69
ATOM     69  C   UNL A   1      39.239  32.044  35.380  1.00  0.00     0.064 A 
ATOM     70  C   UNL A   1      39.590  33.397  35.484  1.00  0.00     0.173 A 
ATOM     71  C   UNL A   1      38.442  31.495  36.395  1.00  0.00     0.173 A 
ATOM     72  F   UNL A   1      40.372  33.960  34.551  1.00  0.00    -0.203 F 
ATOM     73  C   UNL A   1      39.174  34.166  36.569  1.00  0.00     0.198 A 
ATOM     74  C   UNL A   1      38.005  32.272  37.465  1.00  0.00     0.198 A 
ATOM     75  F   UNL A   1      38.082  30.205  36.343  1.00  0.00    -0.203 F 
ATOM     76  F   UNL A   1      39.559  35.446  36.667  1.00  0.00    -0.200 F 
ATOM     77  C   UNL A   1      38.377  33.604  37.556  1.00  0.00     0.200 A 
ATOM     78  F   UNL A   1      37.227  31.729  38.411  1.00  0.00    -0.200 F 
ATOM     79  F   UNL A   1      37.974  34.346  38.597  1.00  0.00    -0.200 F 
ENDBRANCH  45  69
BRANCH  57  80
ATOM     80  C   UNL A   1      44.800  27.954  34.425  1.00  0.00     0.064 A 
ATOM     81  C   UNL A   1      44.794  26.833  35.269  1.00  0.00     0.173 A 
ATOM     82  C   UNL A   1      45.964  28.738  34.382  1.00  0.00     0.173 A 
ATOM     83  F   UNL A   1      43.700  26.061  35.356  1.00  0.00    -0.203 F 
ATOM     84  C   UNL A   1      45.900  26.524  36.055  1.00  0.00     0.198 A 
ATOM     85  C   UNL A   1      47.078  28.409  35.149  1.00  0.00     0.198 A 
ATOM     86  F   UNL A   1      46.022  29.816  33.586  1.00  0.00    -0.203 F 
ATOM     87  F   UNL A   1      45.856  25.474  36.886  1.00  0.00    -0.200 F 
ATOM     88  C   UNL A   1      47.043  27.308  35.989  1.00  0.00     0.200 A 
ATOM     89  F   UNL A   1      48.186  29.161  35.074  1.00  0.00    -0.200 F 
ATOM     90  F   UNL A   1      48.110  27.003  36.741  1.00  0.00    -0.200 F 
ENDBRANCH  57  80
ENDBRANCH  31  32
ENDBRANCH  24  26
ENDBRANCH  23  24
ENDBRANCH  22  23
ENDBRANCH  21  22
ENDBRANCH   1  21
TORSDOF 16
ENDMDL
MODEL 3
REMARK VINA RESULT:     -11.0      4.275      7.245
REMARK SMILES C[C@H](c1ccncc1)N1C[C@H](C(=O)OCCOCCOC(=O)c2ccc(-c3c4nc(c(-c5c(F)c(F)c(F)c(F)c5F)c5ccc([nH]5)c(-c5c(F)c(F)c(F)c(F)c5F)c5nc(c(-c6c(F)c(F)c(F)c(F)c6F)c6ccc3[nH]6)C=C5)C=C4)cc2)CC1=O
REMARK SMILES IDX 17 1 16 2 15 3 14 4 12 5 13 6 11 7 9 8 10 9 87 10 86 11
REMARK SMILES IDX 88 12 2 13 1 14 3 15 4 16 8 17 5 18 7 19 6 20 18 21 19 22
REMARK SMILES IDX 20 23 21 24 22 25 23 26 24 27 85 28 25 29 84 30 26 31 27 32
REMARK SMILES IDX 28 33 78 34 29 35 83 36 77 37 79 38 30 39 82 40 76 41 75 42
REMARK SMILES IDX 31 44 63 45 43 46 62 47 44 48 47 49 61 50 80 51 45 52 46 53
REMARK SMILES IDX 60 55 81 56 48 57 32 58 33 59 41 60 34 61 35 62 39 63 42 64
REMARK SMILES IDX 36 65 37 66 40 67 38 68 64 69 65 70 73 71 66 72 67 73 71 74
REMARK SMILES IDX 74 75 68 76 69 77 72 78 70 79 49 80 50 81 58 82 51 83 52 84
REMARK SMILES IDX 56 85 59 86 53 87 54 88 57 89 55 90
REMARK H PARENT 79 43 47 54
REMARK Flexibility Score: inf
ROOT
ATOM      1  O   UNL A   1      32.100  28.050  26.171  1.00  0.00    -0.374 OA
ENDROOT
BRANCH   1   2
ATOM      2  C   UNL A   1      33.263  27.247  26.359  1.00  0.00     0.202 C 
BRANCH   2   3
ATOM      3  C   UNL A   1      33.239  25.837  25.760  1.00  0.00     0.261 C 
BRANCH   3   4
ATOM      4  O   UNL A   1      34.180  25.680  24.679  1.00  0.00    -0.463 OA
BRANCH   4   5
ATOM      5  C   UNL A   1      34.975  24.580  24.756  1.00  0.00     0.311 C 
ATOM      6  O   UNL A   1      35.707  24.327  25.707  1.00  0.00    -0.252 OA
BRANCH   5   7
ATOM      7  C   UNL A   1      34.938  23.723  23.500  1.00  0.00     0.128 C 
ATOM      8  N   UNL A   1      33.573  21.870  23.950  1.00  0.00    -0.335 N 
ATOM      9  C   UNL A   1      34.966  22.254  23.905  1.00  0.00     0.136 C 
ATOM     10  C   UNL A   1      32.780  22.747  23.232  1.00  0.00     0.224 C 
ATOM     11  C   UNL A   1      33.673  23.816  22.648  1.00  0.00     0.117 C 
ATOM     12  O   UNL A   1      31.569  22.691  23.089  1.00  0.00    -0.275 OA
BRANCH   8  13
ATOM     13  C   UNL A   1      33.038  20.766  24.757  1.00  0.00     0.112 C 
ATOM     14  C   UNL A   1      33.603  20.809  26.182  1.00  0.00     0.036 C 
BRANCH  13  15
ATOM     15  C   UNL A   1      33.203  19.407  24.100  1.00  0.00    -0.023 A 
ATOM     16  C   UNL A   1      32.362  18.956  23.074  1.00  0.00     0.026 A 
ATOM     17  C   UNL A   1      34.224  18.549  24.526  1.00  0.00     0.026 A 
ATOM     18  C   UNL A   1      32.549  17.683  22.558  1.00  0.00     0.111 A 
ATOM     19  C   UNL A   1      34.346  17.302  23.931  1.00  0.00     0.111 A 
ATOM     20  N   UNL A   1      33.523  16.845  22.964  1.00  0.00    -0.265 NA
ENDBRANCH  13  15
ENDBRANCH   8  13
ENDBRANCH   5   7
ENDBRANCH   4   5
ENDBRANCH   3   4
ENDBRANCH   2   3
ENDBRANCH   1   2
BRANCH   1  21
ATOM     21  C   UNL A   1      31.747  28.948  27.223  1.00  0.00     0.202 C 
BRANCH  21  22
ATOM     22  C   UNL A   1      31.761  30.447  26.898  1.00  0.00     0.261 C 
BRANCH  22  23
ATOM     23  O   UNL A   1      33.062  30.907  26.484  1.00  0.00    -0.460 OA
BRANCH  23  24
ATOM     24  C   UNL A   1      33.594  31.875  27.264  1.00  0.00     0.338 C 
ATOM     25  O   UNL A   1      33.046  32.896  27.665  1.00  0.00    -0.246 OA
BRANCH  24  26
ATOM     26  C   UNL A   1      34.921  31.467  27.759  1.00  0.00     0.060 A 
ATOM     27  C   UNL A   1      35.111  30.107  28.041  1.00  0.00     0.016 A 
ATOM     28  C   UNL A   1      35.928  32.395  28.029  1.00  0.00     0.016 A 
ATOM     29  C   UNL A   1      36.286  29.677  28.650  1.00  0.00     0.010 A 
ATOM     30  C   UNL A   1      37.106  31.962  28.650  1.00  0.00     0.010 A 
ATOM     31  C   UNL A   1      37.272  30.609  28.999  1.00  0.00    -0.014 A 
BRANCH  31  32
ATOM     32  C   UNL A   1      38.390  30.181  29.875  1.00  0.00     0.031 A 
ATOM     33  C   UNL A   1      39.403  29.209  29.336  1.00  0.00     0.074 A 
ATOM     34  C   UNL A   1      38.533  30.690  31.111  1.00  0.00     0.049 A 
ATOM     35  N   UNL A   1      40.461  28.701  29.917  1.00  0.00    -0.248 NA
ATOM     36  C   UNL A   1      39.196  28.749  27.953  1.00  0.00     0.031 C 
ATOM     37  C   UNL A   1      37.643  31.670  31.728  1.00  0.00     0.029 A 
ATOM     38  N   UNL A   1      39.488  30.449  32.068  1.00  0.00    -0.354 N 
ATOM     39  C   UNL A   1      41.043  27.863  28.974  1.00  0.00     0.074 A 
ATOM     40  C   UNL A   1      40.206  27.907  27.794  1.00  0.00     0.031 C 
ATOM     41  C   UNL A   1      38.089  31.942  32.967  1.00  0.00     0.029 A 
ATOM     42  C   UNL A   1      39.279  31.137  33.236  1.00  0.00     0.049 A 
ATOM     43  H   UNL A   1      40.249  29.840  31.928  1.00  0.00     0.167 HD
ATOM     44  C   UNL A   1      42.177  27.132  29.079  1.00  0.00     0.037 A 
ATOM     45  C   UNL A   1      39.964  31.106  34.396  1.00  0.00     0.037 A 
ATOM     46  C   UNL A   1      43.011  27.093  30.252  1.00  0.00     0.049 A 
ATOM     47  C   UNL A   1      41.187  30.233  34.511  1.00  0.00     0.074 A 
ATOM     48  C   UNL A   1      44.191  26.396  30.448  1.00  0.00     0.029 A 
ATOM     49  N   UNL A   1      42.747  27.775  31.428  1.00  0.00    -0.354 N 
ATOM     50  N   UNL A   1      41.744  29.464  33.607  1.00  0.00    -0.248 NA
ATOM     51  C   UNL A   1      41.879  30.228  35.808  1.00  0.00     0.031 C 
ATOM     52  C   UNL A   1      44.616  26.621  31.763  1.00  0.00     0.029 A 
ATOM     53  C   UNL A   1      43.728  27.497  32.367  1.00  0.00     0.049 A 
ATOM     54  H   UNL A   1      41.976  28.370  31.577  1.00  0.00     0.167 HD
ATOM     55  C   UNL A   1      42.862  28.907  34.214  1.00  0.00     0.074 A 
ATOM     56  C   UNL A   1      42.911  29.435  35.561  1.00  0.00     0.031 C 
ATOM     57  C   UNL A   1      43.766  28.036  33.701  1.00  0.00     0.037 A 
BRANCH  44  58
ATOM     58  C   UNL A   1      42.573  26.297  27.898  1.00  0.00     0.064 A 
ATOM     59  C   UNL A   1      43.469  26.768  26.928  1.00  0.00     0.173 A 
ATOM     60  C   UNL A   1      42.074  24.993  27.753  1.00  0.00     0.173 A 
ATOM     61  F   UNL A   1      43.963  28.013  27.014  1.00  0.00    -0.203 F 
ATOM     62  C   UNL A   1      43.832  25.975  25.843  1.00  0.00     0.198 A 
ATOM     63  C   UNL A   1      42.459  24.193  26.682  1.00  0.00     0.198 A 
ATOM     64  F   UNL A   1      41.216  24.494  28.656  1.00  0.00    -0.203 F 
ATOM     65  F   UNL A   1      44.658  26.460  24.906  1.00  0.00    -0.200 F 
ATOM     66  C   UNL A   1      43.333  24.686  25.724  1.00  0.00     0.200 A 
ATOM     67  F   UNL A   1      41.984  22.944  26.575  1.00  0.00    -0.200 F 
ATOM     68  F   UNL A   1      43.689  23.921  24.684  1.00  0.00    -0.200 F 
ENDBRANCH  44  58
BRANCH  45  69
ATOM     69  C   UNL A   1      39.504  31.921  35.551  1.00  0.00     0.064 A 
ATOM     70  C   UNL A   1      38.565  31.420  36.463  1.00  0.00     0.173 A 
ATOM     71  C   UNL A   1      39.982  33.224  35.753  1.00  0.00     0.173 A 
ATOM     72  F   UNL A   1      38.059  30.190  36.296  1.00  0.00    -0.203 F 
ATOM     73  C   UNL A   1      38.111  32.198  37.527  1.00  0.00     0.198 A 
ATOM     74  C   UNL A   1      39.548  33.990  36.832  1.00  0.00     0.198 A 
ATOM     75  F   UNL A   1      40.879  33.750  34.907  1.00  0.00    -0.203 F 
ATOM     76  F   UNL A   1      37.182  31.711  38.361  1.00  0.00    -0.200 F 
ATOM     77  C   UNL A   1      38.608  33.480  37.714  1.00  0.00     0.200 A 
ATOM     78  F   UNL A   1      40.037  35.224  37.016  1.00  0.00    -0.200 F 
ATOM     79  F   UNL A   1      38.174  34.225  38.740  1.00  0.00    -0.200 F 
ENDBRANCH  45  69
BRANCH  57  80
ATOM     80  C   UNL A   1      44.905  27.623  34.588  1.00  0.00     0.064 A 
ATOM     81  C   UNL A   1      46.043  28.428  34.745  1.00  0.00     0.173 A 
ATOM     82  C   UNL A   1      44.835  26.431  35.325  1.00  0.00     0.173 A 
ATOM     83  F   UNL A   1      46.163  29.570  34.051  1.00  0.00    -0.203 F 
ATOM     84  C   UNL A   1      47.081  28.041  35.588  1.00  0.00     0.198 A 
ATOM     85  C   UNL A   1      45.862  26.061  36.189  1.00  0.00     0.198 A 
ATOM     86  F   UNL A   1      43.764  25.630  35.216  1.00  0.00    -0.203 F 
ATOM     87  F   UNL A   1      48.179  28.803  35.689  1.00  0.00    -0.200 F 
ATOM     88  C   UNL A   1      46.987  26.862  36.314  1.00  0.00     0.200 A 
ATOM     89  F   UNL A   1      45.764  24.929  36.899  1.00  0.00    -0.200 F 
ATOM     90  F   UNL A   1      47.984  26.496  37.132  1.00  0.00    -0.200 F 
ENDBRANCH  57  80
ENDBRANCH  31  32
ENDBRANCH  24  26
ENDBRANCH  23  24
ENDBRANCH  22  23
ENDBRANCH  21  22
ENDBRANCH   1  21
TORSDOF 16
ENDMDL
